# generated using pymatgen
data_Cs2HgCl4
_symmetry_space_group_name_H-M   'P 1'
_cell_length_a   7.87991500
_cell_length_b   10.04855700
_cell_length_c   13.88992200
_cell_angle_alpha   90.00000000
_cell_angle_beta   90.00000000
_cell_angle_gamma   90.00000000
_symmetry_Int_Tables_number   1
_chemical_formula_structural   Cs2HgCl4
_chemical_formula_sum   'Cs8 Hg4 Cl16'
_cell_volume   1099.82867903
_cell_formula_units_Z   4
loop_
 _symmetry_equiv_pos_site_id
 _symmetry_equiv_pos_as_xyz
  1  'x, y, z'
loop_
 _atom_site_type_symbol
 _atom_site_label
 _atom_site_symmetry_multiplicity
 _atom_site_fract_x
 _atom_site_fract_y
 _atom_site_fract_z
 _atom_site_occupancy
  Cs  Cs0  1  0.25000000  0.61846100  0.40897500  1
  Cs  Cs1  1  0.25000000  0.11846100  0.09102500  1
  Cs  Cs2  1  0.75000000  0.38153900  0.59102500  1
  Cs  Cs3  1  0.75000000  0.88153900  0.90897500  1
  Cs  Cs4  1  0.25000000  0.98623400  0.67731800  1
  Cs  Cs5  1  0.25000000  0.48623400  0.82268200  1
  Cs  Cs6  1  0.75000000  0.01376600  0.32268200  1
  Cs  Cs7  1  0.75000000  0.51376600  0.17731800  1
  Hg  Hg8  1  0.25000000  0.21528800  0.42322300  1
  Hg  Hg9  1  0.25000000  0.71528800  0.07677700  1
  Hg  Hg10  1  0.75000000  0.78471200  0.57677700  1
  Hg  Hg11  1  0.75000000  0.28471200  0.92322300  1
  Cl  Cl12  1  0.25000000  0.96702800  0.41700900  1
  Cl  Cl13  1  0.25000000  0.46702800  0.08299100  1
  Cl  Cl14  1  0.75000000  0.03297200  0.58299100  1
  Cl  Cl15  1  0.75000000  0.53297200  0.91700900  1
  Cl  Cl16  1  0.25000000  0.32595100  0.58885600  1
  Cl  Cl17  1  0.25000000  0.82595100  0.91114400  1
  Cl  Cl18  1  0.75000000  0.67404900  0.41114400  1
  Cl  Cl19  1  0.75000000  0.17404900  0.08885600  1
  Cl  Cl20  1  0.99162600  0.31711800  0.34205000  1
  Cl  Cl21  1  0.50837400  0.81711800  0.15795000  1
  Cl  Cl22  1  0.49162600  0.68288200  0.65795000  1
  Cl  Cl23  1  0.00837400  0.18288200  0.84205000  1
  Cl  Cl24  1  0.00837400  0.68288200  0.65795000  1
  Cl  Cl25  1  0.49162600  0.18288200  0.84205000  1
  Cl  Cl26  1  0.50837400  0.31711800  0.34205000  1
  Cl  Cl27  1  0.99162600  0.81711800  0.15795000  1
