# generated using pymatgen
data_La3CoW(SO2)3
_symmetry_space_group_name_H-M   'P 1'
_cell_length_a   9.44330746
_cell_length_b   9.44330746
_cell_length_c   5.57883400
_cell_angle_alpha   90.00000000
_cell_angle_beta   90.00000000
_cell_angle_gamma   119.99999622
_symmetry_Int_Tables_number   1
_chemical_formula_structural   La3CoW(SO2)3
_chemical_formula_sum   'La6 Co2 W2 S6 O12'
_cell_volume   430.84627954
_cell_formula_units_Z   2
loop_
 _symmetry_equiv_pos_site_id
 _symmetry_equiv_pos_as_xyz
  1  'x, y, z'
loop_
 _atom_site_type_symbol
 _atom_site_label
 _atom_site_symmetry_multiplicity
 _atom_site_fract_x
 _atom_site_fract_y
 _atom_site_fract_z
 _atom_site_occupancy
  La  La0  1  0.09015100  0.68537800  0.25000000  1
  La  La1  1  0.59522700  0.90984900  0.25000000  1
  La  La2  1  0.31462200  0.40477300  0.25000000  1
  La  La3  1  0.90984900  0.31462200  0.75000000  1
  La  La4  1  0.40477300  0.09015100  0.75000000  1
  La  La5  1  0.68537800  0.59522700  0.75000000  1
  Co  Co6  1  0.00000000  0.00000000  0.00000000  1
  Co  Co7  1  0.00000000  0.00000000  0.50000000  1
  W  W8  1  0.33333300  0.66666700  0.75000000  1
  W  W9  1  0.66666700  0.33333300  0.25000000  1
  S  S10  1  0.16744000  0.21210000  0.75000000  1
  S  S11  1  0.04466000  0.83256000  0.75000000  1
  S  S12  1  0.78790000  0.95534000  0.75000000  1
  S  S13  1  0.83256000  0.78790000  0.25000000  1
  S  S14  1  0.95534000  0.16744000  0.25000000  1
  S  S15  1  0.21210000  0.04466000  0.25000000  1
  O  O16  1  0.16055400  0.52446600  0.97710500  1
  O  O17  1  0.36391300  0.83944600  0.97710500  1
  O  O18  1  0.47553400  0.63608700  0.97710500  1
  O  O19  1  0.83944600  0.47553400  0.47710500  1
  O  O20  1  0.63608700  0.16055400  0.47710500  1
  O  O21  1  0.52446600  0.36391300  0.47710500  1
  O  O22  1  0.83944600  0.47553400  0.02289500  1
  O  O23  1  0.63608700  0.16055400  0.02289500  1
  O  O24  1  0.52446600  0.36391300  0.02289500  1
  O  O25  1  0.16055400  0.52446600  0.52289500  1
  O  O26  1  0.36391300  0.83944600  0.52289500  1
  O  O27  1  0.47553400  0.63608700  0.52289500  1
