# generated using pymatgen
data_Cu2H4CO5
_symmetry_space_group_name_H-M   'P 1'
_cell_length_a   5.75874566
_cell_length_b   6.13186700
_cell_length_c   7.03092855
_cell_angle_alpha   90.00000000
_cell_angle_beta   110.63855024
_cell_angle_gamma   90.00000000
_symmetry_Int_Tables_number   1
_chemical_formula_structural   Cu2H4CO5
_chemical_formula_sum   'Cu4 H8 C2 O10'
_cell_volume   232.34152517
_cell_formula_units_Z   2
loop_
 _symmetry_equiv_pos_site_id
 _symmetry_equiv_pos_as_xyz
  1  'x, y, z'
loop_
 _atom_site_type_symbol
 _atom_site_label
 _atom_site_symmetry_multiplicity
 _atom_site_fract_x
 _atom_site_fract_y
 _atom_site_fract_z
 _atom_site_occupancy
  Cu  Cu0  1  0.00028500  0.03053600  0.00006100  1
  Cu  Cu1  1  0.99971500  0.53053600  0.99993900  1
  Cu  Cu2  1  0.49659700  0.78480000  0.99718000  1
  Cu  Cu3  1  0.50340300  0.28480000  0.00282000  1
  H  H4  1  0.42375900  0.77609900  0.58110300  1
  H  H5  1  0.57624100  0.27609900  0.41889700  1
  H  H6  1  0.87995100  0.77590900  0.71319300  1
  H  H7  1  0.12004900  0.27590900  0.28680700  1
  H  H8  1  0.16266600  0.06415200  0.73371000  1
  H  H9  1  0.83733400  0.56415200  0.26629000  1
  H  H10  1  0.80231800  0.04270600  0.26741100  1
  H  H11  1  0.19768200  0.54270600  0.73258900  1
  C  C12  1  0.25870300  0.73099000  0.44687600  1
  C  C13  1  0.74129700  0.23099000  0.55312400  1
  O  O14  1  0.26011300  0.78520300  0.27474600  1
  O  O15  1  0.73988700  0.28520300  0.72525400  1
  O  O16  1  0.84193000  0.77985600  0.83802200  1
  O  O17  1  0.15807000  0.27985600  0.16197800  1
  O  O18  1  0.08599800  0.62612100  0.48357300  1
  O  O19  1  0.91400200  0.12612100  0.51642700  1
  O  O20  1  0.26714000  0.03899700  0.88111300  1
  O  O21  1  0.73286000  0.53899700  0.11888700  1
  O  O22  1  0.72937300  0.03211300  0.11442600  1
  O  O23  1  0.27062700  0.53211300  0.88557400  1
