# generated using pymatgen
data_U2GeO10
_symmetry_space_group_name_H-M   'P 1'
_cell_length_a   11.41899789
_cell_length_b   10.71009818
_cell_length_c   7.13904869
_cell_angle_alpha   76.66167324
_cell_angle_beta   65.86978005
_cell_angle_gamma   37.46854671
_symmetry_Int_Tables_number   1
_chemical_formula_structural   U2GeO10
_chemical_formula_sum   'U4 Ge2 O20'
_cell_volume   477.75221232
_cell_formula_units_Z   2
loop_
 _symmetry_equiv_pos_site_id
 _symmetry_equiv_pos_as_xyz
  1  'x, y, z'
loop_
 _atom_site_type_symbol
 _atom_site_label
 _atom_site_symmetry_multiplicity
 _atom_site_fract_x
 _atom_site_fract_y
 _atom_site_fract_z
 _atom_site_occupancy
  U  U0  1  0.08088600  0.08088600  0.41911400  1
  U  U1  1  0.41911400  0.41911400  0.08088600  1
  U  U2  1  0.16911400  0.16911400  0.83088600  1
  U  U3  1  0.83088600  0.83088600  0.16911400  1
  Ge  Ge4  1  0.25000000  0.25000000  0.25000000  1
  Ge  Ge5  1  0.00000000  0.00000000  0.00000000  1
  O  O6  1  0.96526900  0.96526900  0.53473100  1
  O  O7  1  0.53473100  0.53473100  0.96526900  1
  O  O8  1  0.28473100  0.28473100  0.71526900  1
  O  O9  1  0.71526900  0.71526900  0.28473100  1
  O  O10  1  0.34632800  0.81539100  0.32092900  1
  O  O11  1  0.32092900  0.51735200  0.34632800  1
  O  O12  1  0.90367200  0.43460900  0.92907100  1
  O  O13  1  0.92907100  0.73264800  0.90367200  1
  O  O14  1  0.51735200  0.32092900  0.81539100  1
  O  O15  1  0.81539100  0.34632800  0.51735200  1
  O  O16  1  0.73264800  0.92907100  0.43460900  1
  O  O17  1  0.43460900  0.90367200  0.73264800  1
  O  O18  1  0.07896900  0.03874200  0.74918300  1
  O  O19  1  0.74918300  0.13310600  0.07896900  1
  O  O20  1  0.17103100  0.21125800  0.50081700  1
  O  O21  1  0.50081700  0.11689400  0.17103100  1
  O  O22  1  0.13310600  0.74918300  0.03874200  1
  O  O23  1  0.03874200  0.07896900  0.13310600  1
  O  O24  1  0.11689400  0.50081700  0.21125800  1
  O  O25  1  0.21125800  0.17103100  0.11689400  1
