# generated using pymatgen
data_Ba3P2(SeO)4
_symmetry_space_group_name_H-M   'P 1'
_cell_length_a   6.90975100
_cell_length_b   7.23937673
_cell_length_c   12.90648448
_cell_angle_alpha   82.29427072
_cell_angle_beta   78.80151893
_cell_angle_gamma   80.92352292
_symmetry_Int_Tables_number   1
_chemical_formula_structural   Ba3P2(SeO)4
_chemical_formula_sum   'Ba6 P4 Se8 O8'
_cell_volume   621.81318802
_cell_formula_units_Z   2
loop_
 _symmetry_equiv_pos_site_id
 _symmetry_equiv_pos_as_xyz
  1  'x, y, z'
loop_
 _atom_site_type_symbol
 _atom_site_label
 _atom_site_symmetry_multiplicity
 _atom_site_fract_x
 _atom_site_fract_y
 _atom_site_fract_z
 _atom_site_occupancy
  Ba  Ba0  1  0.64826100  0.68236400  0.37507300  1
  Ba  Ba1  1  0.35173900  0.31763600  0.62492700  1
  Ba  Ba2  1  0.95448600  0.81593900  0.64910800  1
  Ba  Ba3  1  0.04551400  0.18406100  0.35089200  1
  Ba  Ba4  1  0.29411200  0.73224300  0.11116800  1
  Ba  Ba5  1  0.70588800  0.26775700  0.88883200  1
  P  P6  1  0.14072000  0.69483200  0.38528400  1
  P  P7  1  0.85928000  0.30516800  0.61471600  1
  P  P8  1  0.39141700  0.80366100  0.80937000  1
  P  P9  1  0.60858300  0.19633900  0.19063000  1
  Se  Se10  1  0.65799600  0.76413200  0.88781100  1
  Se  Se11  1  0.34200400  0.23586800  0.11218900  1
  Se  Se12  1  0.54147400  0.16446100  0.36709300  1
  Se  Se13  1  0.45852600  0.83553900  0.63290700  1
  Se  Se14  1  0.75912800  0.45002900  0.13880600  1
  Se  Se15  1  0.24087200  0.54997100  0.86119400  1
  Se  Se16  1  0.79492200  0.94076100  0.13144900  1
  Se  Se17  1  0.20507800  0.05923900  0.86855100  1
  O  O18  1  0.06943100  0.56036100  0.32002400  1
  O  O19  1  0.93056900  0.43963900  0.67997600  1
  O  O20  1  0.95480900  0.82582100  0.43734300  1
  O  O21  1  0.04519100  0.17417900  0.56265700  1
  O  O22  1  0.25685700  0.59296500  0.47253400  1
  O  O23  1  0.74314300  0.40703500  0.52746600  1
  O  O24  1  0.28070700  0.82044000  0.30526900  1
  O  O25  1  0.71929300  0.17956000  0.69473100  1
