# generated using pymatgen
data_CoH4(NO4)2
_symmetry_space_group_name_H-M   'P 1'
_cell_length_a   5.84645519
_cell_length_b   6.47343986
_cell_length_c   8.69588600
_cell_angle_alpha   90.00000000
_cell_angle_beta   90.00000000
_cell_angle_gamma   95.87599364
_symmetry_Int_Tables_number   1
_chemical_formula_structural   CoH4(NO4)2
_chemical_formula_sum   'Co2 H8 N4 O16'
_cell_volume   327.38116852
_cell_formula_units_Z   2
loop_
 _symmetry_equiv_pos_site_id
 _symmetry_equiv_pos_as_xyz
  1  'x, y, z'
loop_
 _atom_site_type_symbol
 _atom_site_label
 _atom_site_symmetry_multiplicity
 _atom_site_fract_x
 _atom_site_fract_y
 _atom_site_fract_z
 _atom_site_occupancy
  Co  Co0  1  0.50000000  0.50000000  0.50000000  1
  Co  Co1  1  0.00000000  0.00000000  0.00000000  1
  H  H2  1  0.38888300  0.79764300  0.99214200  1
  H  H3  1  0.88888300  0.29764300  0.50785800  1
  H  H4  1  0.61111700  0.20235700  0.00785800  1
  H  H5  1  0.11111700  0.70235700  0.49214200  1
  H  H6  1  0.20378600  0.69330500  0.10695300  1
  H  H7  1  0.70378600  0.19330500  0.39304700  1
  H  H8  1  0.79621400  0.30669500  0.89304700  1
  H  H9  1  0.29621400  0.80669500  0.60695300  1
  N  N10  1  0.25869000  0.32474100  0.79233700  1
  N  N11  1  0.75869000  0.82474100  0.70766300  1
  N  N12  1  0.74131000  0.67525900  0.20766300  1
  N  N13  1  0.24131000  0.17525900  0.29233700  1
  O  O14  1  0.44984100  0.39098300  0.73047700  1
  O  O15  1  0.94984100  0.89098300  0.76952300  1
  O  O16  1  0.55015900  0.60901700  0.26952300  1
  O  O17  1  0.05015900  0.10901700  0.23047700  1
  O  O18  1  0.07084300  0.36418400  0.73879300  1
  O  O19  1  0.57084300  0.86418400  0.76120700  1
  O  O20  1  0.92915700  0.63581600  0.26120700  1
  O  O21  1  0.42915700  0.13581600  0.23879300  1
  O  O22  1  0.27069200  0.21527700  0.91514200  1
  O  O23  1  0.77069200  0.71527700  0.58485800  1
  O  O24  1  0.72930800  0.78472300  0.08485800  1
  O  O25  1  0.22930800  0.28472300  0.41514200  1
  O  O26  1  0.22316800  0.76763100  0.00885700  1
  O  O27  1  0.72316800  0.26763100  0.49114300  1
  O  O28  1  0.77683200  0.23236900  0.99114300  1
  O  O29  1  0.27683200  0.73236900  0.50885700  1
