# generated using pymatgen
data_Nb2CoS4
_symmetry_space_group_name_H-M   'P 1'
_cell_length_a   3.35086100
_cell_length_b   11.72617800
_cell_length_c   12.99205500
_cell_angle_alpha   90.00000000
_cell_angle_beta   90.00000000
_cell_angle_gamma   90.00000000
_symmetry_Int_Tables_number   1
_chemical_formula_structural   Nb2CoS4
_chemical_formula_sum   'Nb8 Co4 S16'
_cell_volume   510.49412177
_cell_formula_units_Z   4
loop_
 _symmetry_equiv_pos_site_id
 _symmetry_equiv_pos_as_xyz
  1  'x, y, z'
loop_
 _atom_site_type_symbol
 _atom_site_label
 _atom_site_symmetry_multiplicity
 _atom_site_fract_x
 _atom_site_fract_y
 _atom_site_fract_z
 _atom_site_occupancy
  Nb  Nb0  1  0.75000000  0.43432200  0.92636800  1
  Nb  Nb1  1  0.75000000  0.93432200  0.57363200  1
  Nb  Nb2  1  0.25000000  0.56567800  0.07363200  1
  Nb  Nb3  1  0.25000000  0.06567800  0.42636800  1
  Nb  Nb4  1  0.75000000  0.45768100  0.40145000  1
  Nb  Nb5  1  0.75000000  0.95768100  0.09855000  1
  Nb  Nb6  1  0.25000000  0.54231900  0.59855000  1
  Nb  Nb7  1  0.25000000  0.04231900  0.90145000  1
  Co  Co8  1  0.75000000  0.33314500  0.23550100  1
  Co  Co9  1  0.75000000  0.83314500  0.26449900  1
  Co  Co10  1  0.25000000  0.66685500  0.76449900  1
  Co  Co11  1  0.25000000  0.16685500  0.73550100  1
  S  S12  1  0.75000000  0.14247800  0.54936700  1
  S  S13  1  0.75000000  0.64247800  0.95063300  1
  S  S14  1  0.25000000  0.85752200  0.45063300  1
  S  S15  1  0.25000000  0.35752200  0.04936700  1
  S  S16  1  0.75000000  0.20941200  0.84454100  1
  S  S17  1  0.75000000  0.70941200  0.65545900  1
  S  S18  1  0.25000000  0.79058800  0.15545900  1
  S  S19  1  0.25000000  0.29058800  0.34454100  1
  S  S20  1  0.75000000  0.39170000  0.57783700  1
  S  S21  1  0.75000000  0.89170000  0.92216300  1
  S  S22  1  0.25000000  0.60830000  0.42216300  1
  S  S23  1  0.25000000  0.10830000  0.07783700  1
  S  S24  1  0.75000000  0.52515500  0.21419200  1
  S  S25  1  0.75000000  0.02515500  0.28580800  1
  S  S26  1  0.25000000  0.47484500  0.78580800  1
  S  S27  1  0.25000000  0.97484500  0.71419200  1
