# generated using pymatgen
data_Na2GeS3O7
_symmetry_space_group_name_H-M   'P 1'
_cell_length_a   6.78487382
_cell_length_b   8.48508074
_cell_length_c   8.98142447
_cell_angle_alpha   105.57086517
_cell_angle_beta   97.92660986
_cell_angle_gamma   101.74362031
_symmetry_Int_Tables_number   1
_chemical_formula_structural   Na2GeS3O7
_chemical_formula_sum   'Na4 Ge2 S6 O14'
_cell_volume   477.38988954
_cell_formula_units_Z   2
loop_
 _symmetry_equiv_pos_site_id
 _symmetry_equiv_pos_as_xyz
  1  'x, y, z'
loop_
 _atom_site_type_symbol
 _atom_site_label
 _atom_site_symmetry_multiplicity
 _atom_site_fract_x
 _atom_site_fract_y
 _atom_site_fract_z
 _atom_site_occupancy
  Na  Na0  1  0.79914200  0.34406200  0.48148900  1
  Na  Na1  1  0.20085800  0.65593800  0.51851100  1
  Na  Na2  1  0.54095200  0.43985000  0.18068700  1
  Na  Na3  1  0.45904800  0.56015000  0.81931300  1
  Ge  Ge4  1  0.84750900  0.95108900  0.84207500  1
  Ge  Ge5  1  0.15249100  0.04891100  0.15792500  1
  S  S6  1  0.86060900  0.37823500  0.89308000  1
  S  S7  1  0.13939100  0.62176500  0.10692000  1
  S  S8  1  0.72826800  0.90405300  0.51693900  1
  S  S9  1  0.27173200  0.09594700  0.48306100  1
  S  S10  1  0.77342000  0.02256200  0.11961600  1
  S  S11  1  0.22658000  0.97743800  0.88038400  1
  O  O12  1  0.73757000  0.74686800  0.82036200  1
  O  O13  1  0.26243000  0.25313200  0.17963800  1
  O  O14  1  0.86961500  0.75819200  0.47494700  1
  O  O15  1  0.13038500  0.24180800  0.52505300  1
  O  O16  1  0.66471400  0.40689300  0.93867100  1
  O  O17  1  0.33528600  0.59310700  0.06132900  1
  O  O18  1  0.75715100  0.59154400  0.43098600  1
  O  O19  1  0.24284900  0.40845600  0.56901400  1
  O  O20  1  0.74260500  0.19047900  0.21692600  1
  O  O21  1  0.25739500  0.80952100  0.78307400  1
  O  O22  1  0.89869900  0.41998600  0.74914500  1
  O  O23  1  0.10130100  0.58001400  0.25085500  1
  O  O24  1  0.49116900  0.18898500  0.53200200  1
  O  O25  1  0.50883100  0.81101500  0.46799800  1
