# generated using pymatgen
data_In6Se7
_symmetry_space_group_name_H-M   'P 1'
_cell_length_a   4.12450100
_cell_length_b   9.57839369
_cell_length_c   18.24209317
_cell_angle_alpha   101.28284836
_cell_angle_beta   90.00000000
_cell_angle_gamma   90.00000000
_symmetry_Int_Tables_number   1
_chemical_formula_structural   In6Se7
_chemical_formula_sum   'In12 Se14'
_cell_volume   706.74558601
_cell_formula_units_Z   2
loop_
 _symmetry_equiv_pos_site_id
 _symmetry_equiv_pos_as_xyz
  1  'x, y, z'
loop_
 _atom_site_type_symbol
 _atom_site_label
 _atom_site_symmetry_multiplicity
 _atom_site_fract_x
 _atom_site_fract_y
 _atom_site_fract_z
 _atom_site_occupancy
  In  In0  1  0.75000000  0.96930900  0.27488300  1
  In  In1  1  0.25000000  0.03069100  0.72511700  1
  In  In2  1  0.75000000  0.56580600  0.12255800  1
  In  In3  1  0.25000000  0.43419400  0.87744200  1
  In  In4  1  0.75000000  0.31992700  0.18733200  1
  In  In5  1  0.25000000  0.68007300  0.81266800  1
  In  In6  1  0.75000000  0.52016900  0.60275200  1
  In  In7  1  0.25000000  0.47983100  0.39724800  1
  In  In8  1  0.75000000  0.82618000  0.46809100  1
  In  In9  1  0.25000000  0.17382000  0.53190900  1
  In  In10  1  0.75000000  0.14588300  0.95373800  1
  In  In11  1  0.25000000  0.85411700  0.04626200  1
  Se  Se12  1  0.75000000  0.66486000  0.99401500  1
  Se  Se13  1  0.25000000  0.33514000  0.00598500  1
  Se  Se14  1  0.75000000  0.61801100  0.34500400  1
  Se  Se15  1  0.25000000  0.38198900  0.65499600  1
  Se  Se16  1  0.75000000  0.74166700  0.72778500  1
  Se  Se17  1  0.25000000  0.25833300  0.27221500  1
  Se  Se18  1  0.75000000  0.05681900  0.09119100  1
  Se  Se19  1  0.25000000  0.94318100  0.90880900  1
  Se  Se20  1  0.75000000  0.25337700  0.82278900  1
  Se  Se21  1  0.25000000  0.74662300  0.17721100  1
  Se  Se22  1  0.75000000  0.03367000  0.59171500  1
  Se  Se23  1  0.25000000  0.96633000  0.40828500  1
  Se  Se24  1  0.75000000  0.33083700  0.46767400  1
  Se  Se25  1  0.25000000  0.66916300  0.53232600  1
