# generated using pymatgen
data_Mg(IO5)2
_symmetry_space_group_name_H-M   'P 1'
_cell_length_a   5.57519300
_cell_length_b   8.62209730
_cell_length_c   8.06729557
_cell_angle_alpha   88.70330190
_cell_angle_beta   90.00000000
_cell_angle_gamma   90.00000000
_symmetry_Int_Tables_number   1
_chemical_formula_structural   Mg(IO5)2
_chemical_formula_sum   'Mg2 I4 O20'
_cell_volume   387.69443199
_cell_formula_units_Z   2
loop_
 _symmetry_equiv_pos_site_id
 _symmetry_equiv_pos_as_xyz
  1  'x, y, z'
loop_
 _atom_site_type_symbol
 _atom_site_label
 _atom_site_symmetry_multiplicity
 _atom_site_fract_x
 _atom_site_fract_y
 _atom_site_fract_z
 _atom_site_occupancy
  Mg  Mg0  1  0.50000000  0.50000000  0.50000000  1
  Mg  Mg1  1  0.00000000  0.50000000  0.00000000  1
  I  I2  1  0.30977800  0.16196600  0.94469300  1
  I  I3  1  0.80977800  0.83803400  0.55530700  1
  I  I4  1  0.69022200  0.83803400  0.05530700  1
  I  I5  1  0.19022200  0.16196600  0.44469300  1
  O  O6  1  0.40001400  0.86284800  0.94893200  1
  O  O7  1  0.90001400  0.13715200  0.55106800  1
  O  O8  1  0.59998600  0.13715200  0.05106800  1
  O  O9  1  0.09998600  0.86284800  0.44893200  1
  O  O10  1  0.41027400  0.15682300  0.72489000  1
  O  O11  1  0.91027400  0.84317700  0.77511000  1
  O  O12  1  0.58972600  0.84317700  0.27511000  1
  O  O13  1  0.08972600  0.15682300  0.22489000  1
  O  O14  1  0.30420200  0.37458900  0.96320700  1
  O  O15  1  0.80420200  0.62541100  0.53679300  1
  O  O16  1  0.69579800  0.62541100  0.03679300  1
  O  O17  1  0.19579800  0.37458900  0.46320700  1
  O  O18  1  0.13187400  0.70798700  0.09689100  1
  O  O19  1  0.63187400  0.29201300  0.40310900  1
  O  O20  1  0.86812600  0.29201300  0.90310900  1
  O  O21  1  0.36812600  0.70798700  0.59689100  1
  O  O22  1  0.11963900  0.62192400  0.76790500  1
  O  O23  1  0.61963900  0.37807600  0.73209500  1
  O  O24  1  0.88036100  0.37807600  0.23209500  1
  O  O25  1  0.38036100  0.62192400  0.26790500  1
