# generated using pymatgen
data_Lu2PbSe4
_symmetry_space_group_name_H-M   'P 1'
_cell_length_a   4.06911200
_cell_length_b   12.61166900
_cell_length_c   14.74890200
_cell_angle_alpha   90.00000000
_cell_angle_beta   90.00000000
_cell_angle_gamma   90.00000000
_symmetry_Int_Tables_number   1
_chemical_formula_structural   Lu2PbSe4
_chemical_formula_sum   'Lu8 Pb4 Se16'
_cell_volume   756.88848412
_cell_formula_units_Z   4
loop_
 _symmetry_equiv_pos_site_id
 _symmetry_equiv_pos_as_xyz
  1  'x, y, z'
loop_
 _atom_site_type_symbol
 _atom_site_label
 _atom_site_symmetry_multiplicity
 _atom_site_fract_x
 _atom_site_fract_y
 _atom_site_fract_z
 _atom_site_occupancy
  Lu  Lu0  1  0.25000000  0.43977000  0.38764200  1
  Lu  Lu1  1  0.25000000  0.93977000  0.11235800  1
  Lu  Lu2  1  0.75000000  0.56023000  0.61235800  1
  Lu  Lu3  1  0.75000000  0.06023000  0.88764200  1
  Lu  Lu4  1  0.25000000  0.41673200  0.90310200  1
  Lu  Lu5  1  0.25000000  0.91673200  0.59689800  1
  Lu  Lu6  1  0.75000000  0.58326800  0.09689800  1
  Lu  Lu7  1  0.75000000  0.08326800  0.40310200  1
  Pb  Pb8  1  0.25000000  0.75948900  0.33308100  1
  Pb  Pb9  1  0.25000000  0.25948900  0.16691900  1
  Pb  Pb10  1  0.75000000  0.24051100  0.66691900  1
  Pb  Pb11  1  0.75000000  0.74051100  0.83308100  1
  Se  Se12  1  0.25000000  0.20545000  0.83205200  1
  Se  Se13  1  0.25000000  0.70545000  0.66794800  1
  Se  Se14  1  0.75000000  0.79455000  0.16794800  1
  Se  Se15  1  0.75000000  0.29455000  0.33205200  1
  Se  Se16  1  0.25000000  0.12659300  0.53083700  1
  Se  Se17  1  0.25000000  0.62659300  0.96916300  1
  Se  Se18  1  0.75000000  0.87340700  0.46916300  1
  Se  Se19  1  0.75000000  0.37340700  0.03083700  1
  Se  Se20  1  0.25000000  0.02920800  0.28508100  1
  Se  Se21  1  0.25000000  0.52920800  0.21491900  1
  Se  Se22  1  0.75000000  0.97079200  0.71491900  1
  Se  Se23  1  0.75000000  0.47079200  0.78508100  1
  Se  Se24  1  0.25000000  0.41069500  0.57555400  1
  Se  Se25  1  0.25000000  0.91069500  0.92444600  1
  Se  Se26  1  0.75000000  0.58930500  0.42444600  1
  Se  Se27  1  0.75000000  0.08930500  0.07555400  1
