# generated using pymatgen
data_NaFePO4
_symmetry_space_group_name_H-M   'P 1'
_cell_length_a   5.19399600
_cell_length_b   6.33604000
_cell_length_c   10.34509600
_cell_angle_alpha   90.00017904
_cell_angle_beta   89.99995025
_cell_angle_gamma   90.00030816
_symmetry_Int_Tables_number   1
_chemical_formula_structural   NaFePO4
_chemical_formula_sum   'Na4 Fe4 P4 O16'
_cell_volume   340.45055487
_cell_formula_units_Z   4
loop_
 _symmetry_equiv_pos_site_id
 _symmetry_equiv_pos_as_xyz
  1  'x, y, z'
loop_
 _atom_site_type_symbol
 _atom_site_label
 _atom_site_symmetry_multiplicity
 _atom_site_fract_x
 _atom_site_fract_y
 _atom_site_fract_z
 _atom_site_occupancy
  Na  Na0  1  0.50000300  0.00000400  0.49998800  1
  Na  Na1  1  0.99999600  0.49999600  0.99999000  1
  Na  Na2  1  0.50000700  0.49998900  0.49999000  1
  Na  Na3  1  0.99999800  0.00000400  0.99998900  1
  Fe  Fe4  1  0.50826800  0.25001900  0.83752000  1
  Fe  Fe5  1  0.99172400  0.24999300  0.33749500  1
  Fe  Fe6  1  0.49173800  0.75005300  0.16248800  1
  Fe  Fe7  1  0.00826000  0.74998000  0.66247400  1
  P  P8  1  0.98320700  0.74999900  0.31632600  1
  P  P9  1  0.51679200  0.74999800  0.81632700  1
  P  P10  1  0.01678900  0.24999700  0.68368300  1
  P  P11  1  0.48320800  0.25000200  0.18368500  1
  O  O12  1  0.89539800  0.74999500  0.17042500  1
  O  O13  1  0.60460600  0.74999900  0.67042600  1
  O  O14  1  0.10459600  0.24999900  0.82958600  1
  O  O15  1  0.39541300  0.24999600  0.32958800  1
  O  O16  1  0.28122500  0.75000000  0.33102600  1
  O  O17  1  0.21877500  0.74999800  0.83102300  1
  O  O18  1  0.71876800  0.25000200  0.66898600  1
  O  O19  1  0.78122900  0.24998900  0.16897900  1
  O  O20  1  0.87237300  0.94992800  0.38345700  1
  O  O21  1  0.62762900  0.55007000  0.88346000  1
  O  O22  1  0.12761300  0.44992100  0.61654100  1
  O  O23  1  0.37238200  0.05007500  0.11654200  1
  O  O24  1  0.12761500  0.05007800  0.61654300  1
  O  O25  1  0.37238900  0.44991600  0.11654500  1
  O  O26  1  0.87237000  0.55007400  0.38345900  1
  O  O27  1  0.62762800  0.94992400  0.88346100  1
