# generated using pymatgen
data_Zr(AsO5)2
_symmetry_space_group_name_H-M   'P 1'
_cell_length_a   5.58587387
_cell_length_b   6.95637400
_cell_length_c   12.46583581
_cell_angle_alpha   90.00000000
_cell_angle_beta   102.15476924
_cell_angle_gamma   90.00000000
_symmetry_Int_Tables_number   1
_chemical_formula_structural   Zr(AsO5)2
_chemical_formula_sum   'Zr2 As4 O20'
_cell_volume   473.53145322
_cell_formula_units_Z   2
loop_
 _symmetry_equiv_pos_site_id
 _symmetry_equiv_pos_as_xyz
  1  'x, y, z'
loop_
 _atom_site_type_symbol
 _atom_site_label
 _atom_site_symmetry_multiplicity
 _atom_site_fract_x
 _atom_site_fract_y
 _atom_site_fract_z
 _atom_site_occupancy
  Zr  Zr0  1  0.17937500  0.74776100  0.86255800  1
  Zr  Zr1  1  0.82062500  0.24776100  0.13744200  1
  As  As2  1  0.76313700  0.74294700  0.06147800  1
  As  As3  1  0.23686300  0.24294700  0.93852200  1
  As  As4  1  0.58766600  0.64024600  0.67515600  1
  As  As5  1  0.41233400  0.14024600  0.32484400  1
  O  O6  1  0.93587100  0.74351200  0.96407300  1
  O  O7  1  0.06412900  0.24351200  0.03592700  1
  O  O8  1  0.82742800  0.54582400  0.14317500  1
  O  O9  1  0.17257200  0.04582400  0.85682500  1
  O  O10  1  0.81571900  0.94375100  0.14126100  1
  O  O11  1  0.18428100  0.44375100  0.85873900  1
  O  O12  1  0.46260800  0.73942500  0.99605300  1
  O  O13  1  0.53739200  0.23942500  0.00394700  1
  O  O14  1  0.88752700  0.72335600  0.70960800  1
  O  O15  1  0.11247300  0.22335600  0.29039200  1
  O  O16  1  0.41910900  0.75574800  0.75269800  1
  O  O17  1  0.58089100  0.25574800  0.24730200  1
  O  O18  1  0.58835500  0.39013400  0.67164400  1
  O  O19  1  0.41164500  0.89013400  0.32835600  1
  O  O20  1  0.45289400  0.64786800  0.53620100  1
  O  O21  1  0.54710600  0.14786800  0.46379900  1
  O  O22  1  0.01069900  0.91986500  0.34133700  1
  O  O23  1  0.98930100  0.41986500  0.65866300  1
  O  O24  1  0.92812900  0.06286300  0.48362500  1
  O  O25  1  0.07187100  0.56286300  0.51637500  1
