# generated using pymatgen
data_NaAgS2O3
_symmetry_space_group_name_H-M   'P 1'
_cell_length_a   6.24131400
_cell_length_b   8.57266104
_cell_length_c   9.42077052
_cell_angle_alpha   105.97515045
_cell_angle_beta   90.00000000
_cell_angle_gamma   90.00000000
_symmetry_Int_Tables_number   1
_chemical_formula_structural   NaAgS2O3
_chemical_formula_sum   'Na4 Ag4 S8 O12'
_cell_volume   484.58917974
_cell_formula_units_Z   4
loop_
 _symmetry_equiv_pos_site_id
 _symmetry_equiv_pos_as_xyz
  1  'x, y, z'
loop_
 _atom_site_type_symbol
 _atom_site_label
 _atom_site_symmetry_multiplicity
 _atom_site_fract_x
 _atom_site_fract_y
 _atom_site_fract_z
 _atom_site_occupancy
  Na  Na0  1  0.13725200  0.17042500  0.93987600  1
  Na  Na1  1  0.63725200  0.32957500  0.06012400  1
  Na  Na2  1  0.86274800  0.82957500  0.06012400  1
  Na  Na3  1  0.36274800  0.67042500  0.93987600  1
  Ag  Ag4  1  0.51087700  0.78065000  0.44438000  1
  Ag  Ag5  1  0.01087700  0.71935000  0.55562000  1
  Ag  Ag6  1  0.48912300  0.21935000  0.55562000  1
  Ag  Ag7  1  0.98912300  0.28065000  0.44438000  1
  S  S8  1  0.28139200  0.54054400  0.39950300  1
  S  S9  1  0.78139200  0.95945600  0.60049700  1
  S  S10  1  0.71860800  0.45945600  0.60049700  1
  S  S11  1  0.21860800  0.04054400  0.39950300  1
  S  S12  1  0.12922900  0.50954000  0.19389000  1
  S  S13  1  0.62922900  0.99046000  0.80611000  1
  S  S14  1  0.87077100  0.49046000  0.80611000  1
  S  S15  1  0.37077100  0.00954000  0.19389000  1
  O  O16  1  0.30079100  0.46606000  0.08022600  1
  O  O17  1  0.80079100  0.03394000  0.91977400  1
  O  O18  1  0.69920900  0.53394000  0.91977400  1
  O  O19  1  0.19920900  0.96606000  0.08022600  1
  O  O20  1  0.98113600  0.36988600  0.17915200  1
  O  O21  1  0.48113600  0.13011400  0.82084800  1
  O  O22  1  0.01886400  0.63011400  0.82084800  1
  O  O23  1  0.51886400  0.86988600  0.17915200  1
  O  O24  1  0.01978400  0.66000900  0.19386300  1
  O  O25  1  0.51978400  0.83999100  0.80613700  1
  O  O26  1  0.98021600  0.33999100  0.80613700  1
  O  O27  1  0.48021600  0.16000900  0.19386300  1
