# generated using pymatgen
data_PdRuN5(Cl2O)2
_symmetry_space_group_name_H-M   'P 1'
_cell_length_a   8.00682500
_cell_length_b   7.71439600
_cell_length_c   10.10131924
_cell_angle_alpha   112.44837983
_cell_angle_beta   90.00000000
_cell_angle_gamma   90.00000000
_symmetry_Int_Tables_number   1
_chemical_formula_structural   PdRuN5(Cl2O)2
_chemical_formula_sum   'Pd2 Ru2 N10 Cl8 O4'
_cell_volume   576.65700550
_cell_formula_units_Z   2
loop_
 _symmetry_equiv_pos_site_id
 _symmetry_equiv_pos_as_xyz
  1  'x, y, z'
loop_
 _atom_site_type_symbol
 _atom_site_label
 _atom_site_symmetry_multiplicity
 _atom_site_fract_x
 _atom_site_fract_y
 _atom_site_fract_z
 _atom_site_occupancy
  Pd  Pd0  1  0.10485600  0.62460400  0.24920900  1
  Pd  Pd1  1  0.60485600  0.37539600  0.75079100  1
  Ru  Ru2  1  0.11541100  0.91030200  0.82060300  1
  Ru  Ru3  1  0.61541100  0.08969800  0.17939700  1
  N  N4  1  0.79075300  0.81209200  0.62418300  1
  N  N5  1  0.29075300  0.18790800  0.37581700  1
  N  N6  1  0.97408100  0.10482300  0.86592900  1
  N  N7  1  0.97408100  0.76110600  0.86592900  1
  N  N8  1  0.47408100  0.89517700  0.13407100  1
  N  N9  1  0.47408100  0.23889400  0.13407100  1
  N  N10  1  0.15807300  0.66368100  0.64911600  1
  N  N11  1  0.15807300  0.98543500  0.64911600  1
  N  N12  1  0.65807300  0.33631900  0.35088400  1
  N  N13  1  0.65807300  0.01456500  0.35088400  1
  Cl  Cl14  1  0.09220700  0.32784400  0.25099700  1
  Cl  Cl15  1  0.09220700  0.92315300  0.25099700  1
  Cl  Cl16  1  0.59220700  0.67215600  0.74900300  1
  Cl  Cl17  1  0.59220700  0.07684700  0.74900300  1
  Cl  Cl18  1  0.84571300  0.57391400  0.14782800  1
  Cl  Cl19  1  0.34571300  0.42608600  0.85217200  1
  Cl  Cl20  1  0.36397200  0.67284100  0.34568200  1
  Cl  Cl21  1  0.86397200  0.32715900  0.65431800  1
  O  O22  1  0.79298400  0.75138900  0.50277800  1
  O  O23  1  0.29298400  0.24861100  0.49722200  1
  O  O24  1  0.29298800  0.96393300  0.92786500  1
  O  O25  1  0.79298800  0.03606700  0.07213500  1
