# generated using pymatgen
data_H4Pd(NO4)2
_symmetry_space_group_name_H-M   'P 1'
_cell_length_a   6.42406400
_cell_length_b   5.35536500
_cell_length_c   10.98619180
_cell_angle_alpha   90.00000000
_cell_angle_beta   108.07334271
_cell_angle_gamma   90.00000000
_symmetry_Int_Tables_number   1
_chemical_formula_structural   H4Pd(NO4)2
_chemical_formula_sum   'H8 Pd2 N4 O16'
_cell_volume   359.31174360
_cell_formula_units_Z   2
loop_
 _symmetry_equiv_pos_site_id
 _symmetry_equiv_pos_as_xyz
  1  'x, y, z'
loop_
 _atom_site_type_symbol
 _atom_site_label
 _atom_site_symmetry_multiplicity
 _atom_site_fract_x
 _atom_site_fract_y
 _atom_site_fract_z
 _atom_site_occupancy
  H  H0  1  0.09605400  0.16780100  0.90674100  1
  H  H1  1  0.90394600  0.66780100  0.59325900  1
  H  H2  1  0.90394600  0.83219900  0.09325900  1
  H  H3  1  0.09605400  0.33219900  0.40674100  1
  H  H4  1  0.25848300  0.39540500  0.96135800  1
  H  H5  1  0.74151700  0.89540500  0.53864200  1
  H  H6  1  0.74151700  0.60459500  0.03864200  1
  H  H7  1  0.25848300  0.10459500  0.46135800  1
  Pd  Pd8  1  0.50000000  0.00000000  0.00000000  1
  Pd  Pd9  1  0.50000000  0.50000000  0.50000000  1
  N  N10  1  0.24467700  0.73359500  0.77620500  1
  N  N11  1  0.75532300  0.23359500  0.72379500  1
  N  N12  1  0.75532300  0.26640500  0.22379500  1
  N  N13  1  0.24467700  0.76640500  0.27620500  1
  O  O14  1  0.30900600  0.71629000  0.90520300  1
  O  O15  1  0.69099400  0.21629000  0.59479700  1
  O  O16  1  0.69099400  0.28371000  0.09479700  1
  O  O17  1  0.30900600  0.78371000  0.40520300  1
  O  O18  1  0.10967100  0.57101900  0.72023900  1
  O  O19  1  0.89032900  0.07101900  0.77976100  1
  O  O20  1  0.89032900  0.42898100  0.27976100  1
  O  O21  1  0.10967100  0.92898100  0.22023900  1
  O  O22  1  0.31801400  0.90045800  0.72479500  1
  O  O23  1  0.68198600  0.40045800  0.77520500  1
  O  O24  1  0.68198600  0.09954200  0.27520500  1
  O  O25  1  0.31801400  0.59954200  0.22479500  1
  O  O26  1  0.22777200  0.22005900  0.97878900  1
  O  O27  1  0.77222800  0.72005900  0.52121100  1
  O  O28  1  0.77222800  0.77994100  0.02121100  1
  O  O29  1  0.22777200  0.27994100  0.47878900  1
