# generated using pymatgen
data_U2SiO10
_symmetry_space_group_name_H-M   'P 1'
_cell_length_a   10.71697897
_cell_length_b   10.09557560
_cell_length_c   7.10507031
_cell_angle_alpha   74.82669615
_cell_angle_beta   65.39184565
_cell_angle_gamma   39.78145820
_symmetry_Int_Tables_number   1
_chemical_formula_structural   U2SiO10
_chemical_formula_sum   'U4 Si2 O20'
_cell_volume   444.95536734
_cell_formula_units_Z   2
loop_
 _symmetry_equiv_pos_site_id
 _symmetry_equiv_pos_as_xyz
  1  'x, y, z'
loop_
 _atom_site_type_symbol
 _atom_site_label
 _atom_site_symmetry_multiplicity
 _atom_site_fract_x
 _atom_site_fract_y
 _atom_site_fract_z
 _atom_site_occupancy
  U  U0  1  0.07418900  0.07418900  0.42581100  1
  U  U1  1  0.42581100  0.42581100  0.07418900  1
  U  U2  1  0.17581100  0.17581100  0.82418900  1
  U  U3  1  0.82418900  0.82418900  0.17581100  1
  Si  Si4  1  0.25000000  0.25000000  0.25000000  1
  Si  Si5  1  0.00000000  0.00000000  0.00000000  1
  O  O6  1  0.34787000  0.81721200  0.34368200  1
  O  O7  1  0.49123500  0.34368200  0.81721200  1
  O  O8  1  0.34368200  0.49123500  0.34787000  1
  O  O9  1  0.81721200  0.34787000  0.49123500  1
  O  O10  1  0.90213000  0.43278800  0.90631800  1
  O  O11  1  0.75876500  0.90631800  0.43278800  1
  O  O12  1  0.90631800  0.75876500  0.90213000  1
  O  O13  1  0.43278800  0.90213000  0.75876500  1
  O  O14  1  0.07817400  0.03969000  0.76214900  1
  O  O15  1  0.11998800  0.76214900  0.03969000  1
  O  O16  1  0.76214900  0.11998800  0.07817400  1
  O  O17  1  0.03969000  0.07817400  0.11998800  1
  O  O18  1  0.17182600  0.21031000  0.48785100  1
  O  O19  1  0.13001200  0.48785100  0.21031000  1
  O  O20  1  0.48785100  0.13001200  0.17182600  1
  O  O21  1  0.21031000  0.17182600  0.13001200  1
  O  O22  1  0.96923100  0.96923100  0.53076900  1
  O  O23  1  0.53076900  0.53076900  0.96923100  1
  O  O24  1  0.28076900  0.28076900  0.71923100  1
  O  O25  1  0.71923100  0.71923100  0.28076900  1
