# generated using pymatgen
data_Fe(MoS2)2
_symmetry_space_group_name_H-M   'P 1'
_cell_length_a   6.75447709
_cell_length_b   6.75447709
_cell_length_c   13.01073653
_cell_angle_alpha   68.00274643
_cell_angle_beta   68.00274643
_cell_angle_gamma   57.42658438
_symmetry_Int_Tables_number   1
_chemical_formula_structural   Fe(MoS2)2
_chemical_formula_sum   'Fe4 Mo8 S16'
_cell_volume   452.30475084
_cell_formula_units_Z   4
loop_
 _symmetry_equiv_pos_site_id
 _symmetry_equiv_pos_as_xyz
  1  'x, y, z'
loop_
 _atom_site_type_symbol
 _atom_site_label
 _atom_site_symmetry_multiplicity
 _atom_site_fract_x
 _atom_site_fract_y
 _atom_site_fract_z
 _atom_site_occupancy
  Fe  Fe0  1  0.53505900  0.28126300  0.45030800  1
  Fe  Fe1  1  0.28126300  0.53505900  0.95030800  1
  Fe  Fe2  1  0.80057800  0.03858000  0.94870700  1
  Fe  Fe3  1  0.03858000  0.80057800  0.44870700  1
  Mo  Mo4  1  0.86933100  0.65203600  0.70610400  1
  Mo  Mo5  1  0.65203600  0.86933100  0.20610400  1
  Mo  Mo6  1  0.46232300  0.67025000  0.69297100  1
  Mo  Mo7  1  0.67025000  0.46232300  0.19297100  1
  Mo  Mo8  1  0.93231800  0.21498700  0.68967000  1
  Mo  Mo9  1  0.21498700  0.93231800  0.18967000  1
  Mo  Mo10  1  0.40024400  0.10774600  0.70730500  1
  Mo  Mo11  1  0.10774600  0.40024400  0.20730500  1
  S  S12  1  0.82401700  0.57974600  0.55017900  1
  S  S13  1  0.57974600  0.82401700  0.05017900  1
  S  S14  1  0.50664500  0.74528000  0.84822600  1
  S  S15  1  0.74528000  0.50664500  0.34822600  1
  S  S16  1  0.03028000  0.78203100  0.80754000  1
  S  S17  1  0.78203100  0.03028000  0.30754000  1
  S  S18  1  0.30217100  0.53998000  0.59068600  1
  S  S19  1  0.53998000  0.30217100  0.09068600  1
  S  S20  1  0.53135500  0.26343900  0.81565400  1
  S  S21  1  0.26343900  0.53135500  0.31565400  1
  S  S22  1  0.80125400  0.05935000  0.58355300  1
  S  S23  1  0.05935000  0.80125400  0.08355300  1
  S  S24  1  0.31645700  0.05634000  0.55950700  1
  S  S25  1  0.05634000  0.31645700  0.05950700  1
  S  S26  1  0.01578100  0.26515800  0.83858900  1
  S  S27  1  0.26515800  0.01578100  0.33858900  1
