# generated using pymatgen
data_PrB4ClO8
_symmetry_space_group_name_H-M   'P 1'
_cell_length_a   6.56486052
_cell_length_b   6.56486052
_cell_length_c   9.74109150
_cell_angle_alpha   82.03164751
_cell_angle_beta   82.03164751
_cell_angle_gamma   119.63903166
_symmetry_Int_Tables_number   1
_chemical_formula_structural   PrB4ClO8
_chemical_formula_sum   'Pr2 B8 Cl2 O16'
_cell_volume   350.73946987
_cell_formula_units_Z   2
loop_
 _symmetry_equiv_pos_site_id
 _symmetry_equiv_pos_as_xyz
  1  'x, y, z'
loop_
 _atom_site_type_symbol
 _atom_site_label
 _atom_site_symmetry_multiplicity
 _atom_site_fract_x
 _atom_site_fract_y
 _atom_site_fract_z
 _atom_site_occupancy
  Pr  Pr0  1  0.79973000  0.21433900  0.50237400  1
  Pr  Pr1  1  0.21433900  0.79973000  0.00237400  1
  B  B2  1  0.86539900  0.76088600  0.57768400  1
  B  B3  1  0.76088600  0.86539900  0.07768400  1
  B  B4  1  0.63963300  0.14798600  0.15076700  1
  B  B5  1  0.14798600  0.63963300  0.65076700  1
  B  B6  1  0.24150700  0.05749000  0.62714500  1
  B  B7  1  0.05749000  0.24150700  0.12714500  1
  B  B8  1  0.50406200  0.43394700  0.06418900  1
  B  B9  1  0.43394700  0.50406200  0.56418900  1
  Cl  Cl10  1  0.04479200  0.68718500  0.30625200  1
  Cl  Cl11  1  0.68718500  0.04479200  0.80625200  1
  O  O12  1  0.33226000  0.89925800  0.59444600  1
  O  O13  1  0.89925800  0.33226000  0.09444600  1
  O  O14  1  0.44597100  0.30330900  0.55946700  1
  O  O15  1  0.30330900  0.44597100  0.05946700  1
  O  O16  1  0.02727400  0.99991300  0.56922400  1
  O  O17  1  0.99991300  0.02727400  0.06922400  1
  O  O18  1  0.72256500  0.64722600  0.04988700  1
  O  O19  1  0.64722600  0.72256500  0.54988700  1
  O  O20  1  0.48825400  0.21472400  0.08236400  1
  O  O21  1  0.21472400  0.48825400  0.58236400  1
  O  O22  1  0.91005800  0.58146700  0.61920100  1
  O  O23  1  0.58146700  0.91005800  0.11920100  1
  O  O24  1  0.18650100  0.00078000  0.78230600  1
  O  O25  1  0.00078000  0.18650100  0.28230600  1
  O  O26  1  0.60727800  0.14020500  0.30149400  1
  O  O27  1  0.14020500  0.60727800  0.80149400  1
