# generated using pymatgen
data_Ba(VN2)2
_symmetry_space_group_name_H-M   'P 1'
_cell_length_a   10.93607600
_cell_length_b   10.93607600
_cell_length_c   10.93607600
_cell_angle_alpha   90.00000000
_cell_angle_beta   90.00000000
_cell_angle_gamma   90.00000000
_symmetry_Int_Tables_number   1
_chemical_formula_structural   Ba(VN2)2
_chemical_formula_sum   'Ba12 V24 N48'
_cell_volume   1307.93017396
_cell_formula_units_Z   12
loop_
 _symmetry_equiv_pos_site_id
 _symmetry_equiv_pos_as_xyz
  1  'x, y, z'
loop_
 _atom_site_type_symbol
 _atom_site_label
 _atom_site_symmetry_multiplicity
 _atom_site_fract_x
 _atom_site_fract_y
 _atom_site_fract_z
 _atom_site_occupancy
  Ba  Ba0  1  0.50000000  0.50000000  0.00000000  1
  Ba  Ba1  1  0.50000000  0.00000000  0.50000000  1
  Ba  Ba2  1  0.00000000  0.50000000  0.50000000  1
  Ba  Ba3  1  0.00000000  0.00000000  0.00000000  1
  Ba  Ba4  1  0.12530000  0.87470000  0.37470000  1
  Ba  Ba5  1  0.87470000  0.37470000  0.12530000  1
  Ba  Ba6  1  0.37470000  0.12530000  0.87470000  1
  Ba  Ba7  1  0.62530000  0.62530000  0.62530000  1
  Ba  Ba8  1  0.87470000  0.12530000  0.62530000  1
  Ba  Ba9  1  0.12530000  0.62530000  0.87470000  1
  Ba  Ba10  1  0.62530000  0.87470000  0.12530000  1
  Ba  Ba11  1  0.37470000  0.37470000  0.37470000  1
  V  V12  1  0.38698500  0.69349900  0.34439900  1
  V  V13  1  0.61301500  0.19349900  0.15560100  1
  V  V14  1  0.11301500  0.30650100  0.84439900  1
  V  V15  1  0.88698500  0.80650100  0.65560100  1
  V  V16  1  0.34439900  0.38698500  0.69349900  1
  V  V17  1  0.15560100  0.61301500  0.19349900  1
  V  V18  1  0.84439900  0.11301500  0.30650100  1
  V  V19  1  0.65560100  0.88698500  0.80650100  1
  V  V20  1  0.69349900  0.34439900  0.38698500  1
  V  V21  1  0.19349900  0.15560100  0.61301500  1
  V  V22  1  0.30650100  0.84439900  0.11301500  1
  V  V23  1  0.80650100  0.65560100  0.88698500  1
  V  V24  1  0.61301500  0.30650100  0.65560100  1
  V  V25  1  0.38698500  0.80650100  0.84439900  1
  V  V26  1  0.88698500  0.69349900  0.15560100  1
  V  V27  1  0.11301500  0.19349900  0.34439900  1
  V  V28  1  0.65560100  0.61301500  0.30650100  1
  V  V29  1  0.84439900  0.38698500  0.80650100  1
  V  V30  1  0.15560100  0.88698500  0.69349900  1
  V  V31  1  0.34439900  0.11301500  0.19349900  1
  V  V32  1  0.30650100  0.65560100  0.61301500  1
  V  V33  1  0.80650100  0.84439900  0.38698500  1
  V  V34  1  0.69349900  0.15560100  0.88698500  1
  V  V35  1  0.19349900  0.34439900  0.11301500  1
  N  N36  1  0.37875900  0.83816200  0.26120400  1
  N  N37  1  0.62124100  0.33816200  0.23879600  1
  N  N38  1  0.12124100  0.16183800  0.76120400  1
  N  N39  1  0.87875900  0.66183800  0.73879600  1
  N  N40  1  0.26120400  0.37875900  0.83816200  1
  N  N41  1  0.23879600  0.62124100  0.33816200  1
  N  N42  1  0.76120400  0.12124100  0.16183800  1
  N  N43  1  0.73879600  0.87875900  0.66183800  1
  N  N44  1  0.83816200  0.26120400  0.37875900  1
  N  N45  1  0.33816200  0.23879600  0.62124100  1
  N  N46  1  0.16183800  0.76120400  0.12124100  1
  N  N47  1  0.66183800  0.73879600  0.87875900  1
  N  N48  1  0.62124100  0.16183800  0.73879600  1
  N  N49  1  0.37875900  0.66183800  0.76120400  1
  N  N50  1  0.87875900  0.83816200  0.23879600  1
  N  N51  1  0.12124100  0.33816200  0.26120400  1
  N  N52  1  0.73879600  0.62124100  0.16183800  1
  N  N53  1  0.76120400  0.37875900  0.66183800  1
  N  N54  1  0.23879600  0.87875900  0.83816200  1
  N  N55  1  0.26120400  0.12124100  0.33816200  1
  N  N56  1  0.16183800  0.73879600  0.62124100  1
  N  N57  1  0.66183800  0.76120400  0.37875900  1
  N  N58  1  0.83816200  0.23879600  0.87875900  1
  N  N59  1  0.33816200  0.26120400  0.12124100  1
  N  N60  1  0.41364800  0.72364000  0.50613700  1
  N  N61  1  0.58635200  0.22364000  0.99386300  1
  N  N62  1  0.08635200  0.27636000  0.00613700  1
  N  N63  1  0.91364800  0.77636000  0.49386300  1
  N  N64  1  0.50613700  0.41364800  0.72364000  1
  N  N65  1  0.99386300  0.58635200  0.22364000  1
  N  N66  1  0.00613700  0.08635200  0.27636000  1
  N  N67  1  0.49386300  0.91364800  0.77636000  1
  N  N68  1  0.72364000  0.50613700  0.41364800  1
  N  N69  1  0.22364000  0.99386300  0.58635200  1
  N  N70  1  0.27636000  0.00613700  0.08635200  1
  N  N71  1  0.77636000  0.49386300  0.91364800  1
  N  N72  1  0.58635200  0.27636000  0.49386300  1
  N  N73  1  0.41364800  0.77636000  0.00613700  1
  N  N74  1  0.91364800  0.72364000  0.99386300  1
  N  N75  1  0.08635200  0.22364000  0.50613700  1
  N  N76  1  0.49386300  0.58635200  0.27636000  1
  N  N77  1  0.00613700  0.41364800  0.77636000  1
  N  N78  1  0.99386300  0.91364800  0.72364000  1
  N  N79  1  0.50613700  0.08635200  0.22364000  1
  N  N80  1  0.27636000  0.49386300  0.58635200  1
  N  N81  1  0.77636000  0.00613700  0.41364800  1
  N  N82  1  0.72364000  0.99386300  0.91364800  1
  N  N83  1  0.22364000  0.50613700  0.08635200  1
