# generated using pymatgen
data_Rb2Mo(SO)2
_symmetry_space_group_name_H-M   'P 1'
_cell_length_a   8.72864600
_cell_length_b   6.90546100
_cell_length_c   14.16162340
_cell_angle_alpha   64.73502646
_cell_angle_beta   90.00000000
_cell_angle_gamma   90.00000000
_symmetry_Int_Tables_number   1
_chemical_formula_structural   Rb2Mo(SO)2
_chemical_formula_sum   'Rb8 Mo4 S8 O8'
_cell_volume   771.94451417
_cell_formula_units_Z   4
loop_
 _symmetry_equiv_pos_site_id
 _symmetry_equiv_pos_as_xyz
  1  'x, y, z'
loop_
 _atom_site_type_symbol
 _atom_site_label
 _atom_site_symmetry_multiplicity
 _atom_site_fract_x
 _atom_site_fract_y
 _atom_site_fract_z
 _atom_site_occupancy
  Rb  Rb0  1  0.68785500  0.66555000  0.05220500  1
  Rb  Rb1  1  0.18785500  0.33445000  0.44779500  1
  Rb  Rb2  1  0.31214500  0.33445000  0.94779500  1
  Rb  Rb3  1  0.81214500  0.66555000  0.55220500  1
  Rb  Rb4  1  0.48069500  0.84992100  0.29960700  1
  Rb  Rb5  1  0.98069500  0.15007900  0.20039300  1
  Rb  Rb6  1  0.51930500  0.15007900  0.70039300  1
  Rb  Rb7  1  0.01930500  0.84992100  0.79960700  1
  Mo  Mo8  1  0.21224800  0.72362400  0.08484200  1
  Mo  Mo9  1  0.71224800  0.27637600  0.41515800  1
  Mo  Mo10  1  0.78775200  0.27637600  0.91515800  1
  Mo  Mo11  1  0.28775200  0.72362400  0.58484200  1
  S  S12  1  0.15975200  0.85430100  0.43221700  1
  S  S13  1  0.65975200  0.14569900  0.06778300  1
  S  S14  1  0.84024800  0.14569900  0.56778300  1
  S  S15  1  0.34024800  0.85430100  0.93221700  1
  S  S16  1  0.33446800  0.42975900  0.19663800  1
  S  S17  1  0.83446800  0.57024100  0.30336200  1
  S  S18  1  0.66553200  0.57024100  0.80336200  1
  S  S19  1  0.16553200  0.42975900  0.69663800  1
  O  O20  1  0.02505800  0.65550400  0.06126600  1
  O  O21  1  0.52505800  0.34449600  0.43873400  1
  O  O22  1  0.97494200  0.34449600  0.93873400  1
  O  O23  1  0.47494200  0.65550400  0.56126600  1
  O  O24  1  0.21018500  0.92130200  0.13431600  1
  O  O25  1  0.71018500  0.07869800  0.36568400  1
  O  O26  1  0.78981500  0.07869800  0.86568400  1
  O  O27  1  0.28981500  0.92130200  0.63431600  1
