# generated using pymatgen
data_Sr(NO5)2
_symmetry_space_group_name_H-M   'P 1'
_cell_length_a   8.36675624
_cell_length_b   8.36675624
_cell_length_c   7.35168715
_cell_angle_alpha   71.28090894
_cell_angle_beta   71.28090894
_cell_angle_gamma   106.33193370
_symmetry_Int_Tables_number   1
_chemical_formula_structural   Sr(NO5)2
_chemical_formula_sum   'Sr2 N4 O20'
_cell_volume   417.14535868
_cell_formula_units_Z   2
loop_
 _symmetry_equiv_pos_site_id
 _symmetry_equiv_pos_as_xyz
  1  'x, y, z'
loop_
 _atom_site_type_symbol
 _atom_site_label
 _atom_site_symmetry_multiplicity
 _atom_site_fract_x
 _atom_site_fract_y
 _atom_site_fract_z
 _atom_site_occupancy
  Sr  Sr0  1  0.19628100  0.80371900  0.75000000  1
  Sr  Sr1  1  0.80371900  0.19628100  0.25000000  1
  N  N2  1  0.82123800  0.66017400  0.15532000  1
  N  N3  1  0.33982600  0.17876200  0.34468000  1
  N  N4  1  0.17876200  0.33982600  0.84468000  1
  N  N5  1  0.66017400  0.82123800  0.65532000  1
  O  O6  1  0.91095800  0.82521200  0.00213100  1
  O  O7  1  0.17478800  0.08904200  0.49786900  1
  O  O8  1  0.08904200  0.17478800  0.99786900  1
  O  O9  1  0.82521200  0.91095800  0.50213100  1
  O  O10  1  0.89996600  0.54647000  0.13792100  1
  O  O11  1  0.45353000  0.10003400  0.36207900  1
  O  O12  1  0.10003400  0.45353000  0.86207900  1
  O  O13  1  0.54647000  0.89996600  0.63792100  1
  O  O14  1  0.67232800  0.60760300  0.31049900  1
  O  O15  1  0.39239700  0.32767200  0.18950100  1
  O  O16  1  0.32767200  0.39239700  0.68950100  1
  O  O17  1  0.60760300  0.67232800  0.81049900  1
  O  O18  1  0.27502800  0.61953800  0.34582000  1
  O  O19  1  0.38046200  0.72497200  0.15418000  1
  O  O20  1  0.72497200  0.38046200  0.65418000  1
  O  O21  1  0.61953800  0.27502800  0.84582000  1
  O  O22  1  0.11465200  0.78130500  0.34710200  1
  O  O23  1  0.21869500  0.88534800  0.15289800  1
  O  O24  1  0.88534800  0.21869500  0.65289800  1
  O  O25  1  0.78130500  0.11465200  0.84710200  1
