# generated using pymatgen
data_K2CuP4H8O15
_symmetry_space_group_name_H-M   'P 1'
_cell_length_a   7.00229723
_cell_length_b   7.91143888
_cell_length_c   7.91143888
_cell_angle_alpha   103.23151141
_cell_angle_beta   98.58185648
_cell_angle_gamma   98.58185648
_symmetry_Int_Tables_number   1
_chemical_formula_structural   K2CuP4H8O15
_chemical_formula_sum   'K2 Cu1 P4 H8 O15'
_cell_volume   414.14156047
_cell_formula_units_Z   1
loop_
 _symmetry_equiv_pos_site_id
 _symmetry_equiv_pos_as_xyz
  1  'x, y, z'
loop_
 _atom_site_type_symbol
 _atom_site_label
 _atom_site_symmetry_multiplicity
 _atom_site_fract_x
 _atom_site_fract_y
 _atom_site_fract_z
 _atom_site_occupancy
  K  K0  1  0.90790900  0.28873700  0.28873700  1
  K  K1  1  0.09209100  0.71126300  0.71126300  1
  Cu  Cu2  1  0.50000000  0.50000000  0.50000000  1
  P  P3  1  0.33675500  0.25785000  0.72676500  1
  P  P4  1  0.33675500  0.72676500  0.25785000  1
  P  P5  1  0.66324500  0.74215000  0.27323500  1
  P  P6  1  0.66324500  0.27323500  0.74215000  1
  H  H7  1  0.24521600  0.00633300  0.51381300  1
  H  H8  1  0.24521600  0.51381300  0.00633300  1
  H  H9  1  0.75478400  0.99366700  0.48618700  1
  H  H10  1  0.75478400  0.48618700  0.99366700  1
  H  H11  1  0.60161000  0.74385000  0.87105900  1
  H  H12  1  0.60161000  0.87105900  0.74385000  1
  H  H13  1  0.39839000  0.25615000  0.12894100  1
  H  H14  1  0.39839000  0.12894100  0.25615000  1
  O  O15  1  0.28424200  0.31339500  0.90807200  1
  O  O16  1  0.28424200  0.90807200  0.31339500  1
  O  O17  1  0.71575800  0.68660500  0.09192800  1
  O  O18  1  0.71575800  0.09192800  0.68660500  1
  O  O19  1  0.28617900  0.37102100  0.59691400  1
  O  O20  1  0.28617900  0.59691400  0.37102100  1
  O  O21  1  0.71382100  0.62897900  0.40308600  1
  O  O22  1  0.71382100  0.40308600  0.62897900  1
  O  O23  1  0.22889000  0.05666000  0.63956200  1
  O  O24  1  0.22889000  0.63956200  0.05666000  1
  O  O25  1  0.77111000  0.94334000  0.36043800  1
  O  O26  1  0.77111000  0.36043800  0.94334000  1
  O  O27  1  0.53396000  0.75869400  0.75869400  1
  O  O28  1  0.46604000  0.24130600  0.24130600  1
  O  O29  1  0.00000000  0.00000000  0.00000000  1
