# generated using pymatgen
data_MnH12C8S2(NO)2
_symmetry_space_group_name_H-M   'P 1'
_cell_length_a   5.91400700
_cell_length_b   8.25220424
_cell_length_c   8.42603324
_cell_angle_alpha   108.43656195
_cell_angle_beta   98.33776838
_cell_angle_gamma   96.41840035
_symmetry_Int_Tables_number   1
_chemical_formula_structural   MnH12C8S2(NO)2
_chemical_formula_sum   'Mn1 H12 C8 S2 N2 O2'
_cell_volume   380.50826801
_cell_formula_units_Z   1
loop_
 _symmetry_equiv_pos_site_id
 _symmetry_equiv_pos_as_xyz
  1  'x, y, z'
loop_
 _atom_site_type_symbol
 _atom_site_label
 _atom_site_symmetry_multiplicity
 _atom_site_fract_x
 _atom_site_fract_y
 _atom_site_fract_z
 _atom_site_occupancy
  Mn  Mn0  1  0.50000000  0.50000000  0.50000000  1
  H  H1  1  0.89793400  0.26585700  0.60826700  1
  H  H2  1  0.10206600  0.73414300  0.39173300  1
  H  H3  1  0.94896000  0.29090100  0.82998800  1
  H  H4  1  0.05104000  0.70909900  0.17001200  1
  H  H5  1  0.87230800  0.08040300  0.67836700  1
  H  H6  1  0.12769200  0.91959700  0.32163300  1
  H  H7  1  0.47154200  0.99641800  0.76249300  1
  H  H8  1  0.52845800  0.00358200  0.23750700  1
  H  H9  1  0.61189800  0.16926300  0.94735200  1
  H  H10  1  0.38810200  0.83073700  0.05264800  1
  H  H11  1  0.32344400  0.17329300  0.84722200  1
  H  H12  1  0.67655600  0.82670700  0.15277800  1
  C  C13  1  0.91207700  0.34261200  0.30792600  1
  C  C14  1  0.08792300  0.65738800  0.69207400  1
  C  C15  1  0.59384700  0.22541600  0.71490300  1
  C  C16  1  0.40615300  0.77458400  0.28509700  1
  C  C17  1  0.84262000  0.21493400  0.70386700  1
  C  C18  1  0.15738000  0.78506600  0.29613300  1
  C  C19  1  0.49167200  0.13768700  0.82535300  1
  C  C20  1  0.50832800  0.86231300  0.17464700  1
  S  S21  1  0.85368000  0.71207100  0.75946500  1
  S  S22  1  0.14632000  0.28792900  0.24053500  1
  N  N23  1  0.73937000  0.37994300  0.35526600  1
  N  N24  1  0.26063000  0.62005700  0.64473400  1
  O  O25  1  0.47453300  0.30205900  0.63838000  1
  O  O26  1  0.52546700  0.69794100  0.36162000  1
