# generated using pymatgen
data_K2Cr3O9
_symmetry_space_group_name_H-M   'P 1'
_cell_length_a   6.00345100
_cell_length_b   8.22584406
_cell_length_c   9.46242053
_cell_angle_alpha   114.70555642
_cell_angle_beta   90.00000000
_cell_angle_gamma   90.00000000
_symmetry_Int_Tables_number   1
_chemical_formula_structural   K2Cr3O9
_chemical_formula_sum   'K4 Cr6 O18'
_cell_volume   424.51511091
_cell_formula_units_Z   2
loop_
 _symmetry_equiv_pos_site_id
 _symmetry_equiv_pos_as_xyz
  1  'x, y, z'
loop_
 _atom_site_type_symbol
 _atom_site_label
 _atom_site_symmetry_multiplicity
 _atom_site_fract_x
 _atom_site_fract_y
 _atom_site_fract_z
 _atom_site_occupancy
  K  K0  1  0.75000000  0.17050400  0.08421100  1
  K  K1  1  0.25000000  0.82949600  0.91578900  1
  K  K2  1  0.75000000  0.76870300  0.25221600  1
  K  K3  1  0.25000000  0.23129700  0.74778400  1
  Cr  Cr4  1  0.50000000  0.50000000  0.50000000  1
  Cr  Cr5  1  0.00000000  0.50000000  0.50000000  1
  Cr  Cr6  1  0.25000000  0.46027200  0.17639200  1
  Cr  Cr7  1  0.75000000  0.53972800  0.82360800  1
  Cr  Cr8  1  0.25000000  0.07403000  0.33023200  1
  Cr  Cr9  1  0.75000000  0.92597000  0.66976800  1
  O  O10  1  0.47906700  0.50872900  0.29387300  1
  O  O11  1  0.97906700  0.49127100  0.70612700  1
  O  O12  1  0.52093300  0.49127100  0.70612700  1
  O  O13  1  0.02093300  0.50872900  0.29387300  1
  O  O14  1  0.25000000  0.31430000  0.44139200  1
  O  O15  1  0.75000000  0.68570000  0.55860800  1
  O  O16  1  0.75000000  0.35333200  0.43311400  1
  O  O17  1  0.25000000  0.64666800  0.56688600  1
  O  O18  1  0.25000000  0.24850600  0.05819400  1
  O  O19  1  0.75000000  0.75149400  0.94180600  1
  O  O20  1  0.25000000  0.57863000  0.07525100  1
  O  O21  1  0.75000000  0.42137000  0.92474900  1
  O  O22  1  0.47009200  0.01183900  0.21869300  1
  O  O23  1  0.97009200  0.98816100  0.78130700  1
  O  O24  1  0.52990800  0.98816100  0.78130700  1
  O  O25  1  0.02990800  0.01183900  0.21869300  1
  O  O26  1  0.25000000  0.97312800  0.44521500  1
  O  O27  1  0.75000000  0.02687200  0.55478500  1
