# generated using pymatgen
data_CuPO5
_symmetry_space_group_name_H-M   'P 1'
_cell_length_a   7.05447600
_cell_length_b   7.54695600
_cell_length_c   9.34679000
_cell_angle_alpha   90.00000000
_cell_angle_beta   90.00000000
_cell_angle_gamma   90.00000000
_symmetry_Int_Tables_number   1
_chemical_formula_structural   CuPO5
_chemical_formula_sum   'Cu4 P4 O20'
_cell_volume   497.62141694
_cell_formula_units_Z   4
loop_
 _symmetry_equiv_pos_site_id
 _symmetry_equiv_pos_as_xyz
  1  'x, y, z'
loop_
 _atom_site_type_symbol
 _atom_site_label
 _atom_site_symmetry_multiplicity
 _atom_site_fract_x
 _atom_site_fract_y
 _atom_site_fract_z
 _atom_site_occupancy
  Cu  Cu0  1  0.29299500  0.40876000  0.62585600  1
  Cu  Cu1  1  0.79299500  0.09124000  0.37414400  1
  Cu  Cu2  1  0.70700500  0.90876000  0.87414400  1
  Cu  Cu3  1  0.20700500  0.59124000  0.12585600  1
  P  P4  1  0.08558800  0.18046900  0.89879700  1
  P  P5  1  0.58558800  0.31953100  0.10120300  1
  P  P6  1  0.91441200  0.68046900  0.60120300  1
  P  P7  1  0.41441200  0.81953100  0.39879700  1
  O  O8  1  0.79592600  0.74509700  0.72199200  1
  O  O9  1  0.29592600  0.75490300  0.27800800  1
  O  O10  1  0.20407400  0.24509700  0.77800800  1
  O  O11  1  0.70407400  0.25490300  0.22199200  1
  O  O12  1  0.95130800  0.03507800  0.85982700  1
  O  O13  1  0.45130800  0.46492200  0.14017300  1
  O  O14  1  0.04869200  0.53507800  0.64017300  1
  O  O15  1  0.54869200  0.96492200  0.35982700  1
  O  O16  1  0.39097200  0.75197900  0.54606300  1
  O  O17  1  0.89097200  0.74802100  0.45393700  1
  O  O18  1  0.60902800  0.25197900  0.95393700  1
  O  O19  1  0.10902800  0.24802100  0.04606300  1
  O  O20  1  0.48639200  0.96281500  0.79703000  1
  O  O21  1  0.98639200  0.53718500  0.20297000  1
  O  O22  1  0.51360800  0.46281500  0.70297000  1
  O  O23  1  0.01360800  0.03718500  0.29703000  1
  O  O24  1  0.20236000  0.67120500  0.95013200  1
  O  O25  1  0.70236000  0.82879500  0.04986800  1
  O  O26  1  0.79764000  0.17120500  0.54986800  1
  O  O27  1  0.29764000  0.32879500  0.45013200  1
