# generated using pymatgen
data_CuS2(N2O3)2
_symmetry_space_group_name_H-M   'P 1'
_cell_length_a   10.01445200
_cell_length_b   6.75767100
_cell_length_c   9.75487527
_cell_angle_alpha   55.31019944
_cell_angle_beta   90.00000000
_cell_angle_gamma   90.00000000
_symmetry_Int_Tables_number   1
_chemical_formula_structural   CuS2(N2O3)2
_chemical_formula_sum   'Cu2 S4 N8 O12'
_cell_volume   542.80943694
_cell_formula_units_Z   2
loop_
 _symmetry_equiv_pos_site_id
 _symmetry_equiv_pos_as_xyz
  1  'x, y, z'
loop_
 _atom_site_type_symbol
 _atom_site_label
 _atom_site_symmetry_multiplicity
 _atom_site_fract_x
 _atom_site_fract_y
 _atom_site_fract_z
 _atom_site_occupancy
  Cu  Cu0  1  0.50000000  0.00000000  0.50000000  1
  Cu  Cu1  1  0.00000000  0.00000000  0.00000000  1
  S  S2  1  0.45070200  0.22614700  0.78651500  1
  S  S3  1  0.95070200  0.77385300  0.71348500  1
  S  S4  1  0.54929800  0.77385300  0.21348500  1
  S  S5  1  0.04929800  0.22614700  0.28651500  1
  N  N6  1  0.10236300  0.21337800  0.81752000  1
  N  N7  1  0.60236300  0.78662200  0.68248000  1
  N  N8  1  0.89763700  0.78662200  0.18248000  1
  N  N9  1  0.39763700  0.21337800  0.31752000  1
  N  N10  1  0.86279100  0.21498400  0.94252100  1
  N  N11  1  0.36279100  0.78501600  0.55747900  1
  N  N12  1  0.13720900  0.78501600  0.05747900  1
  N  N13  1  0.63720900  0.21498400  0.44252100  1
  O  O14  1  0.87986000  0.90585900  0.76534500  1
  O  O15  1  0.37986000  0.09414100  0.73465500  1
  O  O16  1  0.12014000  0.09414100  0.23465500  1
  O  O17  1  0.62014000  0.90585900  0.26534500  1
  O  O18  1  0.57620200  0.33779600  0.71075500  1
  O  O19  1  0.07620200  0.66220400  0.78924500  1
  O  O20  1  0.42379800  0.66220400  0.28924500  1
  O  O21  1  0.92379800  0.33779600  0.21075500  1
  O  O22  1  0.39758300  0.23709900  0.91906500  1
  O  O23  1  0.89758300  0.76290100  0.58093500  1
  O  O24  1  0.60241700  0.76290100  0.08093500  1
  O  O25  1  0.10241700  0.23709900  0.41906500  1
