# generated using pymatgen
data_Er2PbS4
_symmetry_space_group_name_H-M   'P 1'
_cell_length_a   3.97431300
_cell_length_b   12.02677300
_cell_length_c   14.29621800
_cell_angle_alpha   90.00000000
_cell_angle_beta   90.00000000
_cell_angle_gamma   90.00000000
_symmetry_Int_Tables_number   1
_chemical_formula_structural   Er2PbS4
_chemical_formula_sum   'Er8 Pb4 S16'
_cell_volume   683.33291939
_cell_formula_units_Z   4
loop_
 _symmetry_equiv_pos_site_id
 _symmetry_equiv_pos_as_xyz
  1  'x, y, z'
loop_
 _atom_site_type_symbol
 _atom_site_label
 _atom_site_symmetry_multiplicity
 _atom_site_fract_x
 _atom_site_fract_y
 _atom_site_fract_z
 _atom_site_occupancy
  Er  Er0  1  0.25000000  0.43704200  0.39003000  1
  Er  Er1  1  0.25000000  0.93704200  0.10997000  1
  Er  Er2  1  0.75000000  0.56295800  0.60997000  1
  Er  Er3  1  0.75000000  0.06295800  0.89003000  1
  Er  Er4  1  0.25000000  0.41805100  0.90204700  1
  Er  Er5  1  0.25000000  0.91805100  0.59795300  1
  Er  Er6  1  0.75000000  0.58194900  0.09795300  1
  Er  Er7  1  0.75000000  0.08194900  0.40204700  1
  Pb  Pb8  1  0.25000000  0.76257900  0.33125400  1
  Pb  Pb9  1  0.25000000  0.26257900  0.16874600  1
  Pb  Pb10  1  0.75000000  0.23742100  0.66874600  1
  Pb  Pb11  1  0.75000000  0.73742100  0.83125400  1
  S  S12  1  0.25000000  0.20663600  0.83099900  1
  S  S13  1  0.25000000  0.70663600  0.66900100  1
  S  S14  1  0.75000000  0.79336400  0.16900100  1
  S  S15  1  0.75000000  0.29336400  0.33099900  1
  S  S16  1  0.25000000  0.12937800  0.52907200  1
  S  S17  1  0.25000000  0.62937800  0.97092800  1
  S  S18  1  0.75000000  0.87062200  0.47092800  1
  S  S19  1  0.75000000  0.37062200  0.02907200  1
  S  S20  1  0.25000000  0.02364200  0.28632900  1
  S  S21  1  0.25000000  0.52364200  0.21367100  1
  S  S22  1  0.75000000  0.97635800  0.71367100  1
  S  S23  1  0.75000000  0.47635800  0.78632900  1
  S  S24  1  0.25000000  0.41478700  0.57773100  1
  S  S25  1  0.25000000  0.91478700  0.92226900  1
  S  S26  1  0.75000000  0.58521300  0.42226900  1
  S  S27  1  0.75000000  0.08521300  0.07773100  1
