# generated using pymatgen
data_RbPPbS4
_symmetry_space_group_name_H-M   'P 1'
_cell_length_a   6.51319800
_cell_length_b   6.80138800
_cell_length_c   17.65903900
_cell_angle_alpha   90.00000000
_cell_angle_beta   90.00000000
_cell_angle_gamma   90.00000000
_symmetry_Int_Tables_number   1
_chemical_formula_structural   RbPPbS4
_chemical_formula_sum   'Rb4 P4 Pb4 S16'
_cell_volume   782.27400232
_cell_formula_units_Z   4
loop_
 _symmetry_equiv_pos_site_id
 _symmetry_equiv_pos_as_xyz
  1  'x, y, z'
loop_
 _atom_site_type_symbol
 _atom_site_label
 _atom_site_symmetry_multiplicity
 _atom_site_fract_x
 _atom_site_fract_y
 _atom_site_fract_z
 _atom_site_occupancy
  Rb  Rb0  1  0.53009000  0.75000000  0.29406800  1
  Rb  Rb1  1  0.96991000  0.75000000  0.79406800  1
  Rb  Rb2  1  0.46991000  0.25000000  0.70593200  1
  Rb  Rb3  1  0.03009000  0.25000000  0.20593200  1
  P  P4  1  0.78158900  0.75000000  0.09733200  1
  P  P5  1  0.71841100  0.75000000  0.59733200  1
  P  P6  1  0.21841100  0.25000000  0.90266800  1
  P  P7  1  0.28158900  0.25000000  0.40266800  1
  Pb  Pb8  1  0.28832600  0.75000000  0.01838500  1
  Pb  Pb9  1  0.21167400  0.75000000  0.51838500  1
  Pb  Pb10  1  0.71167400  0.25000000  0.98161500  1
  Pb  Pb11  1  0.78832600  0.25000000  0.48161500  1
  S  S12  1  0.04485900  0.75000000  0.16006100  1
  S  S13  1  0.45514100  0.75000000  0.66006100  1
  S  S14  1  0.95514100  0.25000000  0.83993900  1
  S  S15  1  0.54485900  0.25000000  0.33993900  1
  S  S16  1  0.84612500  0.75000000  0.98268600  1
  S  S17  1  0.65387500  0.75000000  0.48268600  1
  S  S18  1  0.15387500  0.25000000  0.01731400  1
  S  S19  1  0.34612500  0.25000000  0.51731400  1
  S  S20  1  0.60677200  0.50703100  0.12082900  1
  S  S21  1  0.89322800  0.99296900  0.62082900  1
  S  S22  1  0.39322800  0.00703100  0.87917100  1
  S  S23  1  0.10677200  0.49296900  0.37917100  1
  S  S24  1  0.39322800  0.49296900  0.87917100  1
  S  S25  1  0.10677200  0.00703100  0.37917100  1
  S  S26  1  0.60677200  0.99296900  0.12082900  1
  S  S27  1  0.89322800  0.50703100  0.62082900  1
