# generated using pymatgen
data_Na5Cu3(PO4)4
_symmetry_space_group_name_H-M   'P 1'
_cell_length_a   5.15331062
_cell_length_b   8.50180263
_cell_length_c   9.19285868
_cell_angle_alpha   116.13219970
_cell_angle_beta   89.51196678
_cell_angle_gamma   106.14480939
_symmetry_Int_Tables_number   1
_chemical_formula_structural   Na5Cu3(PO4)4
_chemical_formula_sum   'Na5 Cu3 P4 O16'
_cell_volume   344.28507114
_cell_formula_units_Z   1
loop_
 _symmetry_equiv_pos_site_id
 _symmetry_equiv_pos_as_xyz
  1  'x, y, z'
loop_
 _atom_site_type_symbol
 _atom_site_label
 _atom_site_symmetry_multiplicity
 _atom_site_fract_x
 _atom_site_fract_y
 _atom_site_fract_z
 _atom_site_occupancy
  Na  Na0  1  0.50000000  0.00000000  0.50000000  1
  Na  Na1  1  0.78774600  0.53638400  0.75567200  1
  Na  Na2  1  0.21225400  0.46361600  0.24432800  1
  Na  Na3  1  0.16445800  0.35253600  0.86441200  1
  Na  Na4  1  0.83554200  0.64746400  0.13558800  1
  Cu  Cu5  1  0.00000000  0.00000000  0.00000000  1
  Cu  Cu6  1  0.34805500  0.75034900  0.70726700  1
  Cu  Cu7  1  0.65194500  0.24965100  0.29273300  1
  P  P8  1  0.57072400  0.18341700  0.93118400  1
  P  P9  1  0.42927600  0.81658300  0.06881600  1
  P  P10  1  0.77780500  0.69418900  0.47656800  1
  P  P11  1  0.22219500  0.30581100  0.52343200  1
  O  O12  1  0.76276500  0.17429400  0.06162300  1
  O  O13  1  0.23723500  0.82570600  0.93837700  1
  O  O14  1  0.52758600  0.01010000  0.76595900  1
  O  O15  1  0.47241400  0.98990000  0.23404100  1
  O  O16  1  0.29756200  0.20098400  0.00277500  1
  O  O17  1  0.70243800  0.79901600  0.99722500  1
  O  O18  1  0.70296900  0.35581500  0.90905000  1
  O  O19  1  0.29703100  0.64418500  0.09095000  1
  O  O20  1  0.47171500  0.69493400  0.49585000  1
  O  O21  1  0.52828500  0.30506600  0.50415000  1
  O  O22  1  0.76145800  0.50047300  0.32488300  1
  O  O23  1  0.23854200  0.49952700  0.67511700  1
  O  O24  1  0.91767500  0.72717500  0.63688400  1
  O  O25  1  0.08232500  0.27282500  0.36311600  1
  O  O26  1  0.91293400  0.82570800  0.40711100  1
  O  O27  1  0.08706600  0.17429200  0.59288900  1
