# generated using pymatgen
data_Fe(MoO5)2
_symmetry_space_group_name_H-M   'P 1'
_cell_length_a   6.83678800
_cell_length_b   7.19482102
_cell_length_c   10.23472524
_cell_angle_alpha   81.37445244
_cell_angle_beta   76.22838533
_cell_angle_gamma   76.10012116
_symmetry_Int_Tables_number   1
_chemical_formula_structural   Fe(MoO5)2
_chemical_formula_sum   'Fe2 Mo4 O20'
_cell_volume   472.34511367
_cell_formula_units_Z   2
loop_
 _symmetry_equiv_pos_site_id
 _symmetry_equiv_pos_as_xyz
  1  'x, y, z'
loop_
 _atom_site_type_symbol
 _atom_site_label
 _atom_site_symmetry_multiplicity
 _atom_site_fract_x
 _atom_site_fract_y
 _atom_site_fract_z
 _atom_site_occupancy
  Fe  Fe0  1  0.06522400  0.10325600  0.58958500  1
  Fe  Fe1  1  0.93477600  0.89674400  0.41041500  1
  Mo  Mo2  1  0.70903300  0.54623600  0.69268900  1
  Mo  Mo3  1  0.29096700  0.45376400  0.30731100  1
  Mo  Mo4  1  0.84720900  0.81155300  0.91473300  1
  Mo  Mo5  1  0.15279100  0.18844700  0.08526700  1
  O  O6  1  0.16514300  0.90746400  0.47629100  1
  O  O7  1  0.83485700  0.09253600  0.52370900  1
  O  O8  1  0.29584400  0.07671400  0.66050300  1
  O  O9  1  0.70415600  0.92328600  0.33949700  1
  O  O10  1  0.87618100  0.31071900  0.69621600  1
  O  O11  1  0.12381900  0.68928100  0.30378400  1
  O  O12  1  0.46593700  0.52663300  0.68652700  1
  O  O13  1  0.53406300  0.47336700  0.31347300  1
  O  O14  1  0.81136200  0.68983900  0.54801800  1
  O  O15  1  0.18863800  0.31016100  0.45198200  1
  O  O16  1  0.69140000  0.66992000  0.85278200  1
  O  O17  1  0.30860000  0.33008000  0.14721800  1
  O  O18  1  0.89706800  0.62195300  0.09311300  1
  O  O19  1  0.10293200  0.37804700  0.90688700  1
  O  O20  1  0.05985100  0.70555400  0.03210800  1
  O  O21  1  0.94014900  0.29444600  0.96789200  1
  O  O22  1  0.00678600  0.89055300  0.76586600  1
  O  O23  1  0.99321400  0.10944700  0.23413400  1
  O  O24  1  0.69823500  0.01370000  0.98347300  1
  O  O25  1  0.30176500  0.98630000  0.01652700  1
