# generated using pymatgen
data_MnSeO5
_symmetry_space_group_name_H-M   'P 1'
_cell_length_a   6.66325500
_cell_length_b   6.15898706
_cell_length_c   9.96434065
_cell_angle_alpha   102.88843033
_cell_angle_beta   90.00000000
_cell_angle_gamma   90.00000000
_symmetry_Int_Tables_number   1
_chemical_formula_structural   MnSeO5
_chemical_formula_sum   'Mn4 Se4 O20'
_cell_volume   398.62322541
_cell_formula_units_Z   4
loop_
 _symmetry_equiv_pos_site_id
 _symmetry_equiv_pos_as_xyz
  1  'x, y, z'
loop_
 _atom_site_type_symbol
 _atom_site_label
 _atom_site_symmetry_multiplicity
 _atom_site_fract_x
 _atom_site_fract_y
 _atom_site_fract_z
 _atom_site_occupancy
  Mn  Mn0  1  0.04501000  0.19291500  0.13193500  1
  Mn  Mn1  1  0.54501000  0.80708500  0.36806500  1
  Mn  Mn2  1  0.95499000  0.80708500  0.86806500  1
  Mn  Mn3  1  0.45499000  0.19291500  0.63193500  1
  Se  Se4  1  0.21039700  0.66127700  0.12570700  1
  Se  Se5  1  0.71039700  0.33872300  0.37429300  1
  Se  Se6  1  0.78960300  0.33872300  0.87429300  1
  Se  Se7  1  0.28960300  0.66127700  0.62570700  1
  O  O8  1  0.55835100  0.13622300  0.43407000  1
  O  O9  1  0.05835100  0.86377700  0.06593000  1
  O  O10  1  0.44164900  0.86377700  0.56593000  1
  O  O11  1  0.94164900  0.13622300  0.93407000  1
  O  O12  1  0.99932200  0.50528600  0.15467400  1
  O  O13  1  0.49932200  0.49471400  0.34532600  1
  O  O14  1  0.00067800  0.49471400  0.84532600  1
  O  O15  1  0.50067800  0.50528600  0.65467400  1
  O  O16  1  0.76039000  0.18622900  0.21217400  1
  O  O17  1  0.26039000  0.81377100  0.28782600  1
  O  O18  1  0.23961000  0.81377100  0.78782600  1
  O  O19  1  0.73961000  0.18622900  0.71217400  1
  O  O20  1  0.66397800  0.79225800  0.20441700  1
  O  O21  1  0.16397800  0.20774200  0.29558300  1
  O  O22  1  0.33602200  0.20774200  0.79558300  1
  O  O23  1  0.83602200  0.79225800  0.70441700  1
  O  O24  1  0.80520300  0.76806200  0.40654300  1
  O  O25  1  0.30520300  0.23193800  0.09345700  1
  O  O26  1  0.19479700  0.23193800  0.59345700  1
  O  O27  1  0.69479700  0.76806200  0.90654300  1
