# generated using pymatgen
data_CaB3O10
_symmetry_space_group_name_H-M   'P 1'
_cell_length_a   6.28042962
_cell_length_b   5.76238899
_cell_length_c   9.65989212
_cell_angle_alpha   102.83283515
_cell_angle_beta   109.89277053
_cell_angle_gamma   91.81337841
_symmetry_Int_Tables_number   1
_chemical_formula_structural   CaB3O10
_chemical_formula_sum   'Ca2 B6 O20'
_cell_volume   318.32399067
_cell_formula_units_Z   2
loop_
 _symmetry_equiv_pos_site_id
 _symmetry_equiv_pos_as_xyz
  1  'x, y, z'
loop_
 _atom_site_type_symbol
 _atom_site_label
 _atom_site_symmetry_multiplicity
 _atom_site_fract_x
 _atom_site_fract_y
 _atom_site_fract_z
 _atom_site_occupancy
  Ca  Ca0  1  0.80634900  0.82109200  0.61640200  1
  Ca  Ca1  1  0.19365100  0.17890800  0.38359800  1
  B  B2  1  0.81558900  0.72299200  0.28888300  1
  B  B3  1  0.18441100  0.27700800  0.71111700  1
  B  B4  1  0.32431400  0.87095000  0.63881800  1
  B  B5  1  0.67568600  0.12905000  0.36118200  1
  B  B6  1  0.45854900  0.82831400  0.12965600  1
  B  B7  1  0.54145100  0.17168600  0.87034400  1
  O  O8  1  0.05533700  0.73341700  0.27537100  1
  O  O9  1  0.94466300  0.26658300  0.72462900  1
  O  O10  1  0.17636200  0.69898800  0.67059700  1
  O  O11  1  0.82363800  0.30101200  0.32940300  1
  O  O12  1  0.26878100  0.72423300  0.00626500  1
  O  O13  1  0.73121900  0.27576700  0.99373500  1
  O  O14  1  0.65358700  0.71650200  0.14094200  1
  O  O15  1  0.34641300  0.28349800  0.85905800  1
  O  O16  1  0.39266300  0.76653600  0.50328900  1
  O  O17  1  0.60733700  0.23346400  0.49671100  1
  O  O18  1  0.45447400  0.03588400  0.23853400  1
  O  O19  1  0.54552600  0.96411600  0.76146600  1
  O  O20  1  0.77229900  0.54706300  0.37047900  1
  O  O21  1  0.22770100  0.45293700  0.62952100  1
  O  O22  1  0.81016000  0.94025300  0.39713400  1
  O  O23  1  0.18984000  0.05974700  0.60286600  1
  O  O24  1  0.00732500  0.90627900  0.95685000  1
  O  O25  1  0.99267500  0.09372100  0.04315000  1
  O  O26  1  0.21737800  0.60636200  0.36824200  1
  O  O27  1  0.78262200  0.39363800  0.63175800  1
