# generated using pymatgen
data_Cr22WC6
_symmetry_space_group_name_H-M   'P 1'
_cell_length_a   7.49493731
_cell_length_b   7.49493731
_cell_length_c   7.49493731
_cell_angle_alpha   60.00000000
_cell_angle_beta   60.00000000
_cell_angle_gamma   60.00000000
_symmetry_Int_Tables_number   1
_chemical_formula_structural   Cr22WC6
_chemical_formula_sum   'Cr22 W1 C6'
_cell_volume   297.70697982
_cell_formula_units_Z   1
loop_
 _symmetry_equiv_pos_site_id
 _symmetry_equiv_pos_as_xyz
  1  'x, y, z'
loop_
 _atom_site_type_symbol
 _atom_site_label
 _atom_site_symmetry_multiplicity
 _atom_site_fract_x
 _atom_site_fract_y
 _atom_site_fract_z
 _atom_site_occupancy
  Cr  Cr0  1  0.75000000  0.75000000  0.75000000  1
  Cr  Cr1  1  0.25000000  0.25000000  0.25000000  1
  Cr  Cr2  1  0.61881500  0.61881500  0.14355500  1
  Cr  Cr3  1  0.61881500  0.14355500  0.61881500  1
  Cr  Cr4  1  0.14355500  0.61881500  0.61881500  1
  Cr  Cr5  1  0.61881500  0.61881500  0.61881500  1
  Cr  Cr6  1  0.38118500  0.38118500  0.85644500  1
  Cr  Cr7  1  0.38118500  0.85644500  0.38118500  1
  Cr  Cr8  1  0.85644500  0.38118500  0.38118500  1
  Cr  Cr9  1  0.38118500  0.38118500  0.38118500  1
  Cr  Cr10  1  0.00000000  0.00000000  0.34547800  1
  Cr  Cr11  1  0.65452200  0.00000000  0.34547800  1
  Cr  Cr12  1  0.00000000  0.65452200  0.34547800  1
  Cr  Cr13  1  0.65452200  0.34547800  0.00000000  1
  Cr  Cr14  1  0.00000000  0.34547800  0.00000000  1
  Cr  Cr15  1  0.00000000  0.34547800  0.65452200  1
  Cr  Cr16  1  0.34547800  0.65452200  0.00000000  1
  Cr  Cr17  1  0.34547800  0.00000000  0.65452200  1
  Cr  Cr18  1  0.34547800  0.00000000  0.00000000  1
  Cr  Cr19  1  0.00000000  0.00000000  0.65452200  1
  Cr  Cr20  1  0.00000000  0.65452200  0.00000000  1
  Cr  Cr21  1  0.65452200  0.00000000  0.00000000  1
  W  W22  1  0.00000000  0.00000000  0.00000000  1
  C  C23  1  0.72290400  0.72290400  0.27709600  1
  C  C24  1  0.27709600  0.72290400  0.27709600  1
  C  C25  1  0.72290400  0.27709600  0.27709600  1
  C  C26  1  0.27709600  0.27709600  0.72290400  1
  C  C27  1  0.72290400  0.27709600  0.72290400  1
  C  C28  1  0.27709600  0.72290400  0.72290400  1
