# generated using pymatgen
data_Tb(IO3)3
_symmetry_space_group_name_H-M   'P 1'
_cell_length_a   6.67589400
_cell_length_b   6.59395200
_cell_length_c   8.22910700
_cell_angle_alpha   90.00000000
_cell_angle_beta   90.00000000
_cell_angle_gamma   90.00000000
_symmetry_Int_Tables_number   1
_chemical_formula_structural   Tb(IO3)3
_chemical_formula_sum   'Tb2 I6 O18'
_cell_volume   362.24960707
_cell_formula_units_Z   2
loop_
 _symmetry_equiv_pos_site_id
 _symmetry_equiv_pos_as_xyz
  1  'x, y, z'
loop_
 _atom_site_type_symbol
 _atom_site_label
 _atom_site_symmetry_multiplicity
 _atom_site_fract_x
 _atom_site_fract_y
 _atom_site_fract_z
 _atom_site_occupancy
  Tb  Tb0  1  0.75000000  0.12424200  0.25000000  1
  Tb  Tb1  1  0.25000000  0.87575800  0.75000000  1
  I  I2  1  0.75000000  0.10271600  0.75000000  1
  I  I3  1  0.25000000  0.89728400  0.25000000  1
  I  I4  1  0.75000000  0.63150500  0.95932600  1
  I  I5  1  0.75000000  0.63150500  0.54067400  1
  I  I6  1  0.25000000  0.36849500  0.04067400  1
  I  I7  1  0.25000000  0.36849500  0.45932600  1
  O  O8  1  0.75000000  0.76932000  0.25000000  1
  O  O9  1  0.25000000  0.23068000  0.75000000  1
  O  O10  1  0.43470200  0.40804300  0.25000000  1
  O  O11  1  0.06529800  0.40804300  0.25000000  1
  O  O12  1  0.56529800  0.59195700  0.75000000  1
  O  O13  1  0.93470200  0.59195700  0.75000000  1
  O  O14  1  0.75000000  0.35488400  0.01571400  1
  O  O15  1  0.75000000  0.35488400  0.48428600  1
  O  O16  1  0.25000000  0.64511600  0.98428600  1
  O  O17  1  0.25000000  0.64511600  0.51571400  1
  O  O18  1  0.43964900  0.03565100  0.11037800  1
  O  O19  1  0.06035100  0.03565100  0.11037800  1
  O  O20  1  0.43964900  0.03565100  0.38962200  1
  O  O21  1  0.06035100  0.03565100  0.38962200  1
  O  O22  1  0.56035100  0.96434900  0.88962200  1
  O  O23  1  0.93964900  0.96434900  0.88962200  1
  O  O24  1  0.56035100  0.96434900  0.61037800  1
  O  O25  1  0.93964900  0.96434900  0.61037800  1
