# generated using pymatgen
data_K4Sn(SO)4
_symmetry_space_group_name_H-M   'P 1'
_cell_length_a   7.77333700
_cell_length_b   8.04608942
_cell_length_c   11.87233380
_cell_angle_alpha   93.63945563
_cell_angle_beta   91.00286324
_cell_angle_gamma   110.56633075
_symmetry_Int_Tables_number   1
_chemical_formula_structural   K4Sn(SO)4
_chemical_formula_sum   'K8 Sn2 S8 O8'
_cell_volume   693.19695319
_cell_formula_units_Z   2
loop_
 _symmetry_equiv_pos_site_id
 _symmetry_equiv_pos_as_xyz
  1  'x, y, z'
loop_
 _atom_site_type_symbol
 _atom_site_label
 _atom_site_symmetry_multiplicity
 _atom_site_fract_x
 _atom_site_fract_y
 _atom_site_fract_z
 _atom_site_occupancy
  K  K0  1  0.20252500  0.83491500  0.47169700  1
  K  K1  1  0.79747500  0.16508500  0.52830300  1
  K  K2  1  0.59733300  0.61894600  0.34986300  1
  K  K3  1  0.40266700  0.38105400  0.65013700  1
  K  K4  1  0.42174700  0.99532600  0.83313400  1
  K  K5  1  0.57825300  0.00467400  0.16686600  1
  K  K6  1  0.04391800  0.72138800  0.10532000  1
  K  K7  1  0.95608200  0.27861200  0.89468000  1
  Sn  Sn8  1  0.81268500  0.78595500  0.71679000  1
  Sn  Sn9  1  0.18731500  0.21404500  0.28321000  1
  S  S10  1  0.74488600  0.79036800  0.92389400  1
  S  S11  1  0.25511400  0.20963200  0.07610600  1
  S  S12  1  0.54994700  0.78529300  0.60658700  1
  S  S13  1  0.45005300  0.21470700  0.39341300  1
  S  S14  1  0.88710900  0.50542200  0.70131200  1
  S  S15  1  0.11289100  0.49457800  0.29868800  1
  S  S16  1  0.07977400  0.03736600  0.68765600  1
  S  S17  1  0.92022600  0.96263400  0.31234400  1
  O  O18  1  0.27142800  0.64263300  0.92774700  1
  O  O19  1  0.72857200  0.35736700  0.07225300  1
  O  O20  1  0.63446900  0.44405200  0.11970400  1
  O  O21  1  0.36553100  0.55594800  0.88029600  1
  O  O22  1  0.29839000  0.03551700  0.04308500  1
  O  O23  1  0.70161000  0.96448300  0.95691500  1
  O  O24  1  0.28963800  0.67045700  0.27776700  1
  O  O25  1  0.71036200  0.32954300  0.72223300  1
