# generated using pymatgen
data_CsCaH2N9O
_symmetry_space_group_name_H-M   'P 1'
_cell_length_a   6.93498900
_cell_length_b   7.63670864
_cell_length_c   8.98841355
_cell_angle_alpha   71.85279549
_cell_angle_beta   83.31698129
_cell_angle_gamma   81.36403005
_symmetry_Int_Tables_number   1
_chemical_formula_structural   CsCaH2N9O
_chemical_formula_sum   'Cs2 Ca2 H4 N18 O2'
_cell_volume   445.99486846
_cell_formula_units_Z   2
loop_
 _symmetry_equiv_pos_site_id
 _symmetry_equiv_pos_as_xyz
  1  'x, y, z'
loop_
 _atom_site_type_symbol
 _atom_site_label
 _atom_site_symmetry_multiplicity
 _atom_site_fract_x
 _atom_site_fract_y
 _atom_site_fract_z
 _atom_site_occupancy
  Cs  Cs0  1  0.75216400  0.81607200  0.90599700  1
  Cs  Cs1  1  0.24783600  0.18392800  0.09400300  1
  Ca  Ca2  1  0.30874900  0.18671900  0.60065200  1
  Ca  Ca3  1  0.69125100  0.81328100  0.39934800  1
  H  H4  1  0.97080500  0.44668000  0.70357800  1
  H  H5  1  0.02919500  0.55332000  0.29642200  1
  H  H6  1  0.15579400  0.49549600  0.76049300  1
  H  H7  1  0.84420600  0.50450400  0.23950700  1
  N  N8  1  0.52575100  0.29982700  0.75498300  1
  N  N9  1  0.47424900  0.70017300  0.24501700  1
  N  N10  1  0.60578300  0.43461900  0.70604000  1
  N  N11  1  0.39421700  0.56538100  0.29396000  1
  N  N12  1  0.68853700  0.56921900  0.65826000  1
  N  N13  1  0.31146300  0.43078100  0.34174000  1
  N  N14  1  0.66830600  0.07912200  0.52124300  1
  N  N15  1  0.33169400  0.92087800  0.47875700  1
  N  N16  1  0.81700300  0.13134600  0.53607800  1
  N  N17  1  0.18299700  0.86865400  0.46392200  1
  N  N18  1  0.96300400  0.18115700  0.55195700  1
  N  N19  1  0.03699600  0.81884300  0.44804300  1
  N  N20  1  0.27839400  0.93567100  0.84686500  1
  N  N21  1  0.72160600  0.06432900  0.15313500  1
  N  N22  1  0.25080600  0.77814600  0.87284600  1
  N  N23  1  0.74919400  0.22185400  0.12715400  1
  N  N24  1  0.22217400  0.62234000  0.90084500  1
  N  N25  1  0.77782600  0.37766000  0.09915500  1
  O  O26  1  0.10896100  0.40179700  0.72313600  1
  O  O27  1  0.89103900  0.59820300  0.27686400  1
