# generated using pymatgen
data_U2Co3O8
_symmetry_space_group_name_H-M   'P 1'
_cell_length_a   5.73526100
_cell_length_b   6.81796600
_cell_length_c   10.75738600
_cell_angle_alpha   90.00000000
_cell_angle_beta   90.00000000
_cell_angle_gamma   90.00000000
_symmetry_Int_Tables_number   1
_chemical_formula_structural   U2Co3O8
_chemical_formula_sum   'U4 Co6 O16'
_cell_volume   420.64406925
_cell_formula_units_Z   2
loop_
 _symmetry_equiv_pos_site_id
 _symmetry_equiv_pos_as_xyz
  1  'x, y, z'
loop_
 _atom_site_type_symbol
 _atom_site_label
 _atom_site_symmetry_multiplicity
 _atom_site_fract_x
 _atom_site_fract_y
 _atom_site_fract_z
 _atom_site_occupancy
  U  U0  1  0.21958100  0.50000000  0.71998900  1
  U  U1  1  0.78041900  0.00000000  0.21998900  1
  U  U2  1  0.98005200  0.50000000  0.27019800  1
  U  U3  1  0.01994800  0.00000000  0.77019800  1
  Co  Co4  1  0.96860900  0.19167000  0.46980400  1
  Co  Co5  1  0.96860900  0.80833000  0.46980400  1
  Co  Co6  1  0.03139100  0.30833000  0.96980400  1
  Co  Co7  1  0.03139100  0.69167000  0.96980400  1
  Co  Co8  1  0.52636100  0.50000000  0.41753900  1
  Co  Co9  1  0.47363900  0.00000000  0.91753900  1
  O  O10  1  0.29128400  0.23352900  0.84833700  1
  O  O11  1  0.29128400  0.76647100  0.84833700  1
  O  O12  1  0.70871600  0.26647100  0.34833700  1
  O  O13  1  0.70871600  0.73352900  0.34833700  1
  O  O14  1  0.94410500  0.72982300  0.13811600  1
  O  O15  1  0.94410500  0.27017700  0.13811600  1
  O  O16  1  0.05589500  0.77017700  0.63811600  1
  O  O17  1  0.05589500  0.22982300  0.63811600  1
  O  O18  1  0.32197400  0.50000000  0.26984600  1
  O  O19  1  0.67802600  0.00000000  0.76984600  1
  O  O20  1  0.93344300  0.50000000  0.83926900  1
  O  O21  1  0.06655700  0.00000000  0.33926900  1
  O  O22  1  0.47572700  0.50000000  0.59800400  1
  O  O23  1  0.52427300  0.00000000  0.09800400  1
  O  O24  1  0.03176300  0.50000000  0.45744200  1
  O  O25  1  0.96823700  0.00000000  0.95744200  1
