# generated using pymatgen
data_Ca(IO6)2
_symmetry_space_group_name_H-M   'P 1'
_cell_length_a   12.61150210
_cell_length_b   11.00874944
_cell_length_c   8.14079883
_cell_angle_alpha   80.87833244
_cell_angle_beta   59.52770685
_cell_angle_gamma   39.59396071
_symmetry_Int_Tables_number   1
_chemical_formula_structural   Ca(IO6)2
_chemical_formula_sum   'Ca2 I4 O24'
_cell_volume   562.63224642
_cell_formula_units_Z   2
loop_
 _symmetry_equiv_pos_site_id
 _symmetry_equiv_pos_as_xyz
  1  'x, y, z'
loop_
 _atom_site_type_symbol
 _atom_site_label
 _atom_site_symmetry_multiplicity
 _atom_site_fract_x
 _atom_site_fract_y
 _atom_site_fract_z
 _atom_site_occupancy
  Ca  Ca0  1  0.91907000  0.58093000  0.58093000  1
  Ca  Ca1  1  0.66907000  0.33093000  0.33093000  1
  I  I2  1  0.10431100  0.10339800  0.34904800  1
  I  I3  1  0.44324200  0.34904800  0.10339800  1
  I  I4  1  0.90095200  0.80675800  0.14568900  1
  I  I5  1  0.14660200  0.14568900  0.80675800  1
  O  O6  1  0.22369900  0.13308500  0.95532100  1
  O  O7  1  0.68789500  0.95532100  0.13308500  1
  O  O8  1  0.29467900  0.56210500  0.02630100  1
  O  O9  1  0.11691500  0.02630100  0.56210500  1
  O  O10  1  0.94674400  0.19636400  0.00565800  1
  O  O11  1  0.85123500  0.00565800  0.19636400  1
  O  O12  1  0.24434200  0.39876500  0.30325600  1
  O  O13  1  0.05363600  0.30325600  0.39876500  1
  O  O14  1  0.63869600  0.68487300  0.39952600  1
  O  O15  1  0.27690500  0.39952600  0.68487300  1
  O  O16  1  0.85047400  0.97309500  0.61130400  1
  O  O17  1  0.56512700  0.61130400  0.97309500  1
  O  O18  1  0.80643900  0.79670900  0.40135800  1
  O  O19  1  0.99549400  0.40135800  0.79670900  1
  O  O20  1  0.84864200  0.25450600  0.44356100  1
  O  O21  1  0.45329100  0.44356100  0.25450600  1
  O  O22  1  0.62700200  0.62824800  0.80923400  1
  O  O23  1  0.93551500  0.80923400  0.62824800  1
  O  O24  1  0.44076600  0.31448500  0.62299800  1
  O  O25  1  0.62175200  0.62299800  0.31448500  1
  O  O26  1  0.47861100  0.54859200  0.69365500  1
  O  O27  1  0.27914200  0.69365500  0.54859200  1
  O  O28  1  0.55634500  0.97085800  0.77138900  1
  O  O29  1  0.70140800  0.77138900  0.97085800  1
