# generated using pymatgen
data_K(IO3)3
_symmetry_space_group_name_H-M   'P 1'
_cell_length_a   8.17807500
_cell_length_b   8.23626209
_cell_length_c   8.23991421
_cell_angle_alpha   65.91580772
_cell_angle_beta   60.40997675
_cell_angle_gamma   70.84344709
_symmetry_Int_Tables_number   1
_chemical_formula_structural   K(IO3)3
_chemical_formula_sum   'K2 I6 O18'
_cell_volume   434.97245929
_cell_formula_units_Z   2
loop_
 _symmetry_equiv_pos_site_id
 _symmetry_equiv_pos_as_xyz
  1  'x, y, z'
loop_
 _atom_site_type_symbol
 _atom_site_label
 _atom_site_symmetry_multiplicity
 _atom_site_fract_x
 _atom_site_fract_y
 _atom_site_fract_z
 _atom_site_occupancy
  K  K0  1  0.26835000  0.28464800  0.24383700  1
  K  K1  1  0.73165000  0.71535200  0.75616300  1
  I  I2  1  0.19584500  0.80760800  0.24902800  1
  I  I3  1  0.80415500  0.19239200  0.75097200  1
  I  I4  1  0.76602300  0.26357300  0.22543300  1
  I  I5  1  0.23397700  0.73642700  0.77456700  1
  I  I6  1  0.70254800  0.79112900  0.22198700  1
  I  I7  1  0.29745200  0.20887100  0.77801300  1
  O  O8  1  0.21017100  0.56816000  0.40446200  1
  O  O9  1  0.78982900  0.43184000  0.59553800  1
  O  O10  1  0.16626200  0.92030000  0.41784200  1
  O  O11  1  0.83373800  0.07970000  0.58215800  1
  O  O12  1  0.87757000  0.45218400  0.18023900  1
  O  O13  1  0.12243000  0.54781600  0.81976100  1
  O  O14  1  0.52195400  0.33353500  0.39446600  1
  O  O15  1  0.47804600  0.66646500  0.60553400  1
  O  O16  1  0.53387400  0.77321900  0.14368400  1
  O  O17  1  0.46612600  0.22678100  0.85631600  1
  O  O18  1  0.93567200  0.81067600  0.34215900  1
  O  O19  1  0.06432800  0.18932400  0.65784100  1
  O  O20  1  0.60167600  0.01444200  0.25472000  1
  O  O21  1  0.39832400  0.98555800  0.74528000  1
  O  O22  1  0.73511400  0.35447100  0.99614200  1
  O  O23  1  0.26488600  0.64552900  0.00385800  1
  O  O24  1  0.88701700  0.86530700  0.96651100  1
  O  O25  1  0.11298300  0.13469300  0.03348900  1
