# generated using pymatgen
data_CaRhO3
_symmetry_space_group_name_H-M   'P 1'
_cell_length_a   3.17257200
_cell_length_b   8.96629849
_cell_length_c   12.65623721
_cell_angle_alpha   104.36972878
_cell_angle_beta   90.00000000
_cell_angle_gamma   90.00000000
_symmetry_Int_Tables_number   1
_chemical_formula_structural   CaRhO3
_chemical_formula_sum   'Ca6 Rh6 O18'
_cell_volume   348.75869892
_cell_formula_units_Z   6
loop_
 _symmetry_equiv_pos_site_id
 _symmetry_equiv_pos_as_xyz
  1  'x, y, z'
loop_
 _atom_site_type_symbol
 _atom_site_label
 _atom_site_symmetry_multiplicity
 _atom_site_fract_x
 _atom_site_fract_y
 _atom_site_fract_z
 _atom_site_occupancy
  Ca  Ca0  1  0.75000000  0.61701400  0.66972300  1
  Ca  Ca1  1  0.25000000  0.38298600  0.33027700  1
  Ca  Ca2  1  0.75000000  0.99238100  0.64966700  1
  Ca  Ca3  1  0.25000000  0.00761900  0.35033300  1
  Ca  Ca4  1  0.25000000  0.33287100  0.05273000  1
  Ca  Ca5  1  0.75000000  0.66712900  0.94727000  1
  Rh  Rh6  1  0.75000000  0.27205400  0.54366400  1
  Rh  Rh7  1  0.25000000  0.72794600  0.45633600  1
  Rh  Rh8  1  0.25000000  0.99985900  0.89220500  1
  Rh  Rh9  1  0.75000000  0.00014100  0.10779500  1
  Rh  Rh10  1  0.75000000  0.64542200  0.19365500  1
  Rh  Rh11  1  0.25000000  0.35457800  0.80634500  1
  O  O12  1  0.75000000  0.87581500  0.81995800  1
  O  O13  1  0.25000000  0.12418500  0.18004200  1
  O  O14  1  0.25000000  0.78642000  0.61851200  1
  O  O15  1  0.75000000  0.21358000  0.38148800  1
  O  O16  1  0.25000000  0.12818800  0.54707400  1
  O  O17  1  0.75000000  0.87181200  0.45292600  1
  O  O18  1  0.25000000  0.41591300  0.55245600  1
  O  O19  1  0.75000000  0.58408700  0.44754400  1
  O  O20  1  0.75000000  0.32810200  0.70604000  1
  O  O21  1  0.25000000  0.67189800  0.29396000  1
  O  O22  1  0.25000000  0.58213500  0.81006600  1
  O  O23  1  0.75000000  0.41786500  0.18993400  1
  O  O24  1  0.25000000  0.12306500  0.78299500  1
  O  O25  1  0.75000000  0.87693500  0.21700500  1
  O  O26  1  0.75000000  0.39085500  0.91355100  1
  O  O27  1  0.25000000  0.60914500  0.08644900  1
  O  O28  1  0.75000000  0.11703400  0.98643800  1
  O  O29  1  0.25000000  0.88296600  0.01356200  1
