# generated using pymatgen
data_CoAu(BrN)6
_symmetry_space_group_name_H-M   'P 1'
_cell_length_a   6.21801600
_cell_length_b   10.91927100
_cell_length_c   17.26452159
_cell_angle_alpha   50.82866353
_cell_angle_beta   90.00000000
_cell_angle_gamma   90.00000000
_symmetry_Int_Tables_number   1
_chemical_formula_structural   CoAu(BrN)6
_chemical_formula_sum   'Co2 Au2 Br12 N12'
_cell_volume   908.75691650
_cell_formula_units_Z   2
loop_
 _symmetry_equiv_pos_site_id
 _symmetry_equiv_pos_as_xyz
  1  'x, y, z'
loop_
 _atom_site_type_symbol
 _atom_site_label
 _atom_site_symmetry_multiplicity
 _atom_site_fract_x
 _atom_site_fract_y
 _atom_site_fract_z
 _atom_site_occupancy
  Co  Co0  1  0.50000000  0.00000000  0.00000000  1
  Co  Co1  1  0.00000000  0.00000000  0.50000000  1
  Au  Au2  1  0.00000000  0.50000000  0.00000000  1
  Au  Au3  1  0.50000000  0.50000000  0.50000000  1
  Br  Br4  1  0.66934900  0.66375400  0.90731000  1
  Br  Br5  1  0.83065100  0.66375400  0.40731000  1
  Br  Br6  1  0.33065100  0.33624600  0.09269000  1
  Br  Br7  1  0.16934900  0.33624600  0.59269000  1
  Br  Br8  1  0.18114200  0.75182800  0.86615200  1
  Br  Br9  1  0.31885800  0.75182800  0.36615200  1
  Br  Br10  1  0.81885800  0.24817200  0.13384800  1
  Br  Br11  1  0.68114200  0.24817200  0.63384800  1
  Br  Br12  1  0.46150900  0.85806000  0.63633300  1
  Br  Br13  1  0.03849100  0.85806000  0.13633300  1
  Br  Br14  1  0.53849100  0.14194000  0.36366700  1
  Br  Br15  1  0.96150900  0.14194000  0.86366700  1
  N  N16  1  0.41254200  0.34120500  0.84361700  1
  N  N17  1  0.08745800  0.34120500  0.34361700  1
  N  N18  1  0.58745800  0.65879500  0.15638300  1
  N  N19  1  0.91254200  0.65879500  0.65638300  1
  N  N20  1  0.73668500  0.04606000  0.94351700  1
  N  N21  1  0.76331500  0.04606000  0.44351700  1
  N  N22  1  0.26331500  0.95394000  0.05648300  1
  N  N23  1  0.23668500  0.95394000  0.55648300  1
  N  N24  1  0.51387900  0.32871600  0.90153500  1
  N  N25  1  0.98612100  0.32871600  0.40153500  1
  N  N26  1  0.48612100  0.67128400  0.09846500  1
  N  N27  1  0.01387900  0.67128400  0.59846500  1
