# generated using pymatgen
data_Ti6Ga16Pt7
_symmetry_space_group_name_H-M   'P 1'
_cell_length_a   8.73347161
_cell_length_b   8.73347161
_cell_length_c   8.73347161
_cell_angle_alpha   60.00000000
_cell_angle_beta   60.00000000
_cell_angle_gamma   60.00000000
_symmetry_Int_Tables_number   1
_chemical_formula_structural   Ti6Ga16Pt7
_chemical_formula_sum   'Ti6 Ga16 Pt7'
_cell_volume   471.02693343
_cell_formula_units_Z   1
loop_
 _symmetry_equiv_pos_site_id
 _symmetry_equiv_pos_as_xyz
  1  'x, y, z'
loop_
 _atom_site_type_symbol
 _atom_site_label
 _atom_site_symmetry_multiplicity
 _atom_site_fract_x
 _atom_site_fract_y
 _atom_site_fract_z
 _atom_site_occupancy
  Ti  Ti0  1  0.67880800  0.67880800  0.32119200  1
  Ti  Ti1  1  0.32119200  0.67880800  0.32119200  1
  Ti  Ti2  1  0.67880800  0.32119200  0.32119200  1
  Ti  Ti3  1  0.32119200  0.32119200  0.67880800  1
  Ti  Ti4  1  0.67880800  0.32119200  0.67880800  1
  Ti  Ti5  1  0.32119200  0.67880800  0.67880800  1
  Ga  Ga6  1  0.87852500  0.87852500  0.36442400  1
  Ga  Ga7  1  0.87852500  0.36442400  0.87852500  1
  Ga  Ga8  1  0.36442400  0.87852500  0.87852500  1
  Ga  Ga9  1  0.87852500  0.87852500  0.87852500  1
  Ga  Ga10  1  0.12147500  0.12147500  0.63557600  1
  Ga  Ga11  1  0.12147500  0.63557600  0.12147500  1
  Ga  Ga12  1  0.63557600  0.12147500  0.12147500  1
  Ga  Ga13  1  0.12147500  0.12147500  0.12147500  1
  Ga  Ga14  1  0.65418800  0.65418800  0.03743500  1
  Ga  Ga15  1  0.65418800  0.03743500  0.65418800  1
  Ga  Ga16  1  0.03743500  0.65418800  0.65418800  1
  Ga  Ga17  1  0.65418800  0.65418800  0.65418800  1
  Ga  Ga18  1  0.34581200  0.34581200  0.96256500  1
  Ga  Ga19  1  0.34581200  0.96256500  0.34581200  1
  Ga  Ga20  1  0.96256500  0.34581200  0.34581200  1
  Ga  Ga21  1  0.34581200  0.34581200  0.34581200  1
  Pt  Pt22  1  0.00000000  0.00000000  0.00000000  1
  Pt  Pt23  1  0.00000000  0.00000000  0.50000000  1
  Pt  Pt24  1  0.50000000  0.00000000  0.50000000  1
  Pt  Pt25  1  0.00000000  0.50000000  0.50000000  1
  Pt  Pt26  1  0.50000000  0.50000000  0.00000000  1
  Pt  Pt27  1  0.00000000  0.50000000  0.00000000  1
  Pt  Pt28  1  0.50000000  0.00000000  0.00000000  1
