# generated using pymatgen
data_HoN3O10
_symmetry_space_group_name_H-M   'P 1'
_cell_length_a   7.49132100
_cell_length_b   8.08955424
_cell_length_c   8.24289773
_cell_angle_alpha   63.76205894
_cell_angle_beta   70.58955172
_cell_angle_gamma   62.97962283
_symmetry_Int_Tables_number   1
_chemical_formula_structural   HoN3O10
_chemical_formula_sum   'Ho2 N6 O20'
_cell_volume   393.71353474
_cell_formula_units_Z   2
loop_
 _symmetry_equiv_pos_site_id
 _symmetry_equiv_pos_as_xyz
  1  'x, y, z'
loop_
 _atom_site_type_symbol
 _atom_site_label
 _atom_site_symmetry_multiplicity
 _atom_site_fract_x
 _atom_site_fract_y
 _atom_site_fract_z
 _atom_site_occupancy
  Ho  Ho0  1  0.46408700  0.73126200  0.56875800  1
  Ho  Ho1  1  0.53591300  0.26873800  0.43124200  1
  N  N2  1  0.10103600  0.71504000  0.81103600  1
  N  N3  1  0.89896400  0.28496000  0.18896400  1
  N  N4  1  0.41023700  0.78970100  0.21469000  1
  N  N5  1  0.58976300  0.21029900  0.78531000  1
  N  N6  1  0.83005200  0.81400100  0.34603600  1
  N  N7  1  0.16994800  0.18599900  0.65396400  1
  O  O8  1  0.69242400  0.61445300  0.76362000  1
  O  O9  1  0.30757600  0.38554700  0.23638000  1
  O  O10  1  0.26462800  0.66828000  0.86840200  1
  O  O11  1  0.73537200  0.33172000  0.13159800  1
  O  O12  1  0.11943200  0.76467200  0.63573600  1
  O  O13  1  0.88056800  0.23532800  0.36426400  1
  O  O14  1  0.94154900  0.71368500  0.91446000  1
  O  O15  1  0.05845100  0.28631500  0.08554000  1
  O  O16  1  0.44325700  0.61546500  0.34983400  1
  O  O17  1  0.55674300  0.38453500  0.65016600  1
  O  O18  1  0.39178300  0.92551500  0.26474900  1
  O  O19  1  0.60821700  0.07448500  0.73525100  1
  O  O20  1  0.40009700  0.81223800  0.06219200  1
  O  O21  1  0.59990300  0.18776200  0.93780800  1
  O  O22  1  0.67826400  0.93288200  0.42906400  1
  O  O23  1  0.32173600  0.06711800  0.57093600  1
  O  O24  1  0.80774800  0.65279300  0.38522900  1
  O  O25  1  0.19225200  0.34720700  0.61477100  1
  O  O26  1  0.97267500  0.85888200  0.24338900  1
  O  O27  1  0.02732500  0.14111800  0.75661100  1
