# generated using pymatgen
data_Fe3(Ni10B3)2
_symmetry_space_group_name_H-M   'P 1'
_cell_length_a   7.40087231
_cell_length_b   7.40087231
_cell_length_c   7.40087231
_cell_angle_alpha   60.00000000
_cell_angle_beta   60.00000000
_cell_angle_gamma   60.00000000
_symmetry_Int_Tables_number   1
_chemical_formula_structural   Fe3(Ni10B3)2
_chemical_formula_sum   'Fe3 Ni20 B6'
_cell_volume   286.63798131
_cell_formula_units_Z   1
loop_
 _symmetry_equiv_pos_site_id
 _symmetry_equiv_pos_as_xyz
  1  'x, y, z'
loop_
 _atom_site_type_symbol
 _atom_site_label
 _atom_site_symmetry_multiplicity
 _atom_site_fract_x
 _atom_site_fract_y
 _atom_site_fract_z
 _atom_site_occupancy
  Fe  Fe0  1  0.00000000  0.00000000  0.00000000  1
  Fe  Fe1  1  0.75000000  0.75000000  0.75000000  1
  Fe  Fe2  1  0.25000000  0.25000000  0.25000000  1
  Ni  Ni3  1  0.00000000  0.00000000  0.33780100  1
  Ni  Ni4  1  0.66219900  0.00000000  0.33780100  1
  Ni  Ni5  1  0.00000000  0.66219900  0.33780100  1
  Ni  Ni6  1  0.66219900  0.33780100  0.00000000  1
  Ni  Ni7  1  0.00000000  0.33780100  0.00000000  1
  Ni  Ni8  1  0.00000000  0.33780100  0.66219900  1
  Ni  Ni9  1  0.33780100  0.66219900  0.00000000  1
  Ni  Ni10  1  0.33780100  0.00000000  0.66219900  1
  Ni  Ni11  1  0.33780100  0.00000000  0.00000000  1
  Ni  Ni12  1  0.00000000  0.00000000  0.66219900  1
  Ni  Ni13  1  0.00000000  0.66219900  0.00000000  1
  Ni  Ni14  1  0.66219900  0.00000000  0.00000000  1
  Ni  Ni15  1  0.61730200  0.61730200  0.14809400  1
  Ni  Ni16  1  0.61730200  0.14809400  0.61730200  1
  Ni  Ni17  1  0.14809400  0.61730200  0.61730200  1
  Ni  Ni18  1  0.61730200  0.61730200  0.61730200  1
  Ni  Ni19  1  0.38269800  0.38269800  0.85190600  1
  Ni  Ni20  1  0.38269800  0.85190600  0.38269800  1
  Ni  Ni21  1  0.85190600  0.38269800  0.38269800  1
  Ni  Ni22  1  0.38269800  0.38269800  0.38269800  1
  B  B23  1  0.72797800  0.72797800  0.27202200  1
  B  B24  1  0.27202200  0.72797800  0.27202200  1
  B  B25  1  0.72797800  0.27202200  0.27202200  1
  B  B26  1  0.27202200  0.27202200  0.72797800  1
  B  B27  1  0.72797800  0.27202200  0.72797800  1
  B  B28  1  0.27202200  0.72797800  0.72797800  1
