# generated using pymatgen
data_Re(Cl2O)2
_symmetry_space_group_name_H-M   'P 1'
_cell_length_a   5.66922100
_cell_length_b   11.53669500
_cell_length_c   12.03253500
_cell_angle_alpha   90.00000000
_cell_angle_beta   90.00000000
_cell_angle_gamma   90.00000000
_symmetry_Int_Tables_number   1
_chemical_formula_structural   Re(Cl2O)2
_chemical_formula_sum   'Re4 Cl16 O8'
_cell_volume   786.97680431
_cell_formula_units_Z   4
loop_
 _symmetry_equiv_pos_site_id
 _symmetry_equiv_pos_as_xyz
  1  'x, y, z'
loop_
 _atom_site_type_symbol
 _atom_site_label
 _atom_site_symmetry_multiplicity
 _atom_site_fract_x
 _atom_site_fract_y
 _atom_site_fract_z
 _atom_site_occupancy
  Re  Re0  1  0.06213300  0.64048600  0.75753600  1
  Re  Re1  1  0.93786700  0.35951400  0.25753600  1
  Re  Re2  1  0.56213300  0.85951400  0.25753600  1
  Re  Re3  1  0.43786700  0.14048600  0.75753600  1
  Cl  Cl4  1  0.23774000  0.51055900  0.60825000  1
  Cl  Cl5  1  0.76226000  0.48944100  0.10825000  1
  Cl  Cl6  1  0.73774000  0.98944100  0.10825000  1
  Cl  Cl7  1  0.26226000  0.01055900  0.60825000  1
  Cl  Cl8  1  0.26528200  0.53505300  0.89320700  1
  Cl  Cl9  1  0.73471800  0.46494700  0.39320700  1
  Cl  Cl10  1  0.76528200  0.96494700  0.39320700  1
  Cl  Cl11  1  0.23471800  0.03505300  0.89320700  1
  Cl  Cl12  1  0.83364700  0.72004600  0.88919700  1
  Cl  Cl13  1  0.16635300  0.27995400  0.38919700  1
  Cl  Cl14  1  0.33364700  0.77995400  0.38919700  1
  Cl  Cl15  1  0.66635300  0.22004600  0.88919700  1
  Cl  Cl16  1  0.86565500  0.74309400  0.62147800  1
  Cl  Cl17  1  0.13434500  0.25690600  0.12147800  1
  Cl  Cl18  1  0.36565500  0.75690600  0.12147800  1
  Cl  Cl19  1  0.63434500  0.24309400  0.62147800  1
  O  O20  1  0.90293400  0.50808700  0.72012500  1
  O  O21  1  0.09706600  0.49191300  0.22012500  1
  O  O22  1  0.40293400  0.99191300  0.22012500  1
  O  O23  1  0.59706600  0.00808700  0.72012500  1
  O  O24  1  0.31254400  0.72463400  0.73810700  1
  O  O25  1  0.68745600  0.27536600  0.23810700  1
  O  O26  1  0.81254400  0.77536600  0.23810700  1
  O  O27  1  0.18745600  0.22463400  0.73810700  1
