# generated using pymatgen
data_LuI3O11
_symmetry_space_group_name_H-M   'P 1'
_cell_length_a   7.15030100
_cell_length_b   7.53246097
_cell_length_c   9.43789403
_cell_angle_alpha   80.33672002
_cell_angle_beta   85.41473231
_cell_angle_gamma   72.16113715
_symmetry_Int_Tables_number   1
_chemical_formula_structural   LuI3O11
_chemical_formula_sum   'Lu2 I6 O22'
_cell_volume   476.79390000
_cell_formula_units_Z   2
loop_
 _symmetry_equiv_pos_site_id
 _symmetry_equiv_pos_as_xyz
  1  'x, y, z'
loop_
 _atom_site_type_symbol
 _atom_site_label
 _atom_site_symmetry_multiplicity
 _atom_site_fract_x
 _atom_site_fract_y
 _atom_site_fract_z
 _atom_site_occupancy
  Lu  Lu0  1  0.76212600  0.85133400  0.33152800  1
  Lu  Lu1  1  0.23787400  0.14866600  0.66847200  1
  I  I2  1  0.76573400  0.09739800  0.64065100  1
  I  I3  1  0.23426600  0.90260200  0.35934900  1
  I  I4  1  0.60205400  0.65159700  0.69691500  1
  I  I5  1  0.39794600  0.34840300  0.30308500  1
  I  I6  1  0.82840300  0.24458900  0.01772200  1
  I  I7  1  0.17159700  0.75541100  0.98227800  1
  O  O8  1  0.89941800  0.26934100  0.64138100  1
  O  O9  1  0.10058200  0.73065900  0.35861900  1
  O  O10  1  0.80044600  0.07834100  0.44731000  1
  O  O11  1  0.19955400  0.92165900  0.55269000  1
  O  O12  1  0.51394900  0.25937400  0.61973900  1
  O  O13  1  0.48605100  0.74062600  0.38026100  1
  O  O14  1  0.78450700  0.71175700  0.56092800  1
  O  O15  1  0.21549300  0.28824300  0.43907200  1
  O  O16  1  0.50648000  0.90063800  0.72755900  1
  O  O17  1  0.49352000  0.09936200  0.27244100  1
  O  O18  1  0.76716500  0.56104400  0.84606100  1
  O  O19  1  0.23283500  0.43895600  0.15393900  1
  O  O20  1  0.90980500  0.01549800  0.14753800  1
  O  O21  1  0.09019500  0.98450200  0.85246200  1
  O  O22  1  0.65769300  0.18399100  0.91773000  1
  O  O23  1  0.34230700  0.81600900  0.08227000  1
  O  O24  1  0.67392900  0.39224400  0.14512000  1
  O  O25  1  0.32607100  0.60775600  0.85488000  1
  O  O26  1  0.73872900  0.80004400  0.10299900  1
  O  O27  1  0.26127100  0.19995600  0.89700100  1
  O  O28  1  0.85503700  0.52780900  0.31658300  1
  O  O29  1  0.14496300  0.47219100  0.68341700  1
