# generated using pymatgen
data_V3(NO4)2
_symmetry_space_group_name_H-M   'P 1'
_cell_length_a   9.04990400
_cell_length_b   9.04990400
_cell_length_c   5.49585400
_cell_angle_alpha   90.00000000
_cell_angle_beta   90.00000000
_cell_angle_gamma   90.00000000
_symmetry_Int_Tables_number   1
_chemical_formula_structural   V3(NO4)2
_chemical_formula_sum   'V6 N4 O16'
_cell_volume   450.11463269
_cell_formula_units_Z   2
loop_
 _symmetry_equiv_pos_site_id
 _symmetry_equiv_pos_as_xyz
  1  'x, y, z'
loop_
 _atom_site_type_symbol
 _atom_site_label
 _atom_site_symmetry_multiplicity
 _atom_site_fract_x
 _atom_site_fract_y
 _atom_site_fract_z
 _atom_site_occupancy
  V  V0  1  0.50000000  0.50000000  0.51335900  1
  V  V1  1  0.00000000  0.00000000  0.51335900  1
  V  V2  1  0.35991900  0.85991900  0.49202700  1
  V  V3  1  0.64008100  0.14008100  0.49202700  1
  V  V4  1  0.85991900  0.64008100  0.49202700  1
  V  V5  1  0.14008100  0.35991900  0.49202700  1
  N  N6  1  0.22883400  0.72883400  0.08053000  1
  N  N7  1  0.77116600  0.27116600  0.08053000  1
  N  N8  1  0.72883400  0.77116600  0.08053000  1
  N  N9  1  0.27116600  0.22883400  0.08053000  1
  O  O10  1  0.41964600  0.68725200  0.60099700  1
  O  O11  1  0.58035400  0.31274800  0.60099700  1
  O  O12  1  0.91964600  0.81274800  0.60099700  1
  O  O13  1  0.08035400  0.18725200  0.60099700  1
  O  O14  1  0.31274800  0.41964600  0.60099700  1
  O  O15  1  0.68725200  0.58035400  0.60099700  1
  O  O16  1  0.18725200  0.91964600  0.60099700  1
  O  O17  1  0.81274800  0.08035400  0.60099700  1
  O  O18  1  0.31993300  0.81993300  0.14573400  1
  O  O19  1  0.68006700  0.18006700  0.14573400  1
  O  O20  1  0.81993300  0.68006700  0.14573400  1
  O  O21  1  0.18006700  0.31993300  0.14573400  1
  O  O22  1  0.50000000  0.00000000  0.45841200  1
  O  O23  1  0.00000000  0.50000000  0.45841200  1
  O  O24  1  0.50000000  0.50000000  0.21926000  1
  O  O25  1  0.00000000  0.00000000  0.21926000  1
