# generated using pymatgen
data_Cs2WO4
_symmetry_space_group_name_H-M   'P 1'
_cell_length_a   6.78284300
_cell_length_b   8.73642100
_cell_length_c   11.95500200
_cell_angle_alpha   90.00000000
_cell_angle_beta   90.00000000
_cell_angle_gamma   90.00000000
_symmetry_Int_Tables_number   1
_chemical_formula_structural   Cs2WO4
_chemical_formula_sum   'Cs8 W4 O16'
_cell_volume   708.42678307
_cell_formula_units_Z   4
loop_
 _symmetry_equiv_pos_site_id
 _symmetry_equiv_pos_as_xyz
  1  'x, y, z'
loop_
 _atom_site_type_symbol
 _atom_site_label
 _atom_site_symmetry_multiplicity
 _atom_site_fract_x
 _atom_site_fract_y
 _atom_site_fract_z
 _atom_site_occupancy
  Cs  Cs0  1  0.75000000  0.50983000  0.79103700  1
  Cs  Cs1  1  0.75000000  0.00983000  0.70896300  1
  Cs  Cs2  1  0.25000000  0.49017000  0.20896300  1
  Cs  Cs3  1  0.25000000  0.99017000  0.29103700  1
  Cs  Cs4  1  0.75000000  0.82853000  0.07991600  1
  Cs  Cs5  1  0.75000000  0.32853000  0.42008400  1
  Cs  Cs6  1  0.25000000  0.17147000  0.92008400  1
  Cs  Cs7  1  0.25000000  0.67147000  0.57991600  1
  W  W8  1  0.75000000  0.27378900  0.08062500  1
  W  W9  1  0.75000000  0.77378900  0.41937500  1
  W  W10  1  0.25000000  0.72621100  0.91937500  1
  W  W11  1  0.25000000  0.22621100  0.58062500  1
  O  O12  1  0.75000000  0.48129000  0.08213000  1
  O  O13  1  0.75000000  0.98129000  0.41787000  1
  O  O14  1  0.25000000  0.51871000  0.91787000  1
  O  O15  1  0.25000000  0.01871000  0.58213000  1
  O  O16  1  0.75000000  0.20559900  0.93628300  1
  O  O17  1  0.75000000  0.70559900  0.56371700  1
  O  O18  1  0.25000000  0.79440100  0.06371700  1
  O  O19  1  0.25000000  0.29440100  0.43628300  1
  O  O20  1  0.97017700  0.20147500  0.14981200  1
  O  O21  1  0.52982300  0.70147500  0.35018800  1
  O  O22  1  0.47017700  0.79852500  0.85018800  1
  O  O23  1  0.02982300  0.29852500  0.64981200  1
  O  O24  1  0.02982300  0.79852500  0.85018800  1
  O  O25  1  0.47017700  0.29852500  0.64981200  1
  O  O26  1  0.52982300  0.20147500  0.14981200  1
  O  O27  1  0.97017700  0.70147500  0.35018800  1
