data_image0
_chemical_formula_structural       Li2N4U2
_chemical_formula_sum              "Li2 N4 U2"
_cell_length_a       4.35075
_cell_length_b       4.35075
_cell_length_c       6.32191
_cell_angle_alpha    110.127
_cell_angle_beta     110.127
_cell_angle_gamma    90

_space_group_name_H-M_alt    "P 1"
_space_group_IT_number       1

loop_
  _space_group_symop_operation_xyz
  'x, y, z'

loop_
  _atom_site_type_symbol
  _atom_site_label
  _atom_site_symmetry_multiplicity
  _atom_site_fract_x
  _atom_site_fract_y
  _atom_site_fract_z
  _atom_site_occupancy
  Li  Li1       1.0  0.62500  0.37500  0.25000  1.0000
  Li  Li2       1.0  0.37500  0.62500  0.75000  1.0000
  N   N1        1.0  0.08470  0.33500  0.16900  1.0000
  N   N2        1.0  0.66500  0.91500  0.33100  1.0000
  N   N3        1.0  0.33500  0.08470  0.66900  1.0000
  N   N4        1.0  0.91500  0.66500  0.83100  1.0000
  U   U1        1.0  0.12500  0.87500  0.25000  1.0000
  U   U2        1.0  0.87500  0.12500  0.75000  1.0000
