# generated using pymatgen
data_KSNO4
_symmetry_space_group_name_H-M   'P 1'
_cell_length_a   5.63765800
_cell_length_b   7.41544400
_cell_length_c   12.39325900
_cell_angle_alpha   90.00000000
_cell_angle_beta   90.00000000
_cell_angle_gamma   90.00000000
_symmetry_Int_Tables_number   1
_chemical_formula_structural   KSNO4
_chemical_formula_sum   'K4 S4 N4 O16'
_cell_volume   518.10932868
_cell_formula_units_Z   4
loop_
 _symmetry_equiv_pos_site_id
 _symmetry_equiv_pos_as_xyz
  1  'x, y, z'
loop_
 _atom_site_type_symbol
 _atom_site_label
 _atom_site_symmetry_multiplicity
 _atom_site_fract_x
 _atom_site_fract_y
 _atom_site_fract_z
 _atom_site_occupancy
  K  K0  1  0.97947600  0.81244100  0.84268100  1
  K  K1  1  0.47947600  0.68755900  0.15731900  1
  K  K2  1  0.02052400  0.31244100  0.65731900  1
  K  K3  1  0.52052400  0.18755900  0.34268100  1
  S  S4  1  0.46816200  0.99539200  0.64454300  1
  S  S5  1  0.96816200  0.50460800  0.35545700  1
  S  S6  1  0.53183800  0.49539200  0.85545700  1
  S  S7  1  0.03183800  0.00460800  0.14454300  1
  N  N8  1  0.38822600  0.76393000  0.58349400  1
  N  N9  1  0.88822600  0.73607000  0.41650600  1
  N  N10  1  0.61177400  0.26393000  0.91650600  1
  N  N11  1  0.11177400  0.23607000  0.08349400  1
  O  O12  1  0.22129100  0.69718600  0.62774700  1
  O  O13  1  0.72129100  0.80281400  0.37225300  1
  O  O14  1  0.77870900  0.19718600  0.87225300  1
  O  O15  1  0.27870900  0.30281400  0.12774700  1
  O  O16  1  0.32341400  0.01899100  0.74231100  1
  O  O17  1  0.82341400  0.48100900  0.25768900  1
  O  O18  1  0.67658600  0.51899100  0.75768900  1
  O  O19  1  0.17658600  0.98100900  0.24231100  1
  O  O20  1  0.72487000  0.98330500  0.66320400  1
  O  O21  1  0.22487000  0.51669500  0.33679600  1
  O  O22  1  0.27513000  0.48330500  0.83679600  1
  O  O23  1  0.77513000  0.01669500  0.16320400  1
  O  O24  1  0.40081600  0.11809500  0.55596400  1
  O  O25  1  0.90081600  0.38190500  0.44403600  1
  O  O26  1  0.59918400  0.61809500  0.94403600  1
  O  O27  1  0.09918400  0.88190500  0.05596400  1
