# generated using pymatgen
data_MnPCO4
_symmetry_space_group_name_H-M   'P 1'
_cell_length_a   5.20623900
_cell_length_b   7.33620300
_cell_length_c   13.25249800
_cell_angle_alpha   90.00000000
_cell_angle_beta   90.00000000
_cell_angle_gamma   90.00000000
_symmetry_Int_Tables_number   1
_chemical_formula_structural   MnPCO4
_chemical_formula_sum   'Mn4 P4 C4 O16'
_cell_volume   506.16625544
_cell_formula_units_Z   4
loop_
 _symmetry_equiv_pos_site_id
 _symmetry_equiv_pos_as_xyz
  1  'x, y, z'
loop_
 _atom_site_type_symbol
 _atom_site_label
 _atom_site_symmetry_multiplicity
 _atom_site_fract_x
 _atom_site_fract_y
 _atom_site_fract_z
 _atom_site_occupancy
  Mn  Mn0  1  0.63503700  0.31725100  0.74336000  1
  Mn  Mn1  1  0.36496300  0.81725100  0.25664000  1
  Mn  Mn2  1  0.13503700  0.81725100  0.75664000  1
  Mn  Mn3  1  0.86496300  0.31725100  0.24336000  1
  P  P4  1  0.61107000  0.97317200  0.62907100  1
  P  P5  1  0.38893000  0.47317200  0.37092900  1
  P  P6  1  0.11107000  0.47317200  0.87092900  1
  P  P7  1  0.88893000  0.97317200  0.12907100  1
  C  C8  1  0.94621200  0.58923700  0.54399100  1
  C  C9  1  0.05378800  0.08923700  0.45600900  1
  C  C10  1  0.44621200  0.08923700  0.95600900  1
  C  C11  1  0.55378800  0.58923700  0.04399100  1
  O  O12  1  0.41156900  0.82186100  0.64948100  1
  O  O13  1  0.58843100  0.32186100  0.35051900  1
  O  O14  1  0.91156900  0.32186100  0.85051900  1
  O  O15  1  0.08843100  0.82186100  0.14948100  1
  O  O16  1  0.49311600  0.16712300  0.62616900  1
  O  O17  1  0.50688400  0.66712300  0.37383100  1
  O  O18  1  0.99311600  0.66712300  0.87383100  1
  O  O19  1  0.00688400  0.16712300  0.12616900  1
  O  O20  1  0.87888500  0.51143300  0.61462000  1
  O  O21  1  0.12111500  0.01143300  0.38538000  1
  O  O22  1  0.37888500  0.01143300  0.88538000  1
  O  O23  1  0.62111500  0.51143300  0.11462000  1
  O  O24  1  0.83496000  0.97412300  0.70676100  1
  O  O25  1  0.16504000  0.47412300  0.29323900  1
  O  O26  1  0.33496000  0.47412300  0.79323900  1
  O  O27  1  0.66504000  0.97412300  0.20676100  1
