# generated using pymatgen
data_Ca(BO5)2
_symmetry_space_group_name_H-M   'P 1'
_cell_length_a   7.44288265
_cell_length_b   7.44288265
_cell_length_c   8.76751580
_cell_angle_alpha   89.37822182
_cell_angle_beta   89.37822182
_cell_angle_gamma   45.44580834
_symmetry_Int_Tables_number   1
_chemical_formula_structural   Ca(BO5)2
_chemical_formula_sum   'Ca2 B4 O20'
_cell_volume   346.07231288
_cell_formula_units_Z   2
loop_
 _symmetry_equiv_pos_site_id
 _symmetry_equiv_pos_as_xyz
  1  'x, y, z'
loop_
 _atom_site_type_symbol
 _atom_site_label
 _atom_site_symmetry_multiplicity
 _atom_site_fract_x
 _atom_site_fract_y
 _atom_site_fract_z
 _atom_site_occupancy
  Ca  Ca0  1  0.14079000  0.85921000  0.75000000  1
  Ca  Ca1  1  0.85921000  0.14079000  0.25000000  1
  B  B2  1  0.76713000  0.42092700  0.58650000  1
  B  B3  1  0.57907300  0.23287000  0.91350000  1
  B  B4  1  0.23287000  0.57907300  0.41350000  1
  B  B5  1  0.42092700  0.76713000  0.08650000  1
  O  O6  1  0.75139600  0.23871400  0.55409400  1
  O  O7  1  0.76128600  0.24860400  0.94590600  1
  O  O8  1  0.24860400  0.76128600  0.44590600  1
  O  O9  1  0.23871400  0.75139600  0.05409400  1
  O  O10  1  0.98553200  0.27290600  0.68297200  1
  O  O11  1  0.72709400  0.01446800  0.81702800  1
  O  O12  1  0.01446800  0.72709400  0.31702800  1
  O  O13  1  0.27290600  0.98553200  0.18297200  1
  O  O14  1  0.87048000  0.39687000  0.43832500  1
  O  O15  1  0.60313000  0.12952000  0.06167500  1
  O  O16  1  0.12952000  0.60313000  0.56167500  1
  O  O17  1  0.39687000  0.87048000  0.93832500  1
  O  O18  1  0.54199600  0.65498400  0.64397200  1
  O  O19  1  0.34501600  0.45800400  0.85602800  1
  O  O20  1  0.45800400  0.34501600  0.35602800  1
  O  O21  1  0.65498400  0.54199600  0.14397200  1
  O  O22  1  0.98526900  0.49457600  0.06659800  1
  O  O23  1  0.50542400  0.01473100  0.43340200  1
  O  O24  1  0.01473100  0.50542400  0.93340200  1
  O  O25  1  0.49457600  0.98526900  0.56659800  1
