# generated using pymatgen
data_MoWS4
_symmetry_space_group_name_H-M   'P 1'
_cell_length_a   3.18965812
_cell_length_b   3.18965812
_cell_length_c   35.79230900
_cell_angle_alpha   90.00000000
_cell_angle_beta   90.00000000
_cell_angle_gamma   120.00000256
_symmetry_Int_Tables_number   1
_chemical_formula_structural   MoWS4
_chemical_formula_sum   'Mo2 W2 S8'
_cell_volume   315.36145443
_cell_formula_units_Z   2
loop_
 _symmetry_equiv_pos_site_id
 _symmetry_equiv_pos_as_xyz
  1  'x, y, z'
loop_
 _atom_site_type_symbol
 _atom_site_label
 _atom_site_symmetry_multiplicity
 _atom_site_fract_x
 _atom_site_fract_y
 _atom_site_fract_z
 _atom_site_occupancy
  Mo  Mo0  1  0.33333300  0.66666700  0.09392000  1
  Mo  Mo1  1  0.66666700  0.33333300  0.90608000  1
  W  W2  1  0.33333300  0.66666700  0.71819200  1
  W  W3  1  0.66666700  0.33333300  0.28180800  1
  S  S4  1  0.33333300  0.66666700  0.94980500  1
  S  S5  1  0.33333300  0.66666700  0.32575500  1
  S  S6  1  0.66666700  0.33333300  0.67424500  1
  S  S7  1  0.66666700  0.33333300  0.05019500  1
  S  S8  1  0.66666700  0.33333300  0.76212900  1
  S  S9  1  0.66666700  0.33333300  0.13766000  1
  S  S10  1  0.33333300  0.66666700  0.86234000  1
  S  S11  1  0.33333300  0.66666700  0.23787100  1
