# generated using pymatgen
data_Ce(IO3)3
_symmetry_space_group_name_H-M   'P 1'
_cell_length_a   6.07720900
_cell_length_b   6.31375800
_cell_length_c   11.86747600
_cell_angle_alpha   90.00000000
_cell_angle_beta   90.00000000
_cell_angle_gamma   90.00000000
_symmetry_Int_Tables_number   1
_chemical_formula_structural   Ce(IO3)3
_chemical_formula_sum   'Ce2 I6 O18'
_cell_volume   455.35537385
_cell_formula_units_Z   2
loop_
 _symmetry_equiv_pos_site_id
 _symmetry_equiv_pos_as_xyz
  1  'x, y, z'
loop_
 _atom_site_type_symbol
 _atom_site_label
 _atom_site_symmetry_multiplicity
 _atom_site_fract_x
 _atom_site_fract_y
 _atom_site_fract_z
 _atom_site_occupancy
  Ce  Ce0  1  0.75000000  0.27039400  0.25000000  1
  Ce  Ce1  1  0.25000000  0.72960600  0.75000000  1
  I  I2  1  0.75000000  0.21831800  0.75000000  1
  I  I3  1  0.25000000  0.78168200  0.25000000  1
  I  I4  1  0.75000000  0.72221300  0.98949300  1
  I  I5  1  0.75000000  0.72221300  0.51050700  1
  I  I6  1  0.25000000  0.27778700  0.01050700  1
  I  I7  1  0.25000000  0.27778700  0.48949300  1
  O  O8  1  0.75000000  0.56630200  0.25000000  1
  O  O9  1  0.25000000  0.43369800  0.75000000  1
  O  O10  1  0.48822600  0.95775400  0.25000000  1
  O  O11  1  0.01177400  0.95775400  0.25000000  1
  O  O12  1  0.51177400  0.04224600  0.75000000  1
  O  O13  1  0.98822600  0.04224600  0.75000000  1
  O  O14  1  0.75000000  0.00896700  0.98661600  1
  O  O15  1  0.75000000  0.00896700  0.51338400  1
  O  O16  1  0.25000000  0.99103300  0.01338400  1
  O  O17  1  0.25000000  0.99103300  0.48661600  1
  O  O18  1  0.47652800  0.35777700  0.10510100  1
  O  O19  1  0.02347200  0.35777700  0.10510100  1
  O  O20  1  0.47652800  0.35777700  0.39489900  1
  O  O21  1  0.02347200  0.35777700  0.39489900  1
  O  O22  1  0.52347200  0.64222300  0.89489900  1
  O  O23  1  0.97652800  0.64222300  0.89489900  1
  O  O24  1  0.52347200  0.64222300  0.60510100  1
  O  O25  1  0.97652800  0.64222300  0.60510100  1
