# generated using pymatgen
data_SrIrO3
_symmetry_space_group_name_H-M   'P 1'
_cell_length_a   5.61180604
_cell_length_b   5.61180604
_cell_length_c   14.37760927
_cell_angle_alpha   88.21645894
_cell_angle_beta   88.21645894
_cell_angle_gamma   119.48077742
_symmetry_Int_Tables_number   1
_chemical_formula_structural   SrIrO3
_chemical_formula_sum   'Sr6 Ir6 O18'
_cell_volume   393.40622473
_cell_formula_units_Z   6
loop_
 _symmetry_equiv_pos_site_id
 _symmetry_equiv_pos_as_xyz
  1  'x, y, z'
loop_
 _atom_site_type_symbol
 _atom_site_label
 _atom_site_symmetry_multiplicity
 _atom_site_fract_x
 _atom_site_fract_y
 _atom_site_fract_z
 _atom_site_occupancy
  Sr  Sr0  1  0.00983800  0.99016200  0.25000000  1
  Sr  Sr1  1  0.99016200  0.00983800  0.75000000  1
  Sr  Sr2  1  0.65414500  0.31787000  0.10215600  1
  Sr  Sr3  1  0.68213000  0.34585500  0.39784400  1
  Sr  Sr4  1  0.34585500  0.68213000  0.89784300  1
  Sr  Sr5  1  0.31787000  0.65414500  0.60215600  1
  Ir  Ir6  1  0.00000000  0.00000000  0.00000000  1
  Ir  Ir7  1  0.00000000  0.00000000  0.50000000  1
  Ir  Ir8  1  0.68440200  0.35772600  0.84806800  1
  Ir  Ir9  1  0.64227400  0.31559800  0.65193200  1
  Ir  Ir10  1  0.31559800  0.64227400  0.15193200  1
  Ir  Ir11  1  0.35772600  0.68440200  0.34806800  1
  O  O12  1  0.49505500  0.50494500  0.25000000  1
  O  O13  1  0.50494500  0.49505500  0.75000000  1
  O  O14  1  0.03711600  0.50812700  0.26459500  1
  O  O15  1  0.49187300  0.96288400  0.23540500  1
  O  O16  1  0.96288400  0.49187300  0.73540500  1
  O  O17  1  0.50812700  0.03711600  0.76459500  1
  O  O18  1  0.59681400  0.79048200  0.04191800  1
  O  O19  1  0.20951800  0.40318600  0.45808200  1
  O  O20  1  0.40318600  0.20951800  0.95808200  1
  O  O21  1  0.79048200  0.59681400  0.54191800  1
  O  O22  1  0.22884100  0.93147100  0.40543200  1
  O  O23  1  0.06852900  0.77115900  0.09456800  1
  O  O24  1  0.77115900  0.06852900  0.59456800  1
  O  O25  1  0.93147100  0.22884100  0.90543200  1
  O  O26  1  0.07405900  0.26390400  0.10180500  1
  O  O27  1  0.73609600  0.92594100  0.39819500  1
  O  O28  1  0.92594100  0.73609600  0.89819500  1
  O  O29  1  0.26390400  0.07405900  0.60180500  1
