# generated using pymatgen
data_SnH6C4(SN)2
_symmetry_space_group_name_H-M   'P 1'
_cell_length_a   5.75273200
_cell_length_b   8.25835100
_cell_length_c   10.52169800
_cell_angle_alpha   90.00000000
_cell_angle_beta   90.00000000
_cell_angle_gamma   90.00000000
_symmetry_Int_Tables_number   1
_chemical_formula_structural   SnH6C4(SN)2
_chemical_formula_sum   'Sn2 H12 C8 S4 N4'
_cell_volume   499.86567100
_cell_formula_units_Z   2
loop_
 _symmetry_equiv_pos_site_id
 _symmetry_equiv_pos_as_xyz
  1  'x, y, z'
loop_
 _atom_site_type_symbol
 _atom_site_label
 _atom_site_symmetry_multiplicity
 _atom_site_fract_x
 _atom_site_fract_y
 _atom_site_fract_z
 _atom_site_occupancy
  Sn  Sn0  1  0.53787200  0.25000000  0.25000000  1
  Sn  Sn1  1  0.46212800  0.75000000  0.75000000  1
  H  H2  1  0.84446000  0.50110500  0.25000000  1
  H  H3  1  0.84446000  0.99889500  0.25000000  1
  H  H4  1  0.15554000  0.49889500  0.75000000  1
  H  H5  1  0.15554000  0.00110500  0.75000000  1
  H  H6  1  0.58361300  0.55111800  0.16446500  1
  H  H7  1  0.58361300  0.55111800  0.33553500  1
  H  H8  1  0.58361300  0.94888200  0.16446500  1
  H  H9  1  0.58361300  0.94888200  0.33553500  1
  H  H10  1  0.41638700  0.44888200  0.83553500  1
  H  H11  1  0.41638700  0.44888200  0.66446500  1
  H  H12  1  0.41638700  0.05111800  0.83553500  1
  H  H13  1  0.41638700  0.05111800  0.66446500  1
  C  C14  1  0.09652500  0.25000000  0.05289600  1
  C  C15  1  0.09652500  0.25000000  0.44710400  1
  C  C16  1  0.90347500  0.75000000  0.94710400  1
  C  C17  1  0.90347500  0.75000000  0.55289600  1
  C  C18  1  0.65459900  0.49458700  0.25000000  1
  C  C19  1  0.65459900  0.00541300  0.25000000  1
  C  C20  1  0.34540100  0.50541300  0.75000000  1
  C  C21  1  0.34540100  0.99458700  0.75000000  1
  S  S22  1  0.85210400  0.25000000  0.98027900  1
  S  S23  1  0.85210400  0.25000000  0.51972100  1
  S  S24  1  0.14789600  0.75000000  0.01972100  1
  S  S25  1  0.14789600  0.75000000  0.48027900  1
  N  N26  1  0.27998900  0.25000000  0.10543200  1
  N  N27  1  0.27998900  0.25000000  0.39456800  1
  N  N28  1  0.72001100  0.75000000  0.89456800  1
  N  N29  1  0.72001100  0.75000000  0.60543200  1
