# generated using pymatgen
data_Tl2PO4
_symmetry_space_group_name_H-M   'P 1'
_cell_length_a   5.76489700
_cell_length_b   7.68895400
_cell_length_c   10.27319500
_cell_angle_alpha   90.00000000
_cell_angle_beta   90.00000000
_cell_angle_gamma   90.00000000
_symmetry_Int_Tables_number   1
_chemical_formula_structural   Tl2PO4
_chemical_formula_sum   'Tl8 P4 O16'
_cell_volume   455.36992766
_cell_formula_units_Z   4
loop_
 _symmetry_equiv_pos_site_id
 _symmetry_equiv_pos_as_xyz
  1  'x, y, z'
loop_
 _atom_site_type_symbol
 _atom_site_label
 _atom_site_symmetry_multiplicity
 _atom_site_fract_x
 _atom_site_fract_y
 _atom_site_fract_z
 _atom_site_occupancy
  Tl  Tl0  1  0.25000000  0.84271200  0.08650000  1
  Tl  Tl1  1  0.75000000  0.65728800  0.58650000  1
  Tl  Tl2  1  0.75000000  0.15728800  0.91350000  1
  Tl  Tl3  1  0.25000000  0.34271200  0.41350000  1
  Tl  Tl4  1  0.75000000  0.98477500  0.30515500  1
  Tl  Tl5  1  0.25000000  0.51522500  0.80515500  1
  Tl  Tl6  1  0.25000000  0.01522500  0.69484500  1
  Tl  Tl7  1  0.75000000  0.48477500  0.19484500  1
  P  P8  1  0.25000000  0.80898800  0.42150100  1
  P  P9  1  0.75000000  0.69101200  0.92150100  1
  P  P10  1  0.75000000  0.19101200  0.57849900  1
  P  P11  1  0.25000000  0.30898800  0.07849900  1
  O  O12  1  0.02446000  0.73881700  0.35271700  1
  O  O13  1  0.52446000  0.76118300  0.85271700  1
  O  O14  1  0.97554000  0.26118300  0.64728300  1
  O  O15  1  0.47554000  0.23881700  0.14728300  1
  O  O16  1  0.47554000  0.73881700  0.35271700  1
  O  O17  1  0.97554000  0.76118300  0.85271700  1
  O  O18  1  0.52446000  0.26118300  0.64728300  1
  O  O19  1  0.02446000  0.23881700  0.14728300  1
  O  O20  1  0.25000000  0.00875200  0.42024100  1
  O  O21  1  0.75000000  0.49124800  0.92024100  1
  O  O22  1  0.75000000  0.99124800  0.57975900  1
  O  O23  1  0.25000000  0.50875200  0.07975900  1
  O  O24  1  0.25000000  0.74364300  0.56802900  1
  O  O25  1  0.75000000  0.75635700  0.06802900  1
  O  O26  1  0.75000000  0.25635700  0.43197100  1
  O  O27  1  0.25000000  0.24364300  0.93197100  1
