# generated using pymatgen
data_KZnBr3O2
_symmetry_space_group_name_H-M   'P 1'
_cell_length_a   7.34793500
_cell_length_b   8.96038300
_cell_length_c   13.54446200
_cell_angle_alpha   90.00000000
_cell_angle_beta   90.00000000
_cell_angle_gamma   90.00000000
_symmetry_Int_Tables_number   1
_chemical_formula_structural   KZnBr3O2
_chemical_formula_sum   'K4 Zn4 Br12 O8'
_cell_volume   891.77160204
_cell_formula_units_Z   4
loop_
 _symmetry_equiv_pos_site_id
 _symmetry_equiv_pos_as_xyz
  1  'x, y, z'
loop_
 _atom_site_type_symbol
 _atom_site_label
 _atom_site_symmetry_multiplicity
 _atom_site_fract_x
 _atom_site_fract_y
 _atom_site_fract_z
 _atom_site_occupancy
  K  K0  1  0.89671900  0.46838000  0.09201000  1
  K  K1  1  0.39671900  0.03162000  0.90799000  1
  K  K2  1  0.10328100  0.96838000  0.40799000  1
  K  K3  1  0.60328100  0.53162000  0.59201000  1
  Zn  Zn4  1  0.32652000  0.47540600  0.91230400  1
  Zn  Zn5  1  0.82652000  0.02459400  0.08769600  1
  Zn  Zn6  1  0.67348000  0.97540600  0.58769600  1
  Zn  Zn7  1  0.17348000  0.52459400  0.41230400  1
  Br  Br8  1  0.35363200  0.34103700  0.76420100  1
  Br  Br9  1  0.85363200  0.15896300  0.23579900  1
  Br  Br10  1  0.64636800  0.84103700  0.73579900  1
  Br  Br11  1  0.14636800  0.65896300  0.26420100  1
  Br  Br12  1  0.40324800  0.35642500  0.06232000  1
  Br  Br13  1  0.90324800  0.14357500  0.93768000  1
  Br  Br14  1  0.59675200  0.85642500  0.43768000  1
  Br  Br15  1  0.09675200  0.64357500  0.56232000  1
  Br  Br16  1  0.16467700  0.70058000  0.91880700  1
  Br  Br17  1  0.66467700  0.79942000  0.08119300  1
  Br  Br18  1  0.83532300  0.20058000  0.58119300  1
  Br  Br19  1  0.33532300  0.29942000  0.41880700  1
  O  O20  1  0.74116000  0.51925700  0.87644400  1
  O  O21  1  0.24116000  0.98074300  0.12355600  1
  O  O22  1  0.25884000  0.01925700  0.62355600  1
  O  O23  1  0.75884000  0.48074300  0.37644400  1
  O  O24  1  0.82316400  0.48022900  0.80133100  1
  O  O25  1  0.32316400  0.01977100  0.19866900  1
  O  O26  1  0.17683600  0.98022900  0.69866900  1
  O  O27  1  0.67683600  0.51977100  0.30133100  1
