# generated using pymatgen
data_YbPH5CO7
_symmetry_space_group_name_H-M   'P 1'
_cell_length_a   6.46359700
_cell_length_b   7.07566471
_cell_length_c   7.67561019
_cell_angle_alpha   105.13132286
_cell_angle_beta   93.91797297
_cell_angle_gamma   92.74210267
_symmetry_Int_Tables_number   1
_chemical_formula_structural   YbPH5CO7
_chemical_formula_sum   'Yb2 P2 H10 C2 O14'
_cell_volume   337.28877317
_cell_formula_units_Z   2
loop_
 _symmetry_equiv_pos_site_id
 _symmetry_equiv_pos_as_xyz
  1  'x, y, z'
loop_
 _atom_site_type_symbol
 _atom_site_label
 _atom_site_symmetry_multiplicity
 _atom_site_fract_x
 _atom_site_fract_y
 _atom_site_fract_z
 _atom_site_occupancy
  Yb  Yb0  1  0.86647500  0.76087400  0.03140100  1
  Yb  Yb1  1  0.13352500  0.23912600  0.96859900  1
  P  P2  1  0.33598800  0.76619900  0.01848700  1
  P  P3  1  0.66401200  0.23380100  0.98151300  1
  H  H4  1  0.41496700  0.74886000  0.84760500  1
  H  H5  1  0.58503300  0.25114000  0.15239500  1
  H  H6  1  0.70982200  0.67988300  0.63108800  1
  H  H7  1  0.29017800  0.32011700  0.36891200  1
  H  H8  1  0.79949000  0.49923800  0.69397200  1
  H  H9  1  0.20051000  0.50076200  0.30602800  1
  H  H10  1  0.54920300  0.79039800  0.37072200  1
  H  H11  1  0.45079700  0.20960200  0.62927800  1
  H  H12  1  0.52032900  0.90267000  0.58270800  1
  H  H13  1  0.47967100  0.09733000  0.41729200  1
  C  C14  1  0.91505900  0.17812100  0.47814600  1
  C  C15  1  0.08494100  0.82187900  0.52185400  1
  O  O16  1  0.19882400  0.94333600  0.05571300  1
  O  O17  1  0.80117600  0.05666400  0.94428700  1
  O  O18  1  0.53087200  0.79213000  0.15319300  1
  O  O19  1  0.46912800  0.20787000  0.84680700  1
  O  O20  1  0.19325600  0.58086700  0.00185500  1
  O  O21  1  0.80674400  0.41913300  0.99814500  1
  O  O22  1  0.03584500  0.72985700  0.37218400  1
  O  O23  1  0.96415500  0.27014300  0.62781600  1
  O  O24  1  0.86251100  0.08086800  0.33192500  1
  O  O25  1  0.13748900  0.91913200  0.66807500  1
  O  O26  1  0.80484500  0.64161600  0.72233700  1
  O  O27  1  0.19515500  0.35838400  0.27766300  1
  O  O28  1  0.57904500  0.79181200  0.50214800  1
  O  O29  1  0.42095500  0.20818800  0.49785200  1
