# generated using pymatgen
data_RbMgPO4
_symmetry_space_group_name_H-M   'P 1'
_cell_length_a   5.51673300
_cell_length_b   8.92022500
_cell_length_c   9.92710000
_cell_angle_alpha   90.00000000
_cell_angle_beta   90.00000000
_cell_angle_gamma   90.00000000
_symmetry_Int_Tables_number   1
_chemical_formula_structural   RbMgPO4
_chemical_formula_sum   'Rb4 Mg4 P4 O16'
_cell_volume   488.51755083
_cell_formula_units_Z   4
loop_
 _symmetry_equiv_pos_site_id
 _symmetry_equiv_pos_as_xyz
  1  'x, y, z'
loop_
 _atom_site_type_symbol
 _atom_site_label
 _atom_site_symmetry_multiplicity
 _atom_site_fract_x
 _atom_site_fract_y
 _atom_site_fract_z
 _atom_site_occupancy
  Rb  Rb0  1  0.25000000  0.00105400  0.68107200  1
  Rb  Rb1  1  0.25000000  0.50105400  0.81892800  1
  Rb  Rb2  1  0.75000000  0.99894600  0.31892800  1
  Rb  Rb3  1  0.75000000  0.49894600  0.18107200  1
  Mg  Mg4  1  0.25000000  0.32530400  0.41846800  1
  Mg  Mg5  1  0.25000000  0.82530400  0.08153200  1
  Mg  Mg6  1  0.75000000  0.67469600  0.58153200  1
  Mg  Mg7  1  0.75000000  0.17469600  0.91846800  1
  P  P8  1  0.75000000  0.28738900  0.58510000  1
  P  P9  1  0.75000000  0.78738900  0.91490000  1
  P  P10  1  0.25000000  0.71261100  0.41490000  1
  P  P11  1  0.25000000  0.21261100  0.08510000  1
  O  O12  1  0.75000000  0.22352900  0.72963900  1
  O  O13  1  0.75000000  0.72352900  0.77036100  1
  O  O14  1  0.25000000  0.77647100  0.27036100  1
  O  O15  1  0.25000000  0.27647100  0.22963900  1
  O  O16  1  0.75000000  0.45987000  0.58848100  1
  O  O17  1  0.75000000  0.95987000  0.91151900  1
  O  O18  1  0.25000000  0.54013000  0.41151900  1
  O  O19  1  0.25000000  0.04013000  0.08848100  1
  O  O20  1  0.97837800  0.22856300  0.50968200  1
  O  O21  1  0.52162200  0.72856300  0.99031800  1
  O  O22  1  0.47837800  0.77143700  0.49031800  1
  O  O23  1  0.02162200  0.27143700  0.00968200  1
  O  O24  1  0.02162200  0.77143700  0.49031800  1
  O  O25  1  0.47837800  0.27143700  0.00968200  1
  O  O26  1  0.52162200  0.22856300  0.50968200  1
  O  O27  1  0.97837800  0.72856300  0.99031800  1
