# generated using pymatgen
data_ZnSO5
_symmetry_space_group_name_H-M   'P 1'
_cell_length_a   7.97942800
_cell_length_b   8.02288992
_cell_length_c   9.31809374
_cell_angle_alpha   87.12713189
_cell_angle_beta   86.81100524
_cell_angle_gamma   85.34439424
_symmetry_Int_Tables_number   1
_chemical_formula_structural   ZnSO5
_chemical_formula_sum   'Zn4 S4 O20'
_cell_volume   593.01384206
_cell_formula_units_Z   4
loop_
 _symmetry_equiv_pos_site_id
 _symmetry_equiv_pos_as_xyz
  1  'x, y, z'
loop_
 _atom_site_type_symbol
 _atom_site_label
 _atom_site_symmetry_multiplicity
 _atom_site_fract_x
 _atom_site_fract_y
 _atom_site_fract_z
 _atom_site_occupancy
  Zn  Zn0  1  0.00000000  0.00000000  0.00000000  1
  Zn  Zn1  1  0.50000000  0.50000000  0.50000000  1
  Zn  Zn2  1  0.99352500  0.49884600  0.24366300  1
  Zn  Zn3  1  0.00647500  0.50115400  0.75633700  1
  S  S4  1  0.87444700  0.71944900  0.51039100  1
  S  S5  1  0.12555300  0.28055100  0.48960900  1
  S  S6  1  0.77074100  0.39624800  0.01972000  1
  S  S7  1  0.22925900  0.60375200  0.98028000  1
  O  O8  1  0.00232100  0.70692500  0.62526000  1
  O  O9  1  0.99767900  0.29307500  0.37474000  1
  O  O10  1  0.95711100  0.70570700  0.36239800  1
  O  O11  1  0.04288900  0.29429300  0.63760200  1
  O  O12  1  0.74941300  0.59459400  0.54544700  1
  O  O13  1  0.25058700  0.40540600  0.45455300  1
  O  O14  1  0.89909800  0.25293100  0.04852100  1
  O  O15  1  0.10090200  0.74706900  0.95147900  1
  O  O16  1  0.79179800  0.46933700  0.86762900  1
  O  O17  1  0.20820200  0.53066300  0.13237100  1
  O  O18  1  0.79367000  0.52946700  0.12623000  1
  O  O19  1  0.20633000  0.47053300  0.87377000  1
  O  O20  1  0.61058400  0.28206000  0.46036100  1
  O  O21  1  0.38941600  0.71794000  0.53963900  1
  O  O22  1  0.47846800  0.64822400  0.33126500  1
  O  O23  1  0.52153200  0.35177600  0.66873500  1
  O  O24  1  0.89316300  0.00456800  0.81472300  1
  O  O25  1  0.10683700  0.99543200  0.18527700  1
  O  O26  1  0.77672900  0.91379200  0.01182000  1
  O  O27  1  0.22327100  0.08620800  0.98818000  1
