# generated using pymatgen
data_HfNF5
_symmetry_space_group_name_H-M   'P 1'
_cell_length_a   8.49253930
_cell_length_b   8.49253930
_cell_length_c   8.34483500
_cell_angle_alpha   90.00000000
_cell_angle_beta   90.00000000
_cell_angle_gamma   121.30088463
_symmetry_Int_Tables_number   1
_chemical_formula_structural   HfNF5
_chemical_formula_sum   'Hf4 N4 F20'
_cell_volume   514.25668917
_cell_formula_units_Z   4
loop_
 _symmetry_equiv_pos_site_id
 _symmetry_equiv_pos_as_xyz
  1  'x, y, z'
loop_
 _atom_site_type_symbol
 _atom_site_label
 _atom_site_symmetry_multiplicity
 _atom_site_fract_x
 _atom_site_fract_y
 _atom_site_fract_z
 _atom_site_occupancy
  Hf  Hf0  1  0.75563500  0.75563500  0.24676200  1
  Hf  Hf1  1  0.74436500  0.74436500  0.74676200  1
  Hf  Hf2  1  0.24436500  0.24436500  0.75323800  1
  Hf  Hf3  1  0.25563500  0.25563500  0.25323800  1
  N  N4  1  0.27247200  0.72752800  0.50000000  1
  N  N5  1  0.22752800  0.77247200  0.00000000  1
  N  N6  1  0.72752800  0.27247200  0.50000000  1
  N  N7  1  0.77247200  0.22752800  0.00000000  1
  F  F8  1  0.50304400  0.50304400  0.24574700  1
  F  F9  1  0.99695600  0.99695600  0.74574700  1
  F  F10  1  0.49695600  0.49695600  0.75425300  1
  F  F11  1  0.00304400  0.00304400  0.25425300  1
  F  F12  1  0.74606500  0.74606500  0.00243000  1
  F  F13  1  0.75393500  0.75393500  0.50243000  1
  F  F14  1  0.25393500  0.25393500  0.99757000  1
  F  F15  1  0.24606500  0.24606500  0.49757000  1
  F  F16  1  0.87659000  0.61914100  0.27131500  1
  F  F17  1  0.62341000  0.88085900  0.77131500  1
  F  F18  1  0.12341000  0.38085900  0.72868500  1
  F  F19  1  0.37659000  0.11914100  0.22868500  1
  F  F20  1  0.61914100  0.87659000  0.27131500  1
  F  F21  1  0.88085900  0.62341000  0.77131500  1
  F  F22  1  0.38085900  0.12341000  0.72868500  1
  F  F23  1  0.11914100  0.37659000  0.22868500  1
  F  F24  1  0.36344700  0.63655300  0.50000000  1
  F  F25  1  0.13655300  0.86344700  0.00000000  1
  F  F26  1  0.63655300  0.36344700  0.50000000  1
  F  F27  1  0.86344700  0.13655300  0.00000000  1
