# generated using pymatgen
data_Te7IrCl7
_symmetry_space_group_name_H-M   'P 1'
_cell_length_a   9.47734900
_cell_length_b   10.35027041
_cell_length_c   11.66483972
_cell_angle_alpha   68.95598522
_cell_angle_beta   66.66818045
_cell_angle_gamma   66.89494611
_symmetry_Int_Tables_number   1
_chemical_formula_structural   Te7IrCl7
_chemical_formula_sum   'Te14 Ir2 Cl14'
_cell_volume   937.87493544
_cell_formula_units_Z   2
loop_
 _symmetry_equiv_pos_site_id
 _symmetry_equiv_pos_as_xyz
  1  'x, y, z'
loop_
 _atom_site_type_symbol
 _atom_site_label
 _atom_site_symmetry_multiplicity
 _atom_site_fract_x
 _atom_site_fract_y
 _atom_site_fract_z
 _atom_site_occupancy
  Te  Te0  1  0.79350600  0.05121000  0.29837900  1
  Te  Te1  1  0.20649400  0.94879000  0.70162100  1
  Te  Te2  1  0.65336100  0.28741000  0.11993500  1
  Te  Te3  1  0.34663900  0.71259000  0.88006500  1
  Te  Te4  1  0.06860100  0.15443600  0.19562300  1
  Te  Te5  1  0.93139900  0.84556400  0.80437700  1
  Te  Te6  1  0.04474300  0.65930800  0.01608800  1
  Te  Te7  1  0.95525700  0.34069200  0.98391200  1
  Te  Te8  1  0.80743100  0.05349100  0.96904300  1
  Te  Te9  1  0.19256900  0.94650900  0.03095700  1
  Te  Te10  1  0.65986500  0.76378600  0.27254100  1
  Te  Te11  1  0.34013500  0.23621400  0.72745900  1
  Te  Te12  1  0.05675900  0.65820400  0.33957800  1
  Te  Te13  1  0.94324100  0.34179600  0.66042200  1
  Ir  Ir14  1  0.92744700  0.85096500  0.15908200  1
  Ir  Ir15  1  0.07255300  0.14903500  0.84091800  1
  Cl  Cl16  1  0.67425100  0.73970200  0.03831000  1
  Cl  Cl17  1  0.32574900  0.26029800  0.96169000  1
  Cl  Cl18  1  0.80351400  0.49466000  0.31022900  1
  Cl  Cl19  1  0.19648600  0.50534000  0.68977100  1
  Cl  Cl20  1  0.64852200  0.74251300  0.49401000  1
  Cl  Cl21  1  0.35147800  0.25748700  0.50599000  1
  Cl  Cl22  1  0.46863200  0.03180200  0.26819900  1
  Cl  Cl23  1  0.53136800  0.96819800  0.73180100  1
  Cl  Cl24  1  0.20928600  0.46213200  0.20798800  1
  Cl  Cl25  1  0.79071400  0.53786800  0.79201200  1
  Cl  Cl26  1  0.32002100  0.67607500  0.28431400  1
  Cl  Cl27  1  0.67997900  0.32392500  0.71568600  1
  Cl  Cl28  1  0.98094900  0.84417400  0.47022000  1
  Cl  Cl29  1  0.01905100  0.15582600  0.52978000  1
