# generated using pymatgen
data_NaPH6NO4F
_symmetry_space_group_name_H-M   'P 1'
_cell_length_a   5.02039435
_cell_length_b   6.06376511
_cell_length_c   9.12117600
_cell_angle_alpha   90.00000000
_cell_angle_beta   90.00000000
_cell_angle_gamma   90.43567329
_symmetry_Int_Tables_number   1
_chemical_formula_structural   NaPH6NO4F
_chemical_formula_sum   'Na2 P2 H12 N2 O8 F2'
_cell_volume   277.66330045
_cell_formula_units_Z   2
loop_
 _symmetry_equiv_pos_site_id
 _symmetry_equiv_pos_as_xyz
  1  'x, y, z'
loop_
 _atom_site_type_symbol
 _atom_site_label
 _atom_site_symmetry_multiplicity
 _atom_site_fract_x
 _atom_site_fract_y
 _atom_site_fract_z
 _atom_site_occupancy
  Na  Na0  1  0.88758900  0.49502300  0.04200500  1
  Na  Na1  1  0.38758900  0.99502300  0.95799500  1
  P  P2  1  0.00563600  0.00271700  0.22141000  1
  P  P3  1  0.50563600  0.50271700  0.77859000  1
  H  H4  1  0.49594500  0.83853100  0.58447900  1
  H  H5  1  0.99594500  0.33853100  0.41552100  1
  H  H6  1  0.66010400  0.02108100  0.47559100  1
  H  H7  1  0.16010400  0.52108100  0.52440900  1
  H  H8  1  0.31696400  0.02543800  0.48890400  1
  H  H9  1  0.81696400  0.52543900  0.51109600  1
  H  H10  1  0.51163400  0.11161100  0.63102800  1
  H  H11  1  0.01163400  0.61161100  0.36897200  1
  H  H12  1  0.92336300  0.85952800  0.79837100  1
  H  H13  1  0.42336300  0.35952800  0.20162900  1
  H  H14  1  0.93195400  0.11309200  0.79067100  1
  H  H15  1  0.43195400  0.61309200  0.20932900  1
  N  N16  1  0.49573200  0.00110800  0.54460800  1
  N  N17  1  0.99573200  0.50110800  0.45539200  1
  O  O18  1  0.12536100  0.19033800  0.13163800  1
  O  O19  1  0.62536100  0.69033800  0.86836200  1
  O  O20  1  0.10640000  0.77358600  0.18240100  1
  O  O21  1  0.60640000  0.27358600  0.81759900  1
  O  O22  1  0.99082000  0.04828000  0.38650200  1
  O  O23  1  0.49082000  0.54828000  0.61349800  1
  O  O24  1  0.04768100  0.98312800  0.77996800  1
  O  O25  1  0.54768100  0.48312800  0.22003200  1
  F  F26  1  0.69141600  0.99575000  0.17225500  1
  F  F27  1  0.19141600  0.49575000  0.82774500  1
