# generated using pymatgen
data_Hg3As2(HO4)2
_symmetry_space_group_name_H-M   'P 1'
_cell_length_a   8.03400252
_cell_length_b   8.03400252
_cell_length_c   8.89747859
_cell_angle_alpha   100.22415227
_cell_angle_beta   110.69965667
_cell_angle_gamma   114.32826098
_symmetry_Int_Tables_number   1
_chemical_formula_structural   Hg3As2(HO4)2
_chemical_formula_sum   'Hg6 As4 H4 O16'
_cell_volume   452.97770884
_cell_formula_units_Z   2
loop_
 _symmetry_equiv_pos_site_id
 _symmetry_equiv_pos_as_xyz
  1  'x, y, z'
loop_
 _atom_site_type_symbol
 _atom_site_label
 _atom_site_symmetry_multiplicity
 _atom_site_fract_x
 _atom_site_fract_y
 _atom_site_fract_z
 _atom_site_occupancy
  Hg  Hg0  1  0.19413000  0.41964100  0.91869800  1
  Hg  Hg1  1  0.00094300  0.27543100  0.58130200  1
  Hg  Hg2  1  0.80587000  0.58035900  0.08130200  1
  Hg  Hg3  1  0.99905700  0.72456900  0.41869800  1
  Hg  Hg4  1  0.51443900  0.76443900  0.75000000  1
  Hg  Hg5  1  0.48556100  0.23556100  0.25000000  1
  As  As6  1  0.50593700  0.27071400  0.63210900  1
  As  As7  1  0.13860500  0.87382800  0.86789100  1
  As  As8  1  0.49406300  0.72928600  0.36789100  1
  As  As9  1  0.86139500  0.12617200  0.13210900  1
  H  H10  1  0.72229100  0.19107500  0.82754200  1
  H  H11  1  0.86353400  0.89474900  0.67245800  1
  H  H12  1  0.27770900  0.80892500  0.17245800  1
  H  H13  1  0.13646600  0.10525100  0.32754200  1
  O  O14  1  0.61001800  0.12601300  0.69747400  1
  O  O15  1  0.92853900  0.91254400  0.80252600  1
  O  O16  1  0.38998200  0.87398700  0.30252600  1
  O  O17  1  0.07146100  0.08745600  0.19747400  1
  O  O18  1  0.62793600  0.37858800  0.51811000  1
  O  O19  1  0.36047800  0.10982600  0.98189000  1
  O  O20  1  0.37206400  0.62141200  0.48189000  1
  O  O21  1  0.63952200  0.89017400  0.01811000  1
  O  O22  1  0.88729800  0.26904100  0.01187000  1
  O  O23  1  0.75717100  0.87542800  0.48813000  1
  O  O24  1  0.11270200  0.73095900  0.98813000  1
  O  O25  1  0.24282900  0.12457200  0.51187000  1
  O  O26  1  0.57385400  0.46215900  0.80829000  1
  O  O27  1  0.15386900  0.76556400  0.69171000  1
  O  O28  1  0.42614600  0.53784100  0.19171000  1
  O  O29  1  0.84613100  0.23443600  0.30829000  1
