data_image0
_chemical_formula_structural       Au2C2Cl2O2
_chemical_formula_sum              "Au2 C2 Cl2 O2"
_cell_length_a       4.03969
_cell_length_b       5.2676
_cell_length_c       8.46988
_cell_angle_alpha    90
_cell_angle_beta     76.2035
_cell_angle_gamma    90

_space_group_name_H-M_alt    "P 1"
_space_group_IT_number       1

loop_
  _space_group_symop_operation_xyz
  'x, y, z'

loop_
  _atom_site_type_symbol
  _atom_site_label
  _atom_site_symmetry_multiplicity
  _atom_site_fract_x
  _atom_site_fract_y
  _atom_site_fract_z
  _atom_site_occupancy
  Au  Au1       1.0  0.76400  0.25000  0.47300  1.0000
  Au  Au2       1.0  0.23600  0.75000  0.52700  1.0000
  C   C1        1.0  0.88000  0.25000  0.24000  1.0000
  C   C2        1.0  0.12000  0.75000  0.76000  1.0000
  Cl  Cl1       1.0  0.37500  0.75000  0.25000  1.0000
  Cl  Cl2       1.0  0.62500  0.25000  0.75000  1.0000
  O   O1        1.0  0.95000  0.25000  0.10000  1.0000
  O   O2        1.0  0.05010  0.75000  0.90000  1.0000
