# generated using pymatgen
data_Zn(SeO5)2
_symmetry_space_group_name_H-M   'P 1'
_cell_length_a   7.84616700
_cell_length_b   8.30877264
_cell_length_c   9.02657209
_cell_angle_alpha   75.55849148
_cell_angle_beta   64.23920617
_cell_angle_gamma   61.82530060
_symmetry_Int_Tables_number   1
_chemical_formula_structural   Zn(SeO5)2
_chemical_formula_sum   'Zn2 Se4 O20'
_cell_volume   466.45715876
_cell_formula_units_Z   2
loop_
 _symmetry_equiv_pos_site_id
 _symmetry_equiv_pos_as_xyz
  1  'x, y, z'
loop_
 _atom_site_type_symbol
 _atom_site_label
 _atom_site_symmetry_multiplicity
 _atom_site_fract_x
 _atom_site_fract_y
 _atom_site_fract_z
 _atom_site_occupancy
  Zn  Zn0  1  0.04146400  0.25000000  0.75000000  1
  Zn  Zn1  1  0.95853600  0.75000000  0.25000000  1
  Se  Se2  1  0.96074200  0.18340600  0.14911900  1
  Se  Se3  1  0.29326800  0.31659400  0.35088100  1
  Se  Se4  1  0.03925800  0.81659400  0.85088100  1
  Se  Se5  1  0.70673200  0.68340600  0.64911900  1
  O  O6  1  0.92508200  0.52118700  0.68331100  1
  O  O7  1  0.12958100  0.97881300  0.81668900  1
  O  O8  1  0.07491800  0.47881300  0.31668900  1
  O  O9  1  0.87041900  0.02118700  0.18331100  1
  O  O10  1  0.91631500  0.32036700  0.97926400  1
  O  O11  1  0.21594600  0.17963300  0.52073600  1
  O  O12  1  0.08368500  0.67963300  0.02073600  1
  O  O13  1  0.78405400  0.82036700  0.47926400  1
  O  O14  1  0.81998800  0.31808200  0.30806700  1
  O  O15  1  0.44613700  0.18191800  0.19193300  1
  O  O16  1  0.18001200  0.68191800  0.69193300  1
  O  O17  1  0.55386300  0.81808200  0.80806700  1
  O  O18  1  0.66835700  0.25000000  0.75000000  1
  O  O19  1  0.33164300  0.75000000  0.25000000  1
  O  O20  1  0.40237600  0.25000000  0.75000000  1
  O  O21  1  0.59762400  0.75000000  0.25000000  1
  O  O22  1  0.45098300  0.30050200  0.86844300  1
  O  O23  1  0.61992800  0.19949800  0.63155700  1
  O  O24  1  0.54901700  0.69949800  0.13155700  1
  O  O25  1  0.38007200  0.80050200  0.36844300  1
