# generated using pymatgen
data_H3CO3
_symmetry_space_group_name_H-M   'P 1'
_cell_length_a   3.59170300
_cell_length_b   6.10116500
_cell_length_c   11.89071531
_cell_angle_alpha   76.76269028
_cell_angle_beta   90.00000000
_cell_angle_gamma   90.00000000
_symmetry_Int_Tables_number   1
_chemical_formula_structural   H3CO3
_chemical_formula_sum   'H12 C4 O12'
_cell_volume   253.64476034
_cell_formula_units_Z   4
loop_
 _symmetry_equiv_pos_site_id
 _symmetry_equiv_pos_as_xyz
  1  'x, y, z'
loop_
 _atom_site_type_symbol
 _atom_site_label
 _atom_site_symmetry_multiplicity
 _atom_site_fract_x
 _atom_site_fract_y
 _atom_site_fract_z
 _atom_site_occupancy
  H  H0  1  0.51012600  0.80314900  0.72282200  1
  H  H1  1  0.98987400  0.80314900  0.22282200  1
  H  H2  1  0.48987400  0.19685100  0.27717800  1
  H  H3  1  0.01012600  0.19685100  0.77717800  1
  H  H4  1  0.18913300  0.30885300  0.61280300  1
  H  H5  1  0.31086700  0.30885300  0.11280300  1
  H  H6  1  0.81086700  0.69114700  0.38719700  1
  H  H7  1  0.68913300  0.69114700  0.88719700  1
  H  H8  1  0.93942000  0.49238200  0.65098300  1
  H  H9  1  0.56058000  0.49238200  0.15098300  1
  H  H10  1  0.06058000  0.50761800  0.34901700  1
  H  H11  1  0.43942000  0.50761800  0.84901700  1
  C  C12  1  0.55531300  0.90283900  0.55164200  1
  C  C13  1  0.94468700  0.90283900  0.05164200  1
  C  C14  1  0.44468700  0.09716100  0.44835800  1
  C  C15  1  0.05531300  0.09716100  0.94835800  1
  O  O16  1  0.43913200  0.93719700  0.64987500  1
  O  O17  1  0.06086800  0.93719700  0.14987500  1
  O  O18  1  0.56086800  0.06280300  0.35012500  1
  O  O19  1  0.93913200  0.06280300  0.85012500  1
  O  O20  1  0.73514300  0.73890300  0.53641000  1
  O  O21  1  0.76485700  0.73890300  0.03641000  1
  O  O22  1  0.26485700  0.26109700  0.46359000  1
  O  O23  1  0.23514300  0.26109700  0.96359000  1
  O  O24  1  0.11541500  0.36828500  0.68026700  1
  O  O25  1  0.38458500  0.36828500  0.18026700  1
  O  O26  1  0.88458500  0.63171500  0.31973300  1
  O  O27  1  0.61541500  0.63171500  0.81973300  1
