# generated using pymatgen
data_Sr(YbS2)2
_symmetry_space_group_name_H-M   'P 1'
_cell_length_a   4.31322700
_cell_length_b   11.08060800
_cell_length_c   14.63120300
_cell_angle_alpha   90.00000000
_cell_angle_beta   90.00000000
_cell_angle_gamma   90.00000000
_symmetry_Int_Tables_number   1
_chemical_formula_structural   Sr(YbS2)2
_chemical_formula_sum   'Sr4 Yb8 S16'
_cell_volume   699.27168351
_cell_formula_units_Z   4
loop_
 _symmetry_equiv_pos_site_id
 _symmetry_equiv_pos_as_xyz
  1  'x, y, z'
loop_
 _atom_site_type_symbol
 _atom_site_label
 _atom_site_symmetry_multiplicity
 _atom_site_fract_x
 _atom_site_fract_y
 _atom_site_fract_z
 _atom_site_occupancy
  Sr  Sr0  1  0.25000000  0.77533900  0.31674800  1
  Sr  Sr1  1  0.25000000  0.27533900  0.18325200  1
  Sr  Sr2  1  0.75000000  0.22466100  0.68325200  1
  Sr  Sr3  1  0.75000000  0.72466100  0.81674800  1
  Yb  Yb4  1  0.25000000  0.44904100  0.38568100  1
  Yb  Yb5  1  0.25000000  0.94904100  0.11431900  1
  Yb  Yb6  1  0.75000000  0.55095900  0.61431900  1
  Yb  Yb7  1  0.75000000  0.05095900  0.88568100  1
  Yb  Yb8  1  0.25000000  0.39296800  0.89167700  1
  Yb  Yb9  1  0.25000000  0.89296800  0.60832300  1
  Yb  Yb10  1  0.75000000  0.60703200  0.10832300  1
  Yb  Yb11  1  0.75000000  0.10703200  0.39167700  1
  S  S12  1  0.25000000  0.17267100  0.82435200  1
  S  S13  1  0.25000000  0.67267100  0.67564800  1
  S  S14  1  0.75000000  0.82732900  0.17564800  1
  S  S15  1  0.75000000  0.32732900  0.32435200  1
  S  S16  1  0.25000000  0.18756700  0.52434100  1
  S  S17  1  0.25000000  0.68756700  0.97565900  1
  S  S18  1  0.75000000  0.81243300  0.47565900  1
  S  S19  1  0.75000000  0.31243300  0.02434100  1
  S  S20  1  0.25000000  0.04100700  0.29292200  1
  S  S21  1  0.25000000  0.54100700  0.20707800  1
  S  S22  1  0.75000000  0.95899300  0.70707800  1
  S  S23  1  0.75000000  0.45899300  0.79292200  1
  S  S24  1  0.25000000  0.36942600  0.57362900  1
  S  S25  1  0.25000000  0.86942600  0.92637100  1
  S  S26  1  0.75000000  0.63057400  0.42637100  1
  S  S27  1  0.75000000  0.13057400  0.07362900  1
