# generated using pymatgen
data_CaB3O10
_symmetry_space_group_name_H-M   'P 1'
_cell_length_a   6.45448310
_cell_length_b   5.74924491
_cell_length_c   9.81198732
_cell_angle_alpha   107.76387824
_cell_angle_beta   99.63397092
_cell_angle_gamma   96.83745133
_symmetry_Int_Tables_number   1
_chemical_formula_structural   CaB3O10
_chemical_formula_sum   'Ca2 B6 O20'
_cell_volume   336.19910552
_cell_formula_units_Z   2
loop_
 _symmetry_equiv_pos_site_id
 _symmetry_equiv_pos_as_xyz
  1  'x, y, z'
loop_
 _atom_site_type_symbol
 _atom_site_label
 _atom_site_symmetry_multiplicity
 _atom_site_fract_x
 _atom_site_fract_y
 _atom_site_fract_z
 _atom_site_occupancy
  Ca  Ca0  1  0.82578100  0.85878700  0.62253400  1
  Ca  Ca1  1  0.17421900  0.14121300  0.37746600  1
  B  B2  1  0.81042600  0.72202000  0.27712600  1
  B  B3  1  0.18957400  0.27798000  0.72287400  1
  B  B4  1  0.32382600  0.86461400  0.63457300  1
  B  B5  1  0.67617400  0.13538600  0.36542700  1
  B  B6  1  0.48065700  0.81039700  0.13989400  1
  B  B7  1  0.51934300  0.18960300  0.86010600  1
  O  O8  1  0.01621600  0.73175800  0.24616400  1
  O  O9  1  0.98378400  0.26824200  0.75383600  1
  O  O10  1  0.17177100  0.68248400  0.66837600  1
  O  O11  1  0.82822900  0.31751600  0.33162400  1
  O  O12  1  0.32066400  0.74802000  0.01801600  1
  O  O13  1  0.67933600  0.25198000  0.98198400  1
  O  O14  1  0.64047600  0.67412100  0.14982100  1
  O  O15  1  0.35952400  0.32587900  0.85017900  1
  O  O16  1  0.41901800  0.73083100  0.50211400  1
  O  O17  1  0.58098200  0.26916900  0.49788600  1
  O  O18  1  0.47847100  0.02642800  0.25702500  1
  O  O19  1  0.52152900  0.97357200  0.74297500  1
  O  O20  1  0.76999900  0.55843800  0.36988200  1
  O  O21  1  0.23000100  0.44156200  0.63011800  1
  O  O22  1  0.92176900  0.97391300  0.95008200  1
  O  O23  1  0.07823100  0.02608700  0.04991800  1
  O  O24  1  0.80276300  0.96559500  0.39789700  1
  O  O25  1  0.19723700  0.03440500  0.60210300  1
  O  O26  1  0.28585900  0.57607700  0.38034000  1
  O  O27  1  0.71414100  0.42392300  0.61966000  1
