# generated using pymatgen
data_PrCo(CN)6
_symmetry_space_group_name_H-M   'P 1'
_cell_length_a   7.66842264
_cell_length_b   7.66842264
_cell_length_c   13.23042100
_cell_angle_alpha   90.00000000
_cell_angle_beta   90.00000000
_cell_angle_gamma   120.00000554
_symmetry_Int_Tables_number   1
_chemical_formula_structural   PrCo(CN)6
_chemical_formula_sum   'Pr2 Co2 C12 N12'
_cell_volume   673.77726555
_cell_formula_units_Z   2
loop_
 _symmetry_equiv_pos_site_id
 _symmetry_equiv_pos_as_xyz
  1  'x, y, z'
loop_
 _atom_site_type_symbol
 _atom_site_label
 _atom_site_symmetry_multiplicity
 _atom_site_fract_x
 _atom_site_fract_y
 _atom_site_fract_z
 _atom_site_occupancy
  Pr  Pr0  1  0.33333300  0.66666700  0.25000000  1
  Pr  Pr1  1  0.66666700  0.33333300  0.75000000  1
  Co  Co2  1  0.00000000  0.00000000  0.50000000  1
  Co  Co3  1  0.00000000  0.00000000  0.00000000  1
  C  C4  1  0.77081300  0.88540700  0.41862700  1
  C  C5  1  0.11459300  0.88540700  0.41862700  1
  C  C6  1  0.11459300  0.22918700  0.41862700  1
  C  C7  1  0.22918700  0.11459300  0.58137300  1
  C  C8  1  0.88540700  0.11459300  0.58137300  1
  C  C9  1  0.88540700  0.77081300  0.58137300  1
  C  C10  1  0.22918700  0.11459300  0.91862700  1
  C  C11  1  0.88540700  0.11459300  0.91862700  1
  C  C12  1  0.88540700  0.77081300  0.91862700  1
  C  C13  1  0.77081300  0.88540700  0.08137300  1
  C  C14  1  0.11459300  0.88540700  0.08137300  1
  C  C15  1  0.11459300  0.22918700  0.08137300  1
  N  N16  1  0.62770500  0.81385200  0.36700400  1
  N  N17  1  0.18614800  0.81385200  0.36700400  1
  N  N18  1  0.18614800  0.37229500  0.36700400  1
  N  N19  1  0.37229500  0.18614800  0.63299600  1
  N  N20  1  0.81385200  0.18614800  0.63299600  1
  N  N21  1  0.81385200  0.62770500  0.63299600  1
  N  N22  1  0.37229500  0.18614800  0.86700400  1
  N  N23  1  0.81385200  0.18614800  0.86700400  1
  N  N24  1  0.81385200  0.62770500  0.86700400  1
  N  N25  1  0.62770500  0.81385200  0.13299600  1
  N  N26  1  0.18614800  0.81385200  0.13299600  1
  N  N27  1  0.18614800  0.37229500  0.13299600  1
