# generated using pymatgen
data_Rb2PtC4(IN2)2
_symmetry_space_group_name_H-M   'P 1'
_cell_length_a   9.73311100
_cell_length_b   7.63294600
_cell_length_c   9.40274171
_cell_angle_alpha   72.76494789
_cell_angle_beta   90.00000000
_cell_angle_gamma   90.00000000
_symmetry_Int_Tables_number   1
_chemical_formula_structural   Rb2PtC4(IN2)2
_chemical_formula_sum   'Rb4 Pt2 C8 I4 N8'
_cell_volume   667.18454766
_cell_formula_units_Z   2
loop_
 _symmetry_equiv_pos_site_id
 _symmetry_equiv_pos_as_xyz
  1  'x, y, z'
loop_
 _atom_site_type_symbol
 _atom_site_label
 _atom_site_symmetry_multiplicity
 _atom_site_fract_x
 _atom_site_fract_y
 _atom_site_fract_z
 _atom_site_occupancy
  Rb  Rb0  1  0.78290700  0.52368600  0.61738900  1
  Rb  Rb1  1  0.28290700  0.47631400  0.88261100  1
  Rb  Rb2  1  0.21709300  0.47631400  0.38261100  1
  Rb  Rb3  1  0.71709300  0.52368600  0.11738900  1
  Pt  Pt4  1  0.00000000  0.00000000  0.00000000  1
  Pt  Pt5  1  0.50000000  0.00000000  0.50000000  1
  C  C6  1  0.03213600  0.19508400  0.10180500  1
  C  C7  1  0.53213600  0.80491600  0.39819500  1
  C  C8  1  0.96786400  0.80491600  0.89819500  1
  C  C9  1  0.46786400  0.19508400  0.60180500  1
  C  C10  1  0.96114800  0.81133300  0.19678200  1
  C  C11  1  0.46114800  0.18866700  0.30321800  1
  C  C12  1  0.03885200  0.18866700  0.80321800  1
  C  C13  1  0.53885200  0.81133300  0.69678200  1
  I  I14  1  0.27263800  0.91117300  0.02882500  1
  I  I15  1  0.77263800  0.08882700  0.47117500  1
  I  I16  1  0.72736200  0.08882700  0.97117500  1
  I  I17  1  0.22736200  0.91117300  0.52882500  1
  N  N18  1  0.05264600  0.31231000  0.15626000  1
  N  N19  1  0.55264600  0.68769000  0.34374000  1
  N  N20  1  0.94735400  0.68769000  0.84374000  1
  N  N21  1  0.44735400  0.31231000  0.65626000  1
  N  N22  1  0.93729600  0.69665900  0.30813200  1
  N  N23  1  0.43729600  0.30334100  0.19186800  1
  N  N24  1  0.06270400  0.30334100  0.69186800  1
  N  N25  1  0.56270400  0.69665900  0.80813200  1
