# generated using pymatgen
data_K4Eu(PSe4)2
_symmetry_space_group_name_H-M   'P 1'
_cell_length_a   11.86453350
_cell_length_b   11.86453350
_cell_length_c   11.86453350
_cell_angle_alpha   134.10085078
_cell_angle_beta   128.29224773
_cell_angle_gamma   71.60318415
_symmetry_Int_Tables_number   1
_chemical_formula_structural   K4Eu(PSe4)2
_chemical_formula_sum   'K8 Eu2 P4 Se16'
_cell_volume   921.29443243
_cell_formula_units_Z   2
loop_
 _symmetry_equiv_pos_site_id
 _symmetry_equiv_pos_as_xyz
  1  'x, y, z'
loop_
 _atom_site_type_symbol
 _atom_site_label
 _atom_site_symmetry_multiplicity
 _atom_site_fract_x
 _atom_site_fract_y
 _atom_site_fract_z
 _atom_site_occupancy
  K  K0  1  0.41570300  0.29913700  0.88343400  1
  K  K1  1  0.58429700  0.70086300  0.11656600  1
  K  K2  1  0.08429700  0.46773200  0.38343400  1
  K  K3  1  0.91570300  0.53226800  0.61656600  1
  K  K4  1  0.00960900  0.75960900  0.25000000  1
  K  K5  1  0.49039100  0.24039100  0.25000000  1
  K  K6  1  0.99039100  0.24039100  0.75000000  1
  K  K7  1  0.50960900  0.75960900  0.75000000  1
  Eu  Eu8  1  0.25000000  0.00000000  0.25000000  1
  Eu  Eu9  1  0.75000000  0.00000000  0.75000000  1
  P  P10  1  0.87096700  0.07625900  0.20529200  1
  P  P11  1  0.12903300  0.92374100  0.79470800  1
  P  P12  1  0.62903300  0.33432600  0.70529200  1
  P  P13  1  0.37096700  0.66567500  0.29470800  1
  Se  Se14  1  0.09742300  0.22251400  0.47377400  1
  Se  Se15  1  0.25126000  0.77748600  0.87490900  1
  Se  Se16  1  0.40257700  0.37635100  0.62509100  1
  Se  Se17  1  0.24874000  0.62364900  0.02622600  1
  Se  Se18  1  0.90257700  0.77748600  0.52622600  1
  Se  Se19  1  0.74874000  0.22251400  0.12509100  1
  Se  Se20  1  0.59742300  0.62364900  0.37490900  1
  Se  Se21  1  0.75126000  0.37635100  0.97377400  1
  Se  Se22  1  0.39568400  0.92763300  0.53194900  1
  Se  Se23  1  0.60431600  0.07236700  0.46805100  1
  Se  Se24  1  0.10431600  0.13626400  0.03194900  1
  Se  Se25  1  0.89568400  0.86373600  0.96805100  1
  Se  Se26  1  0.24200600  0.98839100  0.74638600  1
  Se  Se27  1  0.75799400  0.01160900  0.25361400  1
  Se  Se28  1  0.25799400  0.50438000  0.24638600  1
  Se  Se29  1  0.74200600  0.49562000  0.75361400  1
