# generated using pymatgen
data_As(NO2)2
_symmetry_space_group_name_H-M   'P 1'
_cell_length_a   7.66564900
_cell_length_b   7.83020300
_cell_length_c   9.90598162
_cell_angle_alpha   72.99398030
_cell_angle_beta   90.00000000
_cell_angle_gamma   90.00000000
_symmetry_Int_Tables_number   1
_chemical_formula_structural   As(NO2)2
_chemical_formula_sum   'As4 N8 O16'
_cell_volume   568.59342326
_cell_formula_units_Z   4
loop_
 _symmetry_equiv_pos_site_id
 _symmetry_equiv_pos_as_xyz
  1  'x, y, z'
loop_
 _atom_site_type_symbol
 _atom_site_label
 _atom_site_symmetry_multiplicity
 _atom_site_fract_x
 _atom_site_fract_y
 _atom_site_fract_z
 _atom_site_occupancy
  As  As0  1  0.85992600  0.55458900  0.20235200  1
  As  As1  1  0.35992600  0.94541100  0.79764800  1
  As  As2  1  0.14007400  0.44541100  0.79764800  1
  As  As3  1  0.64007400  0.05458900  0.20235200  1
  N  N4  1  0.11002700  0.87720300  0.46497200  1
  N  N5  1  0.61002700  0.62279700  0.53502800  1
  N  N6  1  0.88997300  0.12279700  0.53502800  1
  N  N7  1  0.38997300  0.37720300  0.46497200  1
  N  N8  1  0.35221200  0.80187700  0.10871900  1
  N  N9  1  0.85221200  0.69812300  0.89128100  1
  N  N10  1  0.64778800  0.19812300  0.89128100  1
  N  N11  1  0.14778800  0.30187700  0.10871900  1
  O  O12  1  0.93765000  0.75150400  0.19782900  1
  O  O13  1  0.43765000  0.74849600  0.80217100  1
  O  O14  1  0.06235000  0.24849600  0.80217100  1
  O  O15  1  0.56235000  0.25150400  0.19782900  1
  O  O16  1  0.08557400  0.32962900  0.21657700  1
  O  O17  1  0.58557400  0.17037100  0.78342300  1
  O  O18  1  0.91442600  0.67037100  0.78342300  1
  O  O19  1  0.41442600  0.82962900  0.21657700  1
  O  O20  1  0.67236000  0.50297500  0.50513900  1
  O  O21  1  0.17236000  0.99702500  0.49486100  1
  O  O22  1  0.32764000  0.49702500  0.49486100  1
  O  O23  1  0.82764000  0.00297500  0.50513900  1
  O  O24  1  0.83595800  0.55083400  0.99604400  1
  O  O25  1  0.33595800  0.94916600  0.00395600  1
  O  O26  1  0.16404200  0.44916600  0.00395600  1
  O  O27  1  0.66404200  0.05083400  0.99604400  1
