# generated using pymatgen
data_Ba3BiIr2O9
_symmetry_space_group_name_H-M   'P 1'
_cell_length_a   5.99688632
_cell_length_b   5.99688632
_cell_length_c   14.97971228
_cell_angle_alpha   88.98462422
_cell_angle_beta   88.98462422
_cell_angle_gamma   119.63595605
_symmetry_Int_Tables_number   1
_chemical_formula_structural   Ba3BiIr2O9
_chemical_formula_sum   'Ba6 Bi2 Ir4 O18'
_cell_volume   467.94764683
_cell_formula_units_Z   2
loop_
 _symmetry_equiv_pos_site_id
 _symmetry_equiv_pos_as_xyz
  1  'x, y, z'
loop_
 _atom_site_type_symbol
 _atom_site_label
 _atom_site_symmetry_multiplicity
 _atom_site_fract_x
 _atom_site_fract_y
 _atom_site_fract_z
 _atom_site_occupancy
  Ba  Ba0  1  0.99295600  0.00704400  0.25000000  1
  Ba  Ba1  1  0.00704400  0.99295600  0.75000000  1
  Ba  Ba2  1  0.32513100  0.65968100  0.09473900  1
  Ba  Ba3  1  0.34031900  0.67486900  0.40526100  1
  Ba  Ba4  1  0.67486900  0.34031900  0.90526100  1
  Ba  Ba5  1  0.65968100  0.32513100  0.59473900  1
  Bi  Bi6  1  0.00000000  0.00000000  0.00000000  1
  Bi  Bi7  1  0.00000000  0.00000000  0.50000000  1
  Ir  Ir8  1  0.35256000  0.67915600  0.83427200  1
  Ir  Ir9  1  0.32084400  0.64744000  0.66572800  1
  Ir  Ir10  1  0.64744000  0.32084400  0.16572800  1
  Ir  Ir11  1  0.67915600  0.35256000  0.33427200  1
  O  O12  1  0.50473700  0.49526300  0.25000000  1
  O  O13  1  0.49526300  0.50473700  0.75000000  1
  O  O14  1  0.78784400  0.14066800  0.09254200  1
  O  O15  1  0.85933200  0.21215600  0.40745800  1
  O  O16  1  0.21215600  0.85933200  0.90745800  1
  O  O17  1  0.14066800  0.78784400  0.59254200  1
  O  O18  1  0.97288000  0.49529900  0.23908700  1
  O  O19  1  0.50470100  0.02712000  0.26091300  1
  O  O20  1  0.02712000  0.50470100  0.76091300  1
  O  O21  1  0.49529900  0.97288000  0.73908700  1
  O  O22  1  0.31789700  0.13892200  0.10195200  1
  O  O23  1  0.86107800  0.68210300  0.39804800  1
  O  O24  1  0.68210300  0.86107800  0.89804800  1
  O  O25  1  0.13892200  0.31789700  0.60195200  1
  O  O26  1  0.39905900  0.21837000  0.42729300  1
  O  O27  1  0.78163000  0.60094100  0.07270700  1
  O  O28  1  0.60094100  0.78163000  0.57270700  1
  O  O29  1  0.21837000  0.39905900  0.92729300  1
