# generated using pymatgen
data_U2Co(AsO12)2
_symmetry_space_group_name_H-M   'P 1'
_cell_length_a   7.18376963
_cell_length_b   7.10603968
_cell_length_c   11.00750058
_cell_angle_alpha   79.61067698
_cell_angle_beta   78.20729252
_cell_angle_gamma   91.39452836
_symmetry_Int_Tables_number   1
_chemical_formula_structural   U2Co(AsO12)2
_chemical_formula_sum   'U2 Co1 As2 O24'
_cell_volume   539.94070497
_cell_formula_units_Z   1
loop_
 _symmetry_equiv_pos_site_id
 _symmetry_equiv_pos_as_xyz
  1  'x, y, z'
loop_
 _atom_site_type_symbol
 _atom_site_label
 _atom_site_symmetry_multiplicity
 _atom_site_fract_x
 _atom_site_fract_y
 _atom_site_fract_z
 _atom_site_occupancy
  U  U0  1  0.77974200  0.27676200  0.89737000  1
  U  U1  1  0.22025800  0.72323800  0.10263000  1
  Co  Co2  1  0.00000000  0.00000000  0.50000000  1
  As  As3  1  0.24902600  0.25323800  0.99735000  1
  As  As4  1  0.75097400  0.74676200  0.00265000  1
  O  O5  1  0.46775200  0.24233900  0.90088300  1
  O  O6  1  0.53224800  0.75766100  0.09911700  1
  O  O7  1  0.08938000  0.31934700  0.90352200  1
  O  O8  1  0.91062000  0.68065300  0.09647800  1
  O  O9  1  0.18083400  0.03491700  0.09600100  1
  O  O10  1  0.81916600  0.96508300  0.90399900  1
  O  O11  1  0.26032800  0.41412500  0.09590000  1
  O  O12  1  0.73967200  0.58587500  0.90410000  1
  O  O13  1  0.72310400  0.22438400  0.06917900  1
  O  O14  1  0.27689600  0.77561600  0.93082100  1
  O  O15  1  0.83785700  0.32560100  0.72341600  1
  O  O16  1  0.16214300  0.67439900  0.27658400  1
  O  O17  1  0.16577400  0.11398300  0.58728800  1
  O  O18  1  0.83422600  0.88601700  0.41271200  1
  O  O19  1  0.82399100  0.15149800  0.54610700  1
  O  O20  1  0.17600900  0.84850200  0.45389300  1
  O  O21  1  0.46748700  0.92201600  0.68754800  1
  O  O22  1  0.53251300  0.07798400  0.31245200  1
  O  O23  1  0.52961900  0.25231600  0.32967700  1
  O  O24  1  0.47038100  0.74768400  0.67032300  1
  O  O25  1  0.31105700  0.65300000  0.68332600  1
  O  O26  1  0.68894300  0.34700000  0.31667400  1
  O  O27  1  0.07244100  0.96467400  0.66066800  1
  O  O28  1  0.92755900  0.03532600  0.33933200  1
