# generated using pymatgen
data_U(BO2)4
_symmetry_space_group_name_H-M   'P 1'
_cell_length_a   8.30999545
_cell_length_b   8.30999545
_cell_length_c   7.28661275
_cell_angle_alpha   66.56505120
_cell_angle_beta   66.56505120
_cell_angle_gamma   29.64547095
_symmetry_Int_Tables_number   1
_chemical_formula_structural   U(BO2)4
_chemical_formula_sum   'U2 B8 O16'
_cell_volume   226.85316417
_cell_formula_units_Z   2
loop_
 _symmetry_equiv_pos_site_id
 _symmetry_equiv_pos_as_xyz
  1  'x, y, z'
loop_
 _atom_site_type_symbol
 _atom_site_label
 _atom_site_symmetry_multiplicity
 _atom_site_fract_x
 _atom_site_fract_y
 _atom_site_fract_z
 _atom_site_occupancy
  U  U0  1  0.15666000  0.84334000  0.25000000  1
  U  U1  1  0.84334000  0.15666000  0.75000000  1
  B  B2  1  0.00031500  0.39022900  0.29644500  1
  B  B3  1  0.60977100  0.99968500  0.20355500  1
  B  B4  1  0.99968500  0.60977100  0.70355500  1
  B  B5  1  0.39022900  0.00031500  0.79644500  1
  B  B6  1  0.82631800  0.45425000  0.00644300  1
  B  B7  1  0.54575000  0.17368200  0.49355700  1
  B  B8  1  0.17368200  0.54575000  0.99355700  1
  B  B9  1  0.45425000  0.82631800  0.50644300  1
  O  O10  1  0.93020300  0.63689600  0.16836600  1
  O  O11  1  0.36310400  0.06979700  0.33163400  1
  O  O12  1  0.06979700  0.36310400  0.83163400  1
  O  O13  1  0.63689600  0.93020300  0.66836600  1
  O  O14  1  0.80652400  0.50284400  0.49165600  1
  O  O15  1  0.49715600  0.19347600  0.00834400  1
  O  O16  1  0.19347600  0.49715600  0.50834400  1
  O  O17  1  0.50284400  0.80652400  0.99165600  1
  O  O18  1  0.93770000  0.32601800  0.20064300  1
  O  O19  1  0.67398200  0.06230000  0.29935700  1
  O  O20  1  0.06230000  0.67398200  0.79935700  1
  O  O21  1  0.32601800  0.93770000  0.70064300  1
  O  O22  1  0.82029000  0.28294700  0.00598200  1
  O  O23  1  0.71705300  0.17971000  0.49401800  1
  O  O24  1  0.17971000  0.71705300  0.99401800  1
  O  O25  1  0.28294700  0.82029000  0.50598200  1
