# generated using pymatgen
data_H3CBrClF
_symmetry_space_group_name_H-M   'P 1'
_cell_length_a   7.03722900
_cell_length_b   7.33465400
_cell_length_c   10.06755300
_cell_angle_alpha   90.00000000
_cell_angle_beta   90.00000000
_cell_angle_gamma   90.00000000
_symmetry_Int_Tables_number   1
_chemical_formula_structural   H3CBrClF
_chemical_formula_sum   'H12 C4 Br4 Cl4 F4'
_cell_volume   519.64318966
_cell_formula_units_Z   4
loop_
 _symmetry_equiv_pos_site_id
 _symmetry_equiv_pos_as_xyz
  1  'x, y, z'
loop_
 _atom_site_type_symbol
 _atom_site_label
 _atom_site_symmetry_multiplicity
 _atom_site_fract_x
 _atom_site_fract_y
 _atom_site_fract_z
 _atom_site_occupancy
  H  H0  1  0.00736100  0.75000000  0.26101500  1
  H  H1  1  0.49263900  0.75000000  0.76101500  1
  H  H2  1  0.99263900  0.25000000  0.73898500  1
  H  H3  1  0.50736100  0.25000000  0.23898500  1
  H  H4  1  0.12194900  0.62667800  0.12744500  1
  H  H5  1  0.37805100  0.87332200  0.62744500  1
  H  H6  1  0.87805100  0.12667800  0.87255500  1
  H  H7  1  0.62194900  0.37332200  0.37255500  1
  H  H8  1  0.87805100  0.37332200  0.87255500  1
  H  H9  1  0.62194900  0.12667800  0.37255500  1
  H  H10  1  0.12194900  0.87332200  0.12744500  1
  H  H11  1  0.37805100  0.62667800  0.62744500  1
  C  C12  1  0.12284600  0.75000000  0.18856700  1
  C  C13  1  0.37715400  0.75000000  0.68856700  1
  C  C14  1  0.87715400  0.25000000  0.81143300  1
  C  C15  1  0.62284600  0.25000000  0.31143300  1
  Br  Br16  1  0.58405300  0.75000000  0.09641600  1
  Br  Br17  1  0.91594700  0.75000000  0.59641600  1
  Br  Br18  1  0.41594700  0.25000000  0.90358400  1
  Br  Br19  1  0.08405300  0.25000000  0.40358400  1
  Cl  Cl20  1  0.34034400  0.75000000  0.28194100  1
  Cl  Cl21  1  0.15965600  0.75000000  0.78194100  1
  Cl  Cl22  1  0.65965600  0.25000000  0.71805900  1
  Cl  Cl23  1  0.84034400  0.25000000  0.21805900  1
  F  F24  1  0.76331700  0.75000000  0.95592000  1
  F  F25  1  0.73668300  0.75000000  0.45592000  1
  F  F26  1  0.23668300  0.25000000  0.04408000  1
  F  F27  1  0.26331700  0.25000000  0.54408000  1
