# generated using pymatgen
data_CuSeO5
_symmetry_space_group_name_H-M   'P 1'
_cell_length_a   6.09436100
_cell_length_b   7.28777000
_cell_length_c   9.25419700
_cell_angle_alpha   90.00000000
_cell_angle_beta   90.00000000
_cell_angle_gamma   90.00000000
_symmetry_Int_Tables_number   1
_chemical_formula_structural   CuSeO5
_chemical_formula_sum   'Cu4 Se4 O20'
_cell_volume   411.01869352
_cell_formula_units_Z   4
loop_
 _symmetry_equiv_pos_site_id
 _symmetry_equiv_pos_as_xyz
  1  'x, y, z'
loop_
 _atom_site_type_symbol
 _atom_site_label
 _atom_site_symmetry_multiplicity
 _atom_site_fract_x
 _atom_site_fract_y
 _atom_site_fract_z
 _atom_site_occupancy
  Cu  Cu0  1  0.28131500  0.45935300  0.10156000  1
  Cu  Cu1  1  0.71868500  0.95935300  0.39844000  1
  Cu  Cu2  1  0.78131500  0.04064700  0.89844000  1
  Cu  Cu3  1  0.21868500  0.54064700  0.60156000  1
  Se  Se4  1  0.44784300  0.71632400  0.86288700  1
  Se  Se5  1  0.55215700  0.21632400  0.63711300  1
  Se  Se6  1  0.94784300  0.78367600  0.13711300  1
  Se  Se7  1  0.05215700  0.28367600  0.36288700  1
  O  O8  1  0.00902500  0.97232700  0.02546300  1
  O  O9  1  0.99097500  0.47232700  0.47453700  1
  O  O10  1  0.50902500  0.52767300  0.97453700  1
  O  O11  1  0.49097500  0.02767300  0.52546300  1
  O  O12  1  0.72429100  0.78809600  0.86759200  1
  O  O13  1  0.27570900  0.28809600  0.63240800  1
  O  O14  1  0.22429100  0.71190400  0.13240800  1
  O  O15  1  0.77570900  0.21190400  0.36759200  1
  O  O16  1  0.01876800  0.38695300  0.19161300  1
  O  O17  1  0.98123200  0.88695300  0.30838700  1
  O  O18  1  0.51876800  0.11304700  0.80838700  1
  O  O19  1  0.48123200  0.61304700  0.69161300  1
  O  O20  1  0.83716400  0.27429200  0.94280100  1
  O  O21  1  0.16283600  0.77429200  0.55719900  1
  O  O22  1  0.33716400  0.22570800  0.05719900  1
  O  O23  1  0.66283600  0.72570800  0.44280100  1
  O  O24  1  0.07615300  0.54909900  0.80272100  1
  O  O25  1  0.92384700  0.04909900  0.69727900  1
  O  O26  1  0.57615300  0.95090100  0.19727900  1
  O  O27  1  0.42384700  0.45090100  0.30272100  1
