# generated using pymatgen
data_H16PtC4(NCl3)2
_symmetry_space_group_name_H-M   'P 1'
_cell_length_a   7.35765500
_cell_length_b   8.66949200
_cell_length_c   8.66949200
_cell_angle_alpha   73.89866996
_cell_angle_beta   64.89099021
_cell_angle_gamma   64.89099021
_symmetry_Int_Tables_number   1
_chemical_formula_structural   H16PtC4(NCl3)2
_chemical_formula_sum   'H16 Pt1 C4 N2 Cl6'
_cell_volume   450.22317787
_cell_formula_units_Z   1
loop_
 _symmetry_equiv_pos_site_id
 _symmetry_equiv_pos_as_xyz
  1  'x, y, z'
loop_
 _atom_site_type_symbol
 _atom_site_label
 _atom_site_symmetry_multiplicity
 _atom_site_fract_x
 _atom_site_fract_y
 _atom_site_fract_z
 _atom_site_occupancy
  H  H0  1  0.23135600  0.65642700  0.65642700  1
  H  H1  1  0.45579000  0.65642700  0.65642700  1
  H  H2  1  0.76864400  0.34357300  0.34357300  1
  H  H3  1  0.54421000  0.34357300  0.34357300  1
  H  H4  1  0.27872700  0.92383800  0.51870900  1
  H  H5  1  0.27872700  0.51870900  0.92383800  1
  H  H6  1  0.72127300  0.48129100  0.07616200  1
  H  H7  1  0.72127300  0.07616200  0.48129100  1
  H  H8  1  0.04592100  0.95410200  0.71017700  1
  H  H9  1  0.28980100  0.71017700  0.95410200  1
  H  H10  1  0.95407900  0.28982300  0.04589800  1
  H  H11  1  0.71019900  0.04589800  0.28982300  1
  H  H12  1  0.95407900  0.04589800  0.28982300  1
  H  H13  1  0.71019900  0.28982300  0.04589800  1
  H  H14  1  0.04592100  0.71017700  0.95410200  1
  H  H15  1  0.28980100  0.95410200  0.71017700  1
  Pt  Pt16  1  0.00000000  0.50000000  0.50000000  1
  C  C17  1  0.22122500  0.89889900  0.65865000  1
  C  C18  1  0.22122500  0.65865000  0.89889900  1
  C  C19  1  0.77877500  0.34135000  0.10110100  1
  C  C20  1  0.77877500  0.10110100  0.34135000  1
  N  N21  1  0.29009400  0.70990600  0.70990600  1
  N  N22  1  0.70990600  0.29009400  0.29009400  1
  Cl  Cl23  1  0.22973300  0.65685400  0.34314600  1
  Cl  Cl24  1  0.77026700  0.34314600  0.65685400  1
  Cl  Cl25  1  0.77026700  0.65685400  0.34314600  1
  Cl  Cl26  1  0.22973300  0.34314600  0.65685400  1
  Cl  Cl27  1  0.79952200  0.70047800  0.70047800  1
  Cl  Cl28  1  0.20047800  0.29952200  0.29952200  1
