# generated using pymatgen
data_NiP
_symmetry_space_group_name_H-M   'P 1'
_cell_length_a   12.38861980
_cell_length_b   12.38861980
_cell_length_c   4.90826800
_cell_angle_alpha   90.00000000
_cell_angle_beta   90.00000000
_cell_angle_gamma   152.13410269
_symmetry_Int_Tables_number   1
_chemical_formula_structural   NiP
_chemical_formula_sum   'Ni14 P14'
_cell_volume   352.10020148
_cell_formula_units_Z   14
loop_
 _symmetry_equiv_pos_site_id
 _symmetry_equiv_pos_as_xyz
  1  'x, y, z'
loop_
 _atom_site_type_symbol
 _atom_site_label
 _atom_site_symmetry_multiplicity
 _atom_site_fract_x
 _atom_site_fract_y
 _atom_site_fract_z
 _atom_site_occupancy
  Ni  Ni0  1  0.50904400  0.38417300  0.42478900  1
  Ni  Ni1  1  0.38417300  0.50904400  0.42478900  1
  Ni  Ni2  1  0.49095600  0.61582700  0.92478900  1
  Ni  Ni3  1  0.61582700  0.49095600  0.92478900  1
  Ni  Ni4  1  0.79500900  0.09229900  0.41134400  1
  Ni  Ni5  1  0.09229900  0.79500900  0.41134400  1
  Ni  Ni6  1  0.20499100  0.90770100  0.91134400  1
  Ni  Ni7  1  0.90770100  0.20499100  0.91134400  1
  Ni  Ni8  1  0.35309000  0.76572300  0.37842900  1
  Ni  Ni9  1  0.76572300  0.35309000  0.37842900  1
  Ni  Ni10  1  0.64691000  0.23427700  0.87842900  1
  Ni  Ni11  1  0.23427700  0.64691000  0.87842900  1
  Ni  Ni12  1  0.94872000  0.94872000  0.89874400  1
  Ni  Ni13  1  0.05128000  0.05128000  0.39874400  1
  P  P14  1  0.25234900  0.11479900  0.09635300  1
  P  P15  1  0.11479900  0.25234900  0.09635300  1
  P  P16  1  0.74765100  0.88520100  0.59635300  1
  P  P17  1  0.88520100  0.74765100  0.59635300  1
  P  P18  1  0.54683500  0.83717300  0.06758800  1
  P  P19  1  0.83717300  0.54683500  0.06758800  1
  P  P20  1  0.45316500  0.16282700  0.56758800  1
  P  P21  1  0.16282700  0.45316500  0.56758800  1
  P  P22  1  0.40368300  0.98163900  0.22270100  1
  P  P23  1  0.98163900  0.40368300  0.22270100  1
  P  P24  1  0.59631700  0.01836100  0.72270100  1
  P  P25  1  0.01836100  0.59631700  0.72270100  1
  P  P26  1  0.68661100  0.68661100  0.23514800  1
  P  P27  1  0.31338900  0.31338900  0.73514800  1
