# generated using pymatgen
data_CsP2H3N
_symmetry_space_group_name_H-M   'P 1'
_cell_length_a   6.95606100
_cell_length_b   13.22020200
_cell_length_c   6.67377701
_cell_angle_alpha   90.00000000
_cell_angle_beta   106.19171772
_cell_angle_gamma   90.00000000
_symmetry_Int_Tables_number   1
_chemical_formula_structural   CsP2H3N
_chemical_formula_sum   'Cs4 P8 H12 N4'
_cell_volume   589.38010450
_cell_formula_units_Z   4
loop_
 _symmetry_equiv_pos_site_id
 _symmetry_equiv_pos_as_xyz
  1  'x, y, z'
loop_
 _atom_site_type_symbol
 _atom_site_label
 _atom_site_symmetry_multiplicity
 _atom_site_fract_x
 _atom_site_fract_y
 _atom_site_fract_z
 _atom_site_occupancy
  Cs  Cs0  1  0.76531300  0.62062000  0.31160300  1
  Cs  Cs1  1  0.23468700  0.12062000  0.18839700  1
  Cs  Cs2  1  0.23468700  0.37938000  0.68839700  1
  Cs  Cs3  1  0.76531300  0.87938000  0.81160300  1
  P  P4  1  0.20694600  0.52374800  0.14324300  1
  P  P5  1  0.79305400  0.02374800  0.35675700  1
  P  P6  1  0.79305400  0.47625200  0.85675700  1
  P  P7  1  0.20694600  0.97625200  0.64324300  1
  P  P8  1  0.99928300  0.89873300  0.38887000  1
  P  P9  1  0.00071700  0.39873300  0.11113000  1
  P  P10  1  0.00071700  0.10126700  0.61113000  1
  P  P11  1  0.99928300  0.60126700  0.88887000  1
  H  H12  1  0.32149400  0.76424800  0.14184300  1
  H  H13  1  0.67850600  0.26424800  0.35815700  1
  H  H14  1  0.67850600  0.23575200  0.85815700  1
  H  H15  1  0.32149400  0.73575200  0.64184300  1
  H  H16  1  0.35358400  0.85398300  0.98584100  1
  H  H17  1  0.64641600  0.35398300  0.51415900  1
  H  H18  1  0.64641600  0.14601700  0.01415900  1
  H  H19  1  0.35358400  0.64601700  0.48584100  1
  H  H20  1  0.48441800  0.85332300  0.23151100  1
  H  H21  1  0.51558200  0.35332300  0.26848900  1
  H  H22  1  0.51558200  0.14667700  0.76848900  1
  H  H23  1  0.48441800  0.64667700  0.73151100  1
  N  N24  1  0.42930200  0.80712200  0.10567600  1
  N  N25  1  0.57069800  0.30712200  0.39432400  1
  N  N26  1  0.57069800  0.19287800  0.89432400  1
  N  N27  1  0.42930200  0.69287800  0.60567600  1
