# generated using pymatgen
data_V2(CuO3)3
_symmetry_space_group_name_H-M   'P 1'
_cell_length_a   6.55670700
_cell_length_b   7.60968000
_cell_length_c   7.78715794
_cell_angle_alpha   86.45493427
_cell_angle_beta   90.00000000
_cell_angle_gamma   90.00000000
_symmetry_Int_Tables_number   1
_chemical_formula_structural   V2(CuO3)3
_chemical_formula_sum   'V4 Cu6 O18'
_cell_volume   387.79242706
_cell_formula_units_Z   2
loop_
 _symmetry_equiv_pos_site_id
 _symmetry_equiv_pos_as_xyz
  1  'x, y, z'
loop_
 _atom_site_type_symbol
 _atom_site_label
 _atom_site_symmetry_multiplicity
 _atom_site_fract_x
 _atom_site_fract_y
 _atom_site_fract_z
 _atom_site_occupancy
  V  V0  1  0.25000000  0.33518100  0.78943800  1
  V  V1  1  0.75000000  0.66481900  0.21056200  1
  V  V2  1  0.25000000  0.26657600  0.33895600  1
  V  V3  1  0.75000000  0.73342400  0.66104400  1
  Cu  Cu4  1  0.00000000  0.00000000  0.00000000  1
  Cu  Cu5  1  0.50000000  0.00000000  0.00000000  1
  Cu  Cu6  1  0.25000000  0.83926600  0.69956400  1
  Cu  Cu7  1  0.75000000  0.16073400  0.30043600  1
  Cu  Cu8  1  0.25000000  0.67396000  0.08334500  1
  Cu  Cu9  1  0.75000000  0.32604000  0.91665500  1
  O  O10  1  0.25000000  0.90037200  0.93445500  1
  O  O11  1  0.75000000  0.09962800  0.06554500  1
  O  O12  1  0.96908600  0.76808000  0.11612200  1
  O  O13  1  0.46908600  0.23192000  0.88387800  1
  O  O14  1  0.03091400  0.23192000  0.88387800  1
  O  O15  1  0.53091400  0.76808000  0.11612200  1
  O  O16  1  0.25000000  0.54716300  0.83445600  1
  O  O17  1  0.75000000  0.45283700  0.16554400  1
  O  O18  1  0.46468900  0.13892900  0.29745900  1
  O  O19  1  0.96468900  0.86107100  0.70254100  1
  O  O20  1  0.53531100  0.86107100  0.70254100  1
  O  O21  1  0.03531100  0.13892900  0.29745900  1
  O  O22  1  0.25000000  0.45965000  0.21676700  1
  O  O23  1  0.75000000  0.54035000  0.78323300  1
  O  O24  1  0.25000000  0.31665800  0.56088000  1
  O  O25  1  0.75000000  0.68334200  0.43912000  1
  O  O26  1  0.25000000  0.78885700  0.48106900  1
  O  O27  1  0.75000000  0.21114300  0.51893100  1
