# generated using pymatgen
data_K2Ti4O9
_symmetry_space_group_name_H-M   'P 1'
_cell_length_a   3.80626900
_cell_length_b   9.50578931
_cell_length_c   12.17091038
_cell_angle_alpha   106.11059656
_cell_angle_beta   90.00000000
_cell_angle_gamma   101.54911601
_symmetry_Int_Tables_number   1
_chemical_formula_structural   K2Ti4O9
_chemical_formula_sum   'K4 Ti8 O18'
_cell_volume   413.78060092
_cell_formula_units_Z   2
loop_
 _symmetry_equiv_pos_site_id
 _symmetry_equiv_pos_as_xyz
  1  'x, y, z'
loop_
 _atom_site_type_symbol
 _atom_site_label
 _atom_site_symmetry_multiplicity
 _atom_site_fract_x
 _atom_site_fract_y
 _atom_site_fract_z
 _atom_site_occupancy
  K  K0  1  0.58468400  0.16936700  0.08424300  1
  K  K1  1  0.41531600  0.83063300  0.91575700  1
  K  K2  1  0.52355700  0.04711400  0.33215200  1
  K  K3  1  0.47644300  0.95288600  0.66784800  1
  Ti  Ti4  1  0.24567100  0.49134200  0.16590000  1
  Ti  Ti5  1  0.75432900  0.50865800  0.83410000  1
  Ti  Ti6  1  0.83781200  0.67562400  0.37471200  1
  Ti  Ti7  1  0.16218800  0.32437600  0.62528800  1
  Ti  Ti8  1  0.87764300  0.75528600  0.13794600  1
  Ti  Ti9  1  0.12235700  0.24471400  0.86205400  1
  Ti  Ti10  1  0.20304900  0.40609800  0.39622800  1
  Ti  Ti11  1  0.79695100  0.59390200  0.60377200  1
  O  O12  1  0.76672100  0.53344200  0.19988700  1
  O  O13  1  0.23327900  0.46655800  0.80011300  1
  O  O14  1  0.30767400  0.61534800  0.35813700  1
  O  O15  1  0.69232600  0.38465200  0.64186300  1
  O  O16  1  0.34825000  0.69650100  0.14158600  1
  O  O17  1  0.65175000  0.30349900  0.85841400  1
  O  O18  1  0.72925100  0.45850200  0.42112900  1
  O  O19  1  0.27074900  0.54149800  0.57887100  1
  O  O20  1  0.91526300  0.83052600  0.31593200  1
  O  O21  1  0.08473700  0.16947400  0.68406800  1
  O  O22  1  0.96650000  0.93300000  0.11944800  1
  O  O23  1  0.03350000  0.06700000  0.88055200  1
  O  O24  1  0.12304500  0.24609000  0.46330000  1
  O  O25  1  0.87695500  0.75391000  0.53670000  1
  O  O26  1  0.16113400  0.32226700  0.24333700  1
  O  O27  1  0.83886600  0.67773300  0.75666300  1
  O  O28  1  0.18206800  0.36413700  0.02744700  1
  O  O29  1  0.81793200  0.63586300  0.97255300  1
