# generated using pymatgen
data_UPO5
_symmetry_space_group_name_H-M   'P 1'
_cell_length_a   5.57820823
_cell_length_b   5.57820823
_cell_length_c   12.76791500
_cell_angle_alpha   90.00000000
_cell_angle_beta   90.00000000
_cell_angle_gamma   102.14259495
_symmetry_Int_Tables_number   1
_chemical_formula_structural   UPO5
_chemical_formula_sum   'U4 P4 O20'
_cell_volume   388.40308735
_cell_formula_units_Z   4
loop_
 _symmetry_equiv_pos_site_id
 _symmetry_equiv_pos_as_xyz
  1  'x, y, z'
loop_
 _atom_site_type_symbol
 _atom_site_label
 _atom_site_symmetry_multiplicity
 _atom_site_fract_x
 _atom_site_fract_y
 _atom_site_fract_z
 _atom_site_occupancy
  U  U0  1  0.33239100  0.66760900  0.42516900  1
  U  U1  1  0.66760900  0.33239100  0.57483100  1
  U  U2  1  0.16760900  0.83239100  0.92516900  1
  U  U3  1  0.83239100  0.16760900  0.07483100  1
  P  P4  1  0.08955900  0.91044100  0.63710400  1
  P  P5  1  0.91044100  0.08955900  0.36289600  1
  P  P6  1  0.41044100  0.58955900  0.13710400  1
  P  P7  1  0.58955900  0.41044100  0.86289600  1
  O  O8  1  0.98120900  0.66691300  0.57796600  1
  O  O9  1  0.66691300  0.98120900  0.42203400  1
  O  O10  1  0.16691300  0.48120900  0.07796600  1
  O  O11  1  0.48120900  0.16691300  0.92203400  1
  O  O12  1  0.01879100  0.33308700  0.42203400  1
  O  O13  1  0.33308700  0.01879100  0.57796600  1
  O  O14  1  0.83308700  0.51879100  0.92203400  1
  O  O15  1  0.51879100  0.83308700  0.07796600  1
  O  O16  1  0.14328900  0.85671100  0.75132800  1
  O  O17  1  0.85671100  0.14328900  0.24867200  1
  O  O18  1  0.35671100  0.64328900  0.25132800  1
  O  O19  1  0.64328900  0.35671100  0.74867200  1
  O  O20  1  0.91220000  0.08780000  0.62760600  1
  O  O21  1  0.08780000  0.91220000  0.37239400  1
  O  O22  1  0.58780000  0.41220000  0.12760600  1
  O  O23  1  0.41220000  0.58780000  0.87239400  1
  O  O24  1  0.44196800  0.55803200  0.58584700  1
  O  O25  1  0.55803200  0.44196800  0.41415300  1
  O  O26  1  0.05803200  0.94196800  0.08584700  1
  O  O27  1  0.94196800  0.05803200  0.91415300  1
