# generated using pymatgen
data_Yb(SbS2)2
_symmetry_space_group_name_H-M   'P 1'
_cell_length_a   3.95464600
_cell_length_b   11.54331300
_cell_length_c   14.24557000
_cell_angle_alpha   90.00000000
_cell_angle_beta   90.00000000
_cell_angle_gamma   90.00000000
_symmetry_Int_Tables_number   1
_chemical_formula_structural   Yb(SbS2)2
_chemical_formula_sum   'Yb4 Sb8 S16'
_cell_volume   650.30623305
_cell_formula_units_Z   4
loop_
 _symmetry_equiv_pos_site_id
 _symmetry_equiv_pos_as_xyz
  1  'x, y, z'
loop_
 _atom_site_type_symbol
 _atom_site_label
 _atom_site_symmetry_multiplicity
 _atom_site_fract_x
 _atom_site_fract_y
 _atom_site_fract_z
 _atom_site_occupancy
  Yb  Yb0  1  0.25000000  0.26514000  0.34903200  1
  Yb  Yb1  1  0.25000000  0.76514000  0.15096800  1
  Yb  Yb2  1  0.75000000  0.73486000  0.65096800  1
  Yb  Yb3  1  0.75000000  0.23486000  0.84903200  1
  Sb  Sb4  1  0.25000000  0.06768900  0.60965300  1
  Sb  Sb5  1  0.25000000  0.56768900  0.89034700  1
  Sb  Sb6  1  0.75000000  0.93231100  0.39034700  1
  Sb  Sb7  1  0.75000000  0.43231100  0.10965300  1
  Sb  Sb8  1  0.25000000  0.11449300  0.08895800  1
  Sb  Sb9  1  0.25000000  0.61449300  0.41104200  1
  Sb  Sb10  1  0.75000000  0.88550700  0.91104200  1
  Sb  Sb11  1  0.75000000  0.38550700  0.58895800  1
  S  S12  1  0.25000000  0.31249200  0.98681600  1
  S  S13  1  0.25000000  0.81249200  0.51318400  1
  S  S14  1  0.75000000  0.68750800  0.01318400  1
  S  S15  1  0.75000000  0.18750800  0.48681600  1
  S  S16  1  0.25000000  0.25387100  0.70172700  1
  S  S17  1  0.25000000  0.75387100  0.79827300  1
  S  S18  1  0.75000000  0.74612900  0.29827300  1
  S  S19  1  0.75000000  0.24612900  0.20172700  1
  S  S20  1  0.25000000  0.05571300  0.90992000  1
  S  S21  1  0.25000000  0.55571300  0.59008000  1
  S  S22  1  0.75000000  0.94428700  0.09008000  1
  S  S23  1  0.75000000  0.44428700  0.40992000  1
  S  S24  1  0.25000000  0.01788800  0.29134300  1
  S  S25  1  0.25000000  0.51788800  0.20865700  1
  S  S26  1  0.75000000  0.98211200  0.70865700  1
  S  S27  1  0.75000000  0.48211200  0.79134300  1
