# generated using pymatgen
data_UB12O13
_symmetry_space_group_name_H-M   'P 1'
_cell_length_a   6.92014781
_cell_length_b   6.92014781
_cell_length_c   9.84374674
_cell_angle_alpha   66.11438954
_cell_angle_beta   66.11438954
_cell_angle_gamma   82.36993124
_symmetry_Int_Tables_number   1
_chemical_formula_structural   UB12O13
_chemical_formula_sum   'U1 B12 O13'
_cell_volume   393.83954525
_cell_formula_units_Z   1
loop_
 _symmetry_equiv_pos_site_id
 _symmetry_equiv_pos_as_xyz
  1  'x, y, z'
loop_
 _atom_site_type_symbol
 _atom_site_label
 _atom_site_symmetry_multiplicity
 _atom_site_fract_x
 _atom_site_fract_y
 _atom_site_fract_z
 _atom_site_occupancy
  U  U0  1  0.46804700  0.46804700  0.93207300  1
  B  B1  1  0.78263700  0.78263700  0.53809700  1
  B  B2  1  0.83721600  0.83721600  0.66818400  1
  B  B3  1  0.00137500  0.66231200  0.73720700  1
  B  B4  1  0.66231200  0.00137500  0.73720700  1
  B  B5  1  0.99199400  0.25261100  0.46426700  1
  B  B6  1  0.25261100  0.99199400  0.46426700  1
  B  B7  1  0.94148700  0.64248800  0.42639400  1
  B  B8  1  0.64248800  0.94148700  0.42639400  1
  B  B9  1  0.09005200  0.09005200  0.28865300  1
  B  B10  1  0.04941200  0.85705200  0.46470900  1
  B  B11  1  0.85705200  0.04941200  0.46470900  1
  B  B12  1  0.86730900  0.86730900  0.21728400  1
  O  O13  1  0.57980600  0.57980600  0.03413700  1
  O  O14  1  0.18724200  0.18724200  0.14166300  1
  O  O15  1  0.92733700  0.42759800  0.49469400  1
  O  O16  1  0.42759800  0.92733700  0.49469400  1
  O  O17  1  0.20343700  0.20343700  0.43549900  1
  O  O18  1  0.99745500  0.72234900  0.24655900  1
  O  O19  1  0.72234900  0.99745500  0.24655900  1
  O  O20  1  0.26320300  0.66374800  0.93149900  1
  O  O21  1  0.66374800  0.26320300  0.93149900  1
  O  O22  1  0.12220500  0.52031400  0.76633600  1
  O  O23  1  0.52031400  0.12220500  0.76633600  1
  O  O24  1  0.43484800  0.43484800  0.47370300  1
  O  O25  1  0.56501700  0.56501700  0.35217600  1
