# generated using pymatgen
data_NaTi3O9
_symmetry_space_group_name_H-M   'P 1'
_cell_length_a   3.75792600
_cell_length_b   8.32382743
_cell_length_c   10.84571819
_cell_angle_alpha   80.33089903
_cell_angle_beta   80.02347975
_cell_angle_gamma   76.95401887
_symmetry_Int_Tables_number   1
_chemical_formula_structural   NaTi3O9
_chemical_formula_sum   'Na2 Ti6 O18'
_cell_volume   322.55492987
_cell_formula_units_Z   2
loop_
 _symmetry_equiv_pos_site_id
 _symmetry_equiv_pos_as_xyz
  1  'x, y, z'
loop_
 _atom_site_type_symbol
 _atom_site_label
 _atom_site_symmetry_multiplicity
 _atom_site_fract_x
 _atom_site_fract_y
 _atom_site_fract_z
 _atom_site_occupancy
  Na  Na0  1  0.18274100  0.95235200  0.68216600  1
  Na  Na1  1  0.81725900  0.04764800  0.31783400  1
  Ti  Ti2  1  0.26009500  0.38628800  0.09352200  1
  Ti  Ti3  1  0.73990500  0.61371200  0.90647800  1
  Ti  Ti4  1  0.91115200  0.54266200  0.63503300  1
  Ti  Ti5  1  0.08884800  0.45733800  0.36496700  1
  Ti  Ti6  1  0.44009200  0.30484200  0.81497300  1
  Ti  Ti7  1  0.55990800  0.69515800  0.18502700  1
  O  O8  1  0.26401200  0.55201100  0.91996500  1
  O  O9  1  0.73598800  0.44798900  0.08003500  1
  O  O10  1  0.39056900  0.22981500  0.98904600  1
  O  O11  1  0.60943100  0.77018500  0.01095400  1
  O  O12  1  0.64399000  0.16411900  0.54790100  1
  O  O13  1  0.35601000  0.83588100  0.45209900  1
  O  O14  1  0.77291900  0.71641000  0.73775100  1
  O  O15  1  0.22708100  0.28359000  0.26224900  1
  O  O16  1  0.90632600  0.37867500  0.80867300  1
  O  O17  1  0.09367400  0.62132500  0.19132700  1
  O  O18  1  0.93327700  0.66279200  0.47065400  1
  O  O19  1  0.06672300  0.33720800  0.52934600  1
  O  O20  1  0.42624700  0.48913000  0.65837500  1
  O  O21  1  0.57375300  0.51087000  0.34162500  1
  O  O22  1  0.03064800  0.99482300  0.94388100  1
  O  O23  1  0.96935200  0.00517700  0.05611900  1
  O  O24  1  0.56974500  0.11523600  0.74527500  1
  O  O25  1  0.43025500  0.88476400  0.25472500  1
