# generated using pymatgen
data_BaCr2PO11
_symmetry_space_group_name_H-M   'P 1'
_cell_length_a   7.58548900
_cell_length_b   7.81189226
_cell_length_c   9.60933914
_cell_angle_alpha   93.98479960
_cell_angle_beta   105.23234941
_cell_angle_gamma   106.15869614
_symmetry_Int_Tables_number   1
_chemical_formula_structural   BaCr2PO11
_chemical_formula_sum   'Ba2 Cr4 P2 O22'
_cell_volume   521.42572957
_cell_formula_units_Z   2
loop_
 _symmetry_equiv_pos_site_id
 _symmetry_equiv_pos_as_xyz
  1  'x, y, z'
loop_
 _atom_site_type_symbol
 _atom_site_label
 _atom_site_symmetry_multiplicity
 _atom_site_fract_x
 _atom_site_fract_y
 _atom_site_fract_z
 _atom_site_occupancy
  Ba  Ba0  1  0.25716100  0.45451100  0.11522900  1
  Ba  Ba1  1  0.74283900  0.54548900  0.88477100  1
  Cr  Cr2  1  0.24319900  0.72447500  0.75130200  1
  Cr  Cr3  1  0.75680100  0.27552500  0.24869800  1
  Cr  Cr4  1  0.11822000  0.93145700  0.25246900  1
  Cr  Cr5  1  0.88178000  0.06854300  0.74753100  1
  P  P6  1  0.31709200  0.14833900  0.77662800  1
  P  P7  1  0.68290800  0.85166100  0.22337200  1
  O  O8  1  0.09255700  0.69639300  0.59163100  1
  O  O9  1  0.90744300  0.30360700  0.40836900  1
  O  O10  1  0.13434900  0.62202800  0.86358800  1
  O  O11  1  0.86565100  0.37797200  0.13641200  1
  O  O12  1  0.42271400  0.65312600  0.74285400  1
  O  O13  1  0.57728600  0.34687400  0.25714600  1
  O  O14  1  0.34314000  0.96752700  0.82368700  1
  O  O15  1  0.65686000  0.03247300  0.17631300  1
  O  O16  1  0.44536200  0.22690000  0.68235800  1
  O  O17  1  0.55463800  0.77310000  0.31764200  1
  O  O18  1  0.38891300  0.29397700  0.91125600  1
  O  O19  1  0.61108700  0.70602300  0.08874400  1
  O  O20  1  0.10096700  0.11226400  0.69180400  1
  O  O21  1  0.89903300  0.88773600  0.30819600  1
  O  O22  1  0.10254900  0.74955800  0.14612000  1
  O  O23  1  0.89745100  0.25044200  0.85388000  1
  O  O24  1  0.13621300  0.10519700  0.16524300  1
  O  O25  1  0.86378700  0.89480300  0.83475700  1
  O  O26  1  0.29422300  0.97359000  0.39833400  1
  O  O27  1  0.70577700  0.02641000  0.60166600  1
  O  O28  1  0.28552100  0.46260600  0.42107300  1
  O  O29  1  0.71447900  0.53739400  0.57892700  1
