# generated using pymatgen
data_Te4MoW
_symmetry_space_group_name_H-M   'P 1'
_cell_length_a   3.55890153
_cell_length_b   3.55890153
_cell_length_c   40.11263800
_cell_angle_alpha   90.00000000
_cell_angle_beta   90.00000000
_cell_angle_gamma   119.99999128
_symmetry_Int_Tables_number   1
_chemical_formula_structural   Te4MoW
_chemical_formula_sum   'Te8 Mo2 W2'
_cell_volume   439.99104545
_cell_formula_units_Z   2
loop_
 _symmetry_equiv_pos_site_id
 _symmetry_equiv_pos_as_xyz
  1  'x, y, z'
loop_
 _atom_site_type_symbol
 _atom_site_label
 _atom_site_symmetry_multiplicity
 _atom_site_fract_x
 _atom_site_fract_y
 _atom_site_fract_z
 _atom_site_occupancy
  Te  Te0  1  0.00000000  0.00000000  0.32697700  1
  Te  Te1  1  0.00000000  0.00000000  0.70281300  1
  Te  Te2  1  0.33333300  0.66666700  0.04876000  1
  Te  Te3  1  0.33333300  0.66666700  0.42435200  1
  Te  Te4  1  0.33333300  0.66666700  0.13911200  1
  Te  Te5  1  0.33333300  0.66666700  0.51496500  1
  Te  Te6  1  0.00000000  0.00000000  0.23661300  1
  Te  Te7  1  0.00000000  0.00000000  0.61222400  1
  Mo  Mo8  1  0.00000000  0.00000000  0.09391600  1
  Mo  Mo9  1  0.33333300  0.66666700  0.28180200  1
  W  W10  1  0.00000000  0.00000000  0.46966600  1
  W  W11  1  0.33333300  0.66666700  0.65754700  1
