# generated using pymatgen
data_Th(BO2)4
_symmetry_space_group_name_H-M   'P 1'
_cell_length_a   8.40609674
_cell_length_b   8.40609674
_cell_length_c   7.35173171
_cell_angle_alpha   66.08469696
_cell_angle_beta   66.08469696
_cell_angle_gamma   29.16032749
_symmetry_Int_Tables_number   1
_chemical_formula_structural   Th(BO2)4
_chemical_formula_sum   'Th2 B8 O16'
_cell_volume   229.84849382
_cell_formula_units_Z   2
loop_
 _symmetry_equiv_pos_site_id
 _symmetry_equiv_pos_as_xyz
  1  'x, y, z'
loop_
 _atom_site_type_symbol
 _atom_site_label
 _atom_site_symmetry_multiplicity
 _atom_site_fract_x
 _atom_site_fract_y
 _atom_site_fract_z
 _atom_site_occupancy
  Th  Th0  1  0.18799400  0.81200600  0.75000000  1
  Th  Th1  1  0.81200600  0.18799400  0.25000000  1
  B  B2  1  0.99941100  0.39278600  0.79608400  1
  B  B3  1  0.60721400  0.00058900  0.70391600  1
  B  B4  1  0.00058900  0.60721400  0.20391600  1
  B  B5  1  0.39278600  0.99941100  0.29608400  1
  B  B6  1  0.82969900  0.45265800  0.50895200  1
  B  B7  1  0.54734200  0.17030100  0.99104800  1
  B  B8  1  0.17030100  0.54734200  0.49104800  1
  B  B9  1  0.45265800  0.82969900  0.00895200  1
  O  O10  1  0.92906600  0.63875300  0.66721900  1
  O  O11  1  0.36124700  0.07093400  0.83278100  1
  O  O12  1  0.07093400  0.36124700  0.33278100  1
  O  O13  1  0.63875300  0.92906600  0.16721900  1
  O  O14  1  0.80783000  0.50632000  0.99066500  1
  O  O15  1  0.49368000  0.19217000  0.50933500  1
  O  O16  1  0.19217000  0.49368000  0.00933500  1
  O  O17  1  0.50632000  0.80783000  0.49066500  1
  O  O18  1  0.93604800  0.32968300  0.70335300  1
  O  O19  1  0.67031700  0.06395200  0.79664700  1
  O  O20  1  0.06395200  0.67031700  0.29664700  1
  O  O21  1  0.32968300  0.93604800  0.20335300  1
  O  O22  1  0.81364600  0.29028500  0.51415800  1
  O  O23  1  0.70971500  0.18635400  0.98584200  1
  O  O24  1  0.18635400  0.70971500  0.48584200  1
  O  O25  1  0.29028500  0.81364600  0.01415800  1
