# generated using pymatgen
data_CaAl2(SiO5)2
_symmetry_space_group_name_H-M   'P 1'
_cell_length_a   5.29680173
_cell_length_b   5.29680173
_cell_length_c   12.95662200
_cell_angle_alpha   90.00000000
_cell_angle_beta   90.00000000
_cell_angle_gamma   112.10171411
_symmetry_Int_Tables_number   1
_chemical_formula_structural   CaAl2(SiO5)2
_chemical_formula_sum   'Ca2 Al4 Si4 O20'
_cell_volume   336.80054872
_cell_formula_units_Z   2
loop_
 _symmetry_equiv_pos_site_id
 _symmetry_equiv_pos_as_xyz
  1  'x, y, z'
loop_
 _atom_site_type_symbol
 _atom_site_label
 _atom_site_symmetry_multiplicity
 _atom_site_fract_x
 _atom_site_fract_y
 _atom_site_fract_z
 _atom_site_occupancy
  Ca  Ca0  1  0.66489000  0.33511000  0.75000000  1
  Ca  Ca1  1  0.33511000  0.66489000  0.25000000  1
  Al  Al2  1  0.50000000  0.00000000  0.00000000  1
  Al  Al3  1  0.00000000  0.50000000  0.00000000  1
  Al  Al4  1  0.50000000  0.00000000  0.50000000  1
  Al  Al5  1  0.00000000  0.50000000  0.50000000  1
  Si  Si6  1  0.02208700  0.97791300  0.86863700  1
  Si  Si7  1  0.97791300  0.02208700  0.13136300  1
  Si  Si8  1  0.02208700  0.97791300  0.63136300  1
  Si  Si9  1  0.97791300  0.02208700  0.36863700  1
  O  O10  1  0.95075800  0.04924200  0.75000000  1
  O  O11  1  0.04924200  0.95075800  0.25000000  1
  O  O12  1  0.35328500  0.10101100  0.88215500  1
  O  O13  1  0.10101100  0.35328500  0.11784500  1
  O  O14  1  0.35328500  0.10101100  0.61784500  1
  O  O15  1  0.10101100  0.35328500  0.38215500  1
  O  O16  1  0.64671500  0.89898900  0.11784500  1
  O  O17  1  0.89898900  0.64671500  0.88215500  1
  O  O18  1  0.64671500  0.89898900  0.38215500  1
  O  O19  1  0.89898900  0.64671500  0.61784500  1
  O  O20  1  0.86318300  0.13681700  0.93631100  1
  O  O21  1  0.13681700  0.86318300  0.06368900  1
  O  O22  1  0.86318300  0.13681700  0.56368900  1
  O  O23  1  0.13681700  0.86318300  0.43631100  1
  O  O24  1  0.36413800  0.63586200  0.94695000  1
  O  O25  1  0.63586200  0.36413800  0.05305000  1
  O  O26  1  0.36413800  0.63586200  0.55305000  1
  O  O27  1  0.63586200  0.36413800  0.44695000  1
  O  O28  1  0.38451000  0.61549000  0.75000000  1
  O  O29  1  0.61549000  0.38451000  0.25000000  1
