# generated using pymatgen
data_SnHg2(SBr)2
_symmetry_space_group_name_H-M   'P 1'
_cell_length_a   10.64253800
_cell_length_b   11.15448700
_cell_length_c   13.12235268
_cell_angle_alpha   64.52536260
_cell_angle_beta   90.00000000
_cell_angle_gamma   90.00000000
_symmetry_Int_Tables_number   1
_chemical_formula_structural   SnHg2(SBr)2
_chemical_formula_sum   'Sn4 Hg8 S8 Br8'
_cell_volume   1406.32730718
_cell_formula_units_Z   4
loop_
 _symmetry_equiv_pos_site_id
 _symmetry_equiv_pos_as_xyz
  1  'x, y, z'
loop_
 _atom_site_type_symbol
 _atom_site_label
 _atom_site_symmetry_multiplicity
 _atom_site_fract_x
 _atom_site_fract_y
 _atom_site_fract_z
 _atom_site_occupancy
  Sn  Sn0  1  0.68466600  0.22768400  0.53203000  1
  Sn  Sn1  1  0.81533400  0.22768400  0.03203000  1
  Sn  Sn2  1  0.31533400  0.77231600  0.46797000  1
  Sn  Sn3  1  0.18466600  0.77231600  0.96797000  1
  Hg  Hg4  1  0.60607700  0.23135900  0.82667400  1
  Hg  Hg5  1  0.89392300  0.23135900  0.32667400  1
  Hg  Hg6  1  0.39392300  0.76864100  0.17332600  1
  Hg  Hg7  1  0.10607700  0.76864100  0.67332600  1
  Hg  Hg8  1  0.82670200  0.49040900  0.62864900  1
  Hg  Hg9  1  0.67329800  0.49040900  0.12864900  1
  Hg  Hg10  1  0.17329800  0.50959100  0.37135100  1
  Hg  Hg11  1  0.32670200  0.50959100  0.87135100  1
  S  S12  1  0.59140100  0.11257600  0.71470800  1
  S  S13  1  0.90859900  0.11257600  0.21470800  1
  S  S14  1  0.40859900  0.88742400  0.28529200  1
  S  S15  1  0.09140100  0.88742400  0.78529200  1
  S  S16  1  0.60511100  0.31173500  0.96939100  1
  S  S17  1  0.89488900  0.31173500  0.46939100  1
  S  S18  1  0.39488900  0.68826500  0.03060900  1
  S  S19  1  0.10511100  0.68826500  0.53060900  1
  Br  Br20  1  0.53197000  0.40271500  0.40862600  1
  Br  Br21  1  0.96803000  0.40271500  0.90862600  1
  Br  Br22  1  0.46803000  0.59728500  0.59137400  1
  Br  Br23  1  0.03197000  0.59728500  0.09137400  1
  Br  Br24  1  0.67076900  0.03713300  0.47576400  1
  Br  Br25  1  0.82923100  0.03713300  0.97576400  1
  Br  Br26  1  0.32923100  0.96286700  0.52423600  1
  Br  Br27  1  0.17076900  0.96286700  0.02423600  1
