# generated using pymatgen
data_Ba4Zn4B14Pb2O31
_symmetry_space_group_name_H-M   'P 1'
_cell_length_a   7.11069900
_cell_length_b   7.14203266
_cell_length_c   16.40108071
_cell_angle_alpha   79.39012917
_cell_angle_beta   83.01379660
_cell_angle_gamma   60.39023742
_symmetry_Int_Tables_number   1
_chemical_formula_structural   Ba4Zn4B14Pb2O31
_chemical_formula_sum   'Ba4 Zn4 B14 Pb2 O31'
_cell_volume   711.31647945
_cell_formula_units_Z   1
loop_
 _symmetry_equiv_pos_site_id
 _symmetry_equiv_pos_as_xyz
  1  'x, y, z'
loop_
 _atom_site_type_symbol
 _atom_site_label
 _atom_site_symmetry_multiplicity
 _atom_site_fract_x
 _atom_site_fract_y
 _atom_site_fract_z
 _atom_site_occupancy
  Ba  Ba0  1  0.10204300  0.07626100  0.59174200  1
  Ba  Ba1  1  0.83369900  0.65799000  0.74353600  1
  Ba  Ba2  1  0.36640700  0.92492300  0.17956100  1
  Ba  Ba3  1  0.08734400  0.50924600  0.34171300  1
  Zn  Zn4  1  0.74825900  0.79419300  0.51532000  1
  Zn  Zn5  1  0.04358600  0.59916800  0.12283300  1
  Zn  Zn6  1  0.43744400  0.79409800  0.41735600  1
  Zn  Zn7  1  0.15205100  0.98609300  0.81280900  1
  B  B8  1  0.02504800  0.46540500  0.96477500  1
  B  B9  1  0.47729400  0.42757800  0.16916300  1
  B  B10  1  0.59723600  0.20730400  0.57602700  1
  B  B11  1  0.97301700  0.11009800  0.37782400  1
  B  B12  1  0.32839800  0.27629600  0.76001100  1
  B  B13  1  0.72608700  0.99333400  0.32895600  1
  B  B14  1  0.46256400  0.59339300  0.60433900  1
  B  B15  1  0.44596200  0.55211300  0.76669500  1
  B  B16  1  0.74583900  0.03489000  0.16633300  1
  B  B17  1  0.86444000  0.30913700  0.17386800  1
  B  B18  1  0.58947100  0.37972800  0.35789300  1
  B  B19  1  0.20389300  0.04655100  0.97303200  1
  B  B20  1  0.21312400  0.47638900  0.55705500  1
  B  B21  1  0.71463600  0.15605700  0.76680300  1
  Pb  Pb22  1  0.76612800  0.94626900  0.96636400  1
  Pb  Pb23  1  0.51684800  0.54141200  0.95739400  1
  O  O24  1  0.17475400  0.24688900  0.98808400  1
  O  O25  1  0.78319500  0.88778400  0.10734100  1
  O  O26  1  0.76207000  0.99994400  0.57520400  1
  O  O27  1  0.91840600  0.98703600  0.75965200  1
  O  O28  1  0.41061900  0.69789500  0.82659300  1
  O  O29  1  0.27303200  0.59270800  0.17929700  1
  O  O30  1  0.54545400  0.10957700  0.76048600  1
  O  O31  1  0.27966600  0.47854700  0.77597500  1
  O  O32  1  0.02435300  0.34920900  0.18886400  1
  O  O33  1  0.45322000  0.66674800  0.68359200  1
  O  O34  1  0.66696200  0.35562800  0.78413300  1
  O  O35  1  0.79536100  0.32075400  0.38404800  1
  O  O36  1  0.94666700  0.96533800  0.34310700  1
  O  O37  1  0.49387200  0.74411100  0.53851500  1
  O  O38  1  0.02123300  0.51089200  0.53214800  1
  O  O39  1  0.05685700  0.03663800  0.92948200  1
  O  O40  1  0.16311700  0.07493000  0.40469800  1
  O  O41  1  0.69278200  0.84315000  0.39479200  1
  O  O42  1  0.73657200  0.92031300  0.24962400  1
  O  O43  1  0.42321400  0.58585500  0.35968100  1
  O  O44  1  0.24088600  0.62103900  0.59124700  1
  O  O45  1  0.52580100  0.23110400  0.14858100  1
  O  O46  1  0.91307700  0.10723400  0.15764100  1
  O  O47  1  0.39114600  0.26677700  0.54981900  1
  O  O48  1  0.84900900  0.55096100  0.91642600  1
  O  O49  1  0.16987300  0.23572600  0.74344400  1
  O  O50  1  0.06561600  0.60801000  0.99823200  1
  O  O51  1  0.39125900  0.86853200  0.00445500  1
  O  O52  1  0.55583400  0.22710100  0.33062400  1
  O  O53  1  0.64677200  0.47507300  0.17469600  1
  O  O54  1  0.63258400  0.35991100  0.60229800  1
