# generated using pymatgen
data_FeSeO5
_symmetry_space_group_name_H-M   'P 1'
_cell_length_a   6.16393590
_cell_length_b   7.39262338
_cell_length_c   8.66224000
_cell_angle_alpha   90.00000000
_cell_angle_beta   90.00000000
_cell_angle_gamma   95.94503728
_symmetry_Int_Tables_number   1
_chemical_formula_structural   FeSeO5
_chemical_formula_sum   'Fe4 Se4 O20'
_cell_volume   392.59507042
_cell_formula_units_Z   4
loop_
 _symmetry_equiv_pos_site_id
 _symmetry_equiv_pos_as_xyz
  1  'x, y, z'
loop_
 _atom_site_type_symbol
 _atom_site_label
 _atom_site_symmetry_multiplicity
 _atom_site_fract_x
 _atom_site_fract_y
 _atom_site_fract_z
 _atom_site_occupancy
  Fe  Fe0  1  0.85896000  0.03376600  0.65346300  1
  Fe  Fe1  1  0.35896000  0.53376600  0.84653700  1
  Fe  Fe2  1  0.14104000  0.96623400  0.34653700  1
  Fe  Fe3  1  0.64104000  0.46623400  0.15346300  1
  Se  Se4  1  0.58485000  0.80685400  0.37751100  1
  Se  Se5  1  0.08485000  0.30685400  0.12248900  1
  Se  Se6  1  0.41515000  0.19314600  0.62248900  1
  Se  Se7  1  0.91515000  0.69314600  0.87751100  1
  O  O8  1  0.82712600  0.95949000  0.42265600  1
  O  O9  1  0.32712600  0.45949000  0.07734400  1
  O  O10  1  0.17287400  0.04051000  0.57734400  1
  O  O11  1  0.67287400  0.54051000  0.92265600  1
  O  O12  1  0.45072000  0.00208500  0.33261300  1
  O  O13  1  0.95072000  0.50208500  0.16738700  1
  O  O14  1  0.54928000  0.99791500  0.66738700  1
  O  O15  1  0.04928000  0.49791500  0.83261300  1
  O  O16  1  0.64185500  0.73293500  0.19764700  1
  O  O17  1  0.14185500  0.23293500  0.30235300  1
  O  O18  1  0.35814500  0.26706500  0.80235300  1
  O  O19  1  0.85814500  0.76706500  0.69764700  1
  O  O20  1  0.90916000  0.09522000  0.83916300  1
  O  O21  1  0.40916000  0.59522000  0.66083700  1
  O  O22  1  0.09084000  0.90478000  0.16083700  1
  O  O23  1  0.59084000  0.40478000  0.33916300  1
  O  O24  1  0.84504200  0.26291500  0.62101400  1
  O  O25  1  0.34504200  0.76291500  0.87898600  1
  O  O26  1  0.15495800  0.73708500  0.37898600  1
  O  O27  1  0.65495800  0.23708500  0.12101400  1
