# generated using pymatgen
data_KZn2(PO4)2
_symmetry_space_group_name_H-M   'P 1'
_cell_length_a   5.25154300
_cell_length_b   9.01899115
_cell_length_c   9.59792989
_cell_angle_alpha   97.33454149
_cell_angle_beta   101.56749132
_cell_angle_gamma   106.83671257
_symmetry_Int_Tables_number   1
_chemical_formula_structural   KZn2(PO4)2
_chemical_formula_sum   'K2 Zn4 P4 O16'
_cell_volume   417.82225978
_cell_formula_units_Z   2
loop_
 _symmetry_equiv_pos_site_id
 _symmetry_equiv_pos_as_xyz
  1  'x, y, z'
loop_
 _atom_site_type_symbol
 _atom_site_label
 _atom_site_symmetry_multiplicity
 _atom_site_fract_x
 _atom_site_fract_y
 _atom_site_fract_z
 _atom_site_occupancy
  K  K0  1  0.41153500  0.70640300  0.67839000  1
  K  K1  1  0.58846500  0.29359700  0.32161000  1
  Zn  Zn2  1  0.68989700  0.89122100  0.11197800  1
  Zn  Zn3  1  0.31010300  0.10877900  0.88802200  1
  Zn  Zn4  1  0.22038300  0.61490000  0.23484900  1
  Zn  Zn5  1  0.77961700  0.38510000  0.76515100  1
  P  P6  1  0.15380200  0.24972200  0.60172900  1
  P  P7  1  0.84619800  0.75027800  0.39827100  1
  P  P8  1  0.91201500  0.24518300  0.05225800  1
  P  P9  1  0.08798500  0.75481700  0.94774200  1
  O  O10  1  0.28652500  0.76152100  0.09925700  1
  O  O11  1  0.71347500  0.23847900  0.90074300  1
  O  O12  1  0.90036200  0.30517600  0.59908300  1
  O  O13  1  0.09963800  0.69482400  0.40091700  1
  O  O14  1  0.96859300  0.40353000  0.15413800  1
  O  O15  1  0.03140700  0.59647000  0.84586200  1
  O  O16  1  0.16740100  0.19759900  0.44443400  1
  O  O17  1  0.83259900  0.80240100  0.55556600  1
  O  O18  1  0.18185400  0.22195600  0.03142000  1
  O  O19  1  0.81814600  0.77804400  0.96858000  1
  O  O20  1  0.58171100  0.60293600  0.33279500  1
  O  O21  1  0.41828900  0.39706400  0.66720500  1
  O  O22  1  0.84848300  0.88265400  0.31254500  1
  O  O23  1  0.15151700  0.11734600  0.68745500  1
  O  O24  1  0.73843900  0.11358400  0.11621000  1
  O  O25  1  0.26156100  0.88641600  0.88379000  1
