# generated using pymatgen
data_BaS5O8
_symmetry_space_group_name_H-M   'P 1'
_cell_length_a   5.37408300
_cell_length_b   10.51637115
_cell_length_c   11.67600142
_cell_angle_alpha   108.30519768
_cell_angle_beta   97.53162338
_cell_angle_gamma   89.38482670
_symmetry_Int_Tables_number   1
_chemical_formula_structural   BaS5O8
_chemical_formula_sum   'Ba2 S10 O16'
_cell_volume   620.75767130
_cell_formula_units_Z   2
loop_
 _symmetry_equiv_pos_site_id
 _symmetry_equiv_pos_as_xyz
  1  'x, y, z'
loop_
 _atom_site_type_symbol
 _atom_site_label
 _atom_site_symmetry_multiplicity
 _atom_site_fract_x
 _atom_site_fract_y
 _atom_site_fract_z
 _atom_site_occupancy
  Ba  Ba0  1  0.25393400  0.78691100  0.10104000  1
  Ba  Ba1  1  0.74606600  0.21308900  0.89896000  1
  S  S2  1  0.18761700  0.77441300  0.63191600  1
  S  S3  1  0.81238300  0.22558700  0.36808400  1
  S  S4  1  0.41421700  0.62196000  0.64475800  1
  S  S5  1  0.58578300  0.37804000  0.35524200  1
  S  S6  1  0.19577900  0.45975200  0.63154300  1
  S  S7  1  0.80422100  0.54024800  0.36845700  1
  S  S8  1  0.25148000  0.92072300  0.81522600  1
  S  S9  1  0.74852000  0.07927700  0.18477400  1
  S  S10  1  0.24925200  0.44911900  0.81734200  1
  S  S11  1  0.75074800  0.55088100  0.18265800  1
  O  O12  1  0.52204000  0.94908800  0.84437100  1
  O  O13  1  0.47796000  0.05091200  0.15562900  1
  O  O14  1  0.10713600  0.03158400  0.79098500  1
  O  O15  1  0.89286400  0.96841600  0.20901500  1
  O  O16  1  0.14335200  0.85903100  0.89365900  1
  O  O17  1  0.85664800  0.14096900  0.10634100  1
  O  O18  1  0.51952000  0.43722900  0.84725700  1
  O  O19  1  0.48048000  0.56277100  0.15274300  1
  O  O20  1  0.10386500  0.32354400  0.79528900  1
  O  O21  1  0.89613500  0.67645600  0.20471100  1
  O  O22  1  0.14264300  0.56857700  0.89341800  1
  O  O23  1  0.85735700  0.43142300  0.10658200  1
  O  O24  1  0.73781700  0.75793200  0.01678900  1
  O  O25  1  0.26218300  0.24206800  0.98321100  1
  O  O26  1  0.40468300  0.86869500  0.36761300  1
  O  O27  1  0.59531700  0.13130500  0.63238700  1
