# generated using pymatgen
data_Ba(YbS2)2
_symmetry_space_group_name_H-M   'P 1'
_cell_length_a   4.32199300
_cell_length_b   11.77071200
_cell_length_c   14.98040600
_cell_angle_alpha   90.00000000
_cell_angle_beta   90.00000000
_cell_angle_gamma   90.00000000
_symmetry_Int_Tables_number   1
_chemical_formula_structural   Ba(YbS2)2
_chemical_formula_sum   'Ba4 Yb8 S16'
_cell_volume   762.09721875
_cell_formula_units_Z   4
loop_
 _symmetry_equiv_pos_site_id
 _symmetry_equiv_pos_as_xyz
  1  'x, y, z'
loop_
 _atom_site_type_symbol
 _atom_site_label
 _atom_site_symmetry_multiplicity
 _atom_site_fract_x
 _atom_site_fract_y
 _atom_site_fract_z
 _atom_site_occupancy
  Ba  Ba0  1  0.25000000  0.78933100  0.32247200  1
  Ba  Ba1  1  0.25000000  0.28933100  0.17752800  1
  Ba  Ba2  1  0.75000000  0.21066900  0.67752800  1
  Ba  Ba3  1  0.75000000  0.71066900  0.82247200  1
  Yb  Yb4  1  0.25000000  0.47253800  0.37827300  1
  Yb  Yb5  1  0.25000000  0.97253800  0.12172700  1
  Yb  Yb6  1  0.75000000  0.52746200  0.62172700  1
  Yb  Yb7  1  0.75000000  0.02746200  0.87827300  1
  Yb  Yb8  1  0.25000000  0.35932100  0.88932700  1
  Yb  Yb9  1  0.25000000  0.85932100  0.61067300  1
  Yb  Yb10  1  0.75000000  0.64067900  0.11067300  1
  Yb  Yb11  1  0.75000000  0.14067900  0.38932700  1
  S  S12  1  0.25000000  0.15070800  0.82433700  1
  S  S13  1  0.25000000  0.65070800  0.67566300  1
  S  S14  1  0.75000000  0.84929200  0.17566300  1
  S  S15  1  0.75000000  0.34929200  0.32433700  1
  S  S16  1  0.25000000  0.20196500  0.51666300  1
  S  S17  1  0.25000000  0.70196500  0.98333700  1
  S  S18  1  0.75000000  0.79803500  0.48333700  1
  S  S19  1  0.75000000  0.29803500  0.01666300  1
  S  S20  1  0.25000000  0.55868400  0.20128400  1
  S  S21  1  0.25000000  0.05868400  0.29871600  1
  S  S22  1  0.75000000  0.44131600  0.79871600  1
  S  S23  1  0.75000000  0.94131600  0.70128400  1
  S  S24  1  0.25000000  0.37270900  0.56208000  1
  S  S25  1  0.25000000  0.87270900  0.93792000  1
  S  S26  1  0.75000000  0.62729100  0.43792000  1
  S  S27  1  0.75000000  0.12729100  0.06208000  1
