# generated using pymatgen
data_LuMoBrO4
_symmetry_space_group_name_H-M   'P 1'
_cell_length_a   6.93791200
_cell_length_b   7.20254013
_cell_length_c   10.77698893
_cell_angle_alpha   102.83320016
_cell_angle_beta   107.80925864
_cell_angle_gamma   95.42992557
_symmetry_Int_Tables_number   1
_chemical_formula_structural   LuMoBrO4
_chemical_formula_sum   'Lu4 Mo4 Br4 O16'
_cell_volume   492.19352441
_cell_formula_units_Z   4
loop_
 _symmetry_equiv_pos_site_id
 _symmetry_equiv_pos_as_xyz
  1  'x, y, z'
loop_
 _atom_site_type_symbol
 _atom_site_label
 _atom_site_symmetry_multiplicity
 _atom_site_fract_x
 _atom_site_fract_y
 _atom_site_fract_z
 _atom_site_occupancy
  Lu  Lu0  1  0.66433400  0.09911400  0.73004600  1
  Lu  Lu1  1  0.33566600  0.90088600  0.26995400  1
  Lu  Lu2  1  0.37927000  0.66549900  0.76762300  1
  Lu  Lu3  1  0.62073000  0.33450100  0.23237700  1
  Mo  Mo4  1  0.72752800  0.81613100  0.13396600  1
  Mo  Mo5  1  0.27247200  0.18386900  0.86603400  1
  Mo  Mo6  1  0.77203800  0.58535500  0.62700600  1
  Mo  Mo7  1  0.22796200  0.41464500  0.37299400  1
  Br  Br8  1  0.26546200  0.00705200  0.52100400  1
  Br  Br9  1  0.73453800  0.99294800  0.47899600  1
  Br  Br10  1  0.19012300  0.72106000  0.98477300  1
  Br  Br11  1  0.80987700  0.27894000  0.01522700  1
  O  O12  1  0.65487800  0.73331200  0.95530700  1
  O  O13  1  0.34512200  0.26668800  0.04469300  1
  O  O14  1  0.99925200  0.88770100  0.20514000  1
  O  O15  1  0.00074800  0.11229900  0.79486000  1
  O  O16  1  0.64814700  0.62642600  0.19997500  1
  O  O17  1  0.35185300  0.37357400  0.80002500  1
  O  O18  1  0.40754300  0.98729600  0.81419200  1
  O  O19  1  0.59245700  0.01270400  0.18580800  1
  O  O20  1  0.04141200  0.65496800  0.67047400  1
  O  O21  1  0.95858800  0.34503200  0.32952600  1
  O  O22  1  0.72781900  0.39183000  0.69864200  1
  O  O23  1  0.27218100  0.60817000  0.30135800  1
  O  O24  1  0.66921900  0.50047900  0.44626900  1
  O  O25  1  0.33078100  0.49952100  0.55373100  1
  O  O26  1  0.65402900  0.78174300  0.70400300  1
  O  O27  1  0.34597100  0.21825700  0.29599700  1
