data_image0
_chemical_formula_structural       I2S2Sm2
_chemical_formula_sum              "I2 S2 Sm2"
_cell_length_a       4.60993
_cell_length_b       4.60993
_cell_length_c       11.3763
_cell_angle_alpha    90
_cell_angle_beta     101.69
_cell_angle_gamma    60

_space_group_name_H-M_alt    "P 1"
_space_group_IT_number       1

loop_
  _space_group_symop_operation_xyz
  'x, y, z'

loop_
  _atom_site_type_symbol
  _atom_site_label
  _atom_site_symmetry_multiplicity
  _atom_site_fract_x
  _atom_site_fract_y
  _atom_site_fract_z
  _atom_site_occupancy
  I   I1        1.0  0.22800  0.88600  0.34100  1.0000
  I   I2        1.0  0.77200  0.11400  0.65900  1.0000
  S   S1        1.0  0.39700  0.30200  0.09490  1.0000
  S   S2        1.0  0.60300  0.69800  0.90500  1.0000
  Sm  Sm1       1.0  0.77400  0.61300  0.16100  1.0000
  Sm  Sm2       1.0  0.22600  0.38700  0.83900  1.0000
