# generated using pymatgen
data_SrSn2Cl6O5
_symmetry_space_group_name_H-M   'P 1'
_cell_length_a   9.59630043
_cell_length_b   9.59630043
_cell_length_c   10.52717102
_cell_angle_alpha   65.46035575
_cell_angle_beta   65.46035575
_cell_angle_gamma   82.12647206
_symmetry_Int_Tables_number   1
_chemical_formula_structural   SrSn2Cl6O5
_chemical_formula_sum   'Sr2 Sn4 Cl12 O10'
_cell_volume   801.47666366
_cell_formula_units_Z   2
loop_
 _symmetry_equiv_pos_site_id
 _symmetry_equiv_pos_as_xyz
  1  'x, y, z'
loop_
 _atom_site_type_symbol
 _atom_site_label
 _atom_site_symmetry_multiplicity
 _atom_site_fract_x
 _atom_site_fract_y
 _atom_site_fract_z
 _atom_site_occupancy
  Sr  Sr0  1  0.21004000  0.78996000  0.75000000  1
  Sr  Sr1  1  0.78996000  0.21004000  0.25000000  1
  Sn  Sn2  1  0.55596500  0.79649700  0.89307400  1
  Sn  Sn3  1  0.20350300  0.44403500  0.60692600  1
  Sn  Sn4  1  0.44403500  0.20350300  0.10692600  1
  Sn  Sn5  1  0.79649700  0.55596500  0.39307400  1
  Cl  Cl6  1  0.76851300  0.95837300  0.67984500  1
  Cl  Cl7  1  0.04162700  0.23148700  0.82015500  1
  Cl  Cl8  1  0.23148700  0.04162700  0.32015500  1
  Cl  Cl9  1  0.95837300  0.76851300  0.17984500  1
  Cl  Cl10  1  0.52247900  0.82357600  0.11582600  1
  Cl  Cl11  1  0.17642400  0.47752100  0.38417400  1
  Cl  Cl12  1  0.47752100  0.17642400  0.88417400  1
  Cl  Cl13  1  0.82357600  0.52247900  0.61582600  1
  Cl  Cl14  1  0.68591700  0.56539600  0.94098600  1
  Cl  Cl15  1  0.43460400  0.31408300  0.55901400  1
  Cl  Cl16  1  0.31408300  0.43460400  0.05901400  1
  Cl  Cl17  1  0.56539600  0.68591700  0.44098600  1
  O  O18  1  0.38926500  0.81279700  0.83588600  1
  O  O19  1  0.18720300  0.61073500  0.66411400  1
  O  O20  1  0.61073500  0.18720300  0.16411400  1
  O  O21  1  0.81279700  0.38926500  0.33588600  1
  O  O22  1  0.98441100  0.55971300  0.01162600  1
  O  O23  1  0.44028700  0.01558900  0.48837400  1
  O  O24  1  0.01558900  0.44028700  0.98837400  1
  O  O25  1  0.55971300  0.98441100  0.51162600  1
  O  O26  1  0.99731100  0.00268900  0.75000000  1
  O  O27  1  0.00268900  0.99731100  0.25000000  1
