# generated using pymatgen
data_CrH12C8S2(NO)2
_symmetry_space_group_name_H-M   'P 1'
_cell_length_a   5.94862800
_cell_length_b   8.10989250
_cell_length_c   8.14625201
_cell_angle_alpha   105.17325625
_cell_angle_beta   98.04705578
_cell_angle_gamma   96.47623758
_symmetry_Int_Tables_number   1
_chemical_formula_structural   CrH12C8S2(NO)2
_chemical_formula_sum   'Cr1 H12 C8 S2 N2 O2'
_cell_volume   370.94246371
_cell_formula_units_Z   1
loop_
 _symmetry_equiv_pos_site_id
 _symmetry_equiv_pos_as_xyz
  1  'x, y, z'
loop_
 _atom_site_type_symbol
 _atom_site_label
 _atom_site_symmetry_multiplicity
 _atom_site_fract_x
 _atom_site_fract_y
 _atom_site_fract_z
 _atom_site_occupancy
  Cr  Cr0  1  0.50000000  0.50000000  0.50000000  1
  H  H1  1  0.93293100  0.40603100  0.73227400  1
  H  H2  1  0.06706900  0.59396900  0.26772600  1
  H  H3  1  0.94576200  0.30056700  0.90348400  1
  H  H4  1  0.05423800  0.69943300  0.09651600  1
  H  H5  1  0.89461500  0.17595300  0.68632900  1
  H  H6  1  0.10538500  0.82404700  0.31367100  1
  H  H7  1  0.31038600  0.14728200  0.82642300  1
  H  H8  1  0.68961400  0.85271800  0.17357700  1
  H  H9  1  0.57357000  0.05775200  0.85148300  1
  H  H10  1  0.42643000  0.94224800  0.14851700  1
  H  H11  1  0.53881900  0.24879300  0.00366200  1
  H  H12  1  0.46118100  0.75120700  0.99633800  1
  C  C13  1  0.86048300  0.29645200  0.77325000  1
  C  C14  1  0.13951700  0.70354800  0.22675000  1
  C  C15  1  0.60649700  0.28406800  0.76479200  1
  C  C16  1  0.39350300  0.71593200  0.23520800  1
  C  C17  1  0.49749400  0.17698000  0.86521700  1
  C  C18  1  0.50250600  0.82302000  0.13478300  1
  C  C19  1  0.88790500  0.30157700  0.33150100  1
  C  C20  1  0.11209500  0.69842300  0.66849900  1
  S  S21  1  0.10789400  0.22480900  0.26283000  1
  S  S22  1  0.89210600  0.77519100  0.73717000  1
  N  N23  1  0.72646100  0.35888700  0.38108100  1
  N  N24  1  0.27353900  0.64111300  0.61891900  1
  O  O25  1  0.48362200  0.35704700  0.67840400  1
  O  O26  1  0.51637800  0.64295300  0.32159600  1
