# generated using pymatgen
data_NdB4ClO8
_symmetry_space_group_name_H-M   'P 1'
_cell_length_a   6.54814667
_cell_length_b   6.54814667
_cell_length_c   9.67582692
_cell_angle_alpha   81.97279342
_cell_angle_beta   81.97279342
_cell_angle_gamma   119.56076326
_symmetry_Int_Tables_number   1
_chemical_formula_structural   NdB4ClO8
_chemical_formula_sum   'Nd2 B8 Cl2 O16'
_cell_volume   346.71058487
_cell_formula_units_Z   2
loop_
 _symmetry_equiv_pos_site_id
 _symmetry_equiv_pos_as_xyz
  1  'x, y, z'
loop_
 _atom_site_type_symbol
 _atom_site_label
 _atom_site_symmetry_multiplicity
 _atom_site_fract_x
 _atom_site_fract_y
 _atom_site_fract_z
 _atom_site_occupancy
  Nd  Nd0  1  0.80554100  0.22093100  0.50140400  1
  Nd  Nd1  1  0.22093100  0.80554100  0.00140400  1
  B  B2  1  0.86964000  0.76647600  0.57740200  1
  B  B3  1  0.76647600  0.86964000  0.07740200  1
  B  B4  1  0.64608500  0.15349500  0.14932400  1
  B  B5  1  0.15349500  0.64608500  0.64932400  1
  B  B6  1  0.24735200  0.06332400  0.62713400  1
  B  B7  1  0.06332400  0.24735200  0.12713400  1
  B  B8  1  0.51017500  0.43915600  0.06272800  1
  B  B9  1  0.43915600  0.51017500  0.56272800  1
  Cl  Cl10  1  0.05171700  0.69135000  0.30539000  1
  Cl  Cl11  1  0.69135000  0.05171700  0.80539000  1
  O  O12  1  0.33814600  0.90591700  0.59156400  1
  O  O13  1  0.90591700  0.33814600  0.09156400  1
  O  O14  1  0.45233100  0.30922600  0.55833500  1
  O  O15  1  0.30922600  0.45233100  0.05833500  1
  O  O16  1  0.03145400  0.00588700  0.57004900  1
  O  O17  1  0.00588700  0.03145400  0.07004900  1
  O  O18  1  0.72922900  0.65237900  0.04811500  1
  O  O19  1  0.65237900  0.72922900  0.54811500  1
  O  O20  1  0.49310800  0.21916000  0.08161100  1
  O  O21  1  0.21916000  0.49310800  0.58161100  1
  O  O22  1  0.91395200  0.58646500  0.61900700  1
  O  O23  1  0.58646500  0.91395200  0.11900700  1
  O  O24  1  0.19473700  0.00721600  0.78336100  1
  O  O25  1  0.00721600  0.19473700  0.28336100  1
  O  O26  1  0.61648300  0.14806600  0.30127500  1
  O  O27  1  0.14806600  0.61648300  0.80127500  1
