# generated using pymatgen
data_SnCI3N2
_symmetry_space_group_name_H-M   'P 1'
_cell_length_a   10.42938494
_cell_length_b   10.42938494
_cell_length_c   10.42938494
_cell_angle_alpha   109.83041667
_cell_angle_beta   109.32279493
_cell_angle_gamma   109.26105435
_symmetry_Int_Tables_number   1
_chemical_formula_structural   SnCI3N2
_chemical_formula_sum   'Sn4 C4 I12 N8'
_cell_volume   873.25537019
_cell_formula_units_Z   4
loop_
 _symmetry_equiv_pos_site_id
 _symmetry_equiv_pos_as_xyz
  1  'x, y, z'
loop_
 _atom_site_type_symbol
 _atom_site_label
 _atom_site_symmetry_multiplicity
 _atom_site_fract_x
 _atom_site_fract_y
 _atom_site_fract_z
 _atom_site_occupancy
  Sn  Sn0  1  0.00010400  0.92391600  0.42364600  1
  Sn  Sn1  1  0.99989600  0.42354300  0.92381300  1
  Sn  Sn2  1  0.49973000  0.42354300  0.42364600  1
  Sn  Sn3  1  0.50027000  0.92391600  0.92381300  1
  C  C4  1  0.00000000  0.94730900  0.94730900  1
  C  C5  1  0.50000000  0.38953100  0.88953100  1
  C  C6  1  0.50000000  0.93131400  0.43131400  1
  C  C7  1  0.00000000  0.43844300  0.43844300  1
  I  I8  1  0.00525000  0.18200900  0.67795500  1
  I  I9  1  0.99475000  0.67270500  0.17676000  1
  I  I10  1  0.49594500  0.67270500  0.67795500  1
  I  I11  1  0.50405500  0.18200900  0.17676000  1
  I  I12  1  0.77885000  0.17638700  0.95523700  1
  I  I13  1  0.22115000  0.17638700  0.39753700  1
  I  I14  1  0.77641900  0.68748500  0.46390400  1
  I  I15  1  0.22358100  0.68748500  0.91106600  1
  I  I16  1  0.27098400  0.94946800  0.67848400  1
  I  I17  1  0.72901600  0.40750000  0.67848400  1
  I  I18  1  0.28381000  0.46129500  0.17748500  1
  I  I19  1  0.71619000  0.89367500  0.17748500  1
  N  N20  1  0.60257000  0.39147000  0.99404000  1
  N  N21  1  0.39743000  0.39147000  0.78890000  1
  N  N22  1  0.60261100  0.93166000  0.53427100  1
  N  N23  1  0.39738900  0.93166000  0.32904900  1
  N  N24  1  0.10227900  0.04916500  0.94688600  1
  N  N25  1  0.89772100  0.84460700  0.94688600  1
  N  N26  1  0.10231200  0.53970300  0.43739100  1
  N  N27  1  0.89768800  0.33508000  0.43739100  1
