# generated using pymatgen
data_Te4Mo3WSe4
_symmetry_space_group_name_H-M   'P 1'
_cell_length_a   3.43860724
_cell_length_b   3.43860724
_cell_length_c   39.13641200
_cell_angle_alpha   90.00000000
_cell_angle_beta   90.00000000
_cell_angle_gamma   119.99998531
_symmetry_Int_Tables_number   1
_chemical_formula_structural   Te4Mo3WSe4
_chemical_formula_sum   'Te4 Mo3 W1 Se4'
_cell_volume   400.75306163
_cell_formula_units_Z   1
loop_
 _symmetry_equiv_pos_site_id
 _symmetry_equiv_pos_as_xyz
  1  'x, y, z'
loop_
 _atom_site_type_symbol
 _atom_site_label
 _atom_site_symmetry_multiplicity
 _atom_site_fract_x
 _atom_site_fract_y
 _atom_site_fract_z
 _atom_site_occupancy
  Te  Te0  1  0.33333300  0.66666700  0.32933700  1
  Te  Te1  1  0.66666700  0.33333300  0.04641000  1
  Te  Te2  1  0.66666700  0.33333300  0.14131800  1
  Te  Te3  1  0.33333300  0.66666700  0.23442000  1
  Mo  Mo4  1  0.33333300  0.66666700  0.09382100  1
  Mo  Mo5  1  0.33333300  0.66666700  0.46964900  1
  Mo  Mo6  1  0.66666700  0.33333300  0.28189400  1
  W  W7  1  0.66666700  0.33333300  0.65755600  1
  Se  Se8  1  0.33333300  0.66666700  0.69953900  1
  Se  Se9  1  0.66666700  0.33333300  0.42787800  1
  Se  Se10  1  0.66666700  0.33333300  0.51139200  1
  Se  Se11  1  0.33333300  0.66666700  0.61553600  1
