# generated using pymatgen
data_RbUCrIO10
_symmetry_space_group_name_H-M   'P 1'
_cell_length_a   7.34895600
_cell_length_b   8.22969316
_cell_length_c   8.72199158
_cell_angle_alpha   87.06752060
_cell_angle_beta   86.60492690
_cell_angle_gamma   73.00084028
_symmetry_Int_Tables_number   1
_chemical_formula_structural   RbUCrIO10
_chemical_formula_sum   'Rb2 U2 Cr2 I2 O20'
_cell_volume   503.25396309
_cell_formula_units_Z   2
loop_
 _symmetry_equiv_pos_site_id
 _symmetry_equiv_pos_as_xyz
  1  'x, y, z'
loop_
 _atom_site_type_symbol
 _atom_site_label
 _atom_site_symmetry_multiplicity
 _atom_site_fract_x
 _atom_site_fract_y
 _atom_site_fract_z
 _atom_site_occupancy
  Rb  Rb0  1  0.33517000  0.32275200  0.65441600  1
  Rb  Rb1  1  0.66483000  0.67724800  0.34558400  1
  U  U2  1  0.87331100  0.84504600  0.77535800  1
  U  U3  1  0.12668900  0.15495400  0.22464200  1
  Cr  Cr4  1  0.20388400  0.57825600  0.08684900  1
  Cr  Cr5  1  0.79611600  0.42174400  0.91315100  1
  I  I6  1  0.38790800  0.79302000  0.78255400  1
  I  I7  1  0.61209200  0.20698000  0.21744600  1
  O  O8  1  0.13865600  0.65024900  0.90216100  1
  O  O9  1  0.86134400  0.34975100  0.09783900  1
  O  O10  1  0.25601200  0.36023600  0.10501000  1
  O  O11  1  0.74398800  0.63976400  0.89499000  1
  O  O12  1  0.03646500  0.66680000  0.21067900  1
  O  O13  1  0.96353500  0.33320000  0.78932100  1
  O  O14  1  0.39371700  0.63315800  0.11571800  1
  O  O15  1  0.60628300  0.36684200  0.88428200  1
  O  O16  1  0.53773600  0.93732300  0.72525100  1
  O  O17  1  0.46226400  0.06267700  0.27474900  1
  O  O18  1  0.15921900  0.92730500  0.70729800  1
  O  O19  1  0.84078100  0.07269500  0.29270200  1
  O  O20  1  0.46184700  0.63772900  0.63615600  1
  O  O21  1  0.53815300  0.36227100  0.36384400  1
  O  O22  1  0.79735300  0.10238400  0.63142700  1
  O  O23  1  0.20264700  0.89761600  0.36857300  1
  O  O24  1  0.92217200  0.71691200  0.60592800  1
  O  O25  1  0.07782800  0.28308800  0.39407200  1
  O  O26  1  0.81329100  0.97410600  0.94460400  1
  O  O27  1  0.18670900  0.02589400  0.05539600  1
