# generated using pymatgen
data_GeH3CNO
_symmetry_space_group_name_H-M   'P 1'
_cell_length_a   8.37482200
_cell_length_b   7.67149300
_cell_length_c   8.58450500
_cell_angle_alpha   90.00000000
_cell_angle_beta   90.00000000
_cell_angle_gamma   90.00000000
_symmetry_Int_Tables_number   1
_chemical_formula_structural   GeH3CNO
_chemical_formula_sum   'Ge4 H12 C4 N4 O4'
_cell_volume   551.53202652
_cell_formula_units_Z   4
loop_
 _symmetry_equiv_pos_site_id
 _symmetry_equiv_pos_as_xyz
  1  'x, y, z'
loop_
 _atom_site_type_symbol
 _atom_site_label
 _atom_site_symmetry_multiplicity
 _atom_site_fract_x
 _atom_site_fract_y
 _atom_site_fract_z
 _atom_site_occupancy
  Ge  Ge0  1  0.25000000  0.31886300  0.75455700  1
  Ge  Ge1  1  0.25000000  0.18113700  0.25455700  1
  Ge  Ge2  1  0.75000000  0.68113700  0.24544300  1
  Ge  Ge3  1  0.75000000  0.81886300  0.74544300  1
  H  H4  1  0.25000000  0.13430900  0.68897000  1
  H  H5  1  0.25000000  0.36569100  0.18897000  1
  H  H6  1  0.75000000  0.86569100  0.31103000  1
  H  H7  1  0.75000000  0.63430900  0.81103000  1
  H  H8  1  0.09697100  0.35899900  0.84410600  1
  H  H9  1  0.40302900  0.14100100  0.34410600  1
  H  H10  1  0.59697100  0.64100100  0.15589400  1
  H  H11  1  0.90302900  0.85899900  0.65589400  1
  H  H12  1  0.90302900  0.64100100  0.15589400  1
  H  H13  1  0.59697100  0.85899900  0.65589400  1
  H  H14  1  0.40302900  0.35899900  0.84410600  1
  H  H15  1  0.09697100  0.14100100  0.34410600  1
  C  C16  1  0.25000000  0.59806600  0.51441200  1
  C  C17  1  0.25000000  0.90193400  0.01441200  1
  C  C18  1  0.75000000  0.40193400  0.48558800  1
  C  C19  1  0.75000000  0.09806600  0.98558800  1
  N  N20  1  0.25000000  0.45720600  0.57674800  1
  N  N21  1  0.25000000  0.04279400  0.07674800  1
  N  N22  1  0.75000000  0.54279400  0.42325200  1
  N  N23  1  0.75000000  0.95720600  0.92325200  1
  O  O24  1  0.25000000  0.73090500  0.44271400  1
  O  O25  1  0.25000000  0.76909500  0.94271400  1
  O  O26  1  0.75000000  0.26909500  0.55728600  1
  O  O27  1  0.75000000  0.23090500  0.05728600  1
