# generated using pymatgen
data_Sm(BH4)2
_symmetry_space_group_name_H-M   'P 1'
_cell_length_a   7.23037600
_cell_length_b   6.88801900
_cell_length_c   7.66881300
_cell_angle_alpha   90.00000000
_cell_angle_beta   90.00000000
_cell_angle_gamma   90.00000000
_symmetry_Int_Tables_number   1
_chemical_formula_structural   Sm(BH4)2
_chemical_formula_sum   'Sm4 B8 H32'
_cell_volume   381.92964280
_cell_formula_units_Z   4
loop_
 _symmetry_equiv_pos_site_id
 _symmetry_equiv_pos_as_xyz
  1  'x, y, z'
loop_
 _atom_site_type_symbol
 _atom_site_label
 _atom_site_symmetry_multiplicity
 _atom_site_fract_x
 _atom_site_fract_y
 _atom_site_fract_z
 _atom_site_occupancy
  Sm  Sm0  1  0.00000000  0.25000000  0.11421700  1
  Sm  Sm1  1  0.50000000  0.75000000  0.38578300  1
  Sm  Sm2  1  0.00000000  0.75000000  0.88578300  1
  Sm  Sm3  1  0.50000000  0.25000000  0.61421700  1
  B  B4  1  0.74591100  0.09451400  0.36772300  1
  B  B5  1  0.75408900  0.59451400  0.13227700  1
  B  B6  1  0.24591100  0.90548600  0.13227700  1
  B  B7  1  0.25408900  0.40548600  0.36772300  1
  B  B8  1  0.25408900  0.90548600  0.63227700  1
  B  B9  1  0.24591100  0.40548600  0.86772300  1
  B  B10  1  0.75408900  0.09451400  0.86772300  1
  B  B11  1  0.74591100  0.59451400  0.63227700  1
  H  H12  1  0.61344900  0.15006000  0.28153300  1
  H  H13  1  0.88655100  0.65006000  0.21846700  1
  H  H14  1  0.11344900  0.84994000  0.21846700  1
  H  H15  1  0.38655100  0.34994000  0.28153300  1
  H  H16  1  0.38655100  0.84994000  0.71846700  1
  H  H17  1  0.11344900  0.34994000  0.78153300  1
  H  H18  1  0.88655100  0.15006000  0.78153300  1
  H  H19  1  0.61344900  0.65006000  0.71846700  1
  H  H20  1  0.84080400  0.97765000  0.28726500  1
  H  H21  1  0.65919600  0.47765000  0.21273500  1
  H  H22  1  0.34080400  0.02235000  0.21273500  1
  H  H23  1  0.15919600  0.52235000  0.28726500  1
  H  H24  1  0.15919600  0.02235000  0.71273500  1
  H  H25  1  0.34080400  0.52235000  0.78726500  1
  H  H26  1  0.65919600  0.97765000  0.78726500  1
  H  H27  1  0.84080400  0.47765000  0.71273500  1
  H  H28  1  0.83752100  0.22930600  0.42350800  1
  H  H29  1  0.66247900  0.72930600  0.07649200  1
  H  H30  1  0.33752100  0.77069400  0.07649200  1
  H  H31  1  0.16247900  0.27069400  0.42350800  1
  H  H32  1  0.16247900  0.77069400  0.57649200  1
  H  H33  1  0.33752100  0.27069400  0.92350800  1
  H  H34  1  0.66247900  0.22930600  0.92350800  1
  H  H35  1  0.83752100  0.72930600  0.57649200  1
  H  H36  1  0.68923900  0.00152800  0.49789800  1
  H  H37  1  0.81076100  0.50152800  0.00210200  1
  H  H38  1  0.18923900  0.99847200  0.00210200  1
  H  H39  1  0.31076100  0.49847200  0.49789800  1
  H  H40  1  0.31076100  0.99847200  0.50210200  1
  H  H41  1  0.18923900  0.49847200  0.99789800  1
  H  H42  1  0.81076100  0.00152800  0.99789800  1
  H  H43  1  0.68923900  0.50152800  0.50210200  1
