# generated using pymatgen
data_Yb(BiS2)2
_symmetry_space_group_name_H-M   'P 1'
_cell_length_a   4.01266100
_cell_length_b   11.68494200
_cell_length_c   14.55575700
_cell_angle_alpha   90.00000000
_cell_angle_beta   90.00000000
_cell_angle_gamma   90.00000000
_symmetry_Int_Tables_number   1
_chemical_formula_structural   Yb(BiS2)2
_chemical_formula_sum   'Yb4 Bi8 S16'
_cell_volume   682.48612834
_cell_formula_units_Z   4
loop_
 _symmetry_equiv_pos_site_id
 _symmetry_equiv_pos_as_xyz
  1  'x, y, z'
loop_
 _atom_site_type_symbol
 _atom_site_label
 _atom_site_symmetry_multiplicity
 _atom_site_fract_x
 _atom_site_fract_y
 _atom_site_fract_z
 _atom_site_occupancy
  Yb  Yb0  1  0.25000000  0.25654800  0.34904800  1
  Yb  Yb1  1  0.25000000  0.75654800  0.15095200  1
  Yb  Yb2  1  0.75000000  0.74345200  0.65095200  1
  Yb  Yb3  1  0.75000000  0.24345200  0.84904800  1
  Bi  Bi4  1  0.25000000  0.06707300  0.60704500  1
  Bi  Bi5  1  0.25000000  0.56707300  0.89295500  1
  Bi  Bi6  1  0.75000000  0.93292700  0.39295500  1
  Bi  Bi7  1  0.75000000  0.43292700  0.10704500  1
  Bi  Bi8  1  0.25000000  0.10437300  0.10203300  1
  Bi  Bi9  1  0.25000000  0.60437300  0.39796700  1
  Bi  Bi10  1  0.75000000  0.89562700  0.89796700  1
  Bi  Bi11  1  0.75000000  0.39562700  0.60203300  1
  S  S12  1  0.25000000  0.32798100  0.98237500  1
  S  S13  1  0.25000000  0.82798100  0.51762500  1
  S  S14  1  0.75000000  0.67201900  0.01762500  1
  S  S15  1  0.75000000  0.17201900  0.48237500  1
  S  S16  1  0.25000000  0.26153700  0.70422800  1
  S  S17  1  0.25000000  0.76153700  0.79577200  1
  S  S18  1  0.75000000  0.73846300  0.29577200  1
  S  S19  1  0.75000000  0.23846300  0.20422800  1
  S  S20  1  0.25000000  0.06380400  0.90880500  1
  S  S21  1  0.25000000  0.56380400  0.59119500  1
  S  S22  1  0.75000000  0.93619600  0.09119500  1
  S  S23  1  0.75000000  0.43619600  0.40880500  1
  S  S24  1  0.25000000  0.01965700  0.28878100  1
  S  S25  1  0.25000000  0.51965700  0.21121900  1
  S  S26  1  0.75000000  0.98034300  0.71121900  1
  S  S27  1  0.75000000  0.48034300  0.78878100  1
