# generated using pymatgen
data_VH4N(OF2)2
_symmetry_space_group_name_H-M   'P 1'
_cell_length_a   7.45180000
_cell_length_b   5.16722800
_cell_length_c   14.76601760
_cell_angle_alpha   90.00000000
_cell_angle_beta   114.86835088
_cell_angle_gamma   90.00000000
_symmetry_Int_Tables_number   1
_chemical_formula_structural   VH4N(OF2)2
_chemical_formula_sum   'V4 H16 N4 O8 F16'
_cell_volume   515.84809861
_cell_formula_units_Z   4
loop_
 _symmetry_equiv_pos_site_id
 _symmetry_equiv_pos_as_xyz
  1  'x, y, z'
loop_
 _atom_site_type_symbol
 _atom_site_label
 _atom_site_symmetry_multiplicity
 _atom_site_fract_x
 _atom_site_fract_y
 _atom_site_fract_z
 _atom_site_occupancy
  V  V0  1  0.13166000  0.06930000  0.37481400  1
  V  V1  1  0.13166000  0.43070000  0.87481400  1
  V  V2  1  0.86834000  0.93070000  0.62518600  1
  V  V3  1  0.86834000  0.56930000  0.12518600  1
  H  H4  1  0.58841900  0.00427700  0.16810500  1
  H  H5  1  0.58841900  0.49572300  0.66810500  1
  H  H6  1  0.41158100  0.99572300  0.83189500  1
  H  H7  1  0.41158100  0.50427700  0.33189500  1
  H  H8  1  0.22756500  0.12426200  0.16722700  1
  H  H9  1  0.22756500  0.37573800  0.66722700  1
  H  H10  1  0.77243500  0.87573800  0.83277300  1
  H  H11  1  0.77243500  0.62426200  0.33277300  1
  H  H12  1  0.24644500  0.98572000  0.06856800  1
  H  H13  1  0.24644500  0.51428000  0.56856800  1
  H  H14  1  0.75355500  0.01428000  0.93143200  1
  H  H15  1  0.75355500  0.48572000  0.43143200  1
  H  H16  1  0.33440800  0.82851600  0.18154100  1
  H  H17  1  0.33440800  0.67148400  0.68154100  1
  H  H18  1  0.66559200  0.17148400  0.81845900  1
  H  H19  1  0.66559200  0.32851600  0.31845900  1
  N  N20  1  0.31486900  0.00612600  0.14580700  1
  N  N21  1  0.31486900  0.49387400  0.64580700  1
  N  N22  1  0.68513100  0.99387400  0.85419300  1
  N  N23  1  0.68513100  0.50612600  0.35419300  1
  O  O24  1  0.27094700  0.90311800  0.46961900  1
  O  O25  1  0.27094700  0.59688200  0.96961900  1
  O  O26  1  0.72905300  0.09688200  0.53038100  1
  O  O27  1  0.72905300  0.40311800  0.03038100  1
  O  O28  1  0.49725000  0.13814200  0.17491500  1
  O  O29  1  0.49725000  0.36185800  0.67491500  1
  O  O30  1  0.50275000  0.86185800  0.82508500  1
  O  O31  1  0.50275000  0.63814200  0.32508500  1
  F  F32  1  0.88239900  0.98248100  0.36206800  1
  F  F33  1  0.88239900  0.51751900  0.86206800  1
  F  F34  1  0.11760100  0.01751900  0.63793200  1
  F  F35  1  0.11760100  0.48248100  0.13793200  1
  F  F36  1  0.11130800  0.37314300  0.43569400  1
  F  F37  1  0.11130800  0.12685700  0.93569400  1
  F  F38  1  0.88869200  0.62685700  0.56430600  1
  F  F39  1  0.88869200  0.87314300  0.06430600  1
  F  F40  1  0.31465400  0.23287100  0.33806200  1
  F  F41  1  0.31465400  0.26712900  0.83806200  1
  F  F42  1  0.68534600  0.76712900  0.66193800  1
  F  F43  1  0.68534600  0.73287100  0.16193800  1
  F  F44  1  0.09606300  0.83902100  0.27148400  1
  F  F45  1  0.09606300  0.66097900  0.77148400  1
  F  F46  1  0.90393700  0.16097900  0.72851600  1
  F  F47  1  0.90393700  0.33902100  0.22851600  1
