# generated using pymatgen
data_Rb3Bi2I9
_symmetry_space_group_name_H-M   'P 1'
_cell_length_a   8.44828200
_cell_length_b   15.13087300
_cell_length_c   26.07709485
_cell_angle_alpha   55.14351708
_cell_angle_beta   90.00000000
_cell_angle_gamma   90.00000000
_symmetry_Int_Tables_number   1
_chemical_formula_structural   Rb3Bi2I9
_chemical_formula_sum   'Rb12 Bi8 I36'
_cell_volume   2735.36824151
_cell_formula_units_Z   4
loop_
 _symmetry_equiv_pos_site_id
 _symmetry_equiv_pos_as_xyz
  1  'x, y, z'
loop_
 _atom_site_type_symbol
 _atom_site_label
 _atom_site_symmetry_multiplicity
 _atom_site_fract_x
 _atom_site_fract_y
 _atom_site_fract_z
 _atom_site_occupancy
  Rb  Rb0  1  0.47678600  0.19185700  0.27648700  1
  Rb  Rb1  1  0.02321400  0.19185700  0.77648700  1
  Rb  Rb2  1  0.52321400  0.80814300  0.72351300  1
  Rb  Rb3  1  0.97678600  0.80814300  0.22351300  1
  Rb  Rb4  1  0.01985100  0.87441100  0.43864000  1
  Rb  Rb5  1  0.48014900  0.87441100  0.93864000  1
  Rb  Rb6  1  0.98014900  0.12558900  0.56136000  1
  Rb  Rb7  1  0.51985100  0.12558900  0.06136000  1
  Rb  Rb8  1  0.47279300  0.54168200  0.60644500  1
  Rb  Rb9  1  0.02720700  0.54168200  0.10644500  1
  Rb  Rb10  1  0.52720700  0.45831800  0.39355500  1
  Rb  Rb11  1  0.97279300  0.45831800  0.89355500  1
  Bi  Bi12  1  0.99329700  0.67465600  0.65857900  1
  Bi  Bi13  1  0.50670300  0.67465600  0.15857900  1
  Bi  Bi14  1  0.00670300  0.32534400  0.34142100  1
  Bi  Bi15  1  0.49329700  0.32534400  0.84142100  1
  Bi  Bi16  1  0.51004000  0.82069300  0.34253800  1
  Bi  Bi17  1  0.98996000  0.82069300  0.84253800  1
  Bi  Bi18  1  0.48996000  0.17930700  0.65746200  1
  Bi  Bi19  1  0.01004000  0.17930700  0.15746200  1
  I  I20  1  0.08434300  0.74047300  0.75420800  1
  I  I21  1  0.41565700  0.74047300  0.25420800  1
  I  I22  1  0.91565700  0.25952700  0.24579200  1
  I  I23  1  0.58434300  0.25952700  0.74579200  1
  I  I24  1  0.30247900  0.31373300  0.11323500  1
  I  I25  1  0.19752100  0.31373300  0.61323500  1
  I  I26  1  0.69752100  0.68626700  0.88676500  1
  I  I27  1  0.80247900  0.68626700  0.38676500  1
  I  I28  1  0.28815600  0.78843300  0.58711300  1
  I  I29  1  0.21184400  0.78843300  0.08711300  1
  I  I30  1  0.71184400  0.21156700  0.41288700  1
  I  I31  1  0.78815600  0.21156700  0.91288700  1
  I  I32  1  0.56940800  0.91062400  0.41773300  1
  I  I33  1  0.93059200  0.91062400  0.91773300  1
  I  I34  1  0.43059200  0.08937600  0.58226700  1
  I  I35  1  0.06940800  0.08937600  0.08226700  1
  I  I36  1  0.19374600  0.97683400  0.28123700  1
  I  I37  1  0.30625400  0.97683400  0.78123700  1
  I  I38  1  0.80625400  0.02316600  0.71876300  1
  I  I39  1  0.69374600  0.02316600  0.21876300  1
  I  I40  1  0.92530100  0.59421200  0.57929500  1
  I  I41  1  0.57469900  0.59421200  0.07929500  1
  I  I42  1  0.07469900  0.40578800  0.42070500  1
  I  I43  1  0.42530100  0.40578800  0.92070500  1
  I  I44  1  0.30722600  0.64389400  0.44270600  1
  I  I45  1  0.19277400  0.64389400  0.94270600  1
  I  I46  1  0.69277400  0.35610600  0.55729400  1
  I  I47  1  0.80722600  0.35610600  0.05729400  1
  I  I48  1  0.32078900  0.44581400  0.25516200  1
  I  I49  1  0.17921100  0.44581400  0.75516200  1
  I  I50  1  0.67921100  0.55418600  0.74483800  1
  I  I51  1  0.82078900  0.55418600  0.24483800  1
  I  I52  1  0.20320700  0.12651600  0.42083400  1
  I  I53  1  0.29679300  0.12651600  0.92083400  1
  I  I54  1  0.79679300  0.87348400  0.57916600  1
  I  I55  1  0.70320700  0.87348400  0.07916600  1
