# generated using pymatgen
data_Ba7Ge39
_symmetry_space_group_name_H-M   'P 1'
_cell_length_a   15.91668662
_cell_length_b   15.91668662
_cell_length_c   13.10779700
_cell_angle_alpha   90.00000000
_cell_angle_beta   90.00000000
_cell_angle_gamma   138.08320768
_symmetry_Int_Tables_number   1
_chemical_formula_structural   Ba7Ge39
_chemical_formula_sum   'Ba14 Ge78'
_cell_volume   2218.42342487
_cell_formula_units_Z   2
loop_
 _symmetry_equiv_pos_site_id
 _symmetry_equiv_pos_as_xyz
  1  'x, y, z'
loop_
 _atom_site_type_symbol
 _atom_site_label
 _atom_site_symmetry_multiplicity
 _atom_site_fract_x
 _atom_site_fract_y
 _atom_site_fract_z
 _atom_site_occupancy
  Ba  Ba0  1  0.71208500  0.71208500  0.74723400  1
  Ba  Ba1  1  0.28791500  0.28791500  0.24723400  1
  Ba  Ba2  1  0.28312600  0.14073800  0.75895600  1
  Ba  Ba3  1  0.14073800  0.28312600  0.75895600  1
  Ba  Ba4  1  0.71687400  0.85926200  0.25895600  1
  Ba  Ba5  1  0.85926200  0.71687400  0.25895600  1
  Ba  Ba6  1  0.56590900  0.85062100  0.77040300  1
  Ba  Ba7  1  0.85062100  0.56590900  0.77040300  1
  Ba  Ba8  1  0.43409100  0.14937900  0.27040300  1
  Ba  Ba9  1  0.14937900  0.43409100  0.27040300  1
  Ba  Ba10  1  0.42022800  0.99247800  0.75453300  1
  Ba  Ba11  1  0.99247800  0.42022800  0.75453300  1
  Ba  Ba12  1  0.57977200  0.00752200  0.25453300  1
  Ba  Ba13  1  0.00752200  0.57977200  0.25453300  1
  Ge  Ge14  1  0.43364000  0.43364000  0.85482300  1
  Ge  Ge15  1  0.56636000  0.56636000  0.35482300  1
  Ge  Ge16  1  0.96871700  0.96871700  0.41852300  1
  Ge  Ge17  1  0.03128300  0.03128300  0.91852300  1
  Ge  Ge18  1  0.41947100  0.41947100  0.65401400  1
  Ge  Ge19  1  0.58052900  0.58052900  0.15401400  1
  Ge  Ge20  1  0.74977200  0.74977200  0.47611800  1
  Ge  Ge21  1  0.25022800  0.25022800  0.97611800  1
  Ge  Ge22  1  0.95175800  0.95175800  0.10046100  1
  Ge  Ge23  1  0.04824200  0.04824200  0.60046100  1
  Ge  Ge24  1  0.85711200  0.00130500  0.85760400  1
  Ge  Ge25  1  0.00130500  0.85711200  0.85760400  1
  Ge  Ge26  1  0.14288800  0.99869500  0.35760400  1
  Ge  Ge27  1  0.99869500  0.14288800  0.35760400  1
  Ge  Ge28  1  0.56105800  0.27338800  0.86261600  1
  Ge  Ge29  1  0.27338800  0.56105800  0.86261600  1
  Ge  Ge30  1  0.43894200  0.72661200  0.36261600  1
  Ge  Ge31  1  0.72661200  0.43894200  0.36261600  1
  Ge  Ge32  1  0.38988700  0.10742700  0.54397600  1
  Ge  Ge33  1  0.10742700  0.38988700  0.54397600  1
  Ge  Ge34  1  0.61011300  0.89257300  0.04397600  1
  Ge  Ge35  1  0.89257300  0.61011300  0.04397600  1
  Ge  Ge36  1  0.53890300  0.39509000  0.41738900  1
  Ge  Ge37  1  0.39509000  0.53890300  0.41738900  1
  Ge  Ge38  1  0.46109700  0.60491000  0.91738900  1
  Ge  Ge39  1  0.60491000  0.46109700  0.91738900  1
  Ge  Ge40  1  0.71518300  0.14248600  0.85776700  1
  Ge  Ge41  1  0.14248600  0.71518300  0.85776700  1
  Ge  Ge42  1  0.28481700  0.85751400  0.35776700  1
  Ge  Ge43  1  0.85751400  0.28481700  0.35776700  1
  Ge  Ge44  1  0.85694700  0.99876400  0.65732100  1
  Ge  Ge45  1  0.99876400  0.85694700  0.65732100  1
  Ge  Ge46  1  0.14305300  0.00123600  0.15732100  1
  Ge  Ge47  1  0.00123600  0.14305300  0.15732100  1
  Ge  Ge48  1  0.82721500  0.11271000  0.09833600  1
  Ge  Ge49  1  0.11271000  0.82721500  0.09833600  1
  Ge  Ge50  1  0.17278500  0.88729000  0.59833600  1
  Ge  Ge51  1  0.88729000  0.17278500  0.59833600  1
  Ge  Ge52  1  0.53849400  0.39544200  0.09994000  1
  Ge  Ge53  1  0.39544200  0.53849400  0.09994000  1
  Ge  Ge54  1  0.46150600  0.60455800  0.59994000  1
  Ge  Ge55  1  0.60455800  0.46150600  0.59994000  1
  Ge  Ge56  1  0.81070700  0.09711700  0.41594900  1
  Ge  Ge57  1  0.09711700  0.81070700  0.41594900  1
  Ge  Ge58  1  0.18929300  0.90288300  0.91594900  1
  Ge  Ge59  1  0.90288300  0.18929300  0.91594900  1
  Ge  Ge60  1  0.68289000  0.25388200  0.41785800  1
  Ge  Ge61  1  0.25388200  0.68289000  0.41785800  1
  Ge  Ge62  1  0.31711000  0.74611800  0.91785800  1
  Ge  Ge63  1  0.74611800  0.31711000  0.91785800  1
  Ge  Ge64  1  0.57450200  0.28847700  0.66179900  1
  Ge  Ge65  1  0.28847700  0.57450200  0.66179900  1
  Ge  Ge66  1  0.42549800  0.71152300  0.16179900  1
  Ge  Ge67  1  0.71152300  0.42549800  0.16179900  1
  Ge  Ge68  1  0.70969400  0.13834800  0.65760800  1
  Ge  Ge69  1  0.13834800  0.70969400  0.65760800  1
  Ge  Ge70  1  0.29030600  0.86165200  0.15760800  1
  Ge  Ge71  1  0.86165200  0.29030600  0.15760800  1
  Ge  Ge72  1  0.67593400  0.24891600  0.10010900  1
  Ge  Ge73  1  0.24891600  0.67593400  0.10010900  1
  Ge  Ge74  1  0.32406600  0.75108400  0.60010900  1
  Ge  Ge75  1  0.75108400  0.32406600  0.60010900  1
  Ge  Ge76  1  0.47311800  0.02657000  0.47517900  1
  Ge  Ge77  1  0.02657000  0.47311800  0.47517900  1
  Ge  Ge78  1  0.52688200  0.97343000  0.97517900  1
  Ge  Ge79  1  0.97343000  0.52688200  0.97517900  1
  Ge  Ge80  1  0.66378500  0.83521800  0.53478100  1
  Ge  Ge81  1  0.83521800  0.66378500  0.53478100  1
  Ge  Ge82  1  0.33621500  0.16478200  0.03478100  1
  Ge  Ge83  1  0.16478200  0.33621500  0.03478100  1
  Ge  Ge84  1  0.56100700  0.94215700  0.52845600  1
  Ge  Ge85  1  0.94215700  0.56100700  0.52845600  1
  Ge  Ge86  1  0.43899300  0.05784300  0.02845600  1
  Ge  Ge87  1  0.05784300  0.43899300  0.02845600  1
  Ge  Ge88  1  0.30698000  0.19188000  0.48253300  1
  Ge  Ge89  1  0.19188000  0.30698000  0.48253300  1
  Ge  Ge90  1  0.69302000  0.80812000  0.98253300  1
  Ge  Ge91  1  0.80812000  0.69302000  0.98253300  1
