# generated using pymatgen
data_Tm3Ge13Pt4
_symmetry_space_group_name_H-M   'P 1'
_cell_length_a   9.06221811
_cell_length_b   9.06221811
_cell_length_c   9.17067114
_cell_angle_alpha   89.63565846
_cell_angle_beta   89.63565846
_cell_angle_gamma   89.73701677
_symmetry_Int_Tables_number   1
_chemical_formula_structural   Tm3Ge13Pt4
_chemical_formula_sum   'Tm6 Ge26 Pt8'
_cell_volume   753.09208686
_cell_formula_units_Z   2
loop_
 _symmetry_equiv_pos_site_id
 _symmetry_equiv_pos_as_xyz
  1  'x, y, z'
loop_
 _atom_site_type_symbol
 _atom_site_label
 _atom_site_symmetry_multiplicity
 _atom_site_fract_x
 _atom_site_fract_y
 _atom_site_fract_z
 _atom_site_occupancy
  Tm  Tm0  1  0.00031100  0.00037000  0.49567500  1
  Tm  Tm1  1  0.00037000  0.00031100  0.99567500  1
  Tm  Tm2  1  0.50021100  0.25592400  0.74855300  1
  Tm  Tm3  1  0.25592400  0.50021100  0.24855300  1
  Tm  Tm4  1  0.74224100  0.49950700  0.24554000  1
  Tm  Tm5  1  0.49950700  0.74224100  0.74554000  1
  Ge  Ge6  1  0.50492800  0.99163300  0.24591400  1
  Ge  Ge7  1  0.99163300  0.50492800  0.74591400  1
  Ge  Ge8  1  0.82747800  0.85529900  0.74027000  1
  Ge  Ge9  1  0.85529900  0.82747800  0.24027000  1
  Ge  Ge10  1  0.15328000  0.83497700  0.24425000  1
  Ge  Ge11  1  0.83497700  0.15327900  0.74425000  1
  Ge  Ge12  1  0.49559100  0.33330000  0.39474100  1
  Ge  Ge13  1  0.33330000  0.49559100  0.89474100  1
  Ge  Ge14  1  0.99551100  0.61009300  0.48053200  1
  Ge  Ge15  1  0.61009300  0.99551100  0.98053200  1
  Ge  Ge16  1  0.33188100  0.99889200  0.89202800  1
  Ge  Ge17  1  0.99889200  0.33188100  0.39202800  1
  Ge  Ge18  1  0.73383400  0.49595200  0.86007400  1
  Ge  Ge19  1  0.49595200  0.73383400  0.36007400  1
  Ge  Ge20  1  0.32948000  0.99761800  0.60009100  1
  Ge  Ge21  1  0.99761800  0.32948000  0.10009100  1
  Ge  Ge22  1  0.11604200  0.77193000  0.74652800  1
  Ge  Ge23  1  0.77193000  0.11604200  0.24652800  1
  Ge  Ge24  1  0.00204300  0.61387000  0.02100800  1
  Ge  Ge25  1  0.61387000  0.00204300  0.52100800  1
  Ge  Ge26  1  0.49823000  0.33049700  0.09250600  1
  Ge  Ge27  1  0.33049700  0.49823000  0.59250600  1
  Ge  Ge28  1  0.25135500  0.11086200  0.24764300  1
  Ge  Ge29  1  0.11086200  0.25135500  0.74764300  1
  Ge  Ge30  1  0.65463400  0.50378100  0.58340700  1
  Ge  Ge31  1  0.50378100  0.65463400  0.08340700  1
  Pt  Pt32  1  0.74832500  0.24956300  0.49362800  1
  Pt  Pt33  1  0.24956300  0.74832500  0.99362800  1
  Pt  Pt34  1  0.24780700  0.74734000  0.49523000  1
  Pt  Pt35  1  0.74734000  0.24780700  0.99523000  1
  Pt  Pt36  1  0.24414600  0.24321400  0.49714500  1
  Pt  Pt37  1  0.24321400  0.24414600  0.99714500  1
  Pt  Pt38  1  0.75144600  0.74960300  0.98863400  1
  Pt  Pt39  1  0.74960300  0.75144600  0.48863400  1
