# generated using pymatgen
data_FeH20C8NCl4
_symmetry_space_group_name_H-M   'P 1'
_cell_length_a   8.60774300
_cell_length_b   13.64342400
_cell_length_c   14.86931400
_cell_angle_alpha   90.00000000
_cell_angle_beta   90.00000000
_cell_angle_gamma   90.00000000
_symmetry_Int_Tables_number   1
_chemical_formula_structural   FeH20C8NCl4
_chemical_formula_sum   'Fe4 H80 C32 N4 Cl16'
_cell_volume   1746.23866690
_cell_formula_units_Z   4
loop_
 _symmetry_equiv_pos_site_id
 _symmetry_equiv_pos_as_xyz
  1  'x, y, z'
loop_
 _atom_site_type_symbol
 _atom_site_label
 _atom_site_symmetry_multiplicity
 _atom_site_fract_x
 _atom_site_fract_y
 _atom_site_fract_z
 _atom_site_occupancy
  Fe  Fe0  1  0.72114700  0.22227500  0.74073700  1
  Fe  Fe1  1  0.27885300  0.72227500  0.25926300  1
  Fe  Fe2  1  0.72114700  0.72227500  0.75926300  1
  Fe  Fe3  1  0.27885300  0.22227500  0.24073700  1
  H  H4  1  0.27231000  0.33128800  0.91485000  1
  H  H5  1  0.72769000  0.83128800  0.08515000  1
  H  H6  1  0.27231000  0.83128800  0.58515000  1
  H  H7  1  0.72769000  0.33128800  0.41485000  1
  H  H8  1  0.23817200  0.38172500  0.02339800  1
  H  H9  1  0.76182800  0.88172500  0.97660200  1
  H  H10  1  0.23817200  0.88172500  0.47660200  1
  H  H11  1  0.76182800  0.38172500  0.52339800  1
  H  H12  1  0.50185600  0.45899000  0.02312900  1
  H  H13  1  0.49814400  0.95899000  0.97687100  1
  H  H14  1  0.50185600  0.95899000  0.47687100  1
  H  H15  1  0.49814400  0.45899000  0.52312900  1
  H  H16  1  0.50471400  0.33091500  0.00467600  1
  H  H17  1  0.49528600  0.83091500  0.99532400  1
  H  H18  1  0.50471400  0.83091500  0.49532400  1
  H  H19  1  0.49528600  0.33091500  0.50467600  1
  H  H20  1  0.53847400  0.41041400  0.91290200  1
  H  H21  1  0.46152600  0.91041400  0.08709800  1
  H  H22  1  0.53847400  0.91041400  0.58709800  1
  H  H23  1  0.46152600  0.41041400  0.41290200  1
  H  H24  1  0.40458100  0.51048900  0.82848900  1
  H  H25  1  0.59541900  0.01048900  0.17151100  1
  H  H26  1  0.40458100  0.01048900  0.67151100  1
  H  H27  1  0.59541900  0.51048900  0.32848900  1
  H  H28  1  0.22532800  0.56467900  0.79628600  1
  H  H29  1  0.77467200  0.06467900  0.20371400  1
  H  H30  1  0.22532800  0.06467900  0.70371400  1
  H  H31  1  0.77467200  0.56467900  0.29628600  1
  H  H32  1  0.13003200  0.40420900  0.73626900  1
  H  H33  1  0.86996800  0.90420900  0.26373100  1
  H  H34  1  0.13003200  0.90420900  0.76373100  1
  H  H35  1  0.86996800  0.40420900  0.23626900  1
  H  H36  1  0.31238300  0.43903500  0.69129200  1
  H  H37  1  0.68761700  0.93903500  0.30870800  1
  H  H38  1  0.31238300  0.93903500  0.80870800  1
  H  H39  1  0.68761700  0.43903500  0.19129200  1
  H  H40  1  0.30537200  0.34511200  0.77235100  1
  H  H41  1  0.69462800  0.84511200  0.22764900  1
  H  H42  1  0.30537200  0.84511200  0.72764900  1
  H  H43  1  0.69462800  0.34511200  0.27235100  1
  H  H44  1  0.99529800  0.52066500  0.86928900  1
  H  H45  1  0.00470200  0.02066500  0.13071100  1
  H  H46  1  0.99529800  0.02066500  0.63071100  1
  H  H47  1  0.00470200  0.52066500  0.36928900  1
  H  H48  1  0.02989100  0.39236200  0.87594100  1
  H  H49  1  0.97010900  0.89236200  0.12405900  1
  H  H50  1  0.02989100  0.89236200  0.62405900  1
  H  H51  1  0.97010900  0.39236200  0.37594100  1
  H  H52  1  0.96457600  0.52760200  0.03887000  1
  H  H53  1  0.03542400  0.02760200  0.96113000  1
  H  H54  1  0.96457600  0.02760200  0.46113000  1
  H  H55  1  0.03542400  0.52760200  0.53887000  1
  H  H56  1  0.83585300  0.44679800  0.98409900  1
  H  H57  1  0.16414700  0.94679800  0.01590100  1
  H  H58  1  0.83585300  0.94679800  0.51590100  1
  H  H59  1  0.16414700  0.44679800  0.48409900  1
  H  H60  1  0.99556500  0.39837000  0.04463200  1
  H  H61  1  0.00443500  0.89837000  0.95536800  1
  H  H62  1  0.99556500  0.89837000  0.45536800  1
  H  H63  1  0.00443500  0.39837000  0.54463200  1
  H  H64  1  0.37727900  0.58349500  0.96828400  1
  H  H65  1  0.62272100  0.08349500  0.03171600  1
  H  H66  1  0.37727900  0.08349500  0.53171600  1
  H  H67  1  0.62272100  0.58349500  0.46828400  1
  H  H68  1  0.21997600  0.55348200  0.04059200  1
  H  H69  1  0.78002400  0.05348200  0.95940800  1
  H  H70  1  0.21997600  0.05348200  0.45940800  1
  H  H71  1  0.78002400  0.55348200  0.54059200  1
  H  H72  1  0.04203400  0.66234300  0.94818900  1
  H  H73  1  0.95796600  0.16234300  0.05181100  1
  H  H74  1  0.04203400  0.16234300  0.55181100  1
  H  H75  1  0.95796600  0.66234300  0.44818900  1
  H  H76  1  0.20699600  0.72203900  0.99272200  1
  H  H77  1  0.79300400  0.22203900  0.00727800  1
  H  H78  1  0.20699600  0.22203900  0.50727800  1
  H  H79  1  0.79300400  0.72203900  0.49272200  1
  H  H80  1  0.20162900  0.69285400  0.87678600  1
  H  H81  1  0.79837100  0.19285400  0.12321400  1
  H  H82  1  0.20162900  0.19285400  0.62321400  1
  H  H83  1  0.79837100  0.69285400  0.37678600  1
  C  C84  1  0.29729200  0.39358500  0.95905600  1
  C  C85  1  0.70270800  0.89358500  0.04094400  1
  C  C86  1  0.29729200  0.89358500  0.54094400  1
  C  C87  1  0.70270800  0.39358500  0.45905600  1
  C  C88  1  0.47138900  0.40154100  0.97498100  1
  C  C89  1  0.52861100  0.90154100  0.02501900  1
  C  C90  1  0.47138900  0.90154100  0.52501900  1
  C  C91  1  0.52861100  0.40154100  0.47498100  1
  C  C92  1  0.27986600  0.49709100  0.82049700  1
  C  C93  1  0.72013400  0.99709100  0.17950300  1
  C  C94  1  0.27986600  0.99709100  0.67950300  1
  C  C95  1  0.72013400  0.49709100  0.32049700  1
  C  C96  1  0.25262600  0.41510100  0.75284000  1
  C  C97  1  0.74737400  0.91510100  0.24716000  1
  C  C98  1  0.25262600  0.91510100  0.74716000  1
  C  C99  1  0.74737400  0.41510100  0.25284000  1
  C  C100  1  0.04369400  0.46224100  0.91151200  1
  C  C101  1  0.95630600  0.96224100  0.08848800  1
  C  C102  1  0.04369400  0.96224100  0.58848800  1
  C  C103  1  0.95630600  0.46224100  0.41151200  1
  C  C104  1  0.95847600  0.45870600  0.00120200  1
  C  C105  1  0.04152400  0.95870600  0.99879800  1
  C  C106  1  0.95847600  0.95870600  0.49879800  1
  C  C107  1  0.04152400  0.45870600  0.50120200  1
  C  C108  1  0.25129400  0.57281900  0.97135700  1
  C  C109  1  0.74870600  0.07281900  0.02864300  1
  C  C110  1  0.25129400  0.07281900  0.52864300  1
  C  C111  1  0.74870600  0.57281900  0.47135700  1
  C  C112  1  0.16890400  0.66679800  0.94372700  1
  C  C113  1  0.83109600  0.16679800  0.05627300  1
  C  C114  1  0.16890400  0.16679800  0.55627300  1
  C  C115  1  0.83109600  0.66679800  0.44372700  1
  N  N116  1  0.21775100  0.48150000  0.91554200  1
  N  N117  1  0.78224900  0.98150000  0.08445800  1
  N  N118  1  0.21775100  0.98150000  0.58445800  1
  N  N119  1  0.78224900  0.48150000  0.41554200  1
  Cl  Cl120  1  0.72090600  0.38378500  0.73082100  1
  Cl  Cl121  1  0.27909400  0.88378500  0.26917900  1
  Cl  Cl122  1  0.72090600  0.88378500  0.76917900  1
  Cl  Cl123  1  0.27909400  0.38378500  0.23082100  1
  Cl  Cl124  1  0.94645300  0.17614800  0.79935300  1
  Cl  Cl125  1  0.05354700  0.67614800  0.20064700  1
  Cl  Cl126  1  0.94645300  0.67614800  0.70064700  1
  Cl  Cl127  1  0.05354700  0.17614800  0.29935300  1
  Cl  Cl128  1  0.69239200  0.15911900  0.60461700  1
  Cl  Cl129  1  0.30760800  0.65911900  0.39538300  1
  Cl  Cl130  1  0.69239200  0.65911900  0.89538300  1
  Cl  Cl131  1  0.30760800  0.15911900  0.10461700  1
  Cl  Cl132  1  0.52709900  0.17321500  0.82691600  1
  Cl  Cl133  1  0.47290100  0.67321500  0.17308400  1
  Cl  Cl134  1  0.52709900  0.67321500  0.67308400  1
  Cl  Cl135  1  0.47290100  0.17321500  0.32691600  1
