# generated using pymatgen
data_Mn3V3(AgO6)2
_symmetry_space_group_name_H-M   'P 1'
_cell_length_a   9.02590276
_cell_length_b   9.02590276
_cell_length_c   6.93180775
_cell_angle_alpha   75.75381636
_cell_angle_beta   75.75381636
_cell_angle_gamma   96.10925261
_symmetry_Int_Tables_number   1
_chemical_formula_structural   Mn3V3(AgO6)2
_chemical_formula_sum   'Mn6 V6 Ag4 O24'
_cell_volume   522.06624302
_cell_formula_units_Z   2
loop_
 _symmetry_equiv_pos_site_id
 _symmetry_equiv_pos_as_xyz
  1  'x, y, z'
loop_
 _atom_site_type_symbol
 _atom_site_label
 _atom_site_symmetry_multiplicity
 _atom_site_fract_x
 _atom_site_fract_y
 _atom_site_fract_z
 _atom_site_occupancy
  Mn  Mn0  1  0.26994000  0.73006000  0.75000000  1
  Mn  Mn1  1  0.73006000  0.26994000  0.25000000  1
  Mn  Mn2  1  0.95268300  0.63055300  0.61735100  1
  Mn  Mn3  1  0.36944700  0.04731700  0.88264900  1
  Mn  Mn4  1  0.04731700  0.36944700  0.38264900  1
  Mn  Mn5  1  0.63055300  0.95268300  0.11735100  1
  V  V6  1  0.29310700  0.70689300  0.25000000  1
  V  V7  1  0.70689300  0.29310700  0.75000000  1
  V  V8  1  0.66081900  0.88390200  0.61862900  1
  V  V9  1  0.11609800  0.33918100  0.88137100  1
  V  V10  1  0.33918100  0.11609800  0.38137100  1
  V  V11  1  0.88390200  0.66081900  0.11862900  1
  Ag  Ag12  1  0.50000000  0.50000000  0.50000000  1
  Ag  Ag13  1  0.50000000  0.50000000  0.00000000  1
  Ag  Ag14  1  0.99302000  0.00698000  0.75000000  1
  Ag  Ag15  1  0.00698000  0.99302000  0.25000000  1
  O  O16  1  0.84794000  0.83726200  0.59839800  1
  O  O17  1  0.16273800  0.15206000  0.90160200  1
  O  O18  1  0.15206000  0.16273800  0.40160200  1
  O  O19  1  0.83726200  0.84794000  0.09839800  1
  O  O20  1  0.01218300  0.66472800  0.87818500  1
  O  O21  1  0.33527200  0.98781700  0.62181500  1
  O  O22  1  0.98781700  0.33527200  0.12181500  1
  O  O23  1  0.66472800  0.01218300  0.37818500  1
  O  O24  1  0.60471100  0.96717100  0.82579000  1
  O  O25  1  0.03282900  0.39528900  0.67421000  1
  O  O26  1  0.39528900  0.03282900  0.17421000  1
  O  O27  1  0.96717100  0.60471100  0.32579000  1
  O  O28  1  0.52228200  0.72117700  0.67363400  1
  O  O29  1  0.27882300  0.47771800  0.82636600  1
  O  O30  1  0.47771800  0.27882300  0.32636600  1
  O  O31  1  0.72117700  0.52228200  0.17363400  1
  O  O32  1  0.18254500  0.73871900  0.48248600  1
  O  O33  1  0.26128100  0.81745500  0.01751400  1
  O  O34  1  0.81745500  0.26128100  0.51751400  1
  O  O35  1  0.73871900  0.18254500  0.98248600  1
  O  O36  1  0.25867900  0.51163000  0.25820100  1
  O  O37  1  0.48837000  0.74132100  0.24179900  1
  O  O38  1  0.74132100  0.48837000  0.74179900  1
  O  O39  1  0.51163000  0.25867900  0.75820100  1
