# generated using pymatgen
data_RbNa2B6ClO10
_symmetry_space_group_name_H-M   'P 1'
_cell_length_a   8.40308300
_cell_length_b   9.73873000
_cell_length_c   12.87437900
_cell_angle_alpha   90.00000000
_cell_angle_beta   90.00000000
_cell_angle_gamma   90.00000000
_symmetry_Int_Tables_number   1
_chemical_formula_structural   RbNa2B6ClO10
_chemical_formula_sum   'Rb4 Na8 B24 Cl4 O40'
_cell_volume   1053.57939524
_cell_formula_units_Z   4
loop_
 _symmetry_equiv_pos_site_id
 _symmetry_equiv_pos_as_xyz
  1  'x, y, z'
loop_
 _atom_site_type_symbol
 _atom_site_label
 _atom_site_symmetry_multiplicity
 _atom_site_fract_x
 _atom_site_fract_y
 _atom_site_fract_z
 _atom_site_occupancy
  Rb  Rb0  1  0.52001200  0.25226800  0.23798700  1
  Rb  Rb1  1  0.97998800  0.74773200  0.73798700  1
  Rb  Rb2  1  0.02001200  0.24773200  0.76201300  1
  Rb  Rb3  1  0.47998800  0.75226800  0.26201300  1
  Na  Na4  1  0.72947700  0.00333800  0.46473700  1
  Na  Na5  1  0.77052300  0.99666200  0.96473700  1
  Na  Na6  1  0.22947700  0.49666200  0.53526300  1
  Na  Na7  1  0.27052300  0.50333800  0.03526300  1
  Na  Na8  1  0.53965400  0.22001700  0.74232300  1
  Na  Na9  1  0.96034600  0.77998300  0.24232300  1
  Na  Na10  1  0.03965400  0.27998300  0.25767700  1
  Na  Na11  1  0.46034600  0.72001700  0.75767700  1
  B  B12  1  0.45148000  0.23864300  0.97782300  1
  B  B13  1  0.04852000  0.76135700  0.47782300  1
  B  B14  1  0.95148000  0.26135700  0.02217700  1
  B  B15  1  0.54852000  0.73864300  0.52217700  1
  B  B16  1  0.54144200  0.26562300  0.51297500  1
  B  B17  1  0.95855800  0.73437700  0.01297500  1
  B  B18  1  0.04144200  0.23437700  0.48702500  1
  B  B19  1  0.45855800  0.76562300  0.98702500  1
  B  B20  1  0.80019000  0.50473100  0.27292800  1
  B  B21  1  0.69981000  0.49526900  0.77292800  1
  B  B22  1  0.30019000  0.99526900  0.72707200  1
  B  B23  1  0.19981000  0.00473100  0.22707200  1
  B  B24  1  0.79179100  0.36727500  0.43911400  1
  B  B25  1  0.70820900  0.63272500  0.93911400  1
  B  B26  1  0.29179100  0.13272500  0.56088600  1
  B  B27  1  0.20820900  0.86727500  0.06088600  1
  B  B28  1  0.88286000  0.50060600  0.07835900  1
  B  B29  1  0.61714000  0.49939400  0.57835900  1
  B  B30  1  0.38286000  0.99939400  0.92164100  1
  B  B31  1  0.11714000  0.00060600  0.42164100  1
  B  B32  1  0.20839000  0.13561300  0.05954100  1
  B  B33  1  0.29161000  0.86438700  0.55954100  1
  B  B34  1  0.70839000  0.36438700  0.94045900  1
  B  B35  1  0.79161000  0.63561300  0.44045900  1
  Cl  Cl36  1  0.25851100  0.48700500  0.30433700  1
  Cl  Cl37  1  0.24148900  0.51299500  0.80433700  1
  Cl  Cl38  1  0.75851100  0.01299500  0.69566300  1
  Cl  Cl39  1  0.74148900  0.98700500  0.19566300  1
  O  O40  1  0.71854000  0.50135700  0.47989100  1
  O  O41  1  0.78146000  0.49864300  0.97989100  1
  O  O42  1  0.21854000  0.99864300  0.52010900  1
  O  O43  1  0.28146000  0.00135700  0.02010900  1
  O  O44  1  0.77869800  0.50456800  0.16768000  1
  O  O45  1  0.72130200  0.49543200  0.66768000  1
  O  O46  1  0.27869800  0.99543200  0.83232000  1
  O  O47  1  0.22130200  0.00456800  0.33232000  1
  O  O48  1  0.31259200  0.25046200  0.03372100  1
  O  O49  1  0.18740800  0.74953800  0.53372100  1
  O  O50  1  0.81259200  0.24953800  0.96627900  1
  O  O51  1  0.68740800  0.75046200  0.46627900  1
  O  O52  1  0.67787900  0.25531600  0.45406900  1
  O  O53  1  0.82212100  0.74468400  0.95406900  1
  O  O54  1  0.17787900  0.24468400  0.54593100  1
  O  O55  1  0.32212100  0.75531600  0.04593100  1
  O  O56  1  0.48650700  0.12284600  0.92039000  1
  O  O57  1  0.01349300  0.87715400  0.42039000  1
  O  O58  1  0.98650700  0.37715400  0.07961000  1
  O  O59  1  0.51349300  0.62284600  0.57961000  1
  O  O60  1  0.55081800  0.34909500  0.98495900  1
  O  O61  1  0.94918200  0.65090500  0.48495900  1
  O  O62  1  0.05081800  0.15090500  0.01504100  1
  O  O63  1  0.44918200  0.84909500  0.51504100  1
  O  O64  1  0.81360500  0.38222800  0.32534400  1
  O  O65  1  0.68639500  0.61777200  0.82534400  1
  O  O66  1  0.31360500  0.11777200  0.67465600  1
  O  O67  1  0.18639500  0.88222800  0.17465600  1
  O  O68  1  0.44184400  0.15551600  0.50793000  1
  O  O69  1  0.05815600  0.84448400  0.00793000  1
  O  O70  1  0.94184400  0.34448400  0.49207000  1
  O  O71  1  0.55815600  0.65551600  0.99207000  1
  O  O72  1  0.79603400  0.62758100  0.32548700  1
  O  O73  1  0.70396600  0.37241900  0.82548700  1
  O  O74  1  0.29603400  0.87241900  0.67451300  1
  O  O75  1  0.20396600  0.12758100  0.17451300  1
  O  O76  1  0.51074100  0.37846400  0.57487600  1
  O  O77  1  0.98925900  0.62153600  0.07487600  1
  O  O78  1  0.01074100  0.12153600  0.42512400  1
  O  O79  1  0.48925900  0.87846400  0.92512400  1
