# generated using pymatgen
data_MnH7C3NO6
_symmetry_space_group_name_H-M   'P 1'
_cell_length_a   8.68789900
_cell_length_b   12.84709796
_cell_length_c   12.84623891
_cell_angle_alpha   120.00065633
_cell_angle_beta   90.00000000
_cell_angle_gamma   90.00000000
_symmetry_Int_Tables_number   1
_chemical_formula_structural   MnH7C3NO6
_chemical_formula_sum   'Mn6 H42 C18 N6 O36'
_cell_volume   1241.71964753
_cell_formula_units_Z   6
loop_
 _symmetry_equiv_pos_site_id
 _symmetry_equiv_pos_as_xyz
  1  'x, y, z'
loop_
 _atom_site_type_symbol
 _atom_site_label
 _atom_site_symmetry_multiplicity
 _atom_site_fract_x
 _atom_site_fract_y
 _atom_site_fract_z
 _atom_site_occupancy
  Mn  Mn0  1  0.08028000  0.99520300  0.66425600  1
  Mn  Mn1  1  0.08002600  0.33588400  0.33071500  1
  Mn  Mn2  1  0.08008500  0.66929900  0.00515700  1
  Mn  Mn3  1  0.58028000  0.00479700  0.33574400  1
  Mn  Mn4  1  0.58002600  0.66411600  0.66928500  1
  Mn  Mn5  1  0.58008500  0.33070100  0.99484300  1
  H  H6  1  0.85850700  0.15714900  0.87518100  1
  H  H7  1  0.85851100  0.12480000  0.28196600  1
  H  H8  1  0.85855100  0.71806700  0.84286300  1
  H  H9  1  0.35850700  0.84285000  0.12481900  1
  H  H10  1  0.35851100  0.87520000  0.71803400  1
  H  H11  1  0.35855100  0.28193300  0.15713700  1
  H  H12  1  0.87123800  0.04848000  0.49995200  1
  H  H13  1  0.87122900  0.50006300  0.54854100  1
  H  H14  1  0.87133100  0.45152200  0.95152200  1
  H  H15  1  0.37123800  0.95152000  0.50004800  1
  H  H16  1  0.37122900  0.49993700  0.45145900  1
  H  H17  1  0.37133100  0.54847800  0.04847800  1
  H  H18  1  0.78638600  0.83633300  0.61954900  1
  H  H19  1  0.78630000  0.38043500  0.21676400  1
  H  H20  1  0.78634600  0.78319400  0.16365700  1
  H  H21  1  0.28638600  0.16366700  0.38045100  1
  H  H22  1  0.28630000  0.61956500  0.78323600  1
  H  H23  1  0.28634600  0.21680600  0.83634300  1
  H  H24  1  0.17503800  0.36329100  0.60831500  1
  H  H25  1  0.17502000  0.39170700  0.75497400  1
  H  H26  1  0.17500900  0.24507600  0.63672400  1
  H  H27  1  0.67503800  0.63670900  0.39168500  1
  H  H28  1  0.67502000  0.60829300  0.24502600  1
  H  H29  1  0.67500900  0.75492400  0.36327600  1
  H  H30  1  0.01906100  0.33338200  0.66666300  1
  H  H31  1  0.51906100  0.66661800  0.33333700  1
  H  H32  1  0.17379700  0.57914300  0.30599300  1
  H  H33  1  0.17379200  0.69398000  0.27323000  1
  H  H34  1  0.17375000  0.72679000  0.42086900  1
  H  H35  1  0.67379700  0.42085700  0.69400700  1
  H  H36  1  0.67379200  0.30602000  0.72677000  1
  H  H37  1  0.67375000  0.27321000  0.57913100  1
  H  H38  1  0.01726100  0.66661600  0.33332700  1
  H  H39  1  0.51726100  0.33338400  0.66667300  1
  H  H40  1  0.48086400  0.02670200  0.08747300  1
  H  H41  1  0.48085300  0.91258600  0.93923400  1
  H  H42  1  0.48090000  0.06077000  0.97333100  1
  H  H43  1  0.98086400  0.97329800  0.91252700  1
  H  H44  1  0.98085300  0.08741400  0.06076600  1
  H  H45  1  0.98090000  0.93923000  0.02666900  1
  H  H46  1  0.63719400  0.99999300  0.99999300  1
  H  H47  1  0.13719400  0.00000700  0.00000700  1
  C  C48  1  0.84156800  0.19069100  0.81158700  1
  C  C49  1  0.84150900  0.18836700  0.37908100  1
  C  C50  1  0.84151700  0.62099300  0.80938600  1
  C  C51  1  0.34156800  0.80930900  0.18841300  1
  C  C52  1  0.34150900  0.81163300  0.62091900  1
  C  C53  1  0.34151700  0.37900700  0.19061400  1
  C  C54  1  0.84374700  0.95378100  0.47086100  1
  C  C55  1  0.84362600  0.52917800  0.48296100  1
  C  C56  1  0.84370100  0.51704700  0.04622100  1
  C  C57  1  0.34374700  0.04621900  0.52913900  1
  C  C58  1  0.34362600  0.47082200  0.51703900  1
  C  C59  1  0.34370100  0.48295300  0.95377900  1
  C  C60  1  0.81117900  0.86385500  0.71443500  1
  C  C61  1  0.81115000  0.28557100  0.14936800  1
  C  C62  1  0.81117700  0.85060000  0.13618500  1
  C  C63  1  0.31117900  0.13614500  0.28556500  1
  C  C64  1  0.31115000  0.71442900  0.85063200  1
  C  C65  1  0.31117700  0.14940000  0.86381500  1
  N  N66  1  0.13695100  0.33337500  0.66667800  1
  N  N67  1  0.63695100  0.66662500  0.33332200  1
  N  N68  1  0.13504500  0.66663100  0.33336400  1
  N  N69  1  0.63504500  0.33336900  0.66663600  1
  N  N70  1  0.51937800  0.00001700  0.00001600  1
  N  N71  1  0.01937800  0.99998300  0.99998400  1
  O  O72  1  0.93425800  0.15804500  0.72508800  1
  O  O73  1  0.93415900  0.27491600  0.43289900  1
  O  O74  1  0.93417400  0.56722700  0.84219900  1
  O  O75  1  0.43425800  0.84195500  0.27491200  1
  O  O76  1  0.43415900  0.72508400  0.56710100  1
  O  O77  1  0.43417400  0.43277300  0.15780100  1
  O  O78  1  0.72757900  0.26152700  0.83262000  1
  O  O79  1  0.72757600  0.16724800  0.42885400  1
  O  O80  1  0.72762500  0.57119400  0.73850300  1
  O  O81  1  0.22757900  0.73847300  0.16738000  1
  O  O82  1  0.22757600  0.83275200  0.57114600  1
  O  O83  1  0.22762500  0.42880600  0.26149700  1
  O  O84  1  0.93133500  0.89777100  0.50463600  1
  O  O85  1  0.93115200  0.49542100  0.39311700  1
  O  O86  1  0.93126500  0.60684800  0.10239300  1
  O  O87  1  0.43133500  0.10222900  0.49536400  1
  O  O88  1  0.43115200  0.50457900  0.60688300  1
  O  O89  1  0.43126500  0.39315200  0.89760700  1
  O  O90  1  0.72449700  0.90878800  0.40528000  1
  O  O91  1  0.72437600  0.59475000  0.50360700  1
  O  O92  1  0.72437600  0.49638700  0.09106200  1
  O  O93  1  0.22449700  0.09121200  0.59472000  1
  O  O94  1  0.22437600  0.40525000  0.49639300  1
  O  O95  1  0.22437600  0.50361300  0.90893800  1
  O  O96  1  0.92859300  0.93108600  0.76159000  1
  O  O97  1  0.92850900  0.23837700  0.16944500  1
  O  O98  1  0.92870300  0.83055600  0.06901500  1
  O  O99  1  0.42859300  0.06891400  0.23841000  1
  O  O100  1  0.42850900  0.76162300  0.83055500  1
  O  O101  1  0.42870300  0.16944400  0.93098500  1
  O  O102  1  0.72371800  0.82743100  0.76836500  1
  O  O103  1  0.72379100  0.23164400  0.05892700  1
  O  O104  1  0.72378600  0.94092900  0.17256400  1
  O  O105  1  0.22371800  0.17256900  0.23163500  1
  O  O106  1  0.22379100  0.76835600  0.94107300  1
  O  O107  1  0.22378600  0.05907100  0.82743600  1
