# generated using pymatgen
data_In2O3
_symmetry_space_group_name_H-M   'P 1'
_cell_length_a   5.58977100
_cell_length_b   5.77553100
_cell_length_c   16.13529100
_cell_angle_alpha   90.00000000
_cell_angle_beta   90.00000000
_cell_angle_gamma   90.00000000
_symmetry_Int_Tables_number   1
_chemical_formula_structural   In2O3
_chemical_formula_sum   'In16 O24'
_cell_volume   520.91005163
_cell_formula_units_Z   8
loop_
 _symmetry_equiv_pos_site_id
 _symmetry_equiv_pos_as_xyz
  1  'x, y, z'
loop_
 _atom_site_type_symbol
 _atom_site_label
 _atom_site_symmetry_multiplicity
 _atom_site_fract_x
 _atom_site_fract_y
 _atom_site_fract_z
 _atom_site_occupancy
  In  In0  1  0.50140900  0.79261700  0.57009900  1
  In  In1  1  0.00140900  0.70738300  0.42990100  1
  In  In2  1  0.49859100  0.29261700  0.92990100  1
  In  In3  1  0.99859100  0.20738300  0.07009900  1
  In  In4  1  0.49859100  0.20738300  0.42990100  1
  In  In5  1  0.99859100  0.29261700  0.57009900  1
  In  In6  1  0.50140900  0.70738300  0.07009900  1
  In  In7  1  0.00140900  0.79261700  0.92990100  1
  In  In8  1  0.49891500  0.73828200  0.81851200  1
  In  In9  1  0.99891500  0.76171800  0.18148800  1
  In  In10  1  0.50108500  0.23828200  0.68148800  1
  In  In11  1  0.00108500  0.26171800  0.31851200  1
  In  In12  1  0.50108500  0.26171800  0.18148800  1
  In  In13  1  0.00108500  0.23828200  0.81851200  1
  In  In14  1  0.49891500  0.76171800  0.31851200  1
  In  In15  1  0.99891500  0.73828200  0.68148800  1
  O  O16  1  0.86105500  0.87252300  0.79807900  1
  O  O17  1  0.36105500  0.62747700  0.20192100  1
  O  O18  1  0.13894500  0.37252300  0.70192100  1
  O  O19  1  0.63894500  0.12747700  0.29807900  1
  O  O20  1  0.13894500  0.12747700  0.20192100  1
  O  O21  1  0.63894500  0.37252300  0.79807900  1
  O  O22  1  0.86105500  0.62747700  0.29807900  1
  O  O23  1  0.36105500  0.87252300  0.70192100  1
  O  O24  1  0.70600200  0.51818700  0.62368500  1
  O  O25  1  0.20600200  0.98181300  0.37631500  1
  O  O26  1  0.29399800  0.01818700  0.87631500  1
  O  O27  1  0.79399800  0.48181300  0.12368500  1
  O  O28  1  0.29399800  0.48181300  0.37631500  1
  O  O29  1  0.79399800  0.01818700  0.62368500  1
  O  O30  1  0.70600200  0.98181300  0.12368500  1
  O  O31  1  0.20600200  0.51818700  0.87631500  1
  O  O32  1  0.64876300  0.65410100  0.94742800  1
  O  O33  1  0.14876300  0.84589900  0.05257200  1
  O  O34  1  0.35123700  0.15410100  0.55257200  1
  O  O35  1  0.85123700  0.34589900  0.44742800  1
  O  O36  1  0.35123700  0.34589900  0.05257200  1
  O  O37  1  0.85123700  0.15410100  0.94742800  1
  O  O38  1  0.64876300  0.84589900  0.44742800  1
  O  O39  1  0.14876300  0.65410100  0.55257200  1
