# generated using pymatgen
data_KLiTmF5
_symmetry_space_group_name_H-M   'P 1'
_cell_length_a   6.28548006
_cell_length_b   6.45938628
_cell_length_c   11.85447600
_cell_angle_alpha   90.00000000
_cell_angle_beta   90.00000000
_cell_angle_gamma   114.02306457
_symmetry_Int_Tables_number   1
_chemical_formula_structural   KLiTmF5
_chemical_formula_sum   'K4 Li4 Tm4 F20'
_cell_volume   439.60675214
_cell_formula_units_Z   4
loop_
 _symmetry_equiv_pos_site_id
 _symmetry_equiv_pos_as_xyz
  1  'x, y, z'
loop_
 _atom_site_type_symbol
 _atom_site_label
 _atom_site_symmetry_multiplicity
 _atom_site_fract_x
 _atom_site_fract_y
 _atom_site_fract_z
 _atom_site_occupancy
  K  K0  1  0.54324800  0.05947400  0.35000700  1
  K  K1  1  0.95675200  0.94052600  0.85000700  1
  K  K2  1  0.45675200  0.94052600  0.64999300  1
  K  K3  1  0.04324800  0.05947400  0.14999300  1
  Li  Li4  1  0.96388900  0.56366400  0.24671400  1
  Li  Li5  1  0.53611100  0.43633600  0.74671400  1
  Li  Li6  1  0.03611100  0.43633600  0.75328600  1
  Li  Li7  1  0.46388900  0.56366400  0.25328600  1
  Tm  Tm8  1  0.82014800  0.68210300  0.49806100  1
  Tm  Tm9  1  0.67985200  0.31789700  0.99806100  1
  Tm  Tm10  1  0.17985200  0.31789700  0.50193900  1
  Tm  Tm11  1  0.32014800  0.68210300  0.00193900  1
  F  F12  1  0.45326000  0.66412200  0.47103500  1
  F  F13  1  0.04674000  0.33587800  0.97103500  1
  F  F14  1  0.54674000  0.33587800  0.52896500  1
  F  F15  1  0.95326000  0.66412200  0.02896500  1
  F  F16  1  0.82938400  0.04487700  0.50976700  1
  F  F17  1  0.67061600  0.95512300  0.00976700  1
  F  F18  1  0.17061600  0.95512300  0.49023300  1
  F  F19  1  0.32938400  0.04487700  0.99023300  1
  F  F20  1  0.28072100  0.72669700  0.19162900  1
  F  F21  1  0.21927900  0.27330300  0.69162900  1
  F  F22  1  0.71927900  0.27330300  0.80837100  1
  F  F23  1  0.78072100  0.72669700  0.30837100  1
  F  F24  1  0.96424700  0.46482400  0.39713200  1
  F  F25  1  0.53575300  0.53517600  0.89713200  1
  F  F26  1  0.03575300  0.53517600  0.60286800  1
  F  F27  1  0.46424700  0.46482400  0.10286800  1
  F  F28  1  0.77634600  0.29383900  0.17212300  1
  F  F29  1  0.72365400  0.70616100  0.67212300  1
  F  F30  1  0.22365400  0.70616100  0.82787700  1
  F  F31  1  0.27634600  0.29383900  0.32787700  1
