# generated using pymatgen
data_AsH4CNF8
_symmetry_space_group_name_H-M   'P 1'
_cell_length_a   7.81841000
_cell_length_b   9.04146246
_cell_length_c   9.73883794
_cell_angle_alpha   96.71514278
_cell_angle_beta   92.87929152
_cell_angle_gamma   91.06212361
_symmetry_Int_Tables_number   1
_chemical_formula_structural   AsH4CNF8
_chemical_formula_sum   'As4 H16 C4 N4 F32'
_cell_volume   682.64431416
_cell_formula_units_Z   4
loop_
 _symmetry_equiv_pos_site_id
 _symmetry_equiv_pos_as_xyz
  1  'x, y, z'
loop_
 _atom_site_type_symbol
 _atom_site_label
 _atom_site_symmetry_multiplicity
 _atom_site_fract_x
 _atom_site_fract_y
 _atom_site_fract_z
 _atom_site_occupancy
  As  As0  1  0.25581600  0.37042800  0.59873200  1
  As  As1  1  0.74418400  0.62957200  0.40126800  1
  As  As2  1  0.22921100  0.92810300  0.23882000  1
  As  As3  1  0.77078900  0.07189700  0.76118000  1
  H  H4  1  0.73418700  0.02936800  0.17424400  1
  H  H5  1  0.26581300  0.97063200  0.82575600  1
  H  H6  1  0.74819400  0.24306500  0.43507000  1
  H  H7  1  0.25180600  0.75693500  0.56493000  1
  H  H8  1  0.85688100  0.08214200  0.41111900  1
  H  H9  1  0.14311900  0.91785800  0.58888100  1
  H  H10  1  0.64132900  0.07613900  0.41327200  1
  H  H11  1  0.35867100  0.92386100  0.58672800  1
  H  H12  1  0.10372700  0.32774100  0.02862600  1
  H  H13  1  0.89627300  0.67225900  0.97137400  1
  H  H14  1  0.34391800  0.48795300  0.25090100  1
  H  H15  1  0.65608200  0.51204700  0.74909900  1
  H  H16  1  0.24024200  0.32234900  0.25526200  1
  H  H17  1  0.75975800  0.67765100  0.74473800  1
  H  H18  1  0.12823200  0.48111700  0.26014700  1
  H  H19  1  0.87176800  0.51888300  0.73985300  1
  C  C20  1  0.73269800  0.14124900  0.23160100  1
  C  C21  1  0.26730200  0.85875100  0.76839900  1
  C  C22  1  0.21235100  0.40361700  0.06444300  1
  C  C23  1  0.78764900  0.59638300  0.93555700  1
  N  N24  1  0.74572200  0.13498500  0.38408300  1
  N  N25  1  0.25427800  0.86501500  0.61591700  1
  N  N26  1  0.23259600  0.42569500  0.21899800  1
  N  N27  1  0.76740400  0.57430500  0.78100200  1
  F  F28  1  0.86773000  0.22612300  0.20108700  1
  F  F29  1  0.13227000  0.77387700  0.79891300  1
  F  F30  1  0.58602900  0.21065200  0.20242600  1
  F  F31  1  0.41397100  0.78934800  0.79757400  1
  F  F32  1  0.36038500  0.34830100  0.01688700  1
  F  F33  1  0.63961500  0.65169900  0.98311300  1
  F  F34  1  0.18843800  0.54016900  0.02219600  1
  F  F35  1  0.81156200  0.45983100  0.97780400  1
  F  F36  1  0.09867100  0.42980700  0.71824300  1
  F  F37  1  0.90132900  0.57019300  0.28175700  1
  F  F38  1  0.09212700  0.29640900  0.47607300  1
  F  F39  1  0.90787300  0.70359100  0.52392700  1
  F  F40  1  0.41025400  0.31658600  0.47676600  1
  F  F41  1  0.58974600  0.68341400  0.52323400  1
  F  F42  1  0.42021700  0.45016300  0.71885800  1
  F  F43  1  0.57978300  0.54983700  0.28114200  1
  F  F44  1  0.27138100  0.19896800  0.66730500  1
  F  F45  1  0.72861900  0.80103200  0.33269500  1
  F  F46  1  0.23878500  0.54461300  0.52838300  1
  F  F47  1  0.76121500  0.45538700  0.47161700  1
  F  F48  1  0.38351800  0.88668900  0.11627000  1
  F  F49  1  0.61648200  0.11331100  0.88373000  1
  F  F50  1  0.39409600  0.99180200  0.36781800  1
  F  F51  1  0.60590400  0.00819800  0.63218200  1
  F  F52  1  0.07528400  0.97417300  0.36658300  1
  F  F53  1  0.92471600  0.02582700  0.63341700  1
  F  F54  1  0.06069800  0.86786000  0.11688700  1
  F  F55  1  0.93930200  0.13214000  0.88311300  1
  F  F56  1  0.21495300  0.11257600  0.19200200  1
  F  F57  1  0.78504700  0.88742400  0.80799800  1
  F  F58  1  0.24305900  0.74880900  0.29454000  1
  F  F59  1  0.75694100  0.25119100  0.70546000  1
