# generated using pymatgen
data_H12C2S(NO2)2
_symmetry_space_group_name_H-M   'P 1'
_cell_length_a   9.05300500
_cell_length_b   13.35103700
_cell_length_c   13.84092309
_cell_angle_alpha   67.93364378
_cell_angle_beta   90.00000000
_cell_angle_gamma   90.00000000
_symmetry_Int_Tables_number   1
_chemical_formula_structural   H12C2S(NO2)2
_chemical_formula_sum   'H96 C16 S8 N16 O32'
_cell_volume   1550.36916758
_cell_formula_units_Z   8
loop_
 _symmetry_equiv_pos_site_id
 _symmetry_equiv_pos_as_xyz
  1  'x, y, z'
loop_
 _atom_site_type_symbol
 _atom_site_label
 _atom_site_symmetry_multiplicity
 _atom_site_fract_x
 _atom_site_fract_y
 _atom_site_fract_z
 _atom_site_occupancy
  H  H0  1  0.38002600  0.89032900  0.74051800  1
  H  H1  1  0.88002600  0.10967100  0.75948200  1
  H  H2  1  0.61997400  0.10967100  0.25948200  1
  H  H3  1  0.11997400  0.89032900  0.24051800  1
  H  H4  1  0.50598600  0.94371600  0.64307100  1
  H  H5  1  0.00598600  0.05628400  0.85692900  1
  H  H6  1  0.49401400  0.05628400  0.35692900  1
  H  H7  1  0.99401400  0.94371600  0.14307100  1
  H  H8  1  0.34525700  0.89414400  0.61742800  1
  H  H9  1  0.84525700  0.10585600  0.88257200  1
  H  H10  1  0.65474300  0.10585600  0.38257200  1
  H  H11  1  0.15474300  0.89414400  0.11742800  1
  H  H12  1  0.16520000  0.10657100  0.43779400  1
  H  H13  1  0.66520000  0.89342900  0.06220600  1
  H  H14  1  0.83480000  0.89342900  0.56220600  1
  H  H15  1  0.33480000  0.10657100  0.93779400  1
  H  H16  1  0.15018000  0.23322700  0.43989100  1
  H  H17  1  0.65018000  0.76677300  0.06010900  1
  H  H18  1  0.84982000  0.76677300  0.56010900  1
  H  H19  1  0.34982000  0.23322700  0.93989100  1
  H  H20  1  0.00505200  0.14455900  0.47797500  1
  H  H21  1  0.50505200  0.85544100  0.02202500  1
  H  H22  1  0.99494800  0.85544100  0.52202500  1
  H  H23  1  0.49494800  0.14455900  0.97797500  1
  H  H24  1  0.88800600  0.25113200  0.09037400  1
  H  H25  1  0.38800600  0.74886800  0.40962600  1
  H  H26  1  0.11199400  0.74886800  0.90962600  1
  H  H27  1  0.61199400  0.25113200  0.59037400  1
  H  H28  1  0.02619000  0.34375200  0.05973200  1
  H  H29  1  0.52619000  0.65624800  0.44026800  1
  H  H30  1  0.97381000  0.65624800  0.94026800  1
  H  H31  1  0.47381000  0.34375200  0.55973200  1
  H  H32  1  0.86570600  0.36958600  0.10792400  1
  H  H33  1  0.36570600  0.63041400  0.39207600  1
  H  H34  1  0.13429400  0.63041400  0.89207600  1
  H  H35  1  0.63429400  0.36958600  0.60792400  1
  H  H36  1  0.17440200  0.44241300  0.60120700  1
  H  H37  1  0.67440200  0.55758700  0.89879300  1
  H  H38  1  0.82559800  0.55758700  0.39879300  1
  H  H39  1  0.32559800  0.44241300  0.10120700  1
  H  H40  1  0.16620600  0.44106200  0.72460700  1
  H  H41  1  0.66620600  0.55893800  0.77539300  1
  H  H42  1  0.83379400  0.55893800  0.27539300  1
  H  H43  1  0.33379400  0.44106200  0.22460700  1
  H  H44  1  0.01662400  0.48071700  0.64496200  1
  H  H45  1  0.51662400  0.51928300  0.85503800  1
  H  H46  1  0.98337600  0.51928300  0.35503800  1
  H  H47  1  0.48337600  0.48071700  0.14496200  1
  H  H48  1  0.52706500  0.76418200  0.63013500  1
  H  H49  1  0.02706500  0.23581800  0.86986500  1
  H  H50  1  0.47293500  0.23581800  0.36986500  1
  H  H51  1  0.97293500  0.76418200  0.13013500  1
  H  H52  1  0.41050300  0.71331800  0.74275200  1
  H  H53  1  0.91050300  0.28668200  0.75724800  1
  H  H54  1  0.58949700  0.28668200  0.25724800  1
  H  H55  1  0.08949700  0.71331800  0.24275200  1
  H  H56  1  0.58850500  0.76707300  0.75204400  1
  H  H57  1  0.08850500  0.23292700  0.74795600  1
  H  H58  1  0.41149500  0.23292700  0.24795600  1
  H  H59  1  0.91149500  0.76707300  0.25204400  1
  H  H60  1  0.29637100  0.11316900  0.58616600  1
  H  H61  1  0.79637100  0.88683100  0.91383400  1
  H  H62  1  0.70362900  0.88683100  0.41383400  1
  H  H63  1  0.20362900  0.11316900  0.08616600  1
  H  H64  1  0.13559000  0.16515300  0.62567600  1
  H  H65  1  0.63559000  0.83484700  0.87432400  1
  H  H66  1  0.86441000  0.83484700  0.37432400  1
  H  H67  1  0.36441000  0.16515300  0.12567600  1
  H  H68  1  0.13629700  0.02943000  0.62944900  1
  H  H69  1  0.63629700  0.97057000  0.87055100  1
  H  H70  1  0.86370300  0.97057000  0.37055100  1
  H  H71  1  0.36370300  0.02943000  0.12944900  1
  H  H72  1  0.07913200  0.19454400  0.21999700  1
  H  H73  1  0.57913200  0.80545600  0.28000300  1
  H  H74  1  0.92086800  0.80545600  0.78000300  1
  H  H75  1  0.42086800  0.19454400  0.71999700  1
  H  H76  1  0.90993000  0.22037500  0.27212900  1
  H  H77  1  0.40993000  0.77962500  0.22787100  1
  H  H78  1  0.09007000  0.77962500  0.72787100  1
  H  H79  1  0.59007000  0.22037500  0.77212900  1
  H  H80  1  0.05488400  0.31933700  0.23958200  1
  H  H81  1  0.55488400  0.68066300  0.26041800  1
  H  H82  1  0.94511600  0.68066300  0.76041800  1
  H  H83  1  0.44511600  0.31933700  0.73958200  1
  H  H84  1  0.30795900  0.59388300  0.61329200  1
  H  H85  1  0.80795900  0.40611700  0.88670800  1
  H  H86  1  0.69204100  0.40611700  0.38670800  1
  H  H87  1  0.19204100  0.59388300  0.11329200  1
  H  H88  1  0.14577900  0.63359400  0.66386700  1
  H  H89  1  0.64577900  0.36640600  0.83613300  1
  H  H90  1  0.85422100  0.36640600  0.33613300  1
  H  H91  1  0.35422100  0.63359400  0.16386700  1
  H  H92  1  0.14749500  0.63921700  0.53249000  1
  H  H93  1  0.64749500  0.36078300  0.96751000  1
  H  H94  1  0.85250500  0.36078300  0.46751000  1
  H  H95  1  0.35250500  0.63921700  0.03249000  1
  C  C96  1  0.49293700  0.77446800  0.70155600  1
  C  C97  1  0.99293700  0.22553200  0.79844400  1
  C  C98  1  0.50706300  0.22553200  0.29844400  1
  C  C99  1  0.00706300  0.77446800  0.20155600  1
  C  C100  1  0.17559300  0.11191400  0.58776300  1
  C  C101  1  0.67559300  0.88808600  0.91223700  1
  C  C102  1  0.82440700  0.88808600  0.41223700  1
  C  C103  1  0.32440700  0.11191400  0.08776300  1
  C  C104  1  0.00051600  0.25738300  0.21823400  1
  C  C105  1  0.50051600  0.74261700  0.28176600  1
  C  C106  1  0.99948400  0.74261700  0.78176600  1
  C  C107  1  0.49948400  0.25738300  0.71823400  1
  C  C108  1  0.18706900  0.59542600  0.61183200  1
  C  C109  1  0.68706900  0.40457400  0.88816800  1
  C  C110  1  0.81293100  0.40457400  0.38816800  1
  C  C111  1  0.31293100  0.59542600  0.11183200  1
  S  S112  1  0.26248200  0.92316300  0.42307400  1
  S  S113  1  0.76248200  0.07683700  0.07692600  1
  S  S114  1  0.73751800  0.07683700  0.57692600  1
  S  S115  1  0.23751800  0.92316300  0.92307400  1
  S  S116  1  0.26840900  0.43549600  0.41721000  1
  S  S117  1  0.76840900  0.56450400  0.08279000  1
  S  S118  1  0.73159100  0.56450400  0.58279000  1
  S  S119  1  0.23159100  0.43549600  0.91721000  1
  N  N120  1  0.42709700  0.88353800  0.67381200  1
  N  N121  1  0.92709700  0.11646200  0.82618800  1
  N  N122  1  0.57290300  0.11646200  0.32618800  1
  N  N123  1  0.07290300  0.88353800  0.17381200  1
  N  N124  1  0.11991600  0.15208500  0.47903700  1
  N  N125  1  0.61991600  0.84791500  0.02096300  1
  N  N126  1  0.88008400  0.84791500  0.52096300  1
  N  N127  1  0.38008400  0.15208500  0.97903700  1
  N  N128  1  0.94015400  0.30917000  0.11126600  1
  N  N129  1  0.44015400  0.69083000  0.38873400  1
  N  N130  1  0.05984600  0.69083000  0.88873400  1
  N  N131  1  0.55984600  0.30917000  0.61126600  1
  N  N132  1  0.13180800  0.48241900  0.64855700  1
  N  N133  1  0.63180800  0.51758100  0.85144300  1
  N  N134  1  0.86819200  0.51758100  0.35144300  1
  N  N135  1  0.36819200  0.48241900  0.14855700  1
  O  O136  1  0.19151100  0.88932100  0.52935700  1
  O  O137  1  0.69151100  0.11067900  0.97064300  1
  O  O138  1  0.80848900  0.11067900  0.47064300  1
  O  O139  1  0.30848900  0.88932100  0.02935700  1
  O  O140  1  0.19199400  0.86152200  0.36461000  1
  O  O141  1  0.69199400  0.13847800  0.13539000  1
  O  O142  1  0.80800600  0.13847800  0.63539000  1
  O  O143  1  0.30800600  0.86152200  0.86461000  1
  O  O144  1  0.42321600  0.89803000  0.43576900  1
  O  O145  1  0.92321600  0.10197000  0.06423100  1
  O  O146  1  0.57678400  0.10197000  0.56423100  1
  O  O147  1  0.07678400  0.89803000  0.93576900  1
  O  O148  1  0.24138800  0.04214500  0.36614200  1
  O  O149  1  0.74138800  0.95785500  0.13385800  1
  O  O150  1  0.75861200  0.95785500  0.63385800  1
  O  O151  1  0.25861200  0.04214500  0.86614200  1
  O  O152  1  0.18303300  0.53932700  0.38815100  1
  O  O153  1  0.68303300  0.46067300  0.11184900  1
  O  O154  1  0.81696700  0.46067300  0.61184900  1
  O  O155  1  0.31696700  0.53932700  0.88815100  1
  O  O156  1  0.20450200  0.36880300  0.36070100  1
  O  O157  1  0.70450200  0.63119700  0.13929900  1
  O  O158  1  0.79549800  0.63119700  0.63929900  1
  O  O159  1  0.29549800  0.36880300  0.86070100  1
  O  O160  1  0.42587900  0.45924400  0.38872700  1
  O  O161  1  0.92587900  0.54075600  0.11127300  1
  O  O162  1  0.57412100  0.54075600  0.61127300  1
  O  O163  1  0.07412100  0.45924400  0.88872700  1
  O  O164  1  0.25562400  0.37344600  0.53308700  1
  O  O165  1  0.75562400  0.62655400  0.96691300  1
  O  O166  1  0.74437600  0.62655400  0.46691300  1
  O  O167  1  0.24437600  0.37344600  0.03308700  1
