# generated using pymatgen
data_GeH6C2(SO3)2
_symmetry_space_group_name_H-M   'P 1'
_cell_length_a   7.66291300
_cell_length_b   7.66291300
_cell_length_c   14.52981900
_cell_angle_alpha   90.00000000
_cell_angle_beta   90.00000000
_cell_angle_gamma   90.00000000
_symmetry_Int_Tables_number   1
_chemical_formula_structural   GeH6C2(SO3)2
_chemical_formula_sum   'Ge4 H24 C8 S8 O24'
_cell_volume   853.19439557
_cell_formula_units_Z   4
loop_
 _symmetry_equiv_pos_site_id
 _symmetry_equiv_pos_as_xyz
  1  'x, y, z'
loop_
 _atom_site_type_symbol
 _atom_site_label
 _atom_site_symmetry_multiplicity
 _atom_site_fract_x
 _atom_site_fract_y
 _atom_site_fract_z
 _atom_site_occupancy
  Ge  Ge0  1  0.31366100  0.68633900  0.75000000  1
  Ge  Ge1  1  0.68633900  0.31366100  0.25000000  1
  Ge  Ge2  1  0.18633900  0.18633900  0.50000000  1
  Ge  Ge3  1  0.81366100  0.81366100  0.00000000  1
  H  H4  1  0.29697200  0.10094400  0.82891000  1
  H  H5  1  0.70302800  0.89905600  0.32891000  1
  H  H6  1  0.60094400  0.20302800  0.57891000  1
  H  H7  1  0.39905600  0.79697200  0.07891000  1
  H  H8  1  0.89905600  0.70302800  0.67109000  1
  H  H9  1  0.10094400  0.29697200  0.17109000  1
  H  H10  1  0.20302800  0.60094400  0.42109000  1
  H  H11  1  0.79697200  0.39905600  0.92109000  1
  H  H12  1  0.06399100  0.10496300  0.84821500  1
  H  H13  1  0.93600900  0.89503700  0.34821500  1
  H  H14  1  0.60496300  0.43600900  0.59821500  1
  H  H15  1  0.39503700  0.56399100  0.09821500  1
  H  H16  1  0.89503700  0.93600900  0.65178500  1
  H  H17  1  0.10496300  0.06399100  0.15178500  1
  H  H18  1  0.43600900  0.60496300  0.40178500  1
  H  H19  1  0.56399100  0.39503700  0.90178500  1
  H  H20  1  0.19964800  0.26842100  0.90057000  1
  H  H21  1  0.80035200  0.73157900  0.40057000  1
  H  H22  1  0.76842100  0.30035200  0.65057000  1
  H  H23  1  0.23157900  0.69964800  0.15057000  1
  H  H24  1  0.73157900  0.80035200  0.59943000  1
  H  H25  1  0.26842100  0.19964800  0.09943000  1
  H  H26  1  0.30035200  0.76842100  0.34943000  1
  H  H27  1  0.69964800  0.23157900  0.84943000  1
  C  C28  1  0.18266300  0.18341300  0.84066000  1
  C  C29  1  0.81733700  0.81658700  0.34066000  1
  C  C30  1  0.68341300  0.31733700  0.59066000  1
  C  C31  1  0.31658700  0.68266300  0.09066000  1
  C  C32  1  0.81658700  0.81733700  0.65934000  1
  C  C33  1  0.18341300  0.18266300  0.15934000  1
  C  C34  1  0.31733700  0.68341300  0.40934000  1
  C  C35  1  0.68266300  0.31658700  0.90934000  1
  S  S36  1  0.15227800  0.31654500  0.74295000  1
  S  S37  1  0.84772200  0.68345500  0.24295000  1
  S  S38  1  0.81654500  0.34772200  0.49295000  1
  S  S39  1  0.18345500  0.65227800  0.99295000  1
  S  S40  1  0.68345500  0.84772200  0.75705000  1
  S  S41  1  0.31654500  0.15227800  0.25705000  1
  S  S42  1  0.34772200  0.81654500  0.50705000  1
  S  S43  1  0.65227800  0.18345500  0.00705000  1
  O  O44  1  0.31999000  0.42701800  0.73724800  1
  O  O45  1  0.68001000  0.57298200  0.23724800  1
  O  O46  1  0.92701800  0.18001000  0.48724800  1
  O  O47  1  0.07298200  0.81999000  0.98724800  1
  O  O48  1  0.57298200  0.68001000  0.76275200  1
  O  O49  1  0.42701800  0.31999000  0.26275200  1
  O  O50  1  0.18001000  0.92701800  0.51275200  1
  O  O51  1  0.81999000  0.07298200  0.01275200  1
  O  O52  1  0.14495000  0.19747000  0.66330100  1
  O  O53  1  0.85505000  0.80253000  0.16330100  1
  O  O54  1  0.69747000  0.35505000  0.41330100  1
  O  O55  1  0.30253000  0.64495000  0.91330100  1
  O  O56  1  0.80253000  0.85505000  0.83669900  1
  O  O57  1  0.19747000  0.14495000  0.33669900  1
  O  O58  1  0.35505000  0.69747000  0.58669900  1
  O  O59  1  0.64495000  0.30253000  0.08669900  1
  O  O60  1  0.99990000  0.42577800  0.75642400  1
  O  O61  1  0.00010000  0.57422200  0.25642400  1
  O  O62  1  0.92577800  0.50010000  0.50642400  1
  O  O63  1  0.07422200  0.49990000  0.00642400  1
  O  O64  1  0.57422200  0.00010000  0.74357600  1
  O  O65  1  0.42577800  0.99990000  0.24357600  1
  O  O66  1  0.50010000  0.92577800  0.49357600  1
  O  O67  1  0.49990000  0.07422200  0.99357600  1
