# generated using pymatgen
data_MnBiO3
_symmetry_space_group_name_H-M   'P 1'
_cell_length_a   5.57817700
_cell_length_b   9.81660800
_cell_length_c   10.02221537
_cell_angle_alpha   68.60764875
_cell_angle_beta   90.00000000
_cell_angle_gamma   90.00000000
_symmetry_Int_Tables_number   1
_chemical_formula_structural   MnBiO3
_chemical_formula_sum   'Mn8 Bi8 O24'
_cell_volume   510.99412175
_cell_formula_units_Z   8
loop_
 _symmetry_equiv_pos_site_id
 _symmetry_equiv_pos_as_xyz
  1  'x, y, z'
loop_
 _atom_site_type_symbol
 _atom_site_label
 _atom_site_symmetry_multiplicity
 _atom_site_fract_x
 _atom_site_fract_y
 _atom_site_fract_z
 _atom_site_occupancy
  Mn  Mn0  1  0.50000000  0.00000000  0.50000000  1
  Mn  Mn1  1  0.00000000  0.00000000  0.00000000  1
  Mn  Mn2  1  0.50000000  0.50000000  0.00000000  1
  Mn  Mn3  1  0.00000000  0.50000000  0.50000000  1
  Mn  Mn4  1  0.47595800  0.25334600  0.75820700  1
  Mn  Mn5  1  0.97595800  0.74665400  0.74179300  1
  Mn  Mn6  1  0.52404200  0.74665400  0.24179300  1
  Mn  Mn7  1  0.02404200  0.25334600  0.25820700  1
  Bi  Bi8  1  0.02148900  0.37717600  0.85856500  1
  Bi  Bi9  1  0.52148900  0.62282400  0.64143500  1
  Bi  Bi10  1  0.97851100  0.62282400  0.14143500  1
  Bi  Bi11  1  0.47851100  0.37717600  0.35856500  1
  Bi  Bi12  1  0.46898000  0.11256000  0.12415600  1
  Bi  Bi13  1  0.96898000  0.88744000  0.37584400  1
  Bi  Bi14  1  0.53102000  0.88744000  0.87584400  1
  Bi  Bi15  1  0.03102000  0.11256000  0.62415600  1
  O  O16  1  0.56100100  0.66457800  0.05817400  1
  O  O17  1  0.06100100  0.33542200  0.44182600  1
  O  O18  1  0.43899900  0.33542200  0.94182600  1
  O  O19  1  0.93899900  0.66457800  0.55817400  1
  O  O20  1  0.56394100  0.86830200  0.39146300  1
  O  O21  1  0.06394100  0.13169800  0.10853700  1
  O  O22  1  0.43605900  0.13169800  0.60853700  1
  O  O23  1  0.93605900  0.86830200  0.89146300  1
  O  O24  1  0.67297700  0.85546000  0.66418300  1
  O  O25  1  0.17297700  0.14454000  0.83581700  1
  O  O26  1  0.32702300  0.14454000  0.33581700  1
  O  O27  1  0.82702300  0.85546000  0.16418300  1
  O  O28  1  0.16899600  0.89856000  0.60376200  1
  O  O29  1  0.66899600  0.10144000  0.89623800  1
  O  O30  1  0.83100400  0.10144000  0.39623800  1
  O  O31  1  0.33100400  0.89856000  0.10376200  1
  O  O32  1  0.23664600  0.60961000  0.82754200  1
  O  O33  1  0.73664600  0.39039000  0.67245800  1
  O  O34  1  0.76335400  0.39039000  0.17245800  1
  O  O35  1  0.26335400  0.60961000  0.32754200  1
  O  O36  1  0.25314200  0.42056100  0.15902600  1
  O  O37  1  0.75314200  0.57943900  0.34097400  1
  O  O38  1  0.74685800  0.57943900  0.84097400  1
  O  O39  1  0.24685800  0.42056100  0.65902600  1
