# generated using pymatgen
data_Mo2C4O9
_symmetry_space_group_name_H-M   'P 1'
_cell_length_a   8.32331062
_cell_length_b   7.53111671
_cell_length_c   11.97780017
_cell_angle_alpha   109.68047794
_cell_angle_beta   117.59474171
_cell_angle_gamma   83.04929496
_symmetry_Int_Tables_number   1
_chemical_formula_structural   Mo2C4O9
_chemical_formula_sum   'Mo4 C8 O18'
_cell_volume   625.98596143
_cell_formula_units_Z   2
loop_
 _symmetry_equiv_pos_site_id
 _symmetry_equiv_pos_as_xyz
  1  'x, y, z'
loop_
 _atom_site_type_symbol
 _atom_site_label
 _atom_site_symmetry_multiplicity
 _atom_site_fract_x
 _atom_site_fract_y
 _atom_site_fract_z
 _atom_site_occupancy
  Mo  Mo0  1  0.02741100  0.69390700  0.50841900  1
  Mo  Mo1  1  0.97258900  0.30609300  0.49158100  1
  Mo  Mo2  1  0.60875000  0.67964100  0.11304500  1
  Mo  Mo3  1  0.39125000  0.32035900  0.88695500  1
  C  C4  1  0.28342500  0.87834700  0.38869400  1
  C  C5  1  0.71657500  0.12165300  0.61130600  1
  C  C6  1  0.18687300  0.64952600  0.98841200  1
  C  C7  1  0.81312700  0.35047400  0.01158800  1
  C  C8  1  0.57690900  0.67669900  0.77691600  1
  C  C9  1  0.42309100  0.32330100  0.22308400  1
  C  C10  1  0.78420000  0.91320000  0.30389700  1
  C  C11  1  0.21580000  0.08680000  0.69610300  1
  O  O12  1  0.84290700  0.87496600  0.41507500  1
  O  O13  1  0.15709300  0.12503400  0.58492500  1
  O  O14  1  0.32153900  0.75612000  0.07522600  1
  O  O15  1  0.67846100  0.24388000  0.92477400  1
  O  O16  1  0.83951800  0.51213500  0.09447000  1
  O  O17  1  0.16048200  0.48786500  0.90553000  1
  O  O18  1  0.23938600  0.75111600  0.40667300  1
  O  O19  1  0.76061400  0.24888400  0.59332700  1
  O  O20  1  0.67224400  0.99694200  0.63003900  1
  O  O21  1  0.32775600  0.00305800  0.36996100  1
  O  O22  1  0.67877400  0.79525800  0.86837100  1
  O  O23  1  0.32122600  0.20474200  0.13162900  1
  O  O24  1  0.52603700  0.44288800  0.31368600  1
  O  O25  1  0.47396300  0.55711200  0.68631400  1
  O  O26  1  0.17910300  0.91907100  0.68724700  1
  O  O27  1  0.82089700  0.08092900  0.31275300  1
  O  O28  1  0.90404600  0.55566100  0.56653500  1
  O  O29  1  0.09595400  0.44433900  0.43346500  1
