# generated using pymatgen
data_Te2MoWSeS
_symmetry_space_group_name_H-M   'P 1'
_cell_length_a   3.39761037
_cell_length_b   3.39761037
_cell_length_c   38.71278500
_cell_angle_alpha   90.00000000
_cell_angle_beta   90.00000000
_cell_angle_gamma   120.00000722
_symmetry_Int_Tables_number   1
_chemical_formula_structural   Te2MoWSeS
_chemical_formula_sum   'Te4 Mo2 W2 Se2 S2'
_cell_volume   387.01888990
_cell_formula_units_Z   2
loop_
 _symmetry_equiv_pos_site_id
 _symmetry_equiv_pos_as_xyz
  1  'x, y, z'
loop_
 _atom_site_type_symbol
 _atom_site_label
 _atom_site_symmetry_multiplicity
 _atom_site_fract_x
 _atom_site_fract_y
 _atom_site_fract_z
 _atom_site_occupancy
  Te  Te0  1  0.00000000  0.00000000  0.70619300  1
  Te  Te1  1  0.33333300  0.66666700  0.04552600  1
  Te  Te2  1  0.33333300  0.66666700  0.14233500  1
  Te  Te3  1  0.00000000  0.00000000  0.60887400  1
  Mo  Mo4  1  0.00000000  0.00000000  0.09390200  1
  Mo  Mo5  1  0.00000000  0.00000000  0.46965000  1
  W  W6  1  0.33333300  0.66666700  0.28179300  1
  W  W7  1  0.33333300  0.66666700  0.65757800  1
  Se  Se8  1  0.33333300  0.66666700  0.42704800  1
  Se  Se9  1  0.33333300  0.66666700  0.51225200  1
  S  S10  1  0.00000000  0.00000000  0.32069900  1
  S  S11  1  0.00000000  0.00000000  0.24289900  1
