# generated using pymatgen
data_Te6Mo3WS2
_symmetry_space_group_name_H-M   'P 1'
_cell_length_a   3.45186407
_cell_length_b   3.45186407
_cell_length_c   39.27338100
_cell_angle_alpha   90.00000000
_cell_angle_beta   90.00000000
_cell_angle_gamma   120.00000142
_symmetry_Int_Tables_number   1
_chemical_formula_structural   Te6Mo3WS2
_chemical_formula_sum   'Te6 Mo3 W1 S2'
_cell_volume   405.26237771
_cell_formula_units_Z   1
loop_
 _symmetry_equiv_pos_site_id
 _symmetry_equiv_pos_as_xyz
  1  'x, y, z'
loop_
 _atom_site_type_symbol
 _atom_site_label
 _atom_site_symmetry_multiplicity
 _atom_site_fract_x
 _atom_site_fract_y
 _atom_site_fract_z
 _atom_site_occupancy
  Te  Te0  1  0.33333300  0.66666700  0.32893800  1
  Te  Te1  1  0.33333300  0.66666700  0.70481800  1
  Te  Te2  1  0.66666700  0.33333300  0.04680500  1
  Te  Te3  1  0.66666700  0.33333300  0.14092400  1
  Te  Te4  1  0.33333300  0.66666700  0.23481400  1
  Te  Te5  1  0.33333300  0.66666700  0.61016600  1
  Mo  Mo6  1  0.33333300  0.66666700  0.09385000  1
  Mo  Mo7  1  0.33333300  0.66666700  0.46965000  1
  Mo  Mo8  1  0.66666700  0.33333300  0.28186800  1
  W  W9  1  0.66666700  0.33333300  0.65752500  1
  S  S10  1  0.66666700  0.33333300  0.43173000  1
  S  S11  1  0.66666700  0.33333300  0.50766000  1
