# generated using pymatgen
data_Ba4B10Cl2O19
_symmetry_space_group_name_H-M   'P 1'
_cell_length_a   6.76387600
_cell_length_b   11.75117600
_cell_length_c   11.88097500
_cell_angle_alpha   90.00000000
_cell_angle_beta   90.00000000
_cell_angle_gamma   90.00000000
_symmetry_Int_Tables_number   1
_chemical_formula_structural   Ba4B10Cl2O19
_chemical_formula_sum   'Ba8 B20 Cl4 O38'
_cell_volume   944.34144455
_cell_formula_units_Z   2
loop_
 _symmetry_equiv_pos_site_id
 _symmetry_equiv_pos_as_xyz
  1  'x, y, z'
loop_
 _atom_site_type_symbol
 _atom_site_label
 _atom_site_symmetry_multiplicity
 _atom_site_fract_x
 _atom_site_fract_y
 _atom_site_fract_z
 _atom_site_occupancy
  Ba  Ba0  1  0.38019600  0.72963500  0.97929200  1
  Ba  Ba1  1  0.38019600  0.27036500  0.02070800  1
  Ba  Ba2  1  0.88019600  0.77036500  0.47929200  1
  Ba  Ba3  1  0.88019600  0.22963500  0.52070800  1
  Ba  Ba4  1  0.03264500  0.54058600  0.73978400  1
  Ba  Ba5  1  0.03264500  0.45941400  0.26021600  1
  Ba  Ba6  1  0.53264500  0.95941400  0.23978400  1
  Ba  Ba7  1  0.53264500  0.04058600  0.76021600  1
  B  B8  1  0.84787100  0.76983400  0.04389000  1
  B  B9  1  0.84787100  0.23016600  0.95611000  1
  B  B10  1  0.34787100  0.73016600  0.54389000  1
  B  B11  1  0.34787100  0.26983400  0.45611000  1
  B  B12  1  0.51098800  0.48514300  0.74600600  1
  B  B13  1  0.51098800  0.51485700  0.25399400  1
  B  B14  1  0.01098800  0.01485700  0.24600600  1
  B  B15  1  0.01098800  0.98514300  0.75399400  1
  B  B16  1  0.88034100  0.79330800  0.81999800  1
  B  B17  1  0.88034100  0.20669200  0.18000200  1
  B  B18  1  0.38034100  0.70669200  0.31999800  1
  B  B19  1  0.38034100  0.29330800  0.68000200  1
  B  B20  1  0.22604600  0.81067800  0.72986000  1
  B  B21  1  0.22604600  0.18932200  0.27014000  1
  B  B22  1  0.72604600  0.68932200  0.22986000  1
  B  B23  1  0.72604600  0.31067800  0.77014000  1
  B  B24  1  0.55968000  0.71204200  0.71284500  1
  B  B25  1  0.55968000  0.28795800  0.28715500  1
  B  B26  1  0.05968000  0.78795800  0.21284500  1
  B  B27  1  0.05968000  0.21204200  0.78715500  1
  Cl  Cl28  1  0.38331900  0.00000000  0.00000000  1
  Cl  Cl29  1  0.88331900  0.50000000  0.50000000  1
  Cl  Cl30  1  0.14422100  0.50000000  0.00000000  1
  Cl  Cl31  1  0.64422100  0.00000000  0.50000000  1
  O  O32  1  0.50681200  0.50000000  0.00000000  1
  O  O33  1  0.00681200  0.00000000  0.50000000  1
  O  O34  1  0.36110300  0.41846700  0.70252000  1
  O  O35  1  0.36110300  0.58153300  0.29748000  1
  O  O36  1  0.86110300  0.08153300  0.20252000  1
  O  O37  1  0.86110300  0.91846700  0.79748000  1
  O  O38  1  0.03377200  0.78851200  0.08618600  1
  O  O39  1  0.03377200  0.21148800  0.91381400  1
  O  O40  1  0.53377200  0.71148800  0.58618600  1
  O  O41  1  0.53377200  0.28851200  0.41381400  1
  O  O42  1  0.68406700  0.43567200  0.78314600  1
  O  O43  1  0.68406700  0.56432800  0.21685400  1
  O  O44  1  0.18406700  0.06432800  0.28314600  1
  O  O45  1  0.18406700  0.93567200  0.71685400  1
  O  O46  1  0.09241000  0.76088600  0.81517600  1
  O  O47  1  0.09241000  0.23911400  0.18482400  1
  O  O48  1  0.59241000  0.73911400  0.31517600  1
  O  O49  1  0.59241000  0.26088600  0.68482400  1
  O  O50  1  0.69293200  0.74868400  0.11969600  1
  O  O51  1  0.69293200  0.25131600  0.88030400  1
  O  O52  1  0.19293200  0.75131600  0.61969600  1
  O  O53  1  0.19293200  0.24868400  0.38030400  1
  O  O54  1  0.47411200  0.60028400  0.75839100  1
  O  O55  1  0.47411200  0.39971600  0.24160900  1
  O  O56  1  0.97411200  0.89971600  0.25839100  1
  O  O57  1  0.97411200  0.10028400  0.74160900  1
  O  O58  1  0.77060400  0.72596200  0.73402400  1
  O  O59  1  0.77060400  0.27403800  0.26597600  1
  O  O60  1  0.27060400  0.77403800  0.23402400  1
  O  O61  1  0.27060400  0.22596200  0.76597600  1
  O  O62  1  0.79405800  0.76918800  0.93274300  1
  O  O63  1  0.79405800  0.23081200  0.06725700  1
  O  O64  1  0.29405800  0.73081200  0.43274300  1
  O  O65  1  0.29405800  0.26918800  0.56725700  1
  O  O66  1  0.43574800  0.80240000  0.76272700  1
  O  O67  1  0.43574800  0.19760000  0.23727300  1
  O  O68  1  0.93574800  0.69760000  0.26272700  1
  O  O69  1  0.93574800  0.30240000  0.73727300  1
