# generated using pymatgen
data_GeC4(BrF5)2
_symmetry_space_group_name_H-M   'P 1'
_cell_length_a   9.00151500
_cell_length_b   9.00151500
_cell_length_c   15.46632700
_cell_angle_alpha   90.00000000
_cell_angle_beta   90.00000000
_cell_angle_gamma   90.00000000
_symmetry_Int_Tables_number   1
_chemical_formula_structural   GeC4(BrF5)2
_chemical_formula_sum   'Ge4 C16 Br8 F40'
_cell_volume   1253.19428924
_cell_formula_units_Z   4
loop_
 _symmetry_equiv_pos_site_id
 _symmetry_equiv_pos_as_xyz
  1  'x, y, z'
loop_
 _atom_site_type_symbol
 _atom_site_label
 _atom_site_symmetry_multiplicity
 _atom_site_fract_x
 _atom_site_fract_y
 _atom_site_fract_z
 _atom_site_occupancy
  Ge  Ge0  1  0.10994200  0.89005800  0.75000000  1
  Ge  Ge1  1  0.89005800  0.10994200  0.25000000  1
  Ge  Ge2  1  0.39005800  0.39005800  0.00000000  1
  Ge  Ge3  1  0.60994200  0.60994200  0.50000000  1
  C  C4  1  0.09143300  0.03847300  0.64847700  1
  C  C5  1  0.90856700  0.96152700  0.14847700  1
  C  C6  1  0.53847300  0.40856700  0.89847700  1
  C  C7  1  0.46152700  0.59143300  0.39847700  1
  C  C8  1  0.96152700  0.90856700  0.85152300  1
  C  C9  1  0.03847300  0.09143300  0.35152300  1
  C  C10  1  0.40856700  0.53847300  0.10152300  1
  C  C11  1  0.59143300  0.46152700  0.60152300  1
  C  C12  1  0.09708500  0.20646700  0.67097200  1
  C  C13  1  0.90291500  0.79353300  0.17097200  1
  C  C14  1  0.70646700  0.40291500  0.92097200  1
  C  C15  1  0.29353300  0.59708500  0.42097200  1
  C  C16  1  0.79353300  0.90291500  0.82902800  1
  C  C17  1  0.20646700  0.09708500  0.32902800  1
  C  C18  1  0.40291500  0.70646700  0.07902800  1
  C  C19  1  0.59708500  0.29353300  0.57902800  1
  Br  Br20  1  0.08663500  0.66002300  0.68727800  1
  Br  Br21  1  0.91336500  0.33997700  0.18727800  1
  Br  Br22  1  0.16002300  0.41336500  0.93727800  1
  Br  Br23  1  0.83997700  0.58663500  0.43727800  1
  Br  Br24  1  0.33997700  0.91336500  0.81272200  1
  Br  Br25  1  0.66002300  0.08663500  0.31272200  1
  Br  Br26  1  0.41336500  0.16002300  0.06272200  1
  Br  Br27  1  0.58663500  0.83997700  0.56272200  1
  F  F28  1  0.20412900  0.00977400  0.59131300  1
  F  F29  1  0.79587100  0.99022600  0.09131300  1
  F  F30  1  0.50977400  0.29587100  0.84131300  1
  F  F31  1  0.49022600  0.70412900  0.34131300  1
  F  F32  1  0.99022600  0.79587100  0.90868700  1
  F  F33  1  0.00977400  0.20412900  0.40868700  1
  F  F34  1  0.29587100  0.50977400  0.15868700  1
  F  F35  1  0.70412900  0.49022600  0.65868700  1
  F  F36  1  0.95900700  0.01078200  0.60770700  1
  F  F37  1  0.04099300  0.98921800  0.10770700  1
  F  F38  1  0.51078200  0.54099300  0.85770700  1
  F  F39  1  0.48921800  0.45900700  0.35770700  1
  F  F40  1  0.98921800  0.04099300  0.89229300  1
  F  F41  1  0.01078200  0.95900700  0.39229300  1
  F  F42  1  0.54099300  0.51078200  0.14229300  1
  F  F43  1  0.45900700  0.48921800  0.64229300  1
  F  F44  1  0.07939500  0.29091000  0.59940100  1
  F  F45  1  0.92060500  0.70909000  0.09940100  1
  F  F46  1  0.79091000  0.42060500  0.84940100  1
  F  F47  1  0.20909000  0.57939500  0.34940100  1
  F  F48  1  0.70909000  0.92060500  0.90059900  1
  F  F49  1  0.29091000  0.07939500  0.40059900  1
  F  F50  1  0.42060500  0.79091000  0.15059900  1
  F  F51  1  0.57939500  0.20909000  0.65059900  1
  F  F52  1  0.98685100  0.24007300  0.72744300  1
  F  F53  1  0.01314900  0.75992700  0.22744300  1
  F  F54  1  0.74007300  0.51314900  0.97744300  1
  F  F55  1  0.25992700  0.48685100  0.47744300  1
  F  F56  1  0.75992700  0.01314900  0.77255700  1
  F  F57  1  0.24007300  0.98685100  0.27255700  1
  F  F58  1  0.51314900  0.74007300  0.02255700  1
  F  F59  1  0.48685100  0.25992700  0.52255700  1
  F  F60  1  0.22905700  0.24102700  0.70761400  1
  F  F61  1  0.77094300  0.75897300  0.20761400  1
  F  F62  1  0.74102700  0.27094300  0.95761400  1
  F  F63  1  0.25897300  0.72905700  0.45761400  1
  F  F64  1  0.75897300  0.77094300  0.79238600  1
  F  F65  1  0.24102700  0.22905700  0.29238600  1
  F  F66  1  0.27094300  0.74102700  0.04238600  1
  F  F67  1  0.72905700  0.25897300  0.54238600  1
