# generated using pymatgen
data_Bi4Ir
_symmetry_space_group_name_H-M   'P 1'
_cell_length_a   15.58460243
_cell_length_b   15.58460243
_cell_length_c   15.58460191
_cell_angle_alpha   117.57306512
_cell_angle_beta   117.57306512
_cell_angle_gamma   117.57306612
_symmetry_Int_Tables_number   1
_chemical_formula_structural   Bi4Ir
_chemical_formula_sum   'Bi36 Ir9'
_cell_volume   1508.75346386
_cell_formula_units_Z   9
loop_
 _symmetry_equiv_pos_site_id
 _symmetry_equiv_pos_as_xyz
  1  'x, y, z'
loop_
 _atom_site_type_symbol
 _atom_site_label
 _atom_site_symmetry_multiplicity
 _atom_site_fract_x
 _atom_site_fract_y
 _atom_site_fract_z
 _atom_site_occupancy
  Bi  Bi0  1  0.75099400  0.63306700  0.04941300  1
  Bi  Bi1  1  0.04941300  0.75099400  0.63306700  1
  Bi  Bi2  1  0.63306700  0.04941300  0.75099400  1
  Bi  Bi3  1  0.04941300  0.63306700  0.75099400  1
  Bi  Bi4  1  0.75099400  0.04941300  0.63306700  1
  Bi  Bi5  1  0.63306700  0.75099400  0.04941300  1
  Bi  Bi6  1  0.24900600  0.36693300  0.95058700  1
  Bi  Bi7  1  0.95058700  0.24900600  0.36693300  1
  Bi  Bi8  1  0.36693300  0.95058700  0.24900600  1
  Bi  Bi9  1  0.95058700  0.36693300  0.24900600  1
  Bi  Bi10  1  0.24900600  0.95058700  0.36693300  1
  Bi  Bi11  1  0.36693300  0.24900600  0.95058700  1
  Bi  Bi12  1  0.81858300  0.69356600  0.32956500  1
  Bi  Bi13  1  0.32956500  0.81858300  0.69356600  1
  Bi  Bi14  1  0.69356600  0.32956500  0.81858300  1
  Bi  Bi15  1  0.32956500  0.69356600  0.81858300  1
  Bi  Bi16  1  0.81858300  0.32956500  0.69356600  1
  Bi  Bi17  1  0.69356600  0.81858300  0.32956500  1
  Bi  Bi18  1  0.18141700  0.30643400  0.67043500  1
  Bi  Bi19  1  0.67043500  0.18141700  0.30643400  1
  Bi  Bi20  1  0.30643400  0.67043500  0.18141700  1
  Bi  Bi21  1  0.67043500  0.30643400  0.18141700  1
  Bi  Bi22  1  0.18141700  0.67043500  0.30643400  1
  Bi  Bi23  1  0.30643400  0.18141700  0.67043500  1
  Bi  Bi24  1  0.38101700  0.20143800  0.38101700  1
  Bi  Bi25  1  0.38101700  0.38101700  0.20143800  1
  Bi  Bi26  1  0.20143800  0.38101700  0.38101700  1
  Bi  Bi27  1  0.61898300  0.79856200  0.61898300  1
  Bi  Bi28  1  0.61898300  0.61898300  0.79856200  1
  Bi  Bi29  1  0.79856200  0.61898300  0.61898300  1
  Bi  Bi30  1  0.16785800  0.42833800  0.16785800  1
  Bi  Bi31  1  0.16785800  0.16785800  0.42833800  1
  Bi  Bi32  1  0.42833800  0.16785800  0.16785800  1
  Bi  Bi33  1  0.83214200  0.57166200  0.83214200  1
  Bi  Bi34  1  0.83214200  0.83214200  0.57166200  1
  Bi  Bi35  1  0.57166200  0.83214200  0.83214200  1
  Ir  Ir36  1  0.33078300  0.66921700  0.50000000  1
  Ir  Ir37  1  0.50000000  0.33078300  0.66921700  1
  Ir  Ir38  1  0.66921700  0.50000000  0.33078300  1
  Ir  Ir39  1  0.50000000  0.66921700  0.33078300  1
  Ir  Ir40  1  0.33078300  0.50000000  0.66921700  1
  Ir  Ir41  1  0.66921700  0.33078300  0.50000000  1
  Ir  Ir42  1  0.50000000  0.50000000  0.00000000  1
  Ir  Ir43  1  0.00000000  0.50000000  0.50000000  1
  Ir  Ir44  1  0.50000000  0.00000000  0.50000000  1
