# generated using pymatgen
data_Mn2ZnP2H2O9
_symmetry_space_group_name_H-M   'P 1'
_cell_length_a   8.36301414
_cell_length_b   9.22222992
_cell_length_c   10.33577300
_cell_angle_alpha   90.00000000
_cell_angle_beta   90.00000000
_cell_angle_gamma   114.43624072
_symmetry_Int_Tables_number   1
_chemical_formula_structural   Mn2ZnP2H2O9
_chemical_formula_sum   'Mn8 Zn4 P8 H8 O36'
_cell_volume   725.74586403
_cell_formula_units_Z   4
loop_
 _symmetry_equiv_pos_site_id
 _symmetry_equiv_pos_as_xyz
  1  'x, y, z'
loop_
 _atom_site_type_symbol
 _atom_site_label
 _atom_site_symmetry_multiplicity
 _atom_site_fract_x
 _atom_site_fract_y
 _atom_site_fract_z
 _atom_site_occupancy
  Mn  Mn0  1  0.38358800  0.96629900  0.14122400  1
  Mn  Mn1  1  0.88358800  0.46629900  0.35877600  1
  Mn  Mn2  1  0.61641200  0.03370100  0.85877600  1
  Mn  Mn3  1  0.11641200  0.53370100  0.64122400  1
  Mn  Mn4  1  0.97931500  0.72003700  0.11671300  1
  Mn  Mn5  1  0.47931500  0.22003700  0.38328700  1
  Mn  Mn6  1  0.02068500  0.27996300  0.88328700  1
  Mn  Mn7  1  0.52068500  0.77996300  0.61671300  1
  Zn  Zn8  1  0.62524700  0.56247200  0.87984600  1
  Zn  Zn9  1  0.12524700  0.06247200  0.62015400  1
  Zn  Zn10  1  0.37475300  0.43752800  0.12015400  1
  Zn  Zn11  1  0.87475300  0.93752800  0.37984600  1
  P  P12  1  0.20375100  0.82803900  0.41582900  1
  P  P13  1  0.70375100  0.32803900  0.08417100  1
  P  P14  1  0.79624900  0.17196100  0.58417100  1
  P  P15  1  0.29624900  0.67196100  0.91582900  1
  P  P16  1  0.88447600  0.86415700  0.82470100  1
  P  P17  1  0.38447600  0.36415700  0.67529900  1
  P  P18  1  0.11552400  0.13584300  0.17529900  1
  P  P19  1  0.61552400  0.63584300  0.32470100  1
  H  H20  1  0.27751200  0.99158500  0.87551100  1
  H  H21  1  0.77751200  0.49158500  0.62448900  1
  H  H22  1  0.72248800  0.00841500  0.12448900  1
  H  H23  1  0.22248800  0.50841500  0.37551100  1
  H  H24  1  0.37704800  0.17394800  0.90157800  1
  H  H25  1  0.87704800  0.67394800  0.59842200  1
  H  H26  1  0.62295200  0.82605200  0.09842200  1
  H  H27  1  0.12295200  0.32605200  0.40157800  1
  O  O28  1  0.08207700  0.90815200  0.46773500  1
  O  O29  1  0.58207700  0.40815200  0.03226500  1
  O  O30  1  0.91792300  0.09184800  0.53226500  1
  O  O31  1  0.41792300  0.59184800  0.96773500  1
  O  O32  1  0.36765900  0.95712700  0.34982400  1
  O  O33  1  0.86765900  0.45712700  0.15017600  1
  O  O34  1  0.63234100  0.04287300  0.65017600  1
  O  O35  1  0.13234100  0.54287300  0.84982400  1
  O  O36  1  0.09295600  0.70032200  0.31618000  1
  O  O37  1  0.59295600  0.20032200  0.18382000  1
  O  O38  1  0.90704400  0.29967800  0.68382000  1
  O  O39  1  0.40704400  0.79967800  0.81618000  1
  O  O40  1  0.26254600  0.75324700  0.53061100  1
  O  O41  1  0.76254600  0.25324700  0.96938900  1
  O  O42  1  0.73745400  0.24675300  0.46938900  1
  O  O43  1  0.23745400  0.74675300  0.03061100  1
  O  O44  1  0.73716500  0.76692700  0.72716600  1
  O  O45  1  0.23716500  0.26692700  0.77283400  1
  O  O46  1  0.26283500  0.23307300  0.27283400  1
  O  O47  1  0.76283500  0.73307300  0.22716600  1
  O  O48  1  0.86392500  0.01648900  0.86847900  1
  O  O49  1  0.36392500  0.51648900  0.63152100  1
  O  O50  1  0.13607500  0.98351100  0.13152100  1
  O  O51  1  0.63607500  0.48351100  0.36847900  1
  O  O52  1  0.07039700  0.91146100  0.76676600  1
  O  O53  1  0.57039700  0.41146100  0.73323400  1
  O  O54  1  0.92960300  0.08853900  0.23323400  1
  O  O55  1  0.42960300  0.58853900  0.26676600  1
  O  O56  1  0.85375800  0.74337300  0.93955600  1
  O  O57  1  0.35375800  0.24337300  0.56044400  1
  O  O58  1  0.14624200  0.25662700  0.06044400  1
  O  O59  1  0.64624200  0.75662700  0.43955600  1
  O  O60  1  0.38493000  0.07197100  0.91643400  1
  O  O61  1  0.88493000  0.57197100  0.58356600  1
  O  O62  1  0.61507000  0.92802900  0.08356600  1
  O  O63  1  0.11507000  0.42802900  0.41643400  1
