# generated using pymatgen
data_NaNb2H7O9
_symmetry_space_group_name_H-M   'P 1'
_cell_length_a   6.48859200
_cell_length_b   10.13773900
_cell_length_c   12.88467762
_cell_angle_alpha   79.95698236
_cell_angle_beta   90.00000000
_cell_angle_gamma   90.00000000
_symmetry_Int_Tables_number   1
_chemical_formula_structural   NaNb2H7O9
_chemical_formula_sum   'Na4 Nb8 H28 O36'
_cell_volume   834.56269470
_cell_formula_units_Z   4
loop_
 _symmetry_equiv_pos_site_id
 _symmetry_equiv_pos_as_xyz
  1  'x, y, z'
loop_
 _atom_site_type_symbol
 _atom_site_label
 _atom_site_symmetry_multiplicity
 _atom_site_fract_x
 _atom_site_fract_y
 _atom_site_fract_z
 _atom_site_occupancy
  Na  Na0  1  0.25093700  0.46796700  0.34076300  1
  Na  Na1  1  0.75093700  0.53203300  0.15923700  1
  Na  Na2  1  0.74906300  0.53203300  0.65923700  1
  Na  Na3  1  0.24906300  0.46796700  0.84076300  1
  Nb  Nb4  1  0.28000900  0.83270700  0.40525000  1
  Nb  Nb5  1  0.78000900  0.16729300  0.09475000  1
  Nb  Nb6  1  0.71999100  0.16729300  0.59475000  1
  Nb  Nb7  1  0.21999100  0.83270700  0.90525000  1
  Nb  Nb8  1  0.18190100  0.99975500  0.60803700  1
  Nb  Nb9  1  0.68190100  0.00024500  0.89196300  1
  Nb  Nb10  1  0.81809900  0.00024500  0.39196300  1
  Nb  Nb11  1  0.31809900  0.99975500  0.10803700  1
  H  H12  1  0.78809800  0.87180300  0.61182900  1
  H  H13  1  0.28809800  0.12819700  0.88817100  1
  H  H14  1  0.21190200  0.12819700  0.38817100  1
  H  H15  1  0.71190200  0.87180300  0.11182900  1
  H  H16  1  0.50768300  0.22387700  0.36343700  1
  H  H17  1  0.00768300  0.77612300  0.13656300  1
  H  H18  1  0.49231700  0.77612300  0.63656300  1
  H  H19  1  0.99231700  0.22387700  0.86343700  1
  H  H20  1  0.41259100  0.22361300  0.25124200  1
  H  H21  1  0.91259100  0.77638700  0.24875800  1
  H  H22  1  0.58740900  0.77638700  0.74875800  1
  H  H23  1  0.08740900  0.22361300  0.75124200  1
  H  H24  1  0.38383400  0.38090600  0.55713800  1
  H  H25  1  0.88383400  0.61909400  0.94286200  1
  H  H26  1  0.61616600  0.61909400  0.44286200  1
  H  H27  1  0.11616600  0.38090600  0.05713800  1
  H  H28  1  0.16358400  0.31434300  0.55915000  1
  H  H29  1  0.66358400  0.68565700  0.94085000  1
  H  H30  1  0.83641600  0.68565700  0.44085000  1
  H  H31  1  0.33641600  0.31434300  0.05915000  1
  H  H32  1  0.33952100  0.65244600  0.13530800  1
  H  H33  1  0.83952100  0.34755400  0.36469200  1
  H  H34  1  0.66047900  0.34755400  0.86469200  1
  H  H35  1  0.16047900  0.65244600  0.63530800  1
  H  H36  1  0.33843800  0.50335500  0.11538800  1
  H  H37  1  0.83843800  0.49664500  0.38461200  1
  H  H38  1  0.66156200  0.49664500  0.88461200  1
  H  H39  1  0.16156200  0.50335500  0.61538800  1
  O  O40  1  0.25309000  0.82451500  0.56032900  1
  O  O41  1  0.75309000  0.17548500  0.93967100  1
  O  O42  1  0.74691000  0.17548500  0.43967100  1
  O  O43  1  0.24691000  0.82451500  0.06032900  1
  O  O44  1  0.02568500  0.17123300  0.61795300  1
  O  O45  1  0.52568500  0.82876700  0.88204700  1
  O  O46  1  0.97431500  0.82876700  0.38204700  1
  O  O47  1  0.47431500  0.17123300  0.11795300  1
  O  O48  1  0.19161900  0.92672300  0.74980500  1
  O  O49  1  0.69161900  0.07327700  0.75019500  1
  O  O50  1  0.80838100  0.07327700  0.25019500  1
  O  O51  1  0.30838100  0.92672300  0.24980500  1
  O  O52  1  0.43866700  0.08287300  0.58533300  1
  O  O53  1  0.93866700  0.91712700  0.91466700  1
  O  O54  1  0.56133300  0.91712700  0.41466700  1
  O  O55  1  0.06133300  0.08287300  0.08533300  1
  O  O56  1  0.35836800  0.66518100  0.39668800  1
  O  O57  1  0.85836800  0.33481900  0.10331200  1
  O  O58  1  0.64163200  0.33481900  0.60331200  1
  O  O59  1  0.14163200  0.66518100  0.89668800  1
  O  O60  1  0.86265300  0.95005500  0.57065500  1
  O  O61  1  0.36265300  0.04994500  0.92934500  1
  O  O62  1  0.13734700  0.04994500  0.42934500  1
  O  O63  1  0.63734700  0.95005500  0.07065500  1
  O  O64  1  0.38213100  0.24915300  0.32049400  1
  O  O65  1  0.88213100  0.75084700  0.17950600  1
  O  O66  1  0.61786900  0.75084700  0.67950600  1
  O  O67  1  0.11786900  0.24915300  0.82049400  1
  O  O68  1  0.23977700  0.39938900  0.53340000  1
  O  O69  1  0.73977700  0.60061100  0.96660000  1
  O  O70  1  0.76022300  0.60061100  0.46660000  1
  O  O71  1  0.26022300  0.39938900  0.03340000  1
  O  O72  1  0.38193900  0.56097300  0.16755400  1
  O  O73  1  0.88193900  0.43902700  0.33244600  1
  O  O74  1  0.61806100  0.43902700  0.83244600  1
  O  O75  1  0.11806100  0.56097300  0.66755400  1
