# generated using pymatgen
data_CaH12C2N7ClO6
_symmetry_space_group_name_H-M   'P 1'
_cell_length_a   8.61212900
_cell_length_b   11.63685900
_cell_length_c   14.48087769
_cell_angle_alpha   90.00000000
_cell_angle_beta   118.57267938
_cell_angle_gamma   90.00000000
_symmetry_Int_Tables_number   1
_chemical_formula_structural   CaH12C2N7ClO6
_chemical_formula_sum   'Ca4 H48 C8 N28 Cl4 O24'
_cell_volume   1274.50082864
_cell_formula_units_Z   4
loop_
 _symmetry_equiv_pos_site_id
 _symmetry_equiv_pos_as_xyz
  1  'x, y, z'
loop_
 _atom_site_type_symbol
 _atom_site_label
 _atom_site_symmetry_multiplicity
 _atom_site_fract_x
 _atom_site_fract_y
 _atom_site_fract_z
 _atom_site_occupancy
  Ca  Ca0  1  0.86997300  0.14436700  0.95393200  1
  Ca  Ca1  1  0.86997300  0.35563300  0.45393200  1
  Ca  Ca2  1  0.13002700  0.85563300  0.04606800  1
  Ca  Ca3  1  0.13002700  0.64436700  0.54606800  1
  H  H4  1  0.90014100  0.66412100  0.06558600  1
  H  H5  1  0.90014100  0.83587900  0.56558600  1
  H  H6  1  0.09985900  0.33587900  0.93441400  1
  H  H7  1  0.09985900  0.16412100  0.43441400  1
  H  H8  1  0.88368900  0.65078400  0.94740000  1
  H  H9  1  0.88368900  0.84921600  0.44740000  1
  H  H10  1  0.11631100  0.34921600  0.05260000  1
  H  H11  1  0.11631100  0.15078400  0.55260000  1
  H  H12  1  0.60166500  0.71164100  0.93043500  1
  H  H13  1  0.60166500  0.78835900  0.43043500  1
  H  H14  1  0.39833500  0.28835900  0.06956500  1
  H  H15  1  0.39833500  0.21164100  0.56956500  1
  H  H16  1  0.51459900  0.00743000  0.88645500  1
  H  H17  1  0.51459900  0.49257000  0.38645500  1
  H  H18  1  0.48540100  0.99257000  0.11354500  1
  H  H19  1  0.48540100  0.50743000  0.61354500  1
  H  H20  1  0.42751100  0.86806900  0.86138100  1
  H  H21  1  0.42751100  0.63193100  0.36138100  1
  H  H22  1  0.57248900  0.13193100  0.13861900  1
  H  H23  1  0.57248900  0.36806900  0.63861900  1
  H  H24  1  0.78872800  0.39081600  0.01738700  1
  H  H25  1  0.78872800  0.10918400  0.51738700  1
  H  H26  1  0.21127200  0.60918400  0.98261300  1
  H  H27  1  0.21127200  0.89081600  0.48261300  1
  H  H28  1  0.79346200  0.40841300  0.90527600  1
  H  H29  1  0.79346200  0.09158700  0.40527600  1
  H  H30  1  0.20653800  0.59158700  0.09472400  1
  H  H31  1  0.20653800  0.90841300  0.59472400  1
  H  H32  1  0.49486100  0.43118900  0.87573600  1
  H  H33  1  0.49486100  0.06881100  0.37573600  1
  H  H34  1  0.50513900  0.56881100  0.12426400  1
  H  H35  1  0.50513900  0.93118900  0.62426400  1
  H  H36  1  0.22949900  0.18482400  0.77125300  1
  H  H37  1  0.22949900  0.31517600  0.27125300  1
  H  H38  1  0.77050100  0.81517600  0.22874700  1
  H  H39  1  0.77050100  0.68482400  0.72874700  1
  H  H40  1  0.23254800  0.33401600  0.77373100  1
  H  H41  1  0.23254800  0.16598400  0.27373100  1
  H  H42  1  0.76745200  0.66598400  0.22626900  1
  H  H43  1  0.76745200  0.83401600  0.72626900  1
  H  H44  1  0.87282000  0.20900100  0.16239100  1
  H  H45  1  0.87282000  0.29099900  0.66239100  1
  H  H46  1  0.12718000  0.79099900  0.83760900  1
  H  H47  1  0.12718000  0.70900100  0.33760900  1
  H  H48  1  0.92041600  0.07955500  0.17436300  1
  H  H49  1  0.92041600  0.42044500  0.67436300  1
  H  H50  1  0.07958400  0.92044500  0.82563700  1
  H  H51  1  0.07958400  0.57955500  0.32563700  1
  C  C52  1  0.69819200  0.87765300  0.94661500  1
  C  C53  1  0.69819200  0.62234700  0.44661500  1
  C  C54  1  0.30180800  0.12234700  0.05338500  1
  C  C55  1  0.30180800  0.37765300  0.55338500  1
  C  C56  1  0.47409500  0.25406000  0.85807900  1
  C  C57  1  0.47409500  0.24594000  0.35807900  1
  C  C58  1  0.52590500  0.74594000  0.14192100  1
  C  C59  1  0.52590500  0.75406000  0.64192100  1
  N  N60  1  0.87919900  0.70933700  0.99957800  1
  N  N61  1  0.87919900  0.79066300  0.49957800  1
  N  N62  1  0.12080100  0.29066300  0.00042200  1
  N  N63  1  0.12080100  0.20933700  0.50042200  1
  N  N64  1  0.71187600  0.76124400  0.95320300  1
  N  N65  1  0.71187600  0.73875600  0.45320300  1
  N  N66  1  0.28812400  0.23875600  0.04679700  1
  N  N67  1  0.28812400  0.26124400  0.54679700  1
  N  N68  1  0.74741200  0.35545400  0.94417900  1
  N  N69  1  0.74741200  0.14454600  0.44417900  1
  N  N70  1  0.25258800  0.64454600  0.05582100  1
  N  N71  1  0.25258800  0.85545400  0.55582100  1
  N  N72  1  0.56166900  0.35543300  0.88780400  1
  N  N73  1  0.56166900  0.14456700  0.38780400  1
  N  N74  1  0.43833100  0.64456700  0.11219600  1
  N  N75  1  0.43833100  0.85543300  0.61219600  1
  N  N76  1  0.53307000  0.92068000  0.89975900  1
  N  N77  1  0.53307000  0.57932000  0.39975900  1
  N  N78  1  0.46693000  0.07932000  0.10024100  1
  N  N79  1  0.46693000  0.42068000  0.60024100  1
  N  N80  1  0.29494300  0.25898800  0.80680900  1
  N  N81  1  0.29494300  0.24101200  0.30680900  1
  N  N82  1  0.70505700  0.74101200  0.19319100  1
  N  N83  1  0.70505700  0.75898800  0.69319100  1
  N  N84  1  0.71663300  0.11372500  0.72218600  1
  N  N85  1  0.71663300  0.38627500  0.22218600  1
  N  N86  1  0.28336700  0.88627500  0.27781400  1
  N  N87  1  0.28336700  0.61372500  0.77781400  1
  Cl  Cl88  1  0.92792400  0.97774700  0.32441700  1
  Cl  Cl89  1  0.92792400  0.52225300  0.82441700  1
  Cl  Cl90  1  0.07207600  0.02225300  0.67558300  1
  Cl  Cl91  1  0.07207600  0.47774700  0.17558300  1
  O  O92  1  0.83582700  0.94070000  0.98385100  1
  O  O93  1  0.83582700  0.55930000  0.48385100  1
  O  O94  1  0.16417300  0.05930000  0.01614900  1
  O  O95  1  0.16417300  0.44070000  0.51614900  1
  O  O96  1  0.55692500  0.15945900  0.87928900  1
  O  O97  1  0.55692500  0.34054100  0.37928900  1
  O  O98  1  0.44307500  0.84054100  0.12071100  1
  O  O99  1  0.44307500  0.65945900  0.62071100  1
  O  O100  1  0.76456500  0.03034500  0.78616500  1
  O  O101  1  0.76456500  0.46965500  0.28616500  1
  O  O102  1  0.23543500  0.96965500  0.21383500  1
  O  O103  1  0.23543500  0.53034500  0.71383500  1
  O  O104  1  0.77777200  0.21373200  0.75748100  1
  O  O105  1  0.77777200  0.28626800  0.25748100  1
  O  O106  1  0.22222800  0.78626800  0.24251900  1
  O  O107  1  0.22222800  0.71373200  0.74251900  1
  O  O108  1  0.60921200  0.09873900  0.62608000  1
  O  O109  1  0.60921200  0.40126100  0.12608000  1
  O  O110  1  0.39078800  0.90126100  0.37392000  1
  O  O111  1  0.39078800  0.59873900  0.87392000  1
  O  O112  1  0.90987100  0.14742600  0.13107300  1
  O  O113  1  0.90987100  0.35257400  0.63107300  1
  O  O114  1  0.09012900  0.85257400  0.86892700  1
  O  O115  1  0.09012900  0.64742600  0.36892700  1
