# generated using pymatgen
data_Ba3Nb2Se9
_symmetry_space_group_name_H-M   'P 1'
_cell_length_a   7.45770700
_cell_length_b   12.57895800
_cell_length_c   17.85361280
_cell_angle_alpha   90.00000000
_cell_angle_beta   97.40201706
_cell_angle_gamma   90.00000000
_symmetry_Int_Tables_number   1
_chemical_formula_structural   Ba3Nb2Se9
_chemical_formula_sum   'Ba12 Nb8 Se36'
_cell_volume   1660.89353219
_cell_formula_units_Z   4
loop_
 _symmetry_equiv_pos_site_id
 _symmetry_equiv_pos_as_xyz
  1  'x, y, z'
loop_
 _atom_site_type_symbol
 _atom_site_label
 _atom_site_symmetry_multiplicity
 _atom_site_fract_x
 _atom_site_fract_y
 _atom_site_fract_z
 _atom_site_occupancy
  Ba  Ba0  1  0.26239500  0.91102200  0.91528500  1
  Ba  Ba1  1  0.73760500  0.41102200  0.58471500  1
  Ba  Ba2  1  0.73760500  0.08897800  0.08471500  1
  Ba  Ba3  1  0.26239500  0.58897800  0.41528500  1
  Ba  Ba4  1  0.74517300  0.74360700  0.74619900  1
  Ba  Ba5  1  0.25482700  0.24360700  0.75380100  1
  Ba  Ba6  1  0.25482700  0.25639300  0.25380100  1
  Ba  Ba7  1  0.74517300  0.75639300  0.24619900  1
  Ba  Ba8  1  0.74286700  0.43133700  0.91980900  1
  Ba  Ba9  1  0.25713300  0.93133700  0.58019100  1
  Ba  Ba10  1  0.25713300  0.56866300  0.08019100  1
  Ba  Ba11  1  0.74286700  0.06866300  0.41980900  1
  Nb  Nb12  1  0.71372600  0.05561700  0.85089300  1
  Nb  Nb13  1  0.28627400  0.55561700  0.64910700  1
  Nb  Nb14  1  0.28627400  0.94438300  0.14910700  1
  Nb  Nb15  1  0.71372600  0.44438300  0.35089300  1
  Nb  Nb16  1  0.21977000  0.56745700  0.84652400  1
  Nb  Nb17  1  0.78023000  0.06745700  0.65347600  1
  Nb  Nb18  1  0.78023000  0.43254300  0.15347600  1
  Nb  Nb19  1  0.21977000  0.93254300  0.34652400  1
  Se  Se20  1  0.24537700  0.72668900  0.74087100  1
  Se  Se21  1  0.75462300  0.22668900  0.75912900  1
  Se  Se22  1  0.75462300  0.27331100  0.25912900  1
  Se  Se23  1  0.24537700  0.77331100  0.24087100  1
  Se  Se24  1  0.03578300  0.70457800  0.61938300  1
  Se  Se25  1  0.96421700  0.20457800  0.88061700  1
  Se  Se26  1  0.96421700  0.29542200  0.38061700  1
  Se  Se27  1  0.03578300  0.79542200  0.11938300  1
  Se  Se28  1  0.00278600  0.65822400  0.91609100  1
  Se  Se29  1  0.99721400  0.15822400  0.58390900  1
  Se  Se30  1  0.99721400  0.34177600  0.08390900  1
  Se  Se31  1  0.00278600  0.84177600  0.41609100  1
  Se  Se32  1  0.98913300  0.98317700  0.75964500  1
  Se  Se33  1  0.01086700  0.48317700  0.74035500  1
  Se  Se34  1  0.01086700  0.01682300  0.24035500  1
  Se  Se35  1  0.98913300  0.51682300  0.25964500  1
  Se  Se36  1  0.81611100  0.91716500  0.94023800  1
  Se  Se37  1  0.18388900  0.41716500  0.55976200  1
  Se  Se38  1  0.18388900  0.08283500  0.05976200  1
  Se  Se39  1  0.81611100  0.58283500  0.44023800  1
  Se  Se40  1  0.49494200  0.97357300  0.75074600  1
  Se  Se41  1  0.50505800  0.47357300  0.74925400  1
  Se  Se42  1  0.50505800  0.02642700  0.24925400  1
  Se  Se43  1  0.49494200  0.52642700  0.25074600  1
  Se  Se44  1  0.49780200  0.15234900  0.91962700  1
  Se  Se45  1  0.50219800  0.65234900  0.58037300  1
  Se  Se46  1  0.50219800  0.84765100  0.08037300  1
  Se  Se47  1  0.49780200  0.34765100  0.41962700  1
  Se  Se48  1  0.48770700  0.68965200  0.88171800  1
  Se  Se49  1  0.51229300  0.18965200  0.61828200  1
  Se  Se50  1  0.51229300  0.31034800  0.11828200  1
  Se  Se51  1  0.48770700  0.81034800  0.38171800  1
  Se  Se52  1  0.69913800  0.91497700  0.57164100  1
  Se  Se53  1  0.30086200  0.41497700  0.92835900  1
  Se  Se54  1  0.30086200  0.08502300  0.42835900  1
  Se  Se55  1  0.69913800  0.58502300  0.07164100  1
