# generated using pymatgen
data_K2U(Si2O5)3
_symmetry_space_group_name_H-M   'P 1'
_cell_length_a   7.30284300
_cell_length_b   12.22390004
_cell_length_c   17.41857516
_cell_angle_alpha   99.69951420
_cell_angle_beta   90.95854139
_cell_angle_gamma   106.13428148
_symmetry_Int_Tables_number   1
_chemical_formula_structural   K2U(Si2O5)3
_chemical_formula_sum   'K8 U4 Si24 O60'
_cell_volume   1469.02608387
_cell_formula_units_Z   4
loop_
 _symmetry_equiv_pos_site_id
 _symmetry_equiv_pos_as_xyz
  1  'x, y, z'
loop_
 _atom_site_type_symbol
 _atom_site_label
 _atom_site_symmetry_multiplicity
 _atom_site_fract_x
 _atom_site_fract_y
 _atom_site_fract_z
 _atom_site_occupancy
  K  K0  1  0.70133200  0.37573500  0.48128300  1
  K  K1  1  0.29866800  0.62426500  0.51871700  1
  K  K2  1  0.64384500  0.32403000  0.96241000  1
  K  K3  1  0.35615500  0.67597000  0.03759000  1
  K  K4  1  0.61556400  0.20485200  0.75020800  1
  K  K5  1  0.38443600  0.79514800  0.24979200  1
  K  K6  1  0.39449100  0.75973300  0.73985700  1
  K  K7  1  0.60550900  0.24026700  0.26014300  1
  U  U8  1  0.89192600  0.77378900  0.13578100  1
  U  U9  1  0.10807400  0.22621100  0.86421900  1
  U  U10  1  0.87656800  0.73817200  0.61007500  1
  U  U11  1  0.12343200  0.26182800  0.38992500  1
  Si  Si12  1  0.96885100  0.50671300  0.69266600  1
  Si  Si13  1  0.03114900  0.49328700  0.30733400  1
  Si  Si14  1  0.94343400  0.89552200  0.34125400  1
  Si  Si15  1  0.05656600  0.10447800  0.65874600  1
  Si  Si16  1  0.93101700  0.48853600  0.13492100  1
  Si  Si17  1  0.06898300  0.51146400  0.86507900  1
  Si  Si18  1  0.92309600  0.83900300  0.82777000  1
  Si  Si19  1  0.07690400  0.16099700  0.17223000  1
  Si  Si20  1  0.83881400  0.66613800  0.40373900  1
  Si  Si21  1  0.16118600  0.33386200  0.59626100  1
  Si  Si22  1  0.80938100  0.64089700  0.93169700  1
  Si  Si23  1  0.19061900  0.35910300  0.06830300  1
  Si  Si24  1  0.73425400  0.02228800  0.92238200  1
  Si  Si25  1  0.26574600  0.97771200  0.07761800  1
  Si  Si26  1  0.69456000  0.94029600  0.56446800  1
  Si  Si27  1  0.30544000  0.05970400  0.43553200  1
  Si  Si28  1  0.55185100  0.48990900  0.66802800  1
  Si  Si29  1  0.44814900  0.51009100  0.33197200  1
  Si  Si30  1  0.44834400  0.48015800  0.83492300  1
  Si  Si31  1  0.55165600  0.51984200  0.16507700  1
  Si  Si32  1  0.31369000  0.97118000  0.60003100  1
  Si  Si33  1  0.68631000  0.02882000  0.39996900  1
  Si  Si34  1  0.30651800  0.99009200  0.89472400  1
  Si  Si35  1  0.69348200  0.00990800  0.10527600  1
  O  O36  1  0.98879400  0.15066200  0.74243500  1
  O  O37  1  0.01120600  0.84933800  0.25756500  1
  O  O38  1  0.97099700  0.38901700  0.35577900  1
  O  O39  1  0.02900300  0.61098300  0.64422100  1
  O  O40  1  0.97095300  0.37512800  0.86023200  1
  O  O41  1  0.02904700  0.62487200  0.13976800  1
  O  O42  1  0.96573300  0.44064800  0.21505400  1
  O  O43  1  0.03426700  0.55935200  0.78494600  1
  O  O44  1  0.93302600  0.59660500  0.33403000  1
  O  O45  1  0.06697400  0.40339500  0.66597000  1
  O  O46  1  0.92265600  0.80380800  0.40110900  1
  O  O47  1  0.07734400  0.19619200  0.59889100  1
  O  O48  1  0.90385700  0.98282400  0.61427000  1
  O  O49  1  0.09614300  0.01717600  0.38573000  1
  O  O50  1  0.89042100  0.64096600  0.48841600  1
  O  O51  1  0.10957900  0.35903400  0.51158400  1
  O  O52  1  0.86973400  0.95452100  0.87199600  1
  O  O53  1  0.13026600  0.04547900  0.12800400  1
  O  O54  1  0.85076700  0.80433500  0.73649100  1
  O  O55  1  0.14923300  0.19566500  0.26350900  1
  O  O56  1  0.82482500  0.73422900  0.87407400  1
  O  O57  1  0.17517500  0.26577100  0.12592600  1
  O  O58  1  0.81720100  0.15645500  0.91465400  1
  O  O59  1  0.18279900  0.84354500  0.08534600  1
  O  O60  1  0.73916600  0.92830900  0.33481900  1
  O  O61  1  0.26083400  0.07169100  0.66518100  1
  O  O62  1  0.73650800  0.44094300  0.68275400  1
  O  O63  1  0.26349200  0.55905700  0.31724600  1
  O  O64  1  0.71289500  0.99921400  0.48677800  1
  O  O65  1  0.28710500  0.00078600  0.51322200  1
  O  O66  1  0.69893600  0.89217200  0.13372800  1
  O  O67  1  0.30106400  0.10782800  0.86627200  1
  O  O68  1  0.64739700  0.52069800  0.89033000  1
  O  O69  1  0.35260300  0.47930200  0.10967000  1
  O  O70  1  0.64233700  0.80147900  0.55228600  1
  O  O71  1  0.35766300  0.19852100  0.44771400  1
  O  O72  1  0.60668000  0.62442600  0.38101400  1
  O  O73  1  0.39332000  0.37557400  0.61898600  1
  O  O74  1  0.60215900  0.59492800  0.62027700  1
  O  O75  1  0.39784100  0.40507200  0.37972300  1
  O  O76  1  0.54501200  0.99287700  0.62010600  1
  O  O77  1  0.45498800  0.00712300  0.37989400  1
  O  O78  1  0.51459200  0.96243200  0.88220200  1
  O  O79  1  0.48540800  0.03756800  0.11779800  1
  O  O80  1  0.47870300  0.53381200  0.75374900  1
  O  O81  1  0.52129700  0.46618800  0.24625100  1
  O  O82  1  0.37210700  0.34102000  0.81886000  1
  O  O83  1  0.62789300  0.65898000  0.18114000  1
  O  O84  1  0.30325300  0.54468200  0.88367000  1
  O  O85  1  0.69674700  0.45531800  0.11633000  1
  O  O86  1  0.26315000  0.99695000  0.98712700  1
  O  O87  1  0.73685000  0.00305000  0.01287300  1
  O  O88  1  0.24469700  0.31185500  0.98240800  1
  O  O89  1  0.75530300  0.68814500  0.01759200  1
  O  O90  1  0.19102300  0.84225800  0.60758600  1
  O  O91  1  0.80897700  0.15774200  0.39241400  1
  O  O92  1  0.15865500  0.87242900  0.84104700  1
  O  O93  1  0.84134500  0.12757100  0.15895300  1
  O  O94  1  0.00522300  0.59869900  0.93603000  1
  O  O95  1  0.99477700  0.40130100  0.06397000  1
