# generated using pymatgen
data_GeH2(C2F5)2
_symmetry_space_group_name_H-M   'P 1'
_cell_length_a   5.81441000
_cell_length_b   10.19035316
_cell_length_c   10.31564277
_cell_angle_alpha   85.38833829
_cell_angle_beta   73.63084927
_cell_angle_gamma   73.42382095
_symmetry_Int_Tables_number   1
_chemical_formula_structural   GeH2(C2F5)2
_chemical_formula_sum   'Ge2 H4 C8 F20'
_cell_volume   562.06457014
_cell_formula_units_Z   2
loop_
 _symmetry_equiv_pos_site_id
 _symmetry_equiv_pos_as_xyz
  1  'x, y, z'
loop_
 _atom_site_type_symbol
 _atom_site_label
 _atom_site_symmetry_multiplicity
 _atom_site_fract_x
 _atom_site_fract_y
 _atom_site_fract_z
 _atom_site_occupancy
  Ge  Ge0  1  0.75420900  0.50000000  0.50000000  1
  Ge  Ge1  1  0.00420900  0.00000000  0.00000000  1
  H  H2  1  0.81369400  0.53132100  0.62667400  1
  H  H3  1  0.97168800  0.46867900  0.37332600  1
  H  H4  1  0.09501400  0.96867900  0.12667400  1
  H  H5  1  0.19036800  0.03132100  0.87332600  1
  C  C6  1  0.59343700  0.34369600  0.54333200  1
  C  C7  1  0.48046400  0.65630400  0.45666800  1
  C  C8  1  0.68713200  0.15630400  0.04333200  1
  C  C9  1  0.88676800  0.84369600  0.95666800  1
  C  C10  1  0.77785700  0.19899500  0.53485700  1
  C  C11  1  0.51170900  0.80100500  0.46514300  1
  C  C12  1  0.72685200  0.30100500  0.03485700  1
  C  C13  1  0.06271400  0.69899500  0.96514300  1
  F  F14  1  0.44855900  0.34471700  0.45737000  1
  F  F15  1  0.25064600  0.65528300  0.54263000  1
  F  F16  1  0.54327600  0.15528300  0.95737000  1
  F  F17  1  0.65592900  0.84471700  0.04263000  1
  F  F18  1  0.43754800  0.36017700  0.67311700  1
  F  F19  1  0.47084200  0.63982300  0.32688300  1
  F  F20  1  0.54772500  0.13982300  0.17311700  1
  F  F21  1  0.86066500  0.86017700  0.82688300  1
  F  F22  1  0.92292800  0.17153500  0.40616400  1
  F  F23  1  0.50062800  0.82846500  0.59383600  1
  F  F24  1  0.84446300  0.32846500  0.90616400  1
  F  F25  1  0.07909300  0.67153500  0.09383600  1
  F  F26  1  0.92958900  0.19203000  0.61572700  1
  F  F27  1  0.73734600  0.80797000  0.38427300  1
  F  F28  1  0.87161800  0.30797000  0.11572700  1
  F  F29  1  0.29531600  0.69203000  0.88427300  1
  F  F30  1  0.65595500  0.10130700  0.57431900  1
  F  F31  1  0.33158100  0.89869300  0.42568100  1
  F  F32  1  0.50726300  0.39869300  0.07431900  1
  F  F33  1  0.98027400  0.60130700  0.92568100  1
