# generated using pymatgen
data_H42C48Xe(ClO2)3
_symmetry_space_group_name_H-M   'P 1'
_cell_length_a   12.19765300
_cell_length_b   13.12695253
_cell_length_c   16.21908756
_cell_angle_alpha   100.87206360
_cell_angle_beta   104.79691942
_cell_angle_gamma   106.42727877
_symmetry_Int_Tables_number   1
_chemical_formula_structural   H42C48Xe(ClO2)3
_chemical_formula_sum   'H84 C96 Xe2 Cl6 O12'
_cell_volume   2311.12262647
_cell_formula_units_Z   2
loop_
 _symmetry_equiv_pos_site_id
 _symmetry_equiv_pos_as_xyz
  1  'x, y, z'
loop_
 _atom_site_type_symbol
 _atom_site_label
 _atom_site_symmetry_multiplicity
 _atom_site_fract_x
 _atom_site_fract_y
 _atom_site_fract_z
 _atom_site_occupancy
  H  H0  1  0.40374000  0.47446800  0.87730900  1
  H  H1  1  0.59626000  0.52553200  0.12269100  1
  H  H2  1  0.37960700  0.41709800  0.96622000  1
  H  H3  1  0.62039300  0.58290200  0.03378000  1
  H  H4  1  0.53236000  0.47775900  0.71558300  1
  H  H5  1  0.46764000  0.52224100  0.28441700  1
  H  H6  1  0.32846100  0.84719400  0.57754300  1
  H  H7  1  0.67153900  0.15280600  0.42245700  1
  H  H8  1  0.64602500  0.96411000  0.99031700  1
  H  H9  1  0.35397500  0.03589000  0.00968300  1
  H  H10  1  0.19040100  0.35354100  0.78087900  1
  H  H11  1  0.80959900  0.64645900  0.21912100  1
  H  H12  1  0.16730700  0.30142800  0.87168700  1
  H  H13  1  0.83269300  0.69857200  0.12831300  1
  H  H14  1  0.87330000  0.46038800  0.51018100  1
  H  H15  1  0.12670000  0.53961200  0.48981900  1
  H  H16  1  0.93543200  0.37632800  0.44961600  1
  H  H17  1  0.06456800  0.62367200  0.55038400  1
  H  H18  1  0.82370600  0.68966000  0.95339300  1
  H  H19  1  0.17629400  0.31034000  0.04660700  1
  H  H20  1  0.40807400  0.57287300  0.44635100  1
  H  H21  1  0.59192600  0.42712700  0.55364900  1
  H  H22  1  0.56368100  0.15682500  0.81158400  1
  H  H23  1  0.43631900  0.84317500  0.18841600  1
  H  H24  1  0.69097000  0.78732400  0.98935200  1
  H  H25  1  0.30903000  0.21267600  0.01064800  1
  H  H26  1  0.39321200  0.49141600  0.56854100  1
  H  H27  1  0.60678800  0.50858400  0.43145900  1
  H  H28  1  0.38305700  0.99841800  0.71774700  1
  H  H29  1  0.61694300  0.00158200  0.28225300  1
  H  H30  1  0.36992800  0.72060000  0.87259000  1
  H  H31  1  0.63007200  0.27940000  0.12741000  1
  H  H32  1  0.49345700  0.79055600  0.97101600  1
  H  H33  1  0.50654300  0.20944400  0.02898400  1
  H  H34  1  0.30451700  0.59088800  0.75855800  1
  H  H35  1  0.69548300  0.40911200  0.24144200  1
  H  H36  1  0.33574900  0.48342600  0.69660300  1
  H  H37  1  0.66425100  0.51657400  0.30339700  1
  H  H38  1  0.26758500  0.72981000  0.75699300  1
  H  H39  1  0.73241500  0.27019000  0.24300700  1
  H  H40  1  0.24216300  0.82120100  0.69429400  1
  H  H41  1  0.75783700  0.17879900  0.30570600  1
  H  H42  1  0.08056400  0.85314000  0.87910800  1
  H  H43  1  0.91943600  0.14686000  0.12089200  1
  H  H44  1  0.75570100  0.72028100  0.45457300  1
  H  H45  1  0.24429900  0.27971900  0.54542700  1
  H  H46  1  0.85255900  0.20268700  0.71215600  1
  H  H47  1  0.14744100  0.79731300  0.28784400  1
  H  H48  1  0.84706200  0.54816300  0.67936400  1
  H  H49  1  0.15293800  0.45183700  0.32063600  1
  H  H50  1  0.56963000  0.95496400  0.45381900  1
  H  H51  1  0.43037000  0.04503600  0.54618100  1
  H  H52  1  0.94717000  0.15564300  0.97337800  1
  H  H53  1  0.05283000  0.84435700  0.02662200  1
  H  H54  1  0.86286500  0.64271400  0.56443800  1
  H  H55  1  0.13713500  0.35728600  0.43556200  1
  H  H56  1  0.75696700  0.10015400  0.55326800  1
  H  H57  1  0.24303300  0.89984600  0.44673200  1
  H  H58  1  0.07483900  0.05535500  0.93135400  1
  H  H59  1  0.92516100  0.94464500  0.06864600  1
  H  H60  1  0.97437200  0.79147100  0.52115600  1
  H  H61  1  0.02562800  0.20852900  0.47884400  1
  H  H62  1  0.05492600  0.92576700  0.59323000  1
  H  H63  1  0.94507400  0.07423300  0.40677000  1
  H  H64  1  0.05593700  0.07787600  0.63574100  1
  H  H65  1  0.94406300  0.92212400  0.36425900  1
  H  H66  1  0.97099600  0.16529200  0.62079100  1
  H  H67  1  0.02900400  0.83470800  0.37920900  1
  H  H68  1  0.14267900  0.01237800  0.72307500  1
  H  H69  1  0.85732100  0.98762200  0.27692500  1
  H  H70  1  0.17999900  0.00654100  0.83378600  1
  H  H71  1  0.82000100  0.99345900  0.16621400  1
  H  H72  1  0.89190500  0.53737900  0.91475700  1
  H  H73  1  0.10809500  0.46262100  0.08524300  1
  H  H74  1  0.90257500  0.48248700  0.80699600  1
  H  H75  1  0.09742500  0.51751300  0.19300400  1
  H  H76  1  0.42778500  0.80594100  0.33809800  1
  H  H77  1  0.57221500  0.19405900  0.66190200  1
  H  H78  1  0.37170600  0.66055300  0.33182700  1
  H  H79  1  0.62829400  0.33944700  0.66817300  1
  H  H80  1  0.86036000  0.29460000  0.99484500  1
  H  H81  1  0.13964000  0.70540000  0.00515500  1
  H  H82  1  0.71520800  0.29264200  0.92797100  1
  H  H83  1  0.28479200  0.70735800  0.07202900  1
  C  C84  1  0.49357600  0.60842300  0.79235700  1
  C  C85  1  0.50642400  0.39157700  0.20764300  1
  C  C86  1  0.34117100  0.72581500  0.64929200  1
  C  C87  1  0.65882900  0.27418500  0.35070800  1
  C  C88  1  0.49082500  0.87575500  0.87155900  1
  C  C89  1  0.50917500  0.12424500  0.12844100  1
  C  C90  1  0.35320800  0.40246900  0.89407100  1
  C  C91  1  0.64679200  0.59753100  0.10592900  1
  C  C92  1  0.56759900  0.54863500  0.77454100  1
  C  C93  1  0.43240100  0.45136500  0.22545900  1
  C  C94  1  0.34587500  0.77006600  0.57769800  1
  C  C95  1  0.65412500  0.22993400  0.42230200  1
  C  C96  1  0.59000300  0.96858000  0.92763100  1
  C  C97  1  0.40999700  0.03142000  0.07236900  1
  C  C98  1  0.21797800  0.37183600  0.85332800  1
  C  C99  1  0.78202200  0.62816400  0.14667200  1
  C  C100  1  0.68696900  0.57791400  0.83002200  1
  C  C101  1  0.31303100  0.42208600  0.16997800  1
  C  C102  1  0.37508500  0.71961400  0.50632600  1
  C  C103  1  0.62491500  0.28038600  0.49367400  1
  C  C104  1  0.62110200  0.06812400  0.90499400  1
  C  C105  1  0.37889800  0.93187600  0.09500600  1
  C  C106  1  0.95697900  0.44897700  0.50477200  1
  C  C107  1  0.04302100  0.55102300  0.49522800  1
  C  C108  1  0.73131800  0.66394300  0.90847300  1
  C  C109  1  0.26868200  0.33605700  0.09152700  1
  C  C110  1  0.38860400  0.61664200  0.50179600  1
  C  C111  1  0.61139600  0.38335800  0.49820400  1
  C  C112  1  0.54431900  0.07966300  0.82994900  1
  C  C113  1  0.45568100  0.92033700  0.17005100  1
  C  C114  1  0.65599500  0.72062800  0.92756500  1
  C  C115  1  0.34400500  0.27937200  0.07243500  1
  C  C116  1  0.38154200  0.57153400  0.57240100  1
  C  C117  1  0.61845800  0.42846600  0.42759900  1
  C  C118  1  0.44288600  0.98853100  0.77614600  1
  C  C119  1  0.55711400  0.01146900  0.22385400  1
  C  C120  1  0.53836700  0.69721600  0.87083200  1
  C  C121  1  0.46163300  0.30278400  0.12916800  1
  C  C122  1  0.36279600  0.62535400  0.64817400  1
  C  C123  1  0.63720400  0.37464600  0.35182600  1
  C  C124  1  0.41660300  0.88477000  0.79264000  1
  C  C125  1  0.58339700  0.11523000  0.20736000  1
  C  C126  1  0.46730700  0.76838500  0.89810900  1
  C  C127  1  0.53269300  0.23161500  0.10189100  1
  C  C128  1  0.36753500  0.57374000  0.72489400  1
  C  C129  1  0.63246500  0.42626000  0.27510600  1
  C  C130  1  0.31082800  0.78806800  0.72460700  1
  C  C131  1  0.68917200  0.21193200  0.27539300  1
  C  C132  1  0.03386300  0.86459500  0.74389000  1
  C  C133  1  0.96613700  0.13540500  0.25611000  1
  C  C134  1  0.86220400  0.88566000  0.54097200  1
  C  C135  1  0.13779600  0.11434000  0.45902800  1
  C  C136  1  0.96778700  0.10492300  0.73326600  1
  C  C137  1  0.03221300  0.89507700  0.26673400  1
  C  C138  1  0.02980700  0.80871400  0.80926200  1
  C  C139  1  0.97019300  0.19128600  0.19073800  1
  C  C140  1  0.75655200  0.80399700  0.47951900  1
  C  C141  1  0.24344800  0.19600300  0.52048100  1
  C  C142  1  0.89946900  0.16681200  0.75910900  1
  C  C143  1  0.10053100  0.83318800  0.24089100  1
  C  C144  1  0.96098000  0.69621900  0.78787700  1
  C  C145  1  0.03902000  0.30378100  0.21212300  1
  C  C146  1  0.64921600  0.82565300  0.45046500  1
  C  C147  1  0.35078400  0.17434700  0.54953500  1
  C  C148  1  0.88651200  0.18192800  0.84341500  1
  C  C149  1  0.11348800  0.81807200  0.15658500  1
  C  C150  1  0.90160100  0.63565100  0.69883900  1
  C  C151  1  0.09839900  0.36434900  0.30116100  1
  C  C152  1  0.65053100  0.93395900  0.47556600  1
  C  C153  1  0.34946900  0.06604100  0.52443400  1
  C  C154  1  0.95284800  0.14375900  0.90656500  1
  C  C155  1  0.04715200  0.85624100  0.09343500  1
  C  C156  1  0.90996200  0.69042800  0.63396700  1
  C  C157  1  0.09003800  0.30957200  0.36603300  1
  C  C158  1  0.75735000  0.01605300  0.53351500  1
  C  C159  1  0.24265000  0.98394700  0.46648500  1
  C  C160  1  0.02385100  0.08513500  0.88149200  1
  C  C161  1  0.97614900  0.91486500  0.11850800  1
  C  C162  1  0.97280000  0.80409700  0.65354500  1
  C  C163  1  0.02720000  0.19590300  0.34645500  1
  C  C164  1  0.86276900  0.99435800  0.56974400  1
  C  C165  1  0.13723100  0.00564200  0.43025600  1
  C  C166  1  0.03014300  0.06074800  0.79517100  1
  C  C167  1  0.96985700  0.93925200  0.20482900  1
  C  C168  1  0.97224400  0.85385300  0.57593000  1
  C  C169  1  0.02775600  0.14614700  0.42407000  1
  C  C170  1  0.97074600  0.08841000  0.63853000  1
  C  C171  1  0.02925400  0.91159000  0.36147000  1
  C  C172  1  0.10335700  0.98885000  0.77347500  1
  C  C173  1  0.89664300  0.01115000  0.22652500  1
  C  C174  1  0.87759700  0.54445500  0.84655800  1
  C  C175  1  0.12240300  0.45554500  0.15344200  1
  C  C176  1  0.43104000  0.74371400  0.37468700  1
  C  C177  1  0.56896000  0.25628600  0.62531300  1
  C  C178  1  0.77836600  0.24704100  0.93743500  1
  C  C179  1  0.22163400  0.75295900  0.06256500  1
  Xe  Xe180  1  0.69501800  0.84659100  0.71911600  1
  Xe  Xe181  1  0.30498200  0.15340900  0.28088400  1
  Cl  Cl182  1  0.39478400  0.28812200  0.85053500  1
  Cl  Cl183  1  0.60521600  0.71187800  0.14946500  1
  Cl  Cl184  1  0.17610100  0.48784000  0.89335400  1
  Cl  Cl185  1  0.82389900  0.51216000  0.10664600  1
  Cl  Cl186  1  0.02895200  0.42043900  0.60494000  1
  Cl  Cl187  1  0.97104800  0.57956100  0.39506000  1
  O  O188  1  0.75307200  0.51835800  0.79971700  1
  O  O189  1  0.24692800  0.48164200  0.20028300  1
  O  O190  1  0.38997800  0.77952900  0.44586400  1
  O  O191  1  0.61002200  0.22047100  0.55413600  1
  O  O192  1  0.72976900  0.14857900  0.96018100  1
  O  O193  1  0.27023100  0.85142100  0.03981900  1
  O  O194  1  0.95495300  0.65421100  0.85945900  1
  O  O195  1  0.04504700  0.34578900  0.14054100  1
  O  O196  1  0.54744000  0.73424500  0.39981000  1
  O  O197  1  0.45256000  0.26575500  0.60019000  1
  O  O198  1  0.80469200  0.23269800  0.85615600  1
  O  O199  1  0.19530800  0.76730200  0.14384400  1
