# generated using pymatgen
data_Cu2H18N7F2
_symmetry_space_group_name_H-M   'P 1'
_cell_length_a   5.81836000
_cell_length_b   9.42110513
_cell_length_c   10.31339264
_cell_angle_alpha   90.88130613
_cell_angle_beta   90.00000000
_cell_angle_gamma   107.98656165
_symmetry_Int_Tables_number   1
_chemical_formula_structural   Cu2H18N7F2
_chemical_formula_sum   'Cu4 H36 N14 F4'
_cell_volume   537.63385102
_cell_formula_units_Z   2
loop_
 _symmetry_equiv_pos_site_id
 _symmetry_equiv_pos_as_xyz
  1  'x, y, z'
loop_
 _atom_site_type_symbol
 _atom_site_label
 _atom_site_symmetry_multiplicity
 _atom_site_fract_x
 _atom_site_fract_y
 _atom_site_fract_z
 _atom_site_occupancy
  Cu  Cu0  1  0.60494800  0.00000000  0.50000000  1
  Cu  Cu1  1  0.11061300  0.00000000  0.50000000  1
  Cu  Cu2  1  0.04247100  0.37462400  0.99199300  1
  Cu  Cu3  1  0.66784700  0.62537600  0.00800700  1
  H  H4  1  0.62616300  0.23991000  0.40652400  1
  H  H5  1  0.38625300  0.76009000  0.59347600  1
  H  H6  1  0.88723200  0.25966500  0.48753000  1
  H  H7  1  0.62756700  0.74033500  0.51247000  1
  H  H8  1  0.63426700  0.25242800  0.57028600  1
  H  H9  1  0.38184000  0.74757200  0.42971400  1
  H  H10  1  0.24979100  0.07436400  0.28099200  1
  H  H11  1  0.17542700  0.92563600  0.71900800  1
  H  H12  1  0.95304400  0.98148700  0.27583200  1
  H  H13  1  0.97155800  0.01851300  0.72416800  1
  H  H14  1  0.15128900  0.88559200  0.29130300  1
  H  H15  1  0.26569700  0.11440800  0.70869700  1
  H  H16  1  0.82620700  0.37299300  0.78019700  1
  H  H17  1  0.45321400  0.62700700  0.21980300  1
  H  H18  1  0.10416500  0.36502200  0.75475000  1
  H  H19  1  0.73914400  0.63497800  0.24525000  1
  H  H20  1  0.06564200  0.52786200  0.78963600  1
  H  H21  1  0.53778000  0.47213800  0.21036400  1
  H  H22  1  0.04764700  0.49222300  0.21405000  1
  H  H23  1  0.55542400  0.50777700  0.78595000  1
  H  H24  1  0.07719000  0.32391500  0.22530800  1
  H  H25  1  0.75327600  0.67608500  0.77469200  1
  H  H26  1  0.80433400  0.34012000  0.20050400  1
  H  H27  1  0.46421400  0.65988000  0.79949600  1
  H  H28  1  0.17970100  0.12920200  0.97088200  1
  H  H29  1  0.05049900  0.87079800  0.02911800  1
  H  H30  1  0.37221500  0.24616100  0.07046600  1
  H  H31  1  0.12605400  0.75383900  0.92953400  1
  H  H32  1  0.39388900  0.26711800  0.90805200  1
  H  H33  1  0.12677100  0.73288200  0.09194800  1
  H  H34  1  0.97878700  0.64059000  0.42999700  1
  H  H35  1  0.33819700  0.35941000  0.57000300  1
  H  H36  1  0.98726200  0.65191000  0.59090400  1
  H  H37  1  0.33535200  0.34809000  0.40909600  1
  H  H38  1  0.76675500  0.52345700  0.51665600  1
  H  H39  1  0.24329800  0.47654300  0.48334400  1
  N  N40  1  0.70002400  0.21033900  0.48973600  1
  N  N41  1  0.48968400  0.78966100  0.51026400  1
  N  N42  1  0.11626100  0.98365300  0.31718500  1
  N  N43  1  0.13260900  0.01634700  0.68281500  1
  N  N44  1  0.00429200  0.41489600  0.81068200  1
  N  N45  1  0.58939600  0.58510400  0.18931800  1
  N  N46  1  0.98529500  0.38401000  0.17693400  1
  N  N47  1  0.60128500  0.61599000  0.82306600  1
  N  N48  1  0.27626600  0.23866300  0.98502200  1
  N  N49  1  0.03760300  0.76133700  0.01497800  1
  N  N50  1  0.63574500  0.96944300  0.18484300  1
  N  N51  1  0.66630200  0.03055700  0.81515700  1
  N  N52  1  0.87289500  0.63168200  0.51167700  1
  N  N53  1  0.24121300  0.36831800  0.48832300  1
  F  F54  1  0.49921700  0.31504700  0.72155800  1
  F  F55  1  0.18417000  0.68495300  0.27844200  1
  F  F56  1  0.47869900  0.27820700  0.25440900  1
  F  F57  1  0.20049200  0.72179300  0.74559100  1
