# generated using pymatgen
data_Dy15(Fe4C13)2
_symmetry_space_group_name_H-M   'P 1'
_cell_length_a   5.14277106
_cell_length_b   11.91975513
_cell_length_c   11.91615273
_cell_angle_alpha   119.98123106
_cell_angle_beta   89.99115397
_cell_angle_gamma   90.01721616
_symmetry_Int_Tables_number   1
_chemical_formula_structural   Dy15(Fe4C13)2
_chemical_formula_sum   'Dy15 Fe8 C26'
_cell_volume   632.72253758
_cell_formula_units_Z   1
loop_
 _symmetry_equiv_pos_site_id
 _symmetry_equiv_pos_as_xyz
  1  'x, y, z'
loop_
 _atom_site_type_symbol
 _atom_site_label
 _atom_site_symmetry_multiplicity
 _atom_site_fract_x
 _atom_site_fract_y
 _atom_site_fract_z
 _atom_site_occupancy
  Dy  Dy0  1  0.25363100  0.11587500  0.71222400  1
  Dy  Dy1  1  0.25363600  0.28769500  0.40355200  1
  Dy  Dy2  1  0.25366800  0.59628700  0.88413300  1
  Dy  Dy3  1  0.74635500  0.88412100  0.59632300  1
  Dy  Dy4  1  0.74631000  0.40370500  0.28783200  1
  Dy  Dy5  1  0.74640200  0.71231300  0.11586800  1
  Dy  Dy6  1  0.24271900  0.63107700  0.48630000  1
  Dy  Dy7  1  0.24270200  0.51370500  0.14468800  1
  Dy  Dy8  1  0.24269500  0.85543500  0.36891800  1
  Dy  Dy9  1  0.75728700  0.36893400  0.85528500  1
  Dy  Dy10  1  0.75731500  0.14457200  0.51347000  1
  Dy  Dy11  1  0.75729200  0.48623700  0.63096900  1
  Dy  Dy12  1  0.49998900  0.83307300  0.83316500  1
  Dy  Dy13  1  0.50004400  0.16697000  0.00007800  1
  Dy  Dy14  1  0.49996300  0.99999500  0.16724200  1
  Fe  Fe15  1  0.00000000  0.74177800  0.74186400  1
  Fe  Fe16  1  0.00002400  0.25818400  0.00019100  1
  Fe  Fe17  1  0.99996300  0.00010100  0.25808900  1
  Fe  Fe18  1  0.99996000  0.12934800  0.12942600  1
  Fe  Fe19  1  0.00017100  0.87061000  0.00014900  1
  Fe  Fe20  1  0.99987600  0.00007000  0.87057800  1
  Fe  Fe21  1  0.26744700  0.33332100  0.66660000  1
  Fe  Fe22  1  0.73255400  0.66666100  0.33327200  1
  C  C23  1  0.22887600  0.31924800  0.92019300  1
  C  C24  1  0.22911800  0.07979600  0.39913500  1
  C  C25  1  0.22882800  0.60084000  0.68070500  1
  C  C26  1  0.77122200  0.68073700  0.60089300  1
  C  C27  1  0.77109000  0.39917200  0.07983700  1
  C  C28  1  0.77086800  0.92020400  0.31928500  1
  C  C29  1  0.25879800  0.35894400  0.83192700  1
  C  C30  1  0.25870900  0.16821000  0.52703700  1
  C  C31  1  0.25880600  0.47297700  0.64103200  1
  C  C32  1  0.74113700  0.64101100  0.47295800  1
  C  C33  1  0.74124300  0.52702000  0.16809600  1
  C  C34  1  0.74129700  0.83180800  0.35883000  1
  C  C35  1  0.17557100  0.88128100  0.70130900  1
  C  C36  1  0.17558100  0.29871200  0.18007300  1
  C  C37  1  0.17562500  0.81991400  0.11852300  1
  C  C38  1  0.82437200  0.11859200  0.81992200  1
  C  C39  1  0.82432200  0.18008400  0.29868100  1
  C  C40  1  0.82455900  0.70133500  0.88130300  1
  C  C41  1  0.23462900  0.87525900  0.58448100  1
  C  C42  1  0.23457600  0.41552800  0.29075700  1
  C  C43  1  0.23468100  0.70931000  0.12482500  1
  C  C44  1  0.76529200  0.12478200  0.70922900  1
  C  C45  1  0.76542600  0.29073300  0.41553900  1
  C  C46  1  0.76537600  0.58454200  0.87524200  1
  C  C47  1  0.22254800  0.99998200  0.99996600  1
  C  C48  1  0.77744400  0.99991100  0.00000900  1
