# generated using pymatgen
data_Na4AsHO5
_symmetry_space_group_name_H-M   'P 1'
_cell_length_a   7.52767800
_cell_length_b   8.39151800
_cell_length_c   9.11272600
_cell_angle_alpha   90.00000000
_cell_angle_beta   90.00000000
_cell_angle_gamma   90.00000000
_symmetry_Int_Tables_number   1
_chemical_formula_structural   Na4AsHO5
_chemical_formula_sum   'Na16 As4 H4 O20'
_cell_volume   575.63855764
_cell_formula_units_Z   4
loop_
 _symmetry_equiv_pos_site_id
 _symmetry_equiv_pos_as_xyz
  1  'x, y, z'
loop_
 _atom_site_type_symbol
 _atom_site_label
 _atom_site_symmetry_multiplicity
 _atom_site_fract_x
 _atom_site_fract_y
 _atom_site_fract_z
 _atom_site_occupancy
  Na  Na0  1  0.01348500  0.15241800  0.62934200  1
  Na  Na1  1  0.48651500  0.34758200  0.12934200  1
  Na  Na2  1  0.51348500  0.84758200  0.37065800  1
  Na  Na3  1  0.98651500  0.65241800  0.87065800  1
  Na  Na4  1  0.98651500  0.84758200  0.37065800  1
  Na  Na5  1  0.51348500  0.65241800  0.87065800  1
  Na  Na6  1  0.48651500  0.15241800  0.62934200  1
  Na  Na7  1  0.01348500  0.34758200  0.12934200  1
  Na  Na8  1  0.25000000  0.26553800  0.87011000  1
  Na  Na9  1  0.25000000  0.23446200  0.37011000  1
  Na  Na10  1  0.75000000  0.73446200  0.12989000  1
  Na  Na11  1  0.75000000  0.76553800  0.62989000  1
  Na  Na12  1  0.00000000  0.50000000  0.50000000  1
  Na  Na13  1  0.50000000  0.00000000  0.00000000  1
  Na  Na14  1  0.50000000  0.50000000  0.50000000  1
  Na  Na15  1  0.00000000  0.00000000  0.00000000  1
  As  As16  1  0.25000000  0.84990300  0.63751400  1
  As  As17  1  0.25000000  0.65009700  0.13751400  1
  As  As18  1  0.75000000  0.15009700  0.36248600  1
  As  As19  1  0.75000000  0.34990300  0.86248600  1
  H  H20  1  0.25000000  0.44905700  0.65754200  1
  H  H21  1  0.25000000  0.05094300  0.15754200  1
  H  H22  1  0.75000000  0.55094300  0.34245800  1
  H  H23  1  0.75000000  0.94905700  0.84245800  1
  O  O24  1  0.06236400  0.73263800  0.63047900  1
  O  O25  1  0.43763600  0.76736200  0.13047900  1
  O  O26  1  0.56236400  0.26736200  0.36952100  1
  O  O27  1  0.93763600  0.23263800  0.86952100  1
  O  O28  1  0.93763600  0.26736200  0.36952100  1
  O  O29  1  0.56236400  0.23263800  0.86952100  1
  O  O30  1  0.43763600  0.73263800  0.63047900  1
  O  O31  1  0.06236400  0.76736200  0.13047900  1
  O  O32  1  0.25000000  0.97159000  0.78988700  1
  O  O33  1  0.25000000  0.52841000  0.28988700  1
  O  O34  1  0.75000000  0.02841000  0.21011300  1
  O  O35  1  0.75000000  0.47159000  0.71011300  1
  O  O36  1  0.25000000  0.97227100  0.48293400  1
  O  O37  1  0.25000000  0.52772900  0.98293400  1
  O  O38  1  0.75000000  0.02772900  0.51706600  1
  O  O39  1  0.75000000  0.47227100  0.01706600  1
  O  O40  1  0.25000000  0.34355900  0.61313100  1
  O  O41  1  0.25000000  0.15644100  0.11313100  1
  O  O42  1  0.75000000  0.65644100  0.38686900  1
  O  O43  1  0.75000000  0.84355900  0.88686900  1
