# generated using pymatgen
data_Co3H18C8(N3O4)2
_symmetry_space_group_name_H-M   'P 1'
_cell_length_a   8.46461200
_cell_length_b   8.52362265
_cell_length_c   8.55348783
_cell_angle_alpha   70.17879259
_cell_angle_beta   69.96662925
_cell_angle_gamma   70.46602926
_symmetry_Int_Tables_number   1
_chemical_formula_structural   Co3H18C8(N3O4)2
_chemical_formula_sum   'Co3 H18 C8 N6 O8'
_cell_volume   528.55310638
_cell_formula_units_Z   1
loop_
 _symmetry_equiv_pos_site_id
 _symmetry_equiv_pos_as_xyz
  1  'x, y, z'
loop_
 _atom_site_type_symbol
 _atom_site_label
 _atom_site_symmetry_multiplicity
 _atom_site_fract_x
 _atom_site_fract_y
 _atom_site_fract_z
 _atom_site_occupancy
  Co  Co0  1  0.62402600  0.62416200  0.62386400  1
  Co  Co1  1  0.37597400  0.37583800  0.37613600  1
  Co  Co2  1  0.00000000  0.00000000  0.00000000  1
  H  H3  1  0.09382500  0.63836000  0.07089300  1
  H  H4  1  0.63842100  0.07045700  0.09486500  1
  H  H5  1  0.07192400  0.09498600  0.63810900  1
  H  H6  1  0.90617500  0.36164000  0.92910700  1
  H  H7  1  0.36157900  0.92954300  0.90513500  1
  H  H8  1  0.92807600  0.90501400  0.36189100  1
  H  H9  1  0.23903500  0.70713800  0.89884700  1
  H  H10  1  0.70659200  0.89906400  0.23803500  1
  H  H11  1  0.89952000  0.23779100  0.70712700  1
  H  H12  1  0.76096500  0.29286200  0.10115300  1
  H  H13  1  0.29340800  0.10093600  0.76196500  1
  H  H14  1  0.10048000  0.76220900  0.29287300  1
  H  H15  1  0.05046300  0.71245400  0.88324700  1
  H  H16  1  0.71180400  0.88211700  0.05185900  1
  H  H17  1  0.88172700  0.05109200  0.71288900  1
  H  H18  1  0.94953700  0.28754600  0.11675300  1
  H  H19  1  0.28819600  0.11788300  0.94814100  1
  H  H20  1  0.11827300  0.94890800  0.28711100  1
  C  C21  1  0.44161800  0.76720900  0.56145200  1
  C  C22  1  0.76761700  0.56150600  0.44173600  1
  C  C23  1  0.56090100  0.44179300  0.76730700  1
  C  C24  1  0.55838200  0.23279100  0.43854800  1
  C  C25  1  0.23238300  0.43849400  0.55826400  1
  C  C26  1  0.43909900  0.55820700  0.23269300  1
  C  C27  1  0.71567200  0.71551400  0.71491200  1
  C  C28  1  0.28432800  0.28448600  0.28508800  1
  N  N29  1  0.10888700  0.73340200  0.95883200  1
  N  N30  1  0.73343500  0.95830900  0.10901000  1
  N  N31  1  0.95883700  0.10880500  0.73346600  1
  N  N32  1  0.89111300  0.26659800  0.04116800  1
  N  N33  1  0.26656500  0.04169100  0.89099000  1
  N  N34  1  0.04116300  0.89119500  0.26653400  1
  O  O35  1  0.31633600  0.85962500  0.51990200  1
  O  O36  1  0.85938300  0.51997400  0.31649700  1
  O  O37  1  0.51987600  0.31603700  0.85981200  1
  O  O38  1  0.68366400  0.14037500  0.48009800  1
  O  O39  1  0.14061700  0.48002600  0.68350300  1
  O  O40  1  0.48012400  0.68396300  0.14018800  1
  O  O41  1  0.77681500  0.77707600  0.77706000  1
  O  O42  1  0.22318500  0.22292400  0.22294000  1
