# generated using pymatgen
data_Ba3V4ZnO14
_symmetry_space_group_name_H-M   'P 1'
_cell_length_a   14.17197600
_cell_length_b   7.36760000
_cell_length_c   14.22645946
_cell_angle_alpha   70.98594379
_cell_angle_beta   90.00000000
_cell_angle_gamma   90.00000000
_symmetry_Int_Tables_number   1
_chemical_formula_structural   Ba3V4ZnO14
_chemical_formula_sum   'Ba12 V16 Zn4 O56'
_cell_volume   1404.38648887
_cell_formula_units_Z   4
loop_
 _symmetry_equiv_pos_site_id
 _symmetry_equiv_pos_as_xyz
  1  'x, y, z'
loop_
 _atom_site_type_symbol
 _atom_site_label
 _atom_site_symmetry_multiplicity
 _atom_site_fract_x
 _atom_site_fract_y
 _atom_site_fract_z
 _atom_site_occupancy
  Ba  Ba0  1  0.73074200  0.55655400  0.70238400  1
  Ba  Ba1  1  0.23074200  0.44344600  0.79761600  1
  Ba  Ba2  1  0.26925800  0.44344600  0.29761600  1
  Ba  Ba3  1  0.76925800  0.55655400  0.20238400  1
  Ba  Ba4  1  0.89503100  0.23068900  0.01435500  1
  Ba  Ba5  1  0.39503100  0.76931100  0.48564500  1
  Ba  Ba6  1  0.10496900  0.76931100  0.98564500  1
  Ba  Ba7  1  0.60496900  0.23068900  0.51435500  1
  Ba  Ba8  1  0.94564200  0.11506200  0.71626900  1
  Ba  Ba9  1  0.44564200  0.88493800  0.78373100  1
  Ba  Ba10  1  0.05435800  0.88493800  0.28373100  1
  Ba  Ba11  1  0.55435800  0.11506200  0.21626900  1
  V  V12  1  0.68785200  0.98365800  0.76800500  1
  V  V13  1  0.18785200  0.01634200  0.73199500  1
  V  V14  1  0.31214800  0.01634200  0.23199500  1
  V  V15  1  0.81214800  0.98365800  0.26800500  1
  V  V16  1  0.83154800  0.80372900  0.94847500  1
  V  V17  1  0.33154800  0.19627100  0.55152500  1
  V  V18  1  0.16845200  0.19627100  0.05152500  1
  V  V19  1  0.66845200  0.80372900  0.44847500  1
  V  V20  1  0.97364500  0.60138600  0.73775500  1
  V  V21  1  0.47364500  0.39861400  0.76224500  1
  V  V22  1  0.02635500  0.39861400  0.26224500  1
  V  V23  1  0.52635500  0.60138600  0.23775500  1
  V  V24  1  0.11258600  0.61541800  0.54811700  1
  V  V25  1  0.61258600  0.38458200  0.95188300  1
  V  V26  1  0.88741400  0.38458200  0.45188300  1
  V  V27  1  0.38741400  0.61541800  0.04811700  1
  Zn  Zn28  1  0.59951400  0.89377300  0.00703700  1
  Zn  Zn29  1  0.09951400  0.10622700  0.49296300  1
  Zn  Zn30  1  0.40048600  0.10622700  0.99296300  1
  Zn  Zn31  1  0.90048600  0.89377300  0.50703700  1
  O  O32  1  0.62512000  0.89799300  0.68872200  1
  O  O33  1  0.12512000  0.10200700  0.81127800  1
  O  O34  1  0.37488000  0.10200700  0.31127800  1
  O  O35  1  0.87488000  0.89799300  0.18872200  1
  O  O36  1  0.60898300  0.99600700  0.85826300  1
  O  O37  1  0.10898300  0.00399300  0.64173700  1
  O  O38  1  0.39101700  0.00399300  0.14173700  1
  O  O39  1  0.89101700  0.99600700  0.35826300  1
  O  O40  1  0.74360300  0.19294400  0.70049600  1
  O  O41  1  0.24360300  0.80705600  0.79950400  1
  O  O42  1  0.25639700  0.80705600  0.29950400  1
  O  O43  1  0.75639700  0.19294400  0.20049600  1
  O  O44  1  0.77828600  0.80723700  0.82841100  1
  O  O45  1  0.27828600  0.19276300  0.67158900  1
  O  O46  1  0.22171400  0.19276300  0.17158900  1
  O  O47  1  0.72171400  0.80723700  0.32841100  1
  O  O48  1  0.87207400  0.58724600  0.02204700  1
  O  O49  1  0.37207400  0.41275400  0.47795300  1
  O  O50  1  0.12792600  0.41275400  0.97795300  1
  O  O51  1  0.62792600  0.58724600  0.52204700  1
  O  O52  1  0.74950400  0.88051700  0.01619200  1
  O  O53  1  0.24950400  0.11948300  0.48380800  1
  O  O54  1  0.25049600  0.11948300  0.98380800  1
  O  O55  1  0.75049600  0.88051700  0.51619200  1
  O  O56  1  0.92456800  0.96304600  0.92115000  1
  O  O57  1  0.42456800  0.03695400  0.57885000  1
  O  O58  1  0.07543200  0.03695400  0.07885000  1
  O  O59  1  0.57543200  0.96304600  0.42115000  1
  O  O60  1  0.02564000  0.69500600  0.81833500  1
  O  O61  1  0.52564000  0.30499400  0.68166500  1
  O  O62  1  0.97436000  0.30499400  0.18166500  1
  O  O63  1  0.47436000  0.69500600  0.31833500  1
  O  O64  1  0.90233900  0.41102700  0.79881700  1
  O  O65  1  0.40233900  0.58897300  0.70118300  1
  O  O66  1  0.09766100  0.58897300  0.20118300  1
  O  O67  1  0.59766100  0.41102700  0.29881700  1
  O  O68  1  0.90238800  0.77765900  0.65671800  1
  O  O69  1  0.40238800  0.22234100  0.84328200  1
  O  O70  1  0.09761200  0.22234100  0.34328200  1
  O  O71  1  0.59761200  0.77765900  0.15671800  1
  O  O72  1  0.05898700  0.49707300  0.67244900  1
  O  O73  1  0.55898700  0.50292700  0.82755100  1
  O  O74  1  0.94101300  0.50292700  0.32755100  1
  O  O75  1  0.44101300  0.49707300  0.17244900  1
  O  O76  1  0.22441400  0.65607700  0.57568300  1
  O  O77  1  0.72441400  0.34392300  0.92431700  1
  O  O78  1  0.77558600  0.34392300  0.42431700  1
  O  O79  1  0.27558600  0.65607700  0.07568300  1
  O  O80  1  0.11347500  0.47402800  0.47478300  1
  O  O81  1  0.61347500  0.52597200  0.02521700  1
  O  O82  1  0.88652500  0.52597200  0.52521700  1
  O  O83  1  0.38652500  0.47402800  0.97478300  1
  O  O84  1  0.05375700  0.83725200  0.48633400  1
  O  O85  1  0.55375600  0.16274800  0.01366600  1
  O  O86  1  0.94624300  0.16274800  0.51366600  1
  O  O87  1  0.44624300  0.83725200  0.98633400  1
