# generated using pymatgen
data_AgP15
_symmetry_space_group_name_H-M   'P 1'
_cell_length_a   7.28792900
_cell_length_b   9.21414564
_cell_length_c   11.55114075
_cell_angle_alpha   101.16279660
_cell_angle_beta   96.52193027
_cell_angle_gamma   108.39016254
_symmetry_Int_Tables_number   1
_chemical_formula_structural   AgP15
_chemical_formula_sum   'Ag2 P30'
_cell_volume   709.32038401
_cell_formula_units_Z   2
loop_
 _symmetry_equiv_pos_site_id
 _symmetry_equiv_pos_as_xyz
  1  'x, y, z'
loop_
 _atom_site_type_symbol
 _atom_site_label
 _atom_site_symmetry_multiplicity
 _atom_site_fract_x
 _atom_site_fract_y
 _atom_site_fract_z
 _atom_site_occupancy
  Ag  Ag0  1  0.32583000  0.72747100  0.49709700  1
  Ag  Ag1  1  0.67417000  0.27252900  0.50290300  1
  P  P2  1  0.94716100  0.56666400  0.81410000  1
  P  P3  1  0.05283900  0.43333600  0.18590000  1
  P  P4  1  0.96411100  0.99482900  0.65382900  1
  P  P5  1  0.03588900  0.00517100  0.34617100  1
  P  P6  1  0.90110300  0.78026300  0.20914300  1
  P  P7  1  0.09889700  0.21973700  0.79085700  1
  P  P8  1  0.85998800  0.54917900  0.62426800  1
  P  P9  1  0.14001200  0.45082100  0.37573200  1
  P  P10  1  0.78840300  0.87833800  0.77423900  1
  P  P11  1  0.21159700  0.12166200  0.22576100  1
  P  P12  1  0.73185900  0.68832700  0.34180100  1
  P  P13  1  0.26814100  0.31167300  0.65819900  1
  P  P14  1  0.67700700  0.49674000  0.89485800  1
  P  P15  1  0.32299300  0.50326000  0.10514200  1
  P  P16  1  0.67256600  0.82760300  0.07822900  1
  P  P17  1  0.32743400  0.17239700  0.92177100  1
  P  P18  1  0.62623300  0.64914500  0.64348100  1
  P  P19  1  0.37376700  0.35085500  0.35651900  1
  P  P20  1  0.60057100  0.23898500  0.84702000  1
  P  P21  1  0.39942900  0.76101500  0.15298000  1
  P  P22  1  0.53888500  0.83524800  0.34723000  1
  P  P23  1  0.46111500  0.16475200  0.65277000  1
  P  P24  1  0.45203200  0.54529800  0.77319100  1
  P  P25  1  0.54796800  0.45470200  0.22680900  1
  P  P26  1  0.29448500  0.92430600  0.84585200  1
  P  P27  1  0.70551500  0.07569400  0.15414800  1
  P  P28  1  0.23395600  0.92161200  0.65029600  1
  P  P29  1  0.76604400  0.07838800  0.34970400  1
  P  P30  1  0.00659200  0.82031800  0.89602200  1
  P  P31  1  0.99340800  0.17968200  0.10397800  1
