# generated using pymatgen
data_ScH4(SO5)2
_symmetry_space_group_name_H-M   'P 1'
_cell_length_a   8.76019762
_cell_length_b   9.53064431
_cell_length_c   10.77599900
_cell_angle_alpha   90.00000000
_cell_angle_beta   90.00000000
_cell_angle_gamma   101.66892629
_symmetry_Int_Tables_number   1
_chemical_formula_structural   ScH4(SO5)2
_chemical_formula_sum   'Sc4 H16 S8 O40'
_cell_volume   881.09743941
_cell_formula_units_Z   4
loop_
 _symmetry_equiv_pos_site_id
 _symmetry_equiv_pos_as_xyz
  1  'x, y, z'
loop_
 _atom_site_type_symbol
 _atom_site_label
 _atom_site_symmetry_multiplicity
 _atom_site_fract_x
 _atom_site_fract_y
 _atom_site_fract_z
 _atom_site_occupancy
  Sc  Sc0  1  0.75437100  0.49667500  0.12560900  1
  Sc  Sc1  1  0.74562900  0.50332500  0.62560900  1
  Sc  Sc2  1  0.24562900  0.50332500  0.87439100  1
  Sc  Sc3  1  0.25437100  0.49667500  0.37439100  1
  H  H4  1  0.98650600  0.95776500  0.16795300  1
  H  H5  1  0.51349400  0.04223500  0.66795300  1
  H  H6  1  0.01349400  0.04223500  0.83204700  1
  H  H7  1  0.48650600  0.95776500  0.33204700  1
  H  H8  1  0.91756800  0.07218900  0.24846600  1
  H  H9  1  0.58243200  0.92781100  0.74846600  1
  H  H10  1  0.08243200  0.92781100  0.75153400  1
  H  H11  1  0.41756800  0.07218900  0.25153400  1
  H  H12  1  0.71684800  0.10375800  0.05887900  1
  H  H13  1  0.78315200  0.89624200  0.55887900  1
  H  H14  1  0.28315200  0.89624200  0.94112100  1
  H  H15  1  0.21684800  0.10375800  0.44112100  1
  H  H16  1  0.66133700  0.94178400  0.01753300  1
  H  H17  1  0.83866300  0.05821600  0.51753300  1
  H  H18  1  0.33866300  0.05821600  0.98246700  1
  H  H19  1  0.16133700  0.94178400  0.48246700  1
  S  S20  1  0.14031600  0.68117900  0.12640600  1
  S  S21  1  0.35968400  0.31882100  0.62640600  1
  S  S22  1  0.85968400  0.31882100  0.87359400  1
  S  S23  1  0.64031600  0.68117900  0.37359400  1
  S  S24  1  0.36011900  0.32150500  0.12303500  1
  S  S25  1  0.13988100  0.67849500  0.62303500  1
  S  S26  1  0.63988100  0.67849500  0.87696500  1
  S  S27  1  0.86011900  0.32150500  0.37696500  1
  O  O28  1  0.98914700  0.57633700  0.12417300  1
  O  O29  1  0.51085300  0.42366300  0.62417300  1
  O  O30  1  0.01085300  0.42366300  0.87582700  1
  O  O31  1  0.48914700  0.57633700  0.37582700  1
  O  O32  1  0.22663500  0.66210000  0.00916600  1
  O  O33  1  0.27336500  0.33790000  0.50916600  1
  O  O34  1  0.77336500  0.33790000  0.99083400  1
  O  O35  1  0.72663500  0.66210000  0.49083400  1
  O  O36  1  0.12174200  0.82866100  0.13577400  1
  O  O37  1  0.37825800  0.17133900  0.63577400  1
  O  O38  1  0.87825800  0.17133900  0.86422600  1
  O  O39  1  0.62174200  0.82866100  0.36422600  1
  O  O40  1  0.23360400  0.64310400  0.23284000  1
  O  O41  1  0.26639600  0.35689600  0.73283900  1
  O  O42  1  0.76639600  0.35689600  0.76716100  1
  O  O43  1  0.73360400  0.64310400  0.26716100  1
  O  O44  1  0.51496400  0.41992800  0.12443100  1
  O  O45  1  0.98503600  0.58007200  0.62443100  1
  O  O46  1  0.48503600  0.58007200  0.87556900  1
  O  O47  1  0.01496400  0.41992800  0.37556900  1
  O  O48  1  0.37407900  0.17083600  0.11403600  1
  O  O49  1  0.12592100  0.82916400  0.61403600  1
  O  O50  1  0.62592100  0.82916400  0.88596400  1
  O  O51  1  0.87407900  0.17083600  0.38596400  1
  O  O52  1  0.27563200  0.34256300  0.23937100  1
  O  O53  1  0.22436800  0.65743700  0.73937100  1
  O  O54  1  0.72436800  0.65743700  0.76062900  1
  O  O55  1  0.77563200  0.34256300  0.26062900  1
  O  O56  1  0.26895300  0.35867100  0.01570300  1
  O  O57  1  0.23104700  0.64132900  0.51570300  1
  O  O58  1  0.73104700  0.64132900  0.98429700  1
  O  O59  1  0.76895300  0.35867100  0.48429700  1
  O  O60  1  0.94485100  0.04707900  0.16274300  1
  O  O61  1  0.55514900  0.95292100  0.66274300  1
  O  O62  1  0.05514900  0.95292100  0.83725700  1
  O  O63  1  0.44485100  0.04707900  0.33725700  1
  O  O64  1  0.65979000  0.00962900  0.08807800  1
  O  O65  1  0.84021000  0.99037100  0.58807800  1
  O  O66  1  0.34021000  0.99037100  0.91192200  1
  O  O67  1  0.15979000  0.00962900  0.41192200  1
