# generated using pymatgen
data_Rb2Nb3H11C5(Cl3O4)2
_symmetry_space_group_name_H-M   'P 1'
_cell_length_a   9.71486500
_cell_length_b   10.38054113
_cell_length_c   12.44834841
_cell_angle_alpha   68.32680120
_cell_angle_beta   72.37111114
_cell_angle_gamma   81.09653912
_symmetry_Int_Tables_number   1
_chemical_formula_structural   Rb2Nb3H11C5(Cl3O4)2
_chemical_formula_sum   'Rb4 Nb6 H22 C10 Cl12 O16'
_cell_volume   1110.52050377
_cell_formula_units_Z   2
loop_
 _symmetry_equiv_pos_site_id
 _symmetry_equiv_pos_as_xyz
  1  'x, y, z'
loop_
 _atom_site_type_symbol
 _atom_site_label
 _atom_site_symmetry_multiplicity
 _atom_site_fract_x
 _atom_site_fract_y
 _atom_site_fract_z
 _atom_site_occupancy
  Rb  Rb0  1  0.69537500  0.86672500  0.79995800  1
  Rb  Rb1  1  0.30462500  0.13327500  0.20004200  1
  Rb  Rb2  1  0.26271900  0.99709600  0.90701300  1
  Rb  Rb3  1  0.73728100  0.00290400  0.09298700  1
  Nb  Nb4  1  0.02761200  0.62797500  0.58541000  1
  Nb  Nb5  1  0.97238800  0.37202500  0.41459000  1
  Nb  Nb6  1  0.15491200  0.35668700  0.56962300  1
  Nb  Nb7  1  0.84508800  0.64331300  0.43037700  1
  Nb  Nb8  1  0.83750900  0.40020200  0.65112600  1
  Nb  Nb9  1  0.16249100  0.59979800  0.34887400  1
  H  H10  1  0.99940600  0.87004500  0.86498800  1
  H  H11  1  0.00059400  0.12995500  0.13501200  1
  H  H12  1  0.42247400  0.60259900  0.79684800  1
  H  H13  1  0.57752600  0.39740100  0.20315200  1
  H  H14  1  0.41449100  0.49392600  0.94773000  1
  H  H15  1  0.58550900  0.50607400  0.05227000  1
  H  H16  1  0.25852800  0.59861900  0.91190400  1
  H  H17  1  0.74147200  0.40138100  0.08809600  1
  H  H18  1  0.25979600  0.80770800  0.62381300  1
  H  H19  1  0.74020400  0.19229200  0.37618700  1
  H  H20  1  0.43894400  0.12829800  0.52144800  1
  H  H21  1  0.56105600  0.87170200  0.47855200  1
  H  H22  1  0.50132600  0.27852500  0.75993400  1
  H  H23  1  0.49867400  0.72147500  0.24006600  1
  H  H24  1  0.92861900  0.64786800  0.93699400  1
  H  H25  1  0.07138100  0.35213200  0.06300600  1
  H  H26  1  0.00500300  0.67001900  0.04253000  1
  H  H27  1  0.99499700  0.32998100  0.95747000  1
  H  H28  1  0.81397800  0.67881100  0.06861000  1
  H  H29  1  0.18602200  0.32118900  0.93139000  1
  H  H30  1  0.39455300  0.69882700  0.99108300  1
  H  H31  1  0.60544700  0.30117300  0.00891700  1
  C  C32  1  0.37719500  0.59449500  0.89116100  1
  C  C33  1  0.62280500  0.40550500  0.10883900  1
  C  C34  1  0.15421000  0.81702200  0.68821100  1
  C  C35  1  0.84579000  0.18297800  0.31178900  1
  C  C36  1  0.41634100  0.12101800  0.61654600  1
  C  C37  1  0.58365900  0.87898200  0.38345400  1
  C  C38  1  0.54462400  0.24523800  0.83974000  1
  C  C39  1  0.45537600  0.75476200  0.16026000  1
  C  C40  1  0.91627000  0.70500400  0.99873600  1
  C  C41  1  0.08373000  0.29499600  0.00126400  1
  Cl  Cl42  1  0.84010600  0.53366900  0.78048000  1
  Cl  Cl43  1  0.15989400  0.46633100  0.21952000  1
  Cl  Cl44  1  0.21704100  0.48597100  0.68055600  1
  Cl  Cl45  1  0.78295900  0.51402900  0.31944400  1
  Cl  Cl46  1  0.98991000  0.21208100  0.75974800  1
  Cl  Cl47  1  0.01009000  0.78791900  0.24025200  1
  Cl  Cl48  1  0.22288400  0.76949600  0.42329500  1
  Cl  Cl49  1  0.77711600  0.23050400  0.57670500  1
  Cl  Cl50  1  0.85145100  0.82142100  0.51838400  1
  Cl  Cl51  1  0.14854900  0.17857900  0.48161600  1
  Cl  Cl52  1  0.37292300  0.44999800  0.40506100  1
  Cl  Cl53  1  0.62707700  0.55000200  0.59493900  1
  O  O54  1  0.04518000  0.76510000  0.68328700  1
  O  O55  1  0.95482000  0.23490000  0.31671300  1
  O  O56  1  0.14933600  0.87713600  0.76007000  1
  O  O57  1  0.85066400  0.12286400  0.23993000  1
  O  O58  1  0.31388100  0.20342700  0.65281800  1
  O  O59  1  0.68611900  0.79657300  0.34718200  1
  O  O60  1  0.48860200  0.03568000  0.68157200  1
  O  O61  1  0.51139800  0.96432000  0.31842800  1
  O  O62  1  0.66979900  0.28847200  0.82338900  1
  O  O63  1  0.33020100  0.71152800  0.17661100  1
  O  O64  1  0.47097600  0.17014900  0.93859700  1
  O  O65  1  0.52902400  0.82985100  0.06140300  1
  O  O66  1  0.91261600  0.85218600  0.93710800  1
  O  O67  1  0.08738400  0.14781400  0.06289200  1
  O  O68  1  0.42763000  0.70825000  0.90611400  1
  O  O69  1  0.57237000  0.29175000  0.09388600  1
