# generated using pymatgen
data_Sb2H3CNF14
_symmetry_space_group_name_H-M   'P 1'
_cell_length_a   7.82135400
_cell_length_b   7.84499100
_cell_length_c   10.15989044
_cell_angle_alpha   90.00000000
_cell_angle_beta   98.43888227
_cell_angle_gamma   90.00000000
_symmetry_Int_Tables_number   1
_chemical_formula_structural   Sb2H3CNF14
_chemical_formula_sum   'Sb4 H6 C2 N2 F28'
_cell_volume   616.64562918
_cell_formula_units_Z   2
loop_
 _symmetry_equiv_pos_site_id
 _symmetry_equiv_pos_as_xyz
  1  'x, y, z'
loop_
 _atom_site_type_symbol
 _atom_site_label
 _atom_site_symmetry_multiplicity
 _atom_site_fract_x
 _atom_site_fract_y
 _atom_site_fract_z
 _atom_site_occupancy
  Sb  Sb0  1  0.24955700  0.25000000  0.47417800  1
  Sb  Sb1  1  0.75044300  0.75000000  0.52582200  1
  Sb  Sb2  1  0.49790300  0.25000000  0.16675300  1
  Sb  Sb3  1  0.50209700  0.75000000  0.83324700  1
  H  H4  1  0.82757300  0.25000000  0.68060100  1
  H  H5  1  0.17242700  0.75000000  0.31939900  1
  H  H6  1  0.72343700  0.35871200  0.78932200  1
  H  H7  1  0.27656300  0.85871200  0.21067800  1
  H  H8  1  0.27656300  0.64128800  0.21067800  1
  H  H9  1  0.72343700  0.14128800  0.78932200  1
  C  C10  1  0.95756300  0.25000000  0.87529900  1
  C  C11  1  0.04243700  0.75000000  0.12470100  1
  N  N12  1  0.79551800  0.25000000  0.77588700  1
  N  N13  1  0.20448200  0.75000000  0.22411300  1
  F  F14  1  0.09409600  0.25000000  0.31237700  1
  F  F15  1  0.90590400  0.75000000  0.68762300  1
  F  F16  1  0.26327000  0.00816100  0.45973000  1
  F  F17  1  0.73673000  0.50816100  0.54027000  1
  F  F18  1  0.73673000  0.99183900  0.54027000  1
  F  F19  1  0.26327000  0.49183900  0.45973000  1
  F  F20  1  0.45169700  0.25000000  0.36073500  1
  F  F21  1  0.54830300  0.75000000  0.63926500  1
  F  F22  1  0.53221300  0.25000000  0.98572500  1
  F  F23  1  0.46778700  0.75000000  0.01427500  1
  F  F24  1  0.66103700  0.07704100  0.22127300  1
  F  F25  1  0.33896300  0.57704100  0.77872700  1
  F  F26  1  0.33896300  0.92295900  0.77872700  1
  F  F27  1  0.66103700  0.42295900  0.22127300  1
  F  F28  1  0.32040600  0.42157800  0.13807200  1
  F  F29  1  0.67959400  0.92157800  0.86192800  1
  F  F30  1  0.67959400  0.57842200  0.86192800  1
  F  F31  1  0.32040600  0.07842200  0.13807200  1
  F  F32  1  0.07444800  0.25000000  0.58574400  1
  F  F33  1  0.92555200  0.75000000  0.41425600  1
  F  F34  1  0.43530500  0.25000000  0.61765100  1
  F  F35  1  0.56469500  0.75000000  0.38234900  1
  F  F36  1  0.04812300  0.10997900  0.85642800  1
  F  F37  1  0.95187700  0.60997900  0.14357200  1
  F  F38  1  0.95187700  0.89002100  0.14357200  1
  F  F39  1  0.04812300  0.39002100  0.85642800  1
  F  F40  1  0.91439000  0.25000000  0.99803600  1
  F  F41  1  0.08561000  0.75000000  0.00196400  1
