# generated using pymatgen
data_ZnH8C4(NO3)2
_symmetry_space_group_name_H-M   'P 1'
_cell_length_a   8.29210600
_cell_length_b   10.46536700
_cell_length_c   9.78029776
_cell_angle_alpha   90.00000000
_cell_angle_beta   117.10653597
_cell_angle_gamma   90.00000000
_symmetry_Int_Tables_number   1
_chemical_formula_structural   ZnH8C4(NO3)2
_chemical_formula_sum   'Zn2 H16 C8 N4 O12'
_cell_volume   755.50938992
_cell_formula_units_Z   2
loop_
 _symmetry_equiv_pos_site_id
 _symmetry_equiv_pos_as_xyz
  1  'x, y, z'
loop_
 _atom_site_type_symbol
 _atom_site_label
 _atom_site_symmetry_multiplicity
 _atom_site_fract_x
 _atom_site_fract_y
 _atom_site_fract_z
 _atom_site_occupancy
  Zn  Zn0  1  0.00000000  0.00000000  0.00000000  1
  Zn  Zn1  1  0.00000000  0.50000000  0.50000000  1
  H  H2  1  0.52877500  0.02932200  0.88662800  1
  H  H3  1  0.47122500  0.52932200  0.61337200  1
  H  H4  1  0.47122500  0.97067800  0.11337200  1
  H  H5  1  0.52877500  0.47067800  0.38662800  1
  H  H6  1  0.39164400  0.07370000  0.69278400  1
  H  H7  1  0.60835600  0.57370000  0.80721600  1
  H  H8  1  0.60835600  0.92630000  0.30721600  1
  H  H9  1  0.39164400  0.42630000  0.19278400  1
  H  H10  1  0.12553300  0.05853100  0.71140000  1
  H  H11  1  0.87446700  0.55853100  0.78860000  1
  H  H12  1  0.87446700  0.94146900  0.28860000  1
  H  H13  1  0.12553300  0.44146900  0.21140000  1
  H  H14  1  0.14188900  0.19701100  0.06671600  1
  H  H15  1  0.85811100  0.69701100  0.43328400  1
  H  H16  1  0.85811100  0.80298900  0.93328400  1
  H  H17  1  0.14188900  0.30298900  0.56671600  1
  C  C18  1  0.25371000  0.03682800  0.81474000  1
  C  C19  1  0.74629000  0.53682800  0.68526000  1
  C  C20  1  0.74629000  0.96317200  0.18526000  1
  C  C21  1  0.25371000  0.46317200  0.31474000  1
  C  C22  1  0.32018500  0.14204200  0.35520300  1
  C  C23  1  0.67981500  0.64204200  0.14479700  1
  C  C24  1  0.67981500  0.85795800  0.64479700  1
  C  C25  1  0.32018500  0.35795800  0.85520300  1
  N  N26  1  0.40219500  0.04364100  0.79500200  1
  N  N27  1  0.59780500  0.54364100  0.70499800  1
  N  N28  1  0.59780500  0.95635900  0.20499800  1
  N  N29  1  0.40219500  0.45635900  0.29500200  1
  O  O30  1  0.29651100  0.06597300  0.42888900  1
  O  O31  1  0.70348900  0.56597300  0.07111100  1
  O  O32  1  0.70348900  0.93402700  0.57111100  1
  O  O33  1  0.29651100  0.43402700  0.92888900  1
  O  O34  1  0.96404500  0.83629400  0.92708300  1
  O  O35  1  0.03595500  0.33629400  0.57291700  1
  O  O36  1  0.03595500  0.16370600  0.07291700  1
  O  O37  1  0.96404500  0.66370600  0.42708300  1
  O  O38  1  0.25485900  0.00898200  0.93984900  1
  O  O39  1  0.74514100  0.50898200  0.56015100  1
  O  O40  1  0.74514100  0.99101800  0.06015100  1
  O  O41  1  0.25485900  0.49101800  0.43984900  1
