# generated using pymatgen
data_NaTbH2S2O9
_symmetry_space_group_name_H-M   'P 1'
_cell_length_a   6.98052300
_cell_length_b   6.98052253
_cell_length_c   12.79769900
_cell_angle_alpha   90.00000000
_cell_angle_beta   90.00000000
_cell_angle_gamma   119.99999747
_symmetry_Int_Tables_number   1
_chemical_formula_structural   NaTbH2S2O9
_chemical_formula_sum   'Na3 Tb3 H6 S6 O27'
_cell_volume   540.05554549
_cell_formula_units_Z   3
loop_
 _symmetry_equiv_pos_site_id
 _symmetry_equiv_pos_as_xyz
  1  'x, y, z'
loop_
 _atom_site_type_symbol
 _atom_site_label
 _atom_site_symmetry_multiplicity
 _atom_site_fract_x
 _atom_site_fract_y
 _atom_site_fract_z
 _atom_site_occupancy
  Na  Na0  1  0.47229900  0.00000000  0.83333300  1
  Na  Na1  1  0.52770100  0.52770100  0.50000000  1
  Na  Na2  1  0.00000000  0.47229900  0.16666700  1
  Tb  Tb3  1  0.00000000  0.44127700  0.66666700  1
  Tb  Tb4  1  0.44127700  0.00000000  0.33333300  1
  Tb  Tb5  1  0.55872300  0.55872300  0.00000000  1
  H  H6  1  0.89436700  0.96393400  0.70277600  1
  H  H7  1  0.06956800  0.10563300  0.36944300  1
  H  H8  1  0.03606600  0.93043200  0.03611000  1
  H  H9  1  0.10563300  0.06956800  0.63055700  1
  H  H10  1  0.96393400  0.89436700  0.29722400  1
  H  H11  1  0.93043200  0.03606600  0.96389000  1
  S  S12  1  0.98614800  0.44395700  0.42634100  1
  S  S13  1  0.45780900  0.01385200  0.09300800  1
  S  S14  1  0.55604300  0.54219100  0.75967500  1
  S  S15  1  0.01385200  0.45780900  0.90699200  1
  S  S16  1  0.44395700  0.98614800  0.57365900  1
  S  S17  1  0.54219100  0.55604300  0.24032500  1
  O  O18  1  0.12464300  0.38601700  0.49461100  1
  O  O19  1  0.26137300  0.87535700  0.16127800  1
  O  O20  1  0.61398300  0.73862700  0.82794400  1
  O  O21  1  0.87535700  0.26137300  0.83872200  1
  O  O22  1  0.38601700  0.12464300  0.50538900  1
  O  O23  1  0.73862700  0.61398300  0.17205600  1
  O  O24  1  0.86769800  0.51367800  0.50095400  1
  O  O25  1  0.64598100  0.13230200  0.16762000  1
  O  O26  1  0.48632200  0.35401900  0.83428700  1
  O  O27  1  0.13230200  0.64598100  0.83238000  1
  O  O28  1  0.51367800  0.86769800  0.49904600  1
  O  O29  1  0.35401900  0.48632200  0.16571300  1
  O  O30  1  0.00000000  0.09883300  0.66666700  1
  O  O31  1  0.09883300  0.00000000  0.33333300  1
  O  O32  1  0.90116700  0.90116700  0.00000000  1
  O  O33  1  0.12522300  0.62100200  0.35142300  1
  O  O34  1  0.49577800  0.87477700  0.01809000  1
  O  O35  1  0.37899800  0.50422200  0.68475600  1
  O  O36  1  0.87477700  0.49577800  0.98191000  1
  O  O37  1  0.62100200  0.12522300  0.64857700  1
  O  O38  1  0.50422200  0.37899800  0.31524400  1
  O  O39  1  0.82914500  0.24671200  0.36482600  1
  O  O40  1  0.41756600  0.17085500  0.03149200  1
  O  O41  1  0.75328800  0.58243400  0.69815900  1
  O  O42  1  0.17085500  0.41756600  0.96850800  1
  O  O43  1  0.24671200  0.82914500  0.63517400  1
  O  O44  1  0.58243400  0.75328800  0.30184100  1
