# generated using pymatgen
data_La2B5H9C4O15
_symmetry_space_group_name_H-M   'P 1'
_cell_length_a   6.53838763
_cell_length_b   10.89787700
_cell_length_c   11.54566440
_cell_angle_alpha   61.83926016
_cell_angle_beta   89.87431301
_cell_angle_gamma   89.73368323
_symmetry_Int_Tables_number   1
_chemical_formula_structural   La2B5H9C4O15
_chemical_formula_sum   'La4 B10 H18 C8 O30'
_cell_volume   725.29003254
_cell_formula_units_Z   2
loop_
 _symmetry_equiv_pos_site_id
 _symmetry_equiv_pos_as_xyz
  1  'x, y, z'
loop_
 _atom_site_type_symbol
 _atom_site_label
 _atom_site_symmetry_multiplicity
 _atom_site_fract_x
 _atom_site_fract_y
 _atom_site_fract_z
 _atom_site_occupancy
  La  La0  1  0.33827700  0.86161000  0.52493500  1
  La  La1  1  0.83827700  0.38654400  0.47506500  1
  La  La2  1  0.16817300  0.94520500  0.86438100  1
  La  La3  1  0.66817300  0.80958600  0.13561900  1
  B  B4  1  0.82279500  0.99511800  0.59577700  1
  B  B5  1  0.32279500  0.59089500  0.40422300  1
  B  B6  1  0.71403400  0.99322100  0.80771600  1
  B  B7  1  0.21403400  0.80093700  0.19228400  1
  B  B8  1  0.47610800  0.08041100  0.61429500  1
  B  B9  1  0.97610800  0.69470600  0.38570500  1
  B  B10  1  0.87023600  0.79635900  0.53396400  1
  B  B11  1  0.37023600  0.33032300  0.46603600  1
  B  B12  1  0.13294500  0.14210700  0.48795800  1
  B  B13  1  0.63294500  0.63006500  0.51204200  1
  H  H14  1  0.57598000  0.56430100  0.81139200  1
  H  H15  1  0.07598000  0.37569300  0.18860800  1
  H  H16  1  0.75533700  0.62945700  0.88575700  1
  H  H17  1  0.25533700  0.51521400  0.11424300  1
  H  H18  1  0.57425600  0.50203100  0.98478800  1
  H  H19  1  0.07425600  0.48681800  0.01521200  1
  H  H20  1  0.20637700  0.40815400  0.85678600  1
  H  H21  1  0.70637700  0.26494100  0.14321400  1
  H  H22  1  0.17627400  0.49350100  0.68064000  1
  H  H23  1  0.67627400  0.17414000  0.31936000  1
  H  H24  1  0.95741000  0.44687200  0.78205200  1
  H  H25  1  0.45741000  0.22892400  0.21794800  1
  H  H26  1  0.13263600  0.12676200  0.30559800  1
  H  H27  1  0.63263600  0.43236000  0.69440200  1
  H  H28  1  0.95883900  0.12981300  0.11918000  1
  H  H29  1  0.45883900  0.24899300  0.88082000  1
  H  H30  1  0.18737900  0.09938600  0.11542400  1
  H  H31  1  0.68737900  0.21481000  0.88457600  1
  C  C32  1  0.45343600  0.70707000  0.87558000  1
  C  C33  1  0.95343600  0.58265100  0.12442000  1
  C  C34  1  0.10794500  0.27615000  0.77604700  1
  C  C35  1  0.60794500  0.05219600  0.22395300  1
  C  C36  1  0.59772600  0.59369700  0.88873900  1
  C  C37  1  0.09772600  0.48243600  0.11126100  1
  C  C38  1  0.11404500  0.41479000  0.77500700  1
  C  C39  1  0.61404500  0.18979700  0.22499300  1
  O  O40  1  0.93270800  0.88771100  0.57598200  1
  O  O41  1  0.43270800  0.46369300  0.42401800  1
  O  O42  1  0.85435100  0.95790700  0.73701300  1
  O  O43  1  0.35435100  0.69492000  0.26298700  1
  O  O44  1  0.60209200  0.99797900  0.57060200  1
  O  O45  1  0.10209200  0.56858100  0.42939800  1
  O  O46  1  0.77901900  0.97929400  0.92434800  1
  O  O47  1  0.27901900  0.90364300  0.07565200  1
  O  O48  1  0.52003700  0.04043800  0.75490800  1
  O  O49  1  0.02003700  0.79534600  0.24509200  1
  O  O50  1  0.01976500  0.76566900  0.46630400  1
  O  O51  1  0.51976500  0.23197300  0.53369600  1
  O  O52  1  0.25743900  0.05274900  0.60778000  1
  O  O53  1  0.75743900  0.66052900  0.39222000  1
  O  O54  1  0.18158000  0.29406800  0.44052300  1
  O  O55  1  0.68158000  0.73459100  0.55947700  1
  O  O56  1  0.19969000  0.09646600  0.39191800  1
  O  O57  1  0.69969000  0.48838400  0.60808200  1
  O  O58  1  0.91476400  0.13297700  0.51220100  1
  O  O59  1  0.41476400  0.64517900  0.48779900  1
  O  O60  1  0.45856300  0.75021600  0.96123700  1
  O  O61  1  0.95856300  0.71145300  0.03876300  1
  O  O62  1  0.32424500  0.75920800  0.78076700  1
  O  O63  1  0.82424500  0.53997500  0.21923300  1
  O  O64  1  0.21116600  0.17505900  0.86297300  1
  O  O65  1  0.71116600  0.03803100  0.13702700  1
  O  O66  1  0.00096900  0.26034600  0.69148700  1
  O  O67  1  0.50096900  0.95183300  0.30851300  1
  O  O68  1  0.09461500  0.15502900  0.13867900  1
  O  O69  1  0.59461500  0.29370800  0.86132100  1
