# generated using pymatgen
data_CaSiP2
_symmetry_space_group_name_H-M   'P 1'
_cell_length_a   7.20456200
_cell_length_b   7.20456200
_cell_length_c   26.32007500
_cell_angle_alpha   90.00000000
_cell_angle_beta   90.00000000
_cell_angle_gamma   90.00000000
_symmetry_Int_Tables_number   1
_chemical_formula_structural   CaSiP2
_chemical_formula_sum   'Ca16 Si16 P32'
_cell_volume   1366.16227519
_cell_formula_units_Z   16
loop_
 _symmetry_equiv_pos_site_id
 _symmetry_equiv_pos_as_xyz
  1  'x, y, z'
loop_
 _atom_site_type_symbol
 _atom_site_label
 _atom_site_symmetry_multiplicity
 _atom_site_fract_x
 _atom_site_fract_y
 _atom_site_fract_z
 _atom_site_occupancy
  Ca  Ca0  1  0.65280700  0.37713400  0.31917900  1
  Ca  Ca1  1  0.34719300  0.62286600  0.81917900  1
  Ca  Ca2  1  0.87713400  0.84719300  0.06917900  1
  Ca  Ca3  1  0.12286600  0.15280700  0.56917900  1
  Ca  Ca4  1  0.62286600  0.34719300  0.18082100  1
  Ca  Ca5  1  0.37713400  0.65280700  0.68082100  1
  Ca  Ca6  1  0.84719300  0.87713400  0.93082100  1
  Ca  Ca7  1  0.15280700  0.12286600  0.43082100  1
  Ca  Ca8  1  0.62795200  0.15454300  0.56448200  1
  Ca  Ca9  1  0.37204800  0.84545700  0.06448200  1
  Ca  Ca10  1  0.65454300  0.87204800  0.31448200  1
  Ca  Ca11  1  0.34545700  0.12795200  0.81448200  1
  Ca  Ca12  1  0.84545700  0.37204800  0.93551800  1
  Ca  Ca13  1  0.15454300  0.62795200  0.43551800  1
  Ca  Ca14  1  0.87204800  0.65454300  0.68551800  1
  Ca  Ca15  1  0.12795200  0.34545700  0.18551800  1
  Si  Si16  1  0.62625100  0.11610100  0.70575900  1
  Si  Si17  1  0.37374900  0.88389900  0.20575900  1
  Si  Si18  1  0.61610100  0.87374900  0.45575900  1
  Si  Si19  1  0.38389900  0.12625100  0.95575900  1
  Si  Si20  1  0.88389900  0.37374900  0.79424100  1
  Si  Si21  1  0.11610100  0.62625100  0.29424100  1
  Si  Si22  1  0.87374900  0.61610100  0.54424100  1
  Si  Si23  1  0.12625100  0.38389900  0.04424100  1
  Si  Si24  1  0.61686500  0.37599700  0.45033700  1
  Si  Si25  1  0.38313500  0.62400300  0.95033700  1
  Si  Si26  1  0.87599700  0.88313500  0.20033700  1
  Si  Si27  1  0.12400300  0.11686500  0.70033700  1
  Si  Si28  1  0.62400300  0.38313500  0.04966300  1
  Si  Si29  1  0.37599700  0.61686500  0.54966300  1
  Si  Si30  1  0.88313500  0.87599700  0.79966300  1
  Si  Si31  1  0.11686500  0.12400300  0.29966300  1
  P  P32  1  0.88807800  0.36692100  0.49204500  1
  P  P33  1  0.11192200  0.63307900  0.99204500  1
  P  P34  1  0.86692100  0.61192200  0.24204500  1
  P  P35  1  0.13307900  0.38807800  0.74204500  1
  P  P36  1  0.63307900  0.11192200  0.00795500  1
  P  P37  1  0.36692100  0.88807800  0.50795500  1
  P  P38  1  0.61192200  0.86692100  0.75795500  1
  P  P39  1  0.38807800  0.13307900  0.25795500  1
  P  P40  1  0.13562700  0.86437300  0.75000000  1
  P  P41  1  0.86437300  0.13562700  0.25000000  1
  P  P42  1  0.36437300  0.36437300  0.50000000  1
  P  P43  1  0.63562700  0.63562700  0.00000000  1
  P  P44  1  0.57296400  0.11838600  0.40246700  1
  P  P45  1  0.42703600  0.88161400  0.90246700  1
  P  P46  1  0.61838600  0.92703600  0.15246700  1
  P  P47  1  0.38161400  0.07296400  0.65246700  1
  P  P48  1  0.88161400  0.42703600  0.09753300  1
  P  P49  1  0.11838600  0.57296400  0.59753300  1
  P  P50  1  0.92703600  0.61838600  0.84753300  1
  P  P51  1  0.07296400  0.38161400  0.34753300  1
  P  P52  1  0.61526200  0.38473800  0.75000000  1
  P  P53  1  0.38473800  0.61526200  0.25000000  1
  P  P54  1  0.88473800  0.88473800  0.50000000  1
  P  P55  1  0.11526200  0.11526200  0.00000000  1
  P  P56  1  0.86869200  0.06714300  0.65186000  1
  P  P57  1  0.13130800  0.93285700  0.15186000  1
  P  P58  1  0.56714300  0.63130800  0.40186000  1
  P  P59  1  0.43285700  0.36869200  0.90186000  1
  P  P60  1  0.93285700  0.13130800  0.84814000  1
  P  P61  1  0.06714300  0.86869200  0.34814000  1
  P  P62  1  0.63130800  0.56714300  0.59814000  1
  P  P63  1  0.36869200  0.43285700  0.09814000  1
