# generated using pymatgen
data_Na4NiMo6(H19O20)2
_symmetry_space_group_name_H-M   'P 1'
_cell_length_a   7.97357286
_cell_length_b   10.57138703
_cell_length_c   12.51261217
_cell_angle_alpha   105.95504250
_cell_angle_beta   108.92477893
_cell_angle_gamma   96.19252342
_symmetry_Int_Tables_number   1
_chemical_formula_structural   Na4NiMo6(H19O20)2
_chemical_formula_sum   'Na4 Ni1 Mo6 H38 O40'
_cell_volume   936.48609228
_cell_formula_units_Z   1
loop_
 _symmetry_equiv_pos_site_id
 _symmetry_equiv_pos_as_xyz
  1  'x, y, z'
loop_
 _atom_site_type_symbol
 _atom_site_label
 _atom_site_symmetry_multiplicity
 _atom_site_fract_x
 _atom_site_fract_y
 _atom_site_fract_z
 _atom_site_occupancy
  Na  Na0  1  0.80429100  0.86046400  0.58109900  1
  Na  Na1  1  0.19570900  0.13953600  0.41890100  1
  Na  Na2  1  0.20493000  0.86027300  0.80017200  1
  Na  Na3  1  0.79507000  0.13972700  0.19982800  1
  Ni  Ni4  1  0.00000000  0.50000000  0.00000000  1
  Mo  Mo5  1  0.87287700  0.26341000  0.72897600  1
  Mo  Mo6  1  0.12712300  0.73659000  0.27102400  1
  Mo  Mo7  1  0.25092500  0.27035100  0.95302100  1
  Mo  Mo8  1  0.74907500  0.72964900  0.04697900  1
  Mo  Mo9  1  0.36621700  0.49753500  0.23111100  1
  Mo  Mo10  1  0.63378300  0.50246500  0.76888900  1
  H  H11  1  0.00753400  0.54125800  0.79529500  1
  H  H12  1  0.99246600  0.45874200  0.20470500  1
  H  H13  1  0.88888100  0.23585300  0.95501100  1
  H  H14  1  0.11111900  0.76414700  0.04498900  1
  H  H15  1  0.35480200  0.55861100  0.02674600  1
  H  H16  1  0.64519800  0.44138900  0.97325400  1
  H  H17  1  0.57480000  0.80173800  0.33104300  1
  H  H18  1  0.42520000  0.19826200  0.66895700  1
  H  H19  1  0.75846400  0.78723800  0.31511300  1
  H  H20  1  0.24153600  0.21276200  0.68488700  1
  H  H21  1  0.39676600  0.73000900  0.50038600  1
  H  H22  1  0.60323400  0.26999100  0.49961400  1
  H  H23  1  0.47639600  0.78238700  0.63782800  1
  H  H24  1  0.52360400  0.21761300  0.36217200  1
  H  H25  1  0.93388400  0.93942800  0.84977100  1
  H  H26  1  0.06611600  0.06057200  0.15022900  1
  H  H27  1  0.84392600  0.78740400  0.81767000  1
  H  H28  1  0.15607400  0.21259600  0.18233000  1
  H  H29  1  0.13403300  0.83862900  0.54457200  1
  H  H30  1  0.86596700  0.16137100  0.45542800  1
  H  H31  1  0.19754800  0.99339700  0.62082100  1
  H  H32  1  0.80245200  0.00660300  0.37917900  1
  H  H33  1  0.79506700  0.59038900  0.44286200  1
  H  H34  1  0.20493300  0.40961100  0.55713800  1
  H  H35  1  0.75540000  0.58557100  0.55720500  1
  H  H36  1  0.24460000  0.41442900  0.44279500  1
  H  H37  1  0.37291500  0.79457500  0.01708700  1
  H  H38  1  0.62708500  0.20542500  0.98291300  1
  H  H39  1  0.34954600  0.94477900  0.04917000  1
  H  H40  1  0.65045400  0.05522100  0.95083000  1
  H  H41  1  0.59197400  0.82013300  0.83960900  1
  H  H42  1  0.40802600  0.17986700  0.16039100  1
  H  H43  1  0.58643100  0.93463100  0.78170500  1
  H  H44  1  0.41356900  0.06536900  0.21829500  1
  H  H45  1  0.22177100  0.56741100  0.72714200  1
  H  H46  1  0.77822900  0.43258900  0.27285800  1
  H  H47  1  0.04266100  0.60182000  0.64462100  1
  H  H48  1  0.95733900  0.39818000  0.35537900  1
  O  O49  1  0.93145500  0.48791500  0.82440000  1
  O  O50  1  0.06854500  0.51208500  0.17560000  1
  O  O51  1  0.96459800  0.29297500  0.92939500  1
  O  O52  1  0.03540200  0.70702500  0.07060500  1
  O  O53  1  0.27220900  0.49226500  0.03979700  1
  O  O54  1  0.72779100  0.50773500  0.96020300  1
  O  O55  1  0.14186900  0.28773100  0.79696100  1
  O  O56  1  0.85813100  0.71226900  0.20303900  1
  O  O57  1  0.28276100  0.30450700  0.12597200  1
  O  O58  1  0.71723900  0.69549300  0.87402800  1
  O  O59  1  0.35788900  0.69048200  0.26622700  1
  O  O60  1  0.64211100  0.30951800  0.73377300  1
  O  O61  1  0.86686500  0.28399000  0.59322900  1
  O  O62  1  0.13313500  0.71601000  0.40677100  1
  O  O63  1  0.80410900  0.08993800  0.69576300  1
  O  O64  1  0.19589100  0.91006200  0.30423700  1
  O  O65  1  0.20021300  0.09516100  0.91907100  1
  O  O66  1  0.79978700  0.90483900  0.08092900  1
  O  O67  1  0.48067200  0.30936800  0.96789600  1
  O  O68  1  0.51932800  0.69063200  0.03210400  1
  O  O69  1  0.60010100  0.51937300  0.25934500  1
  O  O70  1  0.39989900  0.48062700  0.74065500  1
  O  O71  1  0.34702200  0.46726600  0.35709000  1
  O  O72  1  0.65297800  0.53273400  0.64291000  1
  O  O73  1  0.70667000  0.84333700  0.36829200  1
  O  O74  1  0.29333000  0.15666300  0.63170800  1
  O  O75  1  0.50839600  0.77982900  0.56843800  1
  O  O76  1  0.49160400  0.22017100  0.43156200  1
  O  O77  1  0.89533400  0.85243000  0.78628500  1
  O  O78  1  0.10466600  0.14757000  0.21371500  1
  O  O79  1  0.12889200  0.90587900  0.61528100  1
  O  O80  1  0.87110800  0.09412100  0.38471900  1
  O  O81  1  0.84574100  0.62618700  0.53031800  1
  O  O82  1  0.15425900  0.37381300  0.46968200  1
  O  O83  1  0.28188700  0.85155700  0.00167200  1
  O  O84  1  0.71811300  0.14844300  0.99832800  1
  O  O85  1  0.52242400  0.88890800  0.81981300  1
  O  O86  1  0.47757600  0.11109200  0.18018700  1
  O  O87  1  0.12721300  0.62084200  0.72811400  1
  O  O88  1  0.87278700  0.37915800  0.27188600  1
