# generated using pymatgen
data_Te4Mo3WSe4
_symmetry_space_group_name_H-M   'P 1'
_cell_length_a   3.43637248
_cell_length_b   3.43637248
_cell_length_c   39.11837900
_cell_angle_alpha   90.00000000
_cell_angle_beta   90.00000000
_cell_angle_gamma   120.00000919
_symmetry_Int_Tables_number   1
_chemical_formula_structural   Te4Mo3WSe4
_chemical_formula_sum   'Te4 Mo3 W1 Se4'
_cell_volume   400.04781763
_cell_formula_units_Z   1
loop_
 _symmetry_equiv_pos_site_id
 _symmetry_equiv_pos_as_xyz
  1  'x, y, z'
loop_
 _atom_site_type_symbol
 _atom_site_label
 _atom_site_symmetry_multiplicity
 _atom_site_fract_x
 _atom_site_fract_y
 _atom_site_fract_z
 _atom_site_occupancy
  Te  Te0  1  0.33333300  0.66666700  0.32920200  1
  Te  Te1  1  0.66666700  0.33333300  0.42225900  1
  Te  Te2  1  0.66666700  0.33333300  0.51710700  1
  Te  Te3  1  0.33333300  0.66666700  0.23431900  1
  Mo  Mo4  1  0.33333300  0.66666700  0.09392100  1
  Mo  Mo5  1  0.33333300  0.66666700  0.46970900  1
  Mo  Mo6  1  0.66666700  0.33333300  0.28176000  1
  W  W7  1  0.66666700  0.33333300  0.65754700  1
  Se  Se8  1  0.33333300  0.66666700  0.69949500  1
  Se  Se9  1  0.66666700  0.33333300  0.05209700  1
  Se  Se10  1  0.66666700  0.33333300  0.13575000  1
  Se  Se11  1  0.33333300  0.66666700  0.61558200  1
