# generated using pymatgen
data_MnB2H17N3
_symmetry_space_group_name_H-M   'P 1'
_cell_length_a   8.46228300
_cell_length_b   9.70614600
_cell_length_c   12.03806200
_cell_angle_alpha   90.00000000
_cell_angle_beta   90.00000000
_cell_angle_gamma   90.00000000
_symmetry_Int_Tables_number   1
_chemical_formula_structural   MnB2H17N3
_chemical_formula_sum   'Mn4 B8 H68 N12'
_cell_volume   988.76011780
_cell_formula_units_Z   4
loop_
 _symmetry_equiv_pos_site_id
 _symmetry_equiv_pos_as_xyz
  1  'x, y, z'
loop_
 _atom_site_type_symbol
 _atom_site_label
 _atom_site_symmetry_multiplicity
 _atom_site_fract_x
 _atom_site_fract_y
 _atom_site_fract_z
 _atom_site_occupancy
  Mn  Mn0  1  0.25000000  0.96602600  0.30842300  1
  Mn  Mn1  1  0.25000000  0.53397400  0.80842300  1
  Mn  Mn2  1  0.75000000  0.03397400  0.69157700  1
  Mn  Mn3  1  0.75000000  0.46602600  0.19157700  1
  B  B4  1  0.25000000  0.31145600  0.90998400  1
  B  B5  1  0.25000000  0.18854400  0.40998400  1
  B  B6  1  0.75000000  0.68854400  0.09001600  1
  B  B7  1  0.75000000  0.81145600  0.59001600  1
  B  B8  1  0.75000000  0.20548000  0.13985000  1
  B  B9  1  0.75000000  0.29452000  0.63985000  1
  B  B10  1  0.25000000  0.79452000  0.86015000  1
  B  B11  1  0.25000000  0.70548000  0.36015000  1
  H  H12  1  0.25000000  0.59988100  0.58084900  1
  H  H13  1  0.25000000  0.90011900  0.08084900  1
  H  H14  1  0.75000000  0.40011900  0.41915100  1
  H  H15  1  0.75000000  0.09988100  0.91915100  1
  H  H16  1  0.15477700  0.45541300  0.59083200  1
  H  H17  1  0.34522300  0.04458700  0.09083200  1
  H  H18  1  0.65477700  0.54458700  0.40916800  1
  H  H19  1  0.84522300  0.95541300  0.90916800  1
  H  H20  1  0.84522300  0.54458700  0.40916800  1
  H  H21  1  0.65477700  0.95541300  0.90916800  1
  H  H22  1  0.34522300  0.45541300  0.59083200  1
  H  H23  1  0.15477700  0.04458700  0.09083200  1
  H  H24  1  0.06253600  0.97828600  0.63638700  1
  H  H25  1  0.43746400  0.52171400  0.13638700  1
  H  H26  1  0.56253600  0.02171400  0.36361300  1
  H  H27  1  0.93746400  0.47828600  0.86361300  1
  H  H28  1  0.93746400  0.02171400  0.36361300  1
  H  H29  1  0.56253600  0.47828600  0.86361300  1
  H  H30  1  0.43746400  0.97828600  0.63638700  1
  H  H31  1  0.06253600  0.52171400  0.13638700  1
  H  H32  1  0.05141300  0.14348600  0.66736700  1
  H  H33  1  0.44858700  0.35651400  0.16736700  1
  H  H34  1  0.55141300  0.85651400  0.33263300  1
  H  H35  1  0.94858700  0.64348600  0.83263300  1
  H  H36  1  0.94858700  0.85651400  0.33263300  1
  H  H37  1  0.55141300  0.64348600  0.83263300  1
  H  H38  1  0.44858700  0.14348600  0.66736700  1
  H  H39  1  0.05141300  0.35651400  0.16736700  1
  H  H40  1  0.06629400  0.02686600  0.76628100  1
  H  H41  1  0.43370600  0.47313400  0.26628100  1
  H  H42  1  0.56629400  0.97313400  0.23371900  1
  H  H43  1  0.93370600  0.52686600  0.73371900  1
  H  H44  1  0.93370600  0.97313400  0.23371900  1
  H  H45  1  0.56629400  0.52686600  0.73371900  1
  H  H46  1  0.43370600  0.02686600  0.76628100  1
  H  H47  1  0.06629400  0.47313400  0.26628100  1
  H  H48  1  0.25000000  0.42712600  0.95621900  1
  H  H49  1  0.25000000  0.07287400  0.45621900  1
  H  H50  1  0.75000000  0.57287400  0.04378100  1
  H  H51  1  0.75000000  0.92712600  0.54378100  1
  H  H52  1  0.25000000  0.32558800  0.80674700  1
  H  H53  1  0.25000000  0.17441200  0.30674700  1
  H  H54  1  0.75000000  0.67441200  0.19325300  1
  H  H55  1  0.75000000  0.82558800  0.69325300  1
  H  H56  1  0.12890400  0.25106500  0.93602800  1
  H  H57  1  0.37109600  0.24893500  0.43602800  1
  H  H58  1  0.62890400  0.74893500  0.06397200  1
  H  H59  1  0.87109600  0.75106500  0.56397200  1
  H  H60  1  0.87109600  0.74893500  0.06397200  1
  H  H61  1  0.62890400  0.75106500  0.56397200  1
  H  H62  1  0.37109600  0.25106500  0.93602800  1
  H  H63  1  0.12890400  0.24893500  0.43602800  1
  H  H64  1  0.63037400  0.19695600  0.19654000  1
  H  H65  1  0.86962600  0.30304400  0.69654000  1
  H  H66  1  0.13037400  0.80304400  0.80346000  1
  H  H67  1  0.36962600  0.69695600  0.30346000  1
  H  H68  1  0.36962600  0.80304400  0.80346000  1
  H  H69  1  0.13037400  0.69695600  0.30346000  1
  H  H70  1  0.86962600  0.19695600  0.19654000  1
  H  H71  1  0.63037400  0.30304400  0.69654000  1
  H  H72  1  0.75000000  0.31490100  0.08405100  1
  H  H73  1  0.75000000  0.18509900  0.58405100  1
  H  H74  1  0.25000000  0.68509900  0.91594900  1
  H  H75  1  0.25000000  0.81490100  0.41594900  1
  H  H76  1  0.75000000  0.11560600  0.06964700  1
  H  H77  1  0.75000000  0.38439400  0.56964700  1
  H  H78  1  0.25000000  0.88439400  0.93035300  1
  H  H79  1  0.25000000  0.61560600  0.43035300  1
  N  N80  1  0.25000000  0.50715300  0.62269100  1
  N  N81  1  0.25000000  0.99284700  0.12269100  1
  N  N82  1  0.75000000  0.49284700  0.37730900  1
  N  N83  1  0.75000000  0.00715300  0.87730900  1
  N  N84  1  0.01540800  0.04756600  0.69099100  1
  N  N85  1  0.48459200  0.45243400  0.19099100  1
  N  N86  1  0.51540800  0.95243400  0.30900900  1
  N  N87  1  0.98459200  0.54756600  0.80900900  1
  N  N88  1  0.98459200  0.95243400  0.30900900  1
  N  N89  1  0.51540800  0.54756600  0.80900900  1
  N  N90  1  0.48459200  0.04756600  0.69099100  1
  N  N91  1  0.01540800  0.45243400  0.19099100  1
