# generated using pymatgen
data_Cs2ErSi6O14F
_symmetry_space_group_name_H-M   'P 1'
_cell_length_a   14.68463990
_cell_length_b   15.28679061
_cell_length_c   15.28679061
_cell_angle_alpha   109.99335729
_cell_angle_beta   90.00000000
_cell_angle_gamma   90.00000000
_symmetry_Int_Tables_number   1
_chemical_formula_structural   Cs2ErSi6O14F
_chemical_formula_sum   'Cs16 Er8 Si48 O112 F8'
_cell_volume   3224.77987010
_cell_formula_units_Z   8
loop_
 _symmetry_equiv_pos_site_id
 _symmetry_equiv_pos_as_xyz
  1  'x, y, z'
loop_
 _atom_site_type_symbol
 _atom_site_label
 _atom_site_symmetry_multiplicity
 _atom_site_fract_x
 _atom_site_fract_y
 _atom_site_fract_z
 _atom_site_occupancy
  Cs  Cs0  1  0.98040354  0.09373806  0.90626194  1
  Cs  Cs1  1  0.01959646  0.90626194  0.09373806  1
  Cs  Cs2  1  0.48040354  0.40626194  0.59373806  1
  Cs  Cs3  1  0.51959646  0.59373806  0.40626194  1
  Cs  Cs4  1  0.99779288  0.61341383  0.38658617  1
  Cs  Cs5  1  0.00220712  0.38658617  0.61341383  1
  Cs  Cs6  1  0.49779288  0.88658617  0.11341383  1
  Cs  Cs7  1  0.50220712  0.11341383  0.88658617  1
  Cs  Cs8  1  0.98855842  0.89519887  0.60209767  1
  Cs  Cs9  1  0.01144158  0.60209767  0.89519887  1
  Cs  Cs10  1  0.48855842  0.10209767  0.39519887  1
  Cs  Cs11  1  0.51144158  0.39519887  0.10209767  1
  Cs  Cs12  1  0.01144158  0.10480113  0.39790233  1
  Cs  Cs13  1  0.98855842  0.39790233  0.10480113  1
  Cs  Cs14  1  0.51144158  0.89790233  0.60480113  1
  Cs  Cs15  1  0.48855842  0.60480113  0.89790233  1
  Er  Er16  1  0.74829316  0.74979145  0.49965446  1
  Er  Er17  1  0.25170684  0.49965446  0.74979145  1
  Er  Er18  1  0.24829316  0.99965446  0.24979145  1
  Er  Er19  1  0.75170684  0.24979145  0.99965446  1
  Er  Er20  1  0.25170684  0.25020855  0.50034554  1
  Er  Er21  1  0.74829316  0.50034554  0.25020855  1
  Er  Er22  1  0.75170684  0.00034554  0.75020855  1
  Er  Er23  1  0.24829316  0.75020855  0.00034554  1
  Si  Si24  1  0.10243447  0.63059919  0.65553562  1
  Si  Si25  1  0.89756553  0.65553562  0.63059919  1
  Si  Si26  1  0.60243447  0.15553562  0.13059919  1
  Si  Si27  1  0.39756553  0.13059919  0.15553562  1
  Si  Si28  1  0.89756553  0.36940081  0.34446438  1
  Si  Si29  1  0.10243447  0.34446438  0.36940081  1
  Si  Si30  1  0.39756553  0.84446438  0.86940081  1
  Si  Si31  1  0.60243447  0.86940081  0.84446438  1
  Si  Si32  1  0.24862747  0.83996849  0.47953382  1
  Si  Si33  1  0.75137253  0.47953382  0.83996849  1
  Si  Si34  1  0.74862747  0.97953382  0.33996849  1
  Si  Si35  1  0.25137253  0.33996849  0.97953382  1
  Si  Si36  1  0.75137253  0.16003151  0.52046618  1
  Si  Si37  1  0.24862747  0.52046618  0.16003151  1
  Si  Si38  1  0.25137253  0.02046618  0.66003151  1
  Si  Si39  1  0.74862747  0.66003151  0.02046618  1
  Si  Si40  1  0.39364173  0.67368902  0.68126270  1
  Si  Si41  1  0.60635827  0.68126270  0.67368902  1
  Si  Si42  1  0.89364173  0.18126270  0.17368902  1
  Si  Si43  1  0.10635827  0.17368902  0.18126270  1
  Si  Si44  1  0.60635827  0.32631098  0.31873730  1
  Si  Si45  1  0.39364173  0.31873730  0.32631098  1
  Si  Si46  1  0.10635827  0.81873730  0.82631098  1
  Si  Si47  1  0.89364173  0.82631098  0.81873730  1
  Si  Si48  1  0.89407041  0.83632762  0.34205517  1
  Si  Si49  1  0.10592959  0.34205517  0.83632762  1
  Si  Si50  1  0.39407041  0.84205517  0.33632762  1
  Si  Si51  1  0.60592959  0.33632762  0.84205517  1
  Si  Si52  1  0.10592959  0.16367238  0.65794483  1
  Si  Si53  1  0.89407041  0.65794483  0.16367238  1
  Si  Si54  1  0.60592959  0.15794483  0.66367238  1
  Si  Si55  1  0.39407041  0.66367238  0.15794483  1
  Si  Si56  1  0.10466517  0.85148160  0.32745516  1
  Si  Si57  1  0.89533483  0.32745516  0.85148160  1
  Si  Si58  1  0.60466517  0.82745516  0.35148160  1
  Si  Si59  1  0.39533483  0.35148160  0.82745516  1
  Si  Si60  1  0.89533483  0.14851840  0.67254484  1
  Si  Si61  1  0.10466517  0.67254484  0.14851840  1
  Si  Si62  1  0.39533483  0.17254484  0.64851840  1
  Si  Si63  1  0.60466517  0.64851840  0.17254484  1
  Si  Si64  1  0.25684902  0.65465392  0.52176375  1
  Si  Si65  1  0.74315098  0.52176375  0.65465392  1
  Si  Si66  1  0.75684902  0.02176375  0.15465392  1
  Si  Si67  1  0.24315098  0.15465392  0.02176375  1
  Si  Si68  1  0.74315098  0.34534608  0.47823625  1
  Si  Si69  1  0.25684902  0.47823625  0.34534608  1
  Si  Si70  1  0.24315098  0.97823625  0.84534608  1
  Si  Si71  1  0.75684902  0.84534608  0.97823625  1
  O  O72  1  0.16999024  0.61993431  0.56615822  1
  O  O73  1  0.83000976  0.56615822  0.61993431  1
  O  O74  1  0.66999024  0.06615822  0.11993431  1
  O  O75  1  0.33000976  0.11993431  0.06615822  1
  O  O76  1  0.83000976  0.38006569  0.43384178  1
  O  O77  1  0.16999024  0.43384178  0.38006569  1
  O  O78  1  0.33000976  0.93384178  0.88006569  1
  O  O79  1  0.66999024  0.88006569  0.93384178  1
  O  O80  1  0.34818761  0.59405409  0.71222575  1
  O  O81  1  0.65181239  0.71222575  0.59405409  1
  O  O82  1  0.84818761  0.21222575  0.09405409  1
  O  O83  1  0.15181239  0.09405409  0.21222575  1
  O  O84  1  0.65181239  0.40594591  0.28777425  1
  O  O85  1  0.34818761  0.28777425  0.40594591  1
  O  O86  1  0.15181239  0.78777425  0.90594591  1
  O  O87  1  0.84818761  0.90594591  0.78777425  1
  O  O88  1  0.11608356  0.74164525  0.25835475  1
  O  O89  1  0.88391644  0.25835475  0.74164525  1
  O  O90  1  0.61608356  0.75835475  0.24164525  1
  O  O91  1  0.38391644  0.24164525  0.75835475  1
  O  O92  1  0.22231989  0.73834653  0.48576197  1
  O  O93  1  0.77768011  0.48576197  0.73834653  1
  O  O94  1  0.72231989  0.98576197  0.23834653  1
  O  O95  1  0.27768011  0.23834653  0.98576197  1
  O  O96  1  0.77768011  0.26165347  0.51423803  1
  O  O97  1  0.22231989  0.51423803  0.26165347  1
  O  O98  1  0.27768011  0.01423803  0.76165347  1
  O  O99  1  0.72231989  0.76165347  0.01423803  1
  O  O100  1  0.84482236  0.79573694  0.41277355  1
  O  O101  1  0.15517764  0.41277355  0.79573694  1
  O  O102  1  0.34482236  0.91277355  0.29573694  1
  O  O103  1  0.65517764  0.29573694  0.91277355  1
  O  O104  1  0.15517764  0.20426306  0.58722645  1
  O  O105  1  0.84482236  0.58722645  0.20426306  1
  O  O106  1  0.65517764  0.08722645  0.70426306  1
  O  O107  1  0.34482236  0.70426306  0.08722645  1
  O  O108  1  0.00122558  0.86332100  0.37420801  1
  O  O109  1  0.99877442  0.37420801  0.86332100  1
  O  O110  1  0.50122558  0.87420801  0.36332100  1
  O  O111  1  0.49877442  0.36332100  0.87420801  1
  O  O112  1  0.99877442  0.13667900  0.62579199  1
  O  O113  1  0.00122558  0.62579199  0.13667900  1
  O  O114  1  0.49877442  0.12579199  0.63667900  1
  O  O115  1  0.50122558  0.63667900  0.12579199  1
  O  O116  1  0.00000000  0.60733112  0.60733112  1
  O  O117  1  0.50000000  0.10733112  0.10733112  1
  O  O118  1  0.00000000  0.39266888  0.39266888  1
  O  O119  1  0.50000000  0.89266888  0.89266888  1
  O  O120  1  0.16910134  0.86663439  0.42001979  1
  O  O121  1  0.83089866  0.42001979  0.86663439  1
  O  O122  1  0.66910134  0.92001979  0.36663439  1
  O  O123  1  0.33089866  0.36663439  0.92001979  1
  O  O124  1  0.83089866  0.13336561  0.57998021  1
  O  O125  1  0.16910134  0.57998021  0.13336561  1
  O  O126  1  0.33089866  0.07998021  0.63336561  1
  O  O127  1  0.66910134  0.63336561  0.07998021  1
  O  O128  1  0.12448349  0.92815184  0.28016805  1
  O  O129  1  0.87551651  0.28016805  0.92815184  1
  O  O130  1  0.62448349  0.78016805  0.42815184  1
  O  O131  1  0.37551651  0.42815184  0.78016805  1
  O  O132  1  0.87551651  0.07184816  0.71983195  1
  O  O133  1  0.12448349  0.71983195  0.07184816  1
  O  O134  1  0.37551651  0.21983195  0.57184816  1
  O  O135  1  0.62448349  0.57184816  0.21983195  1
  O  O136  1  0.50000000  0.64554986  0.64554986  1
  O  O137  1  0.00000000  0.14554986  0.14554986  1
  O  O138  1  0.50000000  0.35445014  0.35445014  1
  O  O139  1  0.00000000  0.85445014  0.85445014  1
  O  O140  1  0.35015150  0.83886564  0.43575853  1
  O  O141  1  0.64984850  0.43575853  0.83886564  1
  O  O142  1  0.85015150  0.93575853  0.33886564  1
  O  O143  1  0.14984850  0.33886564  0.93575853  1
  O  O144  1  0.64984850  0.16113436  0.56424147  1
  O  O145  1  0.35015150  0.56424147  0.16113436  1
  O  O146  1  0.14984850  0.06424147  0.66113436  1
  O  O147  1  0.85015150  0.66113436  0.06424147  1
  O  O148  1  0.25000000  0.91412783  0.58587217  1
  O  O149  1  0.75000000  0.58587217  0.91412783  1
  O  O150  1  0.75000000  0.08587217  0.41412783  1
  O  O151  1  0.25000000  0.41412783  0.08587217  1
  O  O152  1  0.34375631  0.69034996  0.59051241  1
  O  O153  1  0.65624369  0.59051241  0.69034996  1
  O  O154  1  0.84375631  0.09051241  0.19034996  1
  O  O155  1  0.15624369  0.19034996  0.09051241  1
  O  O156  1  0.65624369  0.30965004  0.40948759  1
  O  O157  1  0.34375631  0.40948759  0.30965004  1
  O  O158  1  0.15624369  0.90948759  0.80965004  1
  O  O159  1  0.84375631  0.80965004  0.90948759  1
  O  O160  1  0.10376399  0.74151592  0.72036176  1
  O  O161  1  0.89623601  0.72036176  0.74151592  1
  O  O162  1  0.60376399  0.22036176  0.24151592  1
  O  O163  1  0.39623601  0.24151592  0.22036176  1
  O  O164  1  0.89623601  0.25848408  0.27963824  1
  O  O165  1  0.10376399  0.27963824  0.25848408  1
  O  O166  1  0.39623601  0.77963824  0.75848408  1
  O  O167  1  0.60376399  0.75848408  0.77963824  1
  O  O168  1  0.89617684  0.76784231  0.23215769  1
  O  O169  1  0.10382316  0.23215769  0.76784231  1
  O  O170  1  0.39617684  0.73215769  0.26784231  1
  O  O171  1  0.60382316  0.26784231  0.73215769  1
  O  O172  1  0.29327620  0.56879739  0.43120261  1
  O  O173  1  0.70672380  0.43120261  0.56879739  1
  O  O174  1  0.79327620  0.93120261  0.06879739  1
  O  O175  1  0.20672380  0.06879739  0.93120261  1
  O  O176  1  0.12721582  0.56069693  0.70951545  1
  O  O177  1  0.87278418  0.70951545  0.56069693  1
  O  O178  1  0.62721582  0.20951545  0.06069693  1
  O  O179  1  0.37278418  0.06069693  0.20951545  1
  O  O180  1  0.87278418  0.43930307  0.29048455  1
  O  O181  1  0.12721582  0.29048455  0.43930307  1
  O  O182  1  0.37278418  0.79048455  0.93930307  1
  O  O183  1  0.62721582  0.93930307  0.79048455  1
  F  F184  1  0.75000000  0.89389639  0.60610361  1
  F  F185  1  0.25000000  0.60610361  0.89389639  1
  F  F186  1  0.25000000  0.10610361  0.39389639  1
  F  F187  1  0.75000000  0.39389639  0.10610361  1
  F  F188  1  0.74129083  0.60533063  0.39466937  1
  F  F189  1  0.25870917  0.39466937  0.60533063  1
  F  F190  1  0.24129083  0.89466937  0.10533063  1
  F  F191  1  0.75870917  0.10533063  0.89466937  1
