# generated using pymatgen
data_Y3Ge13Pt4
_symmetry_space_group_name_H-M   'P 1'
_cell_length_a   9.13690056
_cell_length_b   9.13690056
_cell_length_c   9.13690077
_cell_angle_alpha   89.71959685
_cell_angle_beta   89.71959685
_cell_angle_gamma   89.71960287
_symmetry_Int_Tables_number   1
_chemical_formula_structural   Y3Ge13Pt4
_chemical_formula_sum   'Y6 Ge26 Pt8'
_cell_volume   762.74813220
_cell_formula_units_Z   2
loop_
 _symmetry_equiv_pos_site_id
 _symmetry_equiv_pos_as_xyz
  1  'x, y, z'
loop_
 _atom_site_type_symbol
 _atom_site_label
 _atom_site_symmetry_multiplicity
 _atom_site_fract_x
 _atom_site_fract_y
 _atom_site_fract_z
 _atom_site_occupancy
  Y  Y0  1  0.50159300  0.74922600  0.24847600  1
  Y  Y1  1  0.24847600  0.50159300  0.74922600  1
  Y  Y2  1  0.74922600  0.24847600  0.50159300  1
  Y  Y3  1  0.74847600  0.24922600  0.00159300  1
  Y  Y4  1  0.00159300  0.74847600  0.24922600  1
  Y  Y5  1  0.24922600  0.00159300  0.74847600  1
  Ge  Ge6  1  0.74785400  0.74785400  0.74785400  1
  Ge  Ge7  1  0.24785400  0.24785400  0.24785400  1
  Ge  Ge8  1  0.09504800  0.74866900  0.91591400  1
  Ge  Ge9  1  0.91591400  0.09504800  0.74866900  1
  Ge  Ge10  1  0.74866900  0.91591400  0.09504800  1
  Ge  Ge11  1  0.41591400  0.24866900  0.59504800  1
  Ge  Ge12  1  0.59504800  0.41591400  0.24866900  1
  Ge  Ge13  1  0.24866900  0.59504800  0.41591400  1
  Ge  Ge14  1  0.74935700  0.62585500  0.46156700  1
  Ge  Ge15  1  0.46156700  0.74935700  0.62585500  1
  Ge  Ge16  1  0.62585500  0.46156700  0.74935700  1
  Ge  Ge17  1  0.96156700  0.12585500  0.24935700  1
  Ge  Ge18  1  0.24935700  0.96156700  0.12585500  1
  Ge  Ge19  1  0.12585500  0.24935700  0.96156700  1
  Ge  Ge20  1  0.75227600  0.92094600  0.39818100  1
  Ge  Ge21  1  0.39818100  0.75227600  0.92094600  1
  Ge  Ge22  1  0.92094600  0.39818100  0.75227600  1
  Ge  Ge23  1  0.89818100  0.42094600  0.25227600  1
  Ge  Ge24  1  0.25227600  0.89818100  0.42094600  1
  Ge  Ge25  1  0.42094600  0.25227600  0.89818100  1
  Ge  Ge26  1  0.00789600  0.75002600  0.63629900  1
  Ge  Ge27  1  0.63629900  0.00789600  0.75002600  1
  Ge  Ge28  1  0.75002600  0.63629900  0.00789600  1
  Ge  Ge29  1  0.13629900  0.25002600  0.50789600  1
  Ge  Ge30  1  0.50789600  0.13629900  0.25002600  1
  Ge  Ge31  1  0.25002600  0.50789600  0.13629900  1
  Pt  Pt32  1  0.49958100  0.49958100  0.49958100  1
  Pt  Pt33  1  0.99958100  0.99958100  0.99958100  1
  Pt  Pt34  1  0.99969900  0.49734300  0.50379800  1
  Pt  Pt35  1  0.50379800  0.99969900  0.49734300  1
  Pt  Pt36  1  0.49734300  0.50379800  0.99969900  1
  Pt  Pt37  1  0.00379800  0.99734300  0.49969900  1
  Pt  Pt38  1  0.49969900  0.00379800  0.99734300  1
  Pt  Pt39  1  0.99734300  0.49969900  0.00379800  1
