# generated using pymatgen
data_K7(FeTe2)4
_symmetry_space_group_name_H-M   'P 1'
_cell_length_a   8.79661800
_cell_length_b   17.23496400
_cell_length_c   17.36441500
_cell_angle_alpha   90.00000000
_cell_angle_beta   90.00000000
_cell_angle_gamma   90.00000000
_symmetry_Int_Tables_number   1
_chemical_formula_structural   K7(FeTe2)4
_chemical_formula_sum   'K28 Fe16 Te32'
_cell_volume   2632.60844490
_cell_formula_units_Z   4
loop_
 _symmetry_equiv_pos_site_id
 _symmetry_equiv_pos_as_xyz
  1  'x, y, z'
loop_
 _atom_site_type_symbol
 _atom_site_label
 _atom_site_symmetry_multiplicity
 _atom_site_fract_x
 _atom_site_fract_y
 _atom_site_fract_z
 _atom_site_occupancy
  K  K0  1  0.75670800  0.51084200  0.00980700  1
  K  K1  1  0.74329200  0.01084200  0.49019300  1
  K  K2  1  0.74329200  0.48915800  0.50980700  1
  K  K3  1  0.75670800  0.98915800  0.99019300  1
  K  K4  1  0.24329200  0.48915800  0.99019300  1
  K  K5  1  0.25670800  0.98915800  0.50980700  1
  K  K6  1  0.25670800  0.51084200  0.49019300  1
  K  K7  1  0.24329200  0.01084200  0.00980700  1
  K  K8  1  0.81935600  0.74960500  0.24132700  1
  K  K9  1  0.68064400  0.24960500  0.25867300  1
  K  K10  1  0.68064400  0.25039500  0.74132700  1
  K  K11  1  0.81935600  0.75039500  0.75867300  1
  K  K12  1  0.18064400  0.25039500  0.75867300  1
  K  K13  1  0.31935600  0.75039500  0.74132700  1
  K  K14  1  0.31935600  0.74960500  0.25867300  1
  K  K15  1  0.18064400  0.24960500  0.24132700  1
  K  K16  1  0.79622700  0.50081200  0.26620700  1
  K  K17  1  0.70377300  0.00081200  0.23379300  1
  K  K18  1  0.70377300  0.49918800  0.76620700  1
  K  K19  1  0.79622700  0.99918800  0.73379300  1
  K  K20  1  0.20377300  0.49918800  0.73379300  1
  K  K21  1  0.29622700  0.99918800  0.76620700  1
  K  K22  1  0.29622700  0.50081200  0.23379300  1
  K  K23  1  0.20377300  0.00081200  0.26620700  1
  K  K24  1  0.77902200  0.75000000  0.00000000  1
  K  K25  1  0.72097800  0.25000000  0.50000000  1
  K  K26  1  0.22097800  0.25000000  0.00000000  1
  K  K27  1  0.27902200  0.75000000  0.50000000  1
  Fe  Fe28  1  0.88413500  0.70024500  0.44570000  1
  Fe  Fe29  1  0.61586500  0.20024500  0.05430000  1
  Fe  Fe30  1  0.61586500  0.29975500  0.94570000  1
  Fe  Fe31  1  0.88413500  0.79975500  0.55430000  1
  Fe  Fe32  1  0.11586500  0.29975500  0.55430000  1
  Fe  Fe33  1  0.38413500  0.79975500  0.94570000  1
  Fe  Fe34  1  0.38413500  0.70024500  0.05430000  1
  Fe  Fe35  1  0.11586500  0.20024500  0.44570000  1
  Fe  Fe36  1  0.67498900  0.80462500  0.44969200  1
  Fe  Fe37  1  0.82501100  0.30462500  0.05030800  1
  Fe  Fe38  1  0.82501100  0.19537500  0.94969200  1
  Fe  Fe39  1  0.67498900  0.69537500  0.55030800  1
  Fe  Fe40  1  0.32501100  0.19537500  0.55030800  1
  Fe  Fe41  1  0.17498900  0.69537500  0.94969200  1
  Fe  Fe42  1  0.17498900  0.80462500  0.05030800  1
  Fe  Fe43  1  0.32501100  0.30462500  0.44969200  1
  Te  Te44  1  0.60659500  0.66272300  0.40642100  1
  Te  Te45  1  0.89340500  0.16272300  0.09357900  1
  Te  Te46  1  0.89340500  0.33727700  0.90642100  1
  Te  Te47  1  0.60659500  0.83727700  0.59357900  1
  Te  Te48  1  0.39340500  0.33727700  0.59357900  1
  Te  Te49  1  0.10659500  0.83727700  0.90642100  1
  Te  Te50  1  0.10659500  0.66272300  0.09357900  1
  Te  Te51  1  0.39340500  0.16272300  0.40642100  1
  Te  Te52  1  0.95385800  0.84568100  0.41422500  1
  Te  Te53  1  0.54614200  0.34568100  0.08577500  1
  Te  Te54  1  0.54614200  0.15431900  0.91422500  1
  Te  Te55  1  0.95385800  0.65431900  0.58577500  1
  Te  Te56  1  0.04614200  0.15431900  0.58577500  1
  Te  Te57  1  0.45385800  0.65431900  0.91422500  1
  Te  Te58  1  0.45385800  0.84568100  0.08577500  1
  Te  Te59  1  0.04614200  0.34568100  0.41422500  1
  Te  Te60  1  0.56458300  0.62386000  0.14440100  1
  Te  Te61  1  0.93541700  0.12386000  0.35559900  1
  Te  Te62  1  0.93541700  0.37614000  0.64440100  1
  Te  Te63  1  0.56458300  0.87614000  0.85559900  1
  Te  Te64  1  0.43541700  0.37614000  0.85559900  1
  Te  Te65  1  0.06458300  0.87614000  0.64440100  1
  Te  Te66  1  0.06458300  0.62386000  0.35559900  1
  Te  Te67  1  0.43541700  0.12386000  0.14440100  1
  Te  Te68  1  0.99222100  0.89297000  0.12836800  1
  Te  Te69  1  0.50777900  0.39297000  0.37163200  1
  Te  Te70  1  0.50777900  0.10703000  0.62836800  1
  Te  Te71  1  0.99222100  0.60703000  0.87163200  1
  Te  Te72  1  0.00777900  0.10703000  0.87163200  1
  Te  Te73  1  0.49222100  0.60703000  0.62836800  1
  Te  Te74  1  0.49222100  0.89297000  0.37163200  1
  Te  Te75  1  0.00777900  0.39297000  0.12836800  1
