# generated using pymatgen
data_CeCO4
_symmetry_space_group_name_H-M   'P 1'
_cell_length_a   11.79576959
_cell_length_b   11.79576959
_cell_length_c   10.16942700
_cell_angle_alpha   90.00000000
_cell_angle_beta   90.00000000
_cell_angle_gamma   119.99999768
_symmetry_Int_Tables_number   1
_chemical_formula_structural   CeCO4
_chemical_formula_sum   'Ce18 C18 O72'
_cell_volume   1225.40510786
_cell_formula_units_Z   18
loop_
 _symmetry_equiv_pos_site_id
 _symmetry_equiv_pos_as_xyz
  1  'x, y, z'
loop_
 _atom_site_type_symbol
 _atom_site_label
 _atom_site_symmetry_multiplicity
 _atom_site_fract_x
 _atom_site_fract_y
 _atom_site_fract_z
 _atom_site_occupancy
  Ce  Ce0  1  0.55717200  0.10752700  0.74610700  1
  Ce  Ce1  1  0.89247300  0.44964600  0.74610700  1
  Ce  Ce2  1  0.55035400  0.44282800  0.74610700  1
  Ce  Ce3  1  0.55717200  0.10752700  0.25389300  1
  Ce  Ce4  1  0.89247300  0.44964600  0.25389300  1
  Ce  Ce5  1  0.55035400  0.44282800  0.25389300  1
  Ce  Ce6  1  0.88253600  0.77377600  0.75477000  1
  Ce  Ce7  1  0.22622400  0.10876000  0.75477000  1
  Ce  Ce8  1  0.89124000  0.11746400  0.75477000  1
  Ce  Ce9  1  0.88253600  0.77377600  0.24523000  1
  Ce  Ce10  1  0.22622400  0.10876000  0.24523000  1
  Ce  Ce11  1  0.89124000  0.11746400  0.24523000  1
  Ce  Ce12  1  0.55940000  0.77991600  0.75142700  1
  Ce  Ce13  1  0.22008400  0.77948400  0.75142700  1
  Ce  Ce14  1  0.22051600  0.44060000  0.75142700  1
  Ce  Ce15  1  0.55940000  0.77991600  0.24857300  1
  Ce  Ce16  1  0.22008400  0.77948400  0.24857300  1
  Ce  Ce17  1  0.22051600  0.44060000  0.24857300  1
  C  C18  1  0.02174600  0.83067700  0.50000000  1
  C  C19  1  0.16932300  0.19106900  0.50000000  1
  C  C20  1  0.80893100  0.97825400  0.50000000  1
  C  C21  1  0.46285300  0.21259400  0.50000000  1
  C  C22  1  0.78740600  0.25025900  0.50000000  1
  C  C23  1  0.74974100  0.53714700  0.50000000  1
  C  C24  1  0.49435200  0.86070200  0.50000000  1
  C  C25  1  0.13929800  0.63365000  0.50000000  1
  C  C26  1  0.36635000  0.50564800  0.50000000  1
  C  C27  1  0.79535300  0.91771300  0.00000000  1
  C  C28  1  0.08228700  0.87764000  0.00000000  1
  C  C29  1  0.12236000  0.20464700  0.00000000  1
  C  C30  1  0.42313400  0.55191300  0.00000000  1
  C  C31  1  0.44808700  0.87122100  0.00000000  1
  C  C32  1  0.12877900  0.57686600  0.00000000  1
  C  C33  1  0.47177100  0.16271000  0.00000000  1
  C  C34  1  0.83729000  0.30906100  0.00000000  1
  C  C35  1  0.69093900  0.52822900  0.00000000  1
  O  O36  1  0.90823900  0.82175200  0.50000000  1
  O  O37  1  0.17824800  0.08648700  0.50000000  1
  O  O38  1  0.91351300  0.09176100  0.50000000  1
  O  O39  1  0.07406400  0.83194000  0.61176700  1
  O  O40  1  0.16806000  0.24212400  0.61176700  1
  O  O41  1  0.75787600  0.92593600  0.61176700  1
  O  O42  1  0.07406400  0.83194000  0.38823300  1
  O  O43  1  0.16806000  0.24212400  0.38823300  1
  O  O44  1  0.75787600  0.92593600  0.38823300  1
  O  O45  1  0.52925700  0.15401700  0.50000000  1
  O  O46  1  0.84598300  0.37524000  0.50000000  1
  O  O47  1  0.62476000  0.47074300  0.50000000  1
  O  O48  1  0.75751600  0.18673700  0.61083800  1
  O  O49  1  0.81326300  0.57077900  0.61083800  1
  O  O50  1  0.42922100  0.24248400  0.61083800  1
  O  O51  1  0.75751600  0.18673700  0.38916200  1
  O  O52  1  0.81326300  0.57077900  0.38916200  1
  O  O53  1  0.42922100  0.24248400  0.38916200  1
  O  O54  1  0.50800400  0.75921200  0.50000000  1
  O  O55  1  0.24078800  0.74879300  0.50000000  1
  O  O56  1  0.25120700  0.49199600  0.50000000  1
  O  O57  1  0.49048600  0.91067900  0.61156400  1
  O  O58  1  0.08932100  0.57980700  0.61156400  1
  O  O59  1  0.42019300  0.50951400  0.61156400  1
  O  O60  1  0.49048600  0.91067900  0.38843600  1
  O  O61  1  0.08932100  0.57980700  0.38843600  1
  O  O62  1  0.42019300  0.50951400  0.38843600  1
  O  O63  1  0.95744500  0.82293200  0.00000000  1
  O  O64  1  0.17706800  0.13451300  0.00000000  1
  O  O65  1  0.86548700  0.04255500  0.00000000  1
  O  O66  1  0.75993900  0.85402800  0.88931200  1
  O  O67  1  0.14597200  0.90591000  0.88931200  1
  O  O68  1  0.09409000  0.24006100  0.88931200  1
  O  O69  1  0.75993900  0.85402800  0.11068800  1
  O  O70  1  0.14597200  0.90591000  0.11068800  1
  O  O71  1  0.09409000  0.24006100  0.11068800  1
  O  O72  1  0.51247900  0.81040300  0.00000000  1
  O  O73  1  0.18959700  0.70207600  0.00000000  1
  O  O74  1  0.29792400  0.48752100  0.00000000  1
  O  O75  1  0.48696800  0.58444300  0.88926200  1
  O  O76  1  0.41555700  0.90252400  0.88926200  1
  O  O77  1  0.09747600  0.51303200  0.88926200  1
  O  O78  1  0.48696800  0.58444300  0.11073800  1
  O  O79  1  0.41555700  0.90252400  0.11073800  1
  O  O80  1  0.09747600  0.51303200  0.11073800  1
  O  O81  1  0.57640200  0.15402900  0.00000000  1
  O  O82  1  0.84597100  0.42237200  0.00000000  1
  O  O83  1  0.57762800  0.42359800  0.00000000  1
  O  O84  1  0.42081600  0.16481800  0.88866000  1
  O  O85  1  0.83518200  0.25599800  0.88866000  1
  O  O86  1  0.74400200  0.57918400  0.88866000  1
  O  O87  1  0.42081600  0.16481800  0.11134000  1
  O  O88  1  0.83518200  0.25599800  0.11134000  1
  O  O89  1  0.74400200  0.57918400  0.11134000  1
  O  O90  1  0.66666700  0.33333300  0.75100200  1
  O  O91  1  0.66666700  0.33333300  0.24899800  1
  O  O92  1  0.00000000  0.00000000  0.75231500  1
  O  O93  1  0.00000000  0.00000000  0.24768500  1
  O  O94  1  0.33333300  0.66666700  0.74933600  1
  O  O95  1  0.33333300  0.66666700  0.25066400  1
  O  O96  1  0.98754100  0.65480800  0.79916400  1
  O  O97  1  0.34519200  0.33273400  0.79916400  1
  O  O98  1  0.66726600  0.01245900  0.79916400  1
  O  O99  1  0.98754100  0.65480800  0.20083600  1
  O  O100  1  0.34519200  0.33273400  0.20083600  1
  O  O101  1  0.66726600  0.01245900  0.20083600  1
  O  O102  1  0.66754200  0.67912100  0.70243000  1
  O  O103  1  0.32087900  0.98842000  0.70243000  1
  O  O104  1  0.01158000  0.33245800  0.70243000  1
  O  O105  1  0.66754200  0.67912100  0.29757000  1
  O  O106  1  0.32087900  0.98842000  0.29757000  1
  O  O107  1  0.01158000  0.33245800  0.29757000  1
