# generated using pymatgen
data_CoH24C6Br2(N2O3)2
_symmetry_space_group_name_H-M   'P 1'
_cell_length_a   9.07998716
_cell_length_b   9.07998716
_cell_length_c   14.91432600
_cell_angle_alpha   90.00000000
_cell_angle_beta   90.00000000
_cell_angle_gamma   111.14725609
_symmetry_Int_Tables_number   1
_chemical_formula_structural   CoH24C6Br2(N2O3)2
_chemical_formula_sum   'Co2 H48 C12 Br4 N8 O12'
_cell_volume   1146.82124346
_cell_formula_units_Z   2
loop_
 _symmetry_equiv_pos_site_id
 _symmetry_equiv_pos_as_xyz
  1  'x, y, z'
loop_
 _atom_site_type_symbol
 _atom_site_label
 _atom_site_symmetry_multiplicity
 _atom_site_fract_x
 _atom_site_fract_y
 _atom_site_fract_z
 _atom_site_occupancy
  Co  Co0  1  0.00000000  0.00000000  0.50000000  1
  Co  Co1  1  0.00000000  0.00000000  0.00000000  1
  H  H2  1  0.40888900  0.63120800  0.39167800  1
  H  H3  1  0.36879200  0.59111100  0.60832200  1
  H  H4  1  0.40888900  0.63120800  0.10832200  1
  H  H5  1  0.36879200  0.59111100  0.89167800  1
  H  H6  1  0.59111100  0.36879200  0.60832200  1
  H  H7  1  0.63120800  0.40888900  0.39167800  1
  H  H8  1  0.59111100  0.36879200  0.89167800  1
  H  H9  1  0.63120800  0.40888900  0.10832200  1
  H  H10  1  0.44610800  0.83799800  0.39906000  1
  H  H11  1  0.16200200  0.55389200  0.60094000  1
  H  H12  1  0.44610800  0.83799800  0.10094000  1
  H  H13  1  0.16200200  0.55389200  0.89906000  1
  H  H14  1  0.55389200  0.16200200  0.60094000  1
  H  H15  1  0.83799800  0.44610800  0.39906000  1
  H  H16  1  0.55389200  0.16200200  0.89906000  1
  H  H17  1  0.83799800  0.44610800  0.10094000  1
  H  H18  1  0.54083900  0.74851400  0.47604800  1
  H  H19  1  0.25148600  0.45916100  0.52395200  1
  H  H20  1  0.54083900  0.74851400  0.02395200  1
  H  H21  1  0.25148600  0.45916100  0.97604800  1
  H  H22  1  0.45916100  0.25148600  0.52395200  1
  H  H23  1  0.74851400  0.54083900  0.47604800  1
  H  H24  1  0.45916100  0.25148600  0.97604800  1
  H  H25  1  0.74851400  0.54083900  0.02395200  1
  H  H26  1  0.66068700  0.04023100  0.25000000  1
  H  H27  1  0.95976900  0.33931300  0.75000000  1
  H  H28  1  0.33931300  0.95976900  0.75000000  1
  H  H29  1  0.04023100  0.66068700  0.25000000  1
  H  H30  1  0.84354200  0.13658900  0.25000000  1
  H  H31  1  0.86341100  0.15645800  0.75000000  1
  H  H32  1  0.15645800  0.86341100  0.75000000  1
  H  H33  1  0.13658900  0.84354200  0.25000000  1
  H  H34  1  0.82370200  0.92877100  0.34790700  1
  H  H35  1  0.07122900  0.17629800  0.65209300  1
  H  H36  1  0.82370200  0.92877100  0.15209300  1
  H  H37  1  0.07122900  0.17629800  0.84790700  1
  H  H38  1  0.17629800  0.07122900  0.65209300  1
  H  H39  1  0.92877100  0.82370200  0.34790700  1
  H  H40  1  0.17629800  0.07122900  0.84790700  1
  H  H41  1  0.92877100  0.82370200  0.15209300  1
  H  H42  1  0.24011200  0.13575200  0.37288600  1
  H  H43  1  0.86424800  0.75988800  0.62711400  1
  H  H44  1  0.24011200  0.13575200  0.12711400  1
  H  H45  1  0.86424800  0.75988800  0.87288600  1
  H  H46  1  0.75988800  0.86424800  0.62711400  1
  H  H47  1  0.13575200  0.24011200  0.37288600  1
  H  H48  1  0.75988800  0.86424800  0.87288600  1
  H  H49  1  0.13575200  0.24011200  0.12711400  1
  C  C50  1  0.43265900  0.73153000  0.43774300  1
  C  C51  1  0.26847000  0.56734100  0.56225700  1
  C  C52  1  0.43265900  0.73153000  0.06225700  1
  C  C53  1  0.26847000  0.56734100  0.93774300  1
  C  C54  1  0.56734100  0.26847000  0.56225700  1
  C  C55  1  0.73153000  0.43265900  0.43774300  1
  C  C56  1  0.56734100  0.26847000  0.93774300  1
  C  C57  1  0.73153000  0.43265900  0.06225700  1
  C  C58  1  0.21366100  0.78633900  0.50000000  1
  C  C59  1  0.21366100  0.78633900  0.00000000  1
  C  C60  1  0.78633900  0.21366100  0.50000000  1
  C  C61  1  0.78633900  0.21366100  0.00000000  1
  Br  Br62  1  0.39687200  0.07708300  0.25000000  1
  Br  Br63  1  0.92291700  0.60312800  0.75000000  1
  Br  Br64  1  0.60312800  0.92291700  0.75000000  1
  Br  Br65  1  0.07708300  0.39687200  0.25000000  1
  N  N66  1  0.30029600  0.69970400  0.50000000  1
  N  N67  1  0.30029600  0.69970400  0.00000000  1
  N  N68  1  0.69970400  0.30029600  0.50000000  1
  N  N69  1  0.69970400  0.30029600  0.00000000  1
  N  N70  1  0.13528800  0.86471200  0.50000000  1
  N  N71  1  0.13528800  0.86471200  0.00000000  1
  N  N72  1  0.86471200  0.13528800  0.50000000  1
  N  N73  1  0.86471200  0.13528800  0.00000000  1
  O  O74  1  0.86966700  0.86966700  0.38786100  1
  O  O75  1  0.13033300  0.13033300  0.61213900  1
  O  O76  1  0.86966700  0.86966700  0.11213900  1
  O  O77  1  0.13033300  0.13033300  0.88786100  1
  O  O78  1  0.17182800  0.17182800  0.41185500  1
  O  O79  1  0.82817200  0.82817200  0.58814500  1
  O  O80  1  0.17182800  0.17182800  0.08814500  1
  O  O81  1  0.82817200  0.82817200  0.91185500  1
  O  O82  1  0.76458200  0.02796500  0.25000000  1
  O  O83  1  0.97203500  0.23541800  0.75000000  1
  O  O84  1  0.23541800  0.97203500  0.75000000  1
  O  O85  1  0.02796500  0.76458200  0.25000000  1
