# generated using pymatgen
data_NaY(BH4)4
_symmetry_space_group_name_H-M   'P 1'
_cell_length_a   7.55111995
_cell_length_b   7.55111995
_cell_length_c   9.26269500
_cell_angle_alpha   90.00000000
_cell_angle_beta   90.00000000
_cell_angle_gamma   109.93741666
_symmetry_Int_Tables_number   1
_chemical_formula_structural   NaY(BH4)4
_chemical_formula_sum   'Na2 Y2 B8 H32'
_cell_volume   496.49889161
_cell_formula_units_Z   2
loop_
 _symmetry_equiv_pos_site_id
 _symmetry_equiv_pos_as_xyz
  1  'x, y, z'
loop_
 _atom_site_type_symbol
 _atom_site_label
 _atom_site_symmetry_multiplicity
 _atom_site_fract_x
 _atom_site_fract_y
 _atom_site_fract_z
 _atom_site_occupancy
  Na  Na0  1  0.00000000  0.00000000  0.50000000  1
  Na  Na1  1  0.00000000  0.00000000  0.00000000  1
  Y  Y2  1  0.35441500  0.64558500  0.25000000  1
  Y  Y3  1  0.64558500  0.35441500  0.75000000  1
  B  B4  1  0.23978500  0.76021500  0.03185800  1
  B  B5  1  0.76021500  0.23978500  0.96814200  1
  B  B6  1  0.23978500  0.76021500  0.46814200  1
  B  B7  1  0.76021500  0.23978500  0.53185800  1
  B  B8  1  0.22313700  0.29502500  0.25000000  1
  B  B9  1  0.29502500  0.22313700  0.75000000  1
  B  B10  1  0.77686300  0.70497500  0.75000000  1
  B  B11  1  0.70497500  0.77686300  0.25000000  1
  H  H12  1  0.18509600  0.81490400  0.92488900  1
  H  H13  1  0.81490400  0.18509600  0.07511100  1
  H  H14  1  0.18509600  0.81490400  0.57511100  1
  H  H15  1  0.81490400  0.18509600  0.42488900  1
  H  H16  1  0.33690600  0.66309400  0.99878700  1
  H  H17  1  0.66309400  0.33690600  0.00121300  1
  H  H18  1  0.33690600  0.66309400  0.50121300  1
  H  H19  1  0.66309400  0.33690600  0.49878700  1
  H  H20  1  0.10855000  0.66011200  0.10828700  1
  H  H21  1  0.66011200  0.10855000  0.89171300  1
  H  H22  1  0.10855000  0.66011200  0.39171300  1
  H  H23  1  0.66011200  0.10855000  0.60828700  1
  H  H24  1  0.89145000  0.33988800  0.89171300  1
  H  H25  1  0.33988800  0.89145000  0.10828700  1
  H  H26  1  0.89145000  0.33988800  0.60828700  1
  H  H27  1  0.33988800  0.89145000  0.39171300  1
  H  H28  1  0.15764000  0.12490900  0.25000000  1
  H  H29  1  0.12490900  0.15764000  0.75000000  1
  H  H30  1  0.84236000  0.87509100  0.75000000  1
  H  H31  1  0.87509100  0.84236000  0.25000000  1
  H  H32  1  0.09894600  0.36652400  0.25000000  1
  H  H33  1  0.36652400  0.09894600  0.75000000  1
  H  H34  1  0.90105400  0.63347600  0.75000000  1
  H  H35  1  0.63347600  0.90105400  0.25000000  1
  H  H36  1  0.32362200  0.35295000  0.14217900  1
  H  H37  1  0.35295000  0.32362200  0.85782100  1
  H  H38  1  0.32362200  0.35295000  0.35782100  1
  H  H39  1  0.35295000  0.32362200  0.64217900  1
  H  H40  1  0.67637800  0.64705000  0.85782100  1
  H  H41  1  0.64705000  0.67637800  0.14217900  1
  H  H42  1  0.67637800  0.64705000  0.64217900  1
  H  H43  1  0.64705000  0.67637800  0.35782100  1
