# generated using pymatgen
data_TbH10C6S6N3O17F18
_symmetry_space_group_name_H-M   'P 1'
_cell_length_a   13.25633809
_cell_length_b   13.22783119
_cell_length_c   18.78886748
_cell_angle_alpha   90.00000000
_cell_angle_beta   90.00000000
_cell_angle_gamma   94.45544208
_symmetry_Int_Tables_number   1
_chemical_formula_structural   TbH10C6S6N3O17F18
_chemical_formula_sum   'Tb4 H40 C24 S24 N12 O68 F72'
_cell_volume   3284.72045504
_cell_formula_units_Z   4
loop_
 _symmetry_equiv_pos_site_id
 _symmetry_equiv_pos_as_xyz
  1  'x, y, z'
loop_
 _atom_site_type_symbol
 _atom_site_label
 _atom_site_symmetry_multiplicity
 _atom_site_fract_x
 _atom_site_fract_y
 _atom_site_fract_z
 _atom_site_occupancy
  Tb  Tb0  1  0.15136627  0.21259489  0.25383906  1
  Tb  Tb1  1  0.65136627  0.71259489  0.24616094  1
  Tb  Tb2  1  0.84863373  0.78740511  0.74616094  1
  Tb  Tb3  1  0.34863373  0.28740511  0.75383906  1
  H  H4  1  0.34743907  0.10458397  0.23210799  1
  H  H5  1  0.84743907  0.60458397  0.26789201  1
  H  H6  1  0.65256093  0.89541603  0.76789201  1
  H  H7  1  0.15256093  0.39541603  0.73210799  1
  H  H8  1  0.36307510  0.21875045  0.20408912  1
  H  H9  1  0.86307510  0.71875045  0.29591088  1
  H  H10  1  0.63692490  0.78124955  0.79591088  1
  H  H11  1  0.13692490  0.28124955  0.70408912  1
  H  H12  1  0.10617757  0.18970613  0.41375543  1
  H  H13  1  0.60617757  0.68970613  0.08624457  1
  H  H14  1  0.89382243  0.81029387  0.58624457  1
  H  H15  1  0.39382243  0.31029387  0.91375543  1
  H  H16  1  0.21410763  0.24738898  0.40561099  1
  H  H17  1  0.71410763  0.74738898  0.09438901  1
  H  H18  1  0.78589237  0.75261102  0.59438901  1
  H  H19  1  0.28589237  0.25261102  0.90561099  1
  H  H20  1  0.18023043  0.98722109  0.25306363  1
  H  H21  1  0.68023043  0.48722109  0.24693637  1
  H  H22  1  0.81976957  0.01277891  0.74693637  1
  H  H23  1  0.31976957  0.51277891  0.75306363  1
  H  H24  1  0.12771767  0.00958568  0.32759564  1
  H  H25  1  0.62771767  0.50958568  0.17240436  1
  H  H26  1  0.87228233  0.99041432  0.67240436  1
  H  H27  1  0.37228233  0.49041432  0.82759564  1
  H  H28  1  0.96210441  0.07564919  0.27668964  1
  H  H29  1  0.46210441  0.57564919  0.22331036  1
  H  H30  1  0.03789559  0.92435081  0.72331036  1
  H  H31  1  0.53789559  0.42435081  0.77668964  1
  H  H32  1  0.93264186  0.18490839  0.30127074  1
  H  H33  1  0.43264186  0.68490839  0.19872926  1
  H  H34  1  0.06735814  0.81509161  0.69872926  1
  H  H35  1  0.56735814  0.31509161  0.80127074  1
  H  H36  1  0.09318110  0.14398393  0.10389592  1
  H  H37  1  0.59318110  0.64398393  0.39610408  1
  H  H38  1  0.90681890  0.85601607  0.89610408  1
  H  H39  1  0.40681890  0.35601607  0.60389592  1
  H  H40  1  0.06688890  0.04915741  0.15180587  1
  H  H41  1  0.56688890  0.54915741  0.34819413  1
  H  H42  1  0.93311110  0.95084259  0.84819413  1
  H  H43  1  0.43311110  0.45084259  0.65180587  1
  C  C44  1  0.27799893  0.52765106  0.36410564  1
  C  C45  1  0.77799893  0.02765106  0.13589436  1
  C  C46  1  0.72200107  0.47234894  0.63589436  1
  C  C47  1  0.22200107  0.97234894  0.86410564  1
  C  C48  1  0.51814399  0.23615224  0.40420346  1
  C  C49  1  0.01814399  0.73615224  0.09579654  1
  C  C50  1  0.48185601  0.76384776  0.59579654  1
  C  C51  1  0.98185601  0.26384776  0.90420346  1
  C  C52  1  0.25911757  0.48501753  0.09115715  1
  C  C53  1  0.75911757  0.98501753  0.40884285  1
  C  C54  1  0.74088243  0.51498247  0.90884285  1
  C  C55  1  0.24088243  0.01498247  0.59115715  1
  C  C56  1  0.56112522  0.25278466  0.11504685  1
  C  C57  1  0.06112522  0.75278466  0.38495315  1
  C  C58  1  0.43887478  0.74721534  0.88495315  1
  C  C59  1  0.93887478  0.24721534  0.61504685  1
  C  C60  1  0.91427419  0.38503174  0.14457101  1
  C  C61  1  0.41427419  0.88503174  0.35542899  1
  C  C62  1  0.08572581  0.61496826  0.85542899  1
  C  C63  1  0.58572581  0.11496826  0.64457101  1
  C  C64  1  0.85464153  0.42749257  0.41784893  1
  C  C65  1  0.35464153  0.92749257  0.08215107  1
  C  C66  1  0.14535847  0.57250743  0.58215107  1
  C  C67  1  0.64535847  0.07250743  0.91784893  1
  S  S68  1  0.33868604  0.41403315  0.32922853  1
  S  S69  1  0.83868604  0.91403315  0.17077147  1
  S  S70  1  0.66131396  0.58596685  0.67077147  1
  S  S71  1  0.16131396  0.08596685  0.82922853  1
  S  S72  1  0.46139223  0.35119880  0.44103183  1
  S  S73  1  0.96139223  0.85119880  0.05896817  1
  S  S74  1  0.53860777  0.64880120  0.55896817  1
  S  S75  1  0.03860777  0.14880120  0.94103183  1
  S  S76  1  0.27604217  0.34499703  0.09186774  1
  S  S77  1  0.77604217  0.84499703  0.40813226  1
  S  S78  1  0.72395783  0.65500297  0.90813226  1
  S  S79  1  0.22395783  0.15500297  0.59186774  1
  S  S80  1  0.48827611  0.35645316  0.07717154  1
  S  S81  1  0.98827611  0.85645316  0.42282846  1
  S  S82  1  0.51172389  0.64354684  0.92282846  1
  S  S83  1  0.01172389  0.14354684  0.57717154  1
  S  S84  1  0.98204312  0.42981165  0.22823451  1
  S  S85  1  0.48204312  0.92981165  0.27176549  1
  S  S86  1  0.01795688  0.57018835  0.77176549  1
  S  S87  1  0.51795688  0.07018835  0.72823451  1
  S  S88  1  0.82071512  0.38150238  0.32565205  1
  S  S89  1  0.32071512  0.88150238  0.17434795  1
  S  S90  1  0.17928488  0.61849762  0.67434795  1
  S  S91  1  0.67928488  0.11849762  0.82565205  1
  N  N92  1  0.35599832  0.34810911  0.39736165  1
  N  N93  1  0.85599832  0.84810911  0.10263835  1
  N  N94  1  0.64400168  0.65189089  0.60263835  1
  N  N95  1  0.14400168  0.15189089  0.89736165  1
  N  N96  1  0.38593973  0.33534606  0.12312542  1
  N  N97  1  0.88593973  0.83534606  0.37687458  1
  N  N98  1  0.61406027  0.66465394  0.87687458  1
  N  N99  1  0.11406027  0.16465394  0.62312542  1
  N  N100  1  0.89253053  0.45856921  0.27866447  1
  N  N101  1  0.39253053  0.95856921  0.22133553  1
  N  N102  1  0.10746947  0.54143079  0.72133553  1
  N  N103  1  0.60746947  0.04143079  0.77866447  1
  O  O104  1  0.32006691  0.17174159  0.23352659  1
  O  O105  1  0.82006691  0.67174159  0.26647341  1
  O  O106  1  0.67993309  0.82825841  0.76647341  1
  O  O107  1  0.17993309  0.32825841  0.73352659  1
  O  O108  1  0.15444440  0.22026261  0.37880266  1
  O  O109  1  0.65444440  0.72026261  0.12119734  1
  O  O110  1  0.84555560  0.77973739  0.62119734  1
  O  O111  1  0.34555560  0.27973739  0.87880266  1
  O  O112  1  0.16332188  0.04132492  0.28636395  1
  O  O113  1  0.66332188  0.54132492  0.21363605  1
  O  O114  1  0.83667812  0.95867508  0.71363605  1
  O  O115  1  0.33667812  0.45867508  0.78636395  1
  O  O116  1  0.98946293  0.14278629  0.29215647  1
  O  O117  1  0.48946293  0.64278629  0.20784353  1
  O  O118  1  0.01053707  0.85721371  0.70784353  1
  O  O119  1  0.51053707  0.35721371  0.79215647  1
  O  O120  1  0.09660633  0.11926202  0.15336936  1
  O  O121  1  0.59660633  0.61926202  0.34663064  1
  O  O122  1  0.90339367  0.88073798  0.84663064  1
  O  O123  1  0.40339367  0.38073798  0.65336936  1
  O  O124  1  0.25725143  0.36145098  0.28787930  1
  O  O125  1  0.75725143  0.86145098  0.21212070  1
  O  O126  1  0.74274857  0.63854902  0.71212070  1
  O  O127  1  0.24274857  0.13854902  0.78787930  1
  O  O128  1  0.42662771  0.45508695  0.28999619  1
  O  O129  1  0.92662771  0.95508695  0.21000381  1
  O  O130  1  0.57337229  0.54491305  0.71000381  1
  O  O131  1  0.07337229  0.04491305  0.78999619  1
  O  O132  1  0.43859223  0.32525214  0.51411833  1
  O  O133  1  0.93859223  0.82525214  0.98588167  1
  O  O134  1  0.56140777  0.67474786  0.48588167  1
  O  O135  1  0.06140777  0.17474786  0.01411833  1
  O  O136  1  0.53221773  0.43646796  0.42510285  1
  O  O137  1  0.03221773  0.93646796  0.07489715  1
  O  O138  1  0.46778227  0.56353204  0.57489715  1
  O  O139  1  0.96778227  0.06353204  0.92510285  1
  O  O140  1  0.20425731  0.30480013  0.14593202  1
  O  O141  1  0.70425731  0.80480013  0.35406798  1
  O  O142  1  0.79574269  0.69519987  0.85406798  1
  O  O143  1  0.29574269  0.19519987  0.64593202  1
  O  O144  1  0.25835032  0.31269608  0.01953337  1
  O  O145  1  0.75835032  0.81269608  0.48046663  1
  O  O146  1  0.74164968  0.68730392  0.98046663  1
  O  O147  1  0.24164968  0.18730392  0.51953337  1
  O  O148  1  0.47889211  0.33705182  0.00170693  1
  O  O149  1  0.97889211  0.83705182  0.49829307  1
  O  O150  1  0.52110789  0.66294818  0.99829307  1
  O  O151  1  0.02110789  0.16294818  0.50170693  1
  O  O152  1  0.54505365  0.44860079  0.10024127  1
  O  O153  1  0.04505365  0.94860079  0.39975873  1
  O  O154  1  0.45494635  0.55139921  0.89975873  1
  O  O155  1  0.95494635  0.05139921  0.60024127  1
  O  O156  1  0.03223277  0.34024649  0.25135301  1
  O  O157  1  0.53223277  0.84024649  0.24864699  1
  O  O158  1  0.96776723  0.65975351  0.74864699  1
  O  O159  1  0.46776723  0.15975351  0.75135301  1
  O  O160  1  0.04368926  0.51982571  0.21039561  1
  O  O161  1  0.54368926  0.01982571  0.28960439  1
  O  O162  1  0.95631074  0.48017429  0.78960439  1
  O  O163  1  0.45631074  0.98017429  0.71039561  1
  O  O164  1  0.84240659  0.27604462  0.32448063  1
  O  O165  1  0.34240659  0.77604462  0.17551937  1
  O  O166  1  0.15759341  0.72395538  0.67551937  1
  O  O167  1  0.65759341  0.22395538  0.82448063  1
  O  O168  1  0.71697126  0.40562416  0.31518290  1
  O  O169  1  0.21697126  0.90562416  0.18481710  1
  O  O170  1  0.28302874  0.59437584  0.68481710  1
  O  O171  1  0.78302874  0.09437584  0.81518290  1
  F  F172  1  0.26035785  0.58993033  0.30934215  1
  F  F173  1  0.76035785  0.08993033  0.19065785  1
  F  F174  1  0.73964215  0.41006967  0.69065785  1
  F  F175  1  0.23964215  0.91006967  0.80934215  1
  F  F176  1  0.18958505  0.49928513  0.39666563  1
  F  F177  1  0.68958505  0.99928513  0.10333437  1
  F  F178  1  0.81041495  0.50071487  0.60333437  1
  F  F179  1  0.31041495  0.00071487  0.89666563  1
  F  F180  1  0.34134542  0.57725116  0.41077489  1
  F  F181  1  0.84134542  0.07725116  0.08922511  1
  F  F182  1  0.65865458  0.42274884  0.58922511  1
  F  F183  1  0.15865458  0.92274884  0.91077489  1
  F  F184  1  0.45802529  0.15172598  0.41840931  1
  F  F185  1  0.95802529  0.65172598  0.08159069  1
  F  F186  1  0.54197471  0.84827402  0.58159069  1
  F  F187  1  0.04197471  0.34827402  0.91840931  1
  F  F188  1  0.60943892  0.22802734  0.43459586  1
  F  F189  1  0.10943892  0.72802734  0.06540414  1
  F  F190  1  0.39056108  0.77197266  0.56540414  1
  F  F191  1  0.89056108  0.27197266  0.93459586  1
  F  F192  1  0.52946939  0.24638393  0.33322813  1
  F  F193  1  0.02946939  0.74638393  0.16677187  1
  F  F194  1  0.47053061  0.75361607  0.66677187  1
  F  F195  1  0.97053061  0.25361607  0.83322813  1
  F  F196  1  0.26917367  0.52474469  0.15711562  1
  F  F197  1  0.76917367  0.02474469  0.34288438  1
  F  F198  1  0.73082633  0.47525531  0.84288438  1
  F  F199  1  0.23082633  0.97525531  0.65711562  1
  F  F200  1  0.33036584  0.53125349  0.04833724  1
  F  F201  1  0.83036584  0.03125349  0.45166276  1
  F  F202  1  0.66963416  0.46874651  0.95166276  1
  F  F203  1  0.16963416  0.96874651  0.54833724  1
  F  F204  1  0.16670970  0.50031028  0.06558843  1
  F  F205  1  0.66670970  0.00031028  0.43441157  1
  F  F206  1  0.83329030  0.49968972  0.93441157  1
  F  F207  1  0.33329030  0.99968972  0.56558843  1
  F  F208  1  0.51345190  0.16064837  0.10210320  1
  F  F209  1  0.01345190  0.66064837  0.39789680  1
  F  F210  1  0.48654810  0.83935163  0.89789680  1
  F  F211  1  0.98654810  0.33935163  0.60210320  1
  F  F212  1  0.57235313  0.26486112  0.18611642  1
  F  F213  1  0.07235313  0.76486112  0.31388358  1
  F  F214  1  0.42764687  0.73513888  0.81388358  1
  F  F215  1  0.92764687  0.23513888  0.68611642  1
  F  F216  1  0.65330654  0.25829385  0.08437585  1
  F  F217  1  0.15330654  0.75829385  0.41562415  1
  F  F218  1  0.34669346  0.74170615  0.91562415  1
  F  F219  1  0.84669346  0.24170615  0.58437585  1
  F  F220  1  0.85204181  0.30158911  0.15915262  1
  F  F221  1  0.35204181  0.80158911  0.34084738  1
  F  F222  1  0.14795819  0.69841089  0.84084738  1
  F  F223  1  0.64795819  0.19841089  0.65915262  1
  F  F224  1  0.85872771  0.45818917  0.11935196  1
  F  F225  1  0.35872771  0.95818917  0.38064804  1
  F  F226  1  0.14127229  0.54181083  0.88064804  1
  F  F227  1  0.64127229  0.04181083  0.61935196  1
  F  F228  1  0.98227223  0.36182602  0.09525182  1
  F  F229  1  0.48227223  0.86182602  0.40474818  1
  F  F230  1  0.01772777  0.63817398  0.90474818  1
  F  F231  1  0.51772777  0.13817398  0.59525182  1
  F  F232  1  0.95441455  0.42038339  0.42944001  1
  F  F233  1  0.45441455  0.92038339  0.07055999  1
  F  F234  1  0.04558545  0.57961661  0.57055999  1
  F  F235  1  0.54558545  0.07961661  0.92944001  1
  F  F236  1  0.80071659  0.36956931  0.46531711  1
  F  F237  1  0.30071659  0.86956931  0.03468289  1
  F  F238  1  0.19928341  0.63043069  0.53468289  1
  F  F239  1  0.69928341  0.13043069  0.96531711  1
  F  F240  1  0.83309746  0.52492723  0.42568056  1
  F  F241  1  0.33309746  0.02492723  0.07431944  1
  F  F242  1  0.16690254  0.47507277  0.57431944  1
  F  F243  1  0.66690254  0.97507277  0.92568056  1
