# generated using pymatgen
data_K5Na3Cu8(S2O9)4
_symmetry_space_group_name_H-M   'P 1'
_cell_length_a   14.18770600
_cell_length_b   4.98616800
_cell_length_c   24.10953098
_cell_angle_alpha   90.00000000
_cell_angle_beta   90.31353274
_cell_angle_gamma   90.00000000
_symmetry_Int_Tables_number   1
_chemical_formula_structural   K5Na3Cu8(S2O9)4
_chemical_formula_sum   'K10 Na6 Cu16 S16 O72'
_cell_volume   1705.53779094
_cell_formula_units_Z   2
loop_
 _symmetry_equiv_pos_site_id
 _symmetry_equiv_pos_as_xyz
  1  'x, y, z'
loop_
 _atom_site_type_symbol
 _atom_site_label
 _atom_site_symmetry_multiplicity
 _atom_site_fract_x
 _atom_site_fract_y
 _atom_site_fract_z
 _atom_site_occupancy
  K  K0  1  0.50000000  0.20787300  0.25000000  1
  K  K1  1  0.50000000  0.79212700  0.75000000  1
  K  K2  1  0.38780500  0.74210400  0.54607600  1
  K  K3  1  0.61219500  0.74210400  0.95392400  1
  K  K4  1  0.61219500  0.25789600  0.45392400  1
  K  K5  1  0.38780500  0.25789600  0.04607600  1
  K  K6  1  0.92528200  0.21311600  0.43547200  1
  K  K7  1  0.07471800  0.21311600  0.06452800  1
  K  K8  1  0.07471800  0.78688400  0.56452800  1
  K  K9  1  0.92528200  0.78688400  0.93547200  1
  Na  Na10  1  0.74475700  0.25640300  0.85097200  1
  Na  Na11  1  0.25524300  0.25640300  0.64902800  1
  Na  Na12  1  0.25524300  0.74359700  0.14902800  1
  Na  Na13  1  0.74475700  0.74359700  0.35097200  1
  Na  Na14  1  0.00000000  0.14463300  0.25000000  1
  Na  Na15  1  0.00000000  0.85536700  0.75000000  1
  Cu  Cu16  1  0.21338000  0.77152400  0.41931700  1
  Cu  Cu17  1  0.78662000  0.77152400  0.08068300  1
  Cu  Cu18  1  0.78662000  0.22847600  0.58068300  1
  Cu  Cu19  1  0.21338000  0.22847600  0.91931700  1
  Cu  Cu20  1  0.28236500  0.72739400  0.30394400  1
  Cu  Cu21  1  0.71763500  0.72739400  0.19605600  1
  Cu  Cu22  1  0.71763500  0.27260600  0.69605600  1
  Cu  Cu23  1  0.28236500  0.27260600  0.80394400  1
  Cu  Cu24  1  0.35184300  0.27424500  0.38632700  1
  Cu  Cu25  1  0.64815700  0.27424500  0.11367300  1
  Cu  Cu26  1  0.64815700  0.72575500  0.61367300  1
  Cu  Cu27  1  0.35184300  0.72575500  0.88632700  1
  Cu  Cu28  1  0.15242600  0.21785100  0.34478200  1
  Cu  Cu29  1  0.84757400  0.21785100  0.15521800  1
  Cu  Cu30  1  0.84757400  0.78214900  0.65521800  1
  Cu  Cu31  1  0.15242600  0.78214900  0.84478200  1
  S  S32  1  0.25267100  0.23312500  0.22430200  1
  S  S33  1  0.74732900  0.23312500  0.27569800  1
  S  S34  1  0.74732900  0.76687500  0.77569800  1
  S  S35  1  0.25267100  0.76687500  0.72430200  1
  S  S36  1  0.22846600  0.25544600  0.49832100  1
  S  S37  1  0.77153400  0.25544600  0.00167900  1
  S  S38  1  0.77153400  0.74455400  0.50167900  1
  S  S39  1  0.22846600  0.74455400  0.99832100  1
  S  S40  1  0.48508800  0.76442800  0.37639600  1
  S  S41  1  0.51491200  0.76442800  0.12360400  1
  S  S42  1  0.51491200  0.23557200  0.62360400  1
  S  S43  1  0.48508800  0.23557200  0.87639600  1
  S  S44  1  0.01399300  0.70257200  0.35486700  1
  S  S45  1  0.98600700  0.70257200  0.14513300  1
  S  S46  1  0.98600700  0.29742800  0.64513300  1
  S  S47  1  0.01399300  0.29742800  0.85486700  1
  O  O48  1  0.25147600  0.26499800  0.16317300  1
  O  O49  1  0.74852400  0.26499800  0.33682700  1
  O  O50  1  0.74852400  0.73500200  0.83682700  1
  O  O51  1  0.25147600  0.73500200  0.66317300  1
  O  O52  1  0.29467900  0.95955800  0.23613600  1
  O  O53  1  0.70532100  0.95955800  0.26386400  1
  O  O54  1  0.70532100  0.04044200  0.76386400  1
  O  O55  1  0.29467900  0.04044200  0.73613600  1
  O  O56  1  0.31823300  0.43657900  0.24998500  1
  O  O57  1  0.68176700  0.43657900  0.25001500  1
  O  O58  1  0.68176700  0.56342100  0.75001500  1
  O  O59  1  0.31823300  0.56342100  0.74998500  1
  O  O60  1  0.15847300  0.25994900  0.24867200  1
  O  O61  1  0.84152700  0.25994900  0.25132800  1
  O  O62  1  0.84152700  0.74005100  0.75132800  1
  O  O63  1  0.15847300  0.74005100  0.74867200  1
  O  O64  1  0.16209400  0.09559000  0.46197400  1
  O  O65  1  0.83790600  0.09559000  0.03802600  1
  O  O66  1  0.83790600  0.90441000  0.53802600  1
  O  O67  1  0.16209400  0.90441000  0.96197400  1
  O  O68  1  0.32722600  0.19562600  0.48309500  1
  O  O69  1  0.67277400  0.19562600  0.01690500  1
  O  O70  1  0.67277400  0.80437400  0.51690500  1
  O  O71  1  0.32722600  0.80437400  0.98309500  1
  O  O72  1  0.21022200  0.19115200  0.55705400  1
  O  O73  1  0.78977800  0.19115200  0.94294600  1
  O  O74  1  0.78977800  0.80884800  0.44294600  1
  O  O75  1  0.21022200  0.80884800  0.05705400  1
  O  O76  1  0.20798000  0.55120900  0.49021200  1
  O  O77  1  0.79202000  0.55120900  0.00978800  1
  O  O78  1  0.79202000  0.44879100  0.50978800  1
  O  O79  1  0.20798000  0.44879100  0.99021200  1
  O  O80  1  0.45700600  0.71089300  0.31831000  1
  O  O81  1  0.54299400  0.71089300  0.18169000  1
  O  O82  1  0.54299400  0.28910700  0.68169000  1
  O  O83  1  0.45700600  0.28910700  0.81831000  1
  O  O84  1  0.03405700  0.72744400  0.41527300  1
  O  O85  1  0.96594300  0.72744400  0.08472700  1
  O  O86  1  0.96594300  0.27255600  0.58472700  1
  O  O87  1  0.03405700  0.27255600  0.91527300  1
  O  O88  1  0.91631300  0.76915900  0.34105400  1
  O  O89  1  0.08368700  0.76915900  0.15894600  1
  O  O90  1  0.08368700  0.23084100  0.65894600  1
  O  O91  1  0.91631300  0.23084100  0.84105400  1
  O  O92  1  0.58617200  0.71845000  0.38696500  1
  O  O93  1  0.41382800  0.71845000  0.11303500  1
  O  O94  1  0.41382800  0.28155000  0.61303500  1
  O  O95  1  0.58617200  0.28155000  0.88696500  1
  O  O96  1  0.42784300  0.59228400  0.41559400  1
  O  O97  1  0.57215700  0.59228400  0.08440600  1
  O  O98  1  0.57215700  0.40771600  0.58440600  1
  O  O99  1  0.42784300  0.40771600  0.91559400  1
  O  O100  1  0.26485000  0.00161300  0.36025400  1
  O  O101  1  0.73515000  0.00161300  0.13974600  1
  O  O102  1  0.73515000  0.99838700  0.63974600  1
  O  O103  1  0.26485000  0.99838700  0.86025400  1
  O  O104  1  0.24576300  0.49461900  0.36607000  1
  O  O105  1  0.75423700  0.49461900  0.13393000  1
  O  O106  1  0.75423700  0.50538100  0.63393000  1
  O  O107  1  0.24576300  0.50538100  0.86607000  1
  O  O108  1  0.46675700  0.05686500  0.39069400  1
  O  O109  1  0.53324300  0.05686500  0.10930600  1
  O  O110  1  0.53324300  0.94313500  0.60930600  1
  O  O111  1  0.46675700  0.94313500  0.89069400  1
  O  O112  1  0.03242200  0.41410200  0.33757600  1
  O  O113  1  0.96757800  0.41410200  0.16242400  1
  O  O114  1  0.96757800  0.58589800  0.66242400  1
  O  O115  1  0.03242200  0.58589800  0.83757600  1
  O  O116  1  0.08013900  0.87890200  0.32216000  1
  O  O117  1  0.91986100  0.87890200  0.17784000  1
  O  O118  1  0.91986100  0.12109800  0.67784000  1
  O  O119  1  0.08013900  0.12109800  0.82216000  1
