# generated using pymatgen
data_NaU(Te3O8)2
_symmetry_space_group_name_H-M   'P 1'
_cell_length_a   11.34846400
_cell_length_b   11.34846400
_cell_length_c   11.34846400
_cell_angle_alpha   90.00000000
_cell_angle_beta   90.00000000
_cell_angle_gamma   90.00000000
_symmetry_Int_Tables_number   1
_chemical_formula_structural   NaU(Te3O8)2
_chemical_formula_sum   'Na4 U4 Te24 O64'
_cell_volume   1461.54184125
_cell_formula_units_Z   4
loop_
 _symmetry_equiv_pos_site_id
 _symmetry_equiv_pos_as_xyz
  1  'x, y, z'
loop_
 _atom_site_type_symbol
 _atom_site_label
 _atom_site_symmetry_multiplicity
 _atom_site_fract_x
 _atom_site_fract_y
 _atom_site_fract_z
 _atom_site_occupancy
  Na  Na0  1  0.50000000  0.50000000  0.00000000  1
  Na  Na1  1  0.50000000  0.00000000  0.50000000  1
  Na  Na2  1  0.00000000  0.50000000  0.50000000  1
  Na  Na3  1  0.00000000  0.00000000  0.00000000  1
  U  U4  1  0.50000000  0.50000000  0.50000000  1
  U  U5  1  0.50000000  0.00000000  0.00000000  1
  U  U6  1  0.00000000  0.50000000  0.00000000  1
  U  U7  1  0.00000000  0.00000000  0.50000000  1
  Te  Te8  1  0.24043500  0.71606200  0.52877500  1
  Te  Te9  1  0.75956500  0.21606200  0.97122500  1
  Te  Te10  1  0.25956500  0.28393800  0.02877500  1
  Te  Te11  1  0.74043500  0.78393800  0.47122500  1
  Te  Te12  1  0.52877500  0.24043500  0.71606200  1
  Te  Te13  1  0.97122500  0.75956500  0.21606200  1
  Te  Te14  1  0.02877500  0.25956500  0.28393800  1
  Te  Te15  1  0.47122500  0.74043500  0.78393800  1
  Te  Te16  1  0.71606200  0.52877500  0.24043500  1
  Te  Te17  1  0.21606200  0.97122500  0.75956500  1
  Te  Te18  1  0.28393800  0.02877500  0.25956500  1
  Te  Te19  1  0.78393800  0.47122500  0.74043500  1
  Te  Te20  1  0.75956500  0.28393800  0.47122500  1
  Te  Te21  1  0.24043500  0.78393800  0.02877500  1
  Te  Te22  1  0.74043500  0.71606200  0.97122500  1
  Te  Te23  1  0.25956500  0.21606200  0.52877500  1
  Te  Te24  1  0.47122500  0.75956500  0.28393800  1
  Te  Te25  1  0.02877500  0.24043500  0.78393800  1
  Te  Te26  1  0.97122500  0.74043500  0.71606200  1
  Te  Te27  1  0.52877500  0.25956500  0.21606200  1
  Te  Te28  1  0.28393800  0.47122500  0.75956500  1
  Te  Te29  1  0.78393800  0.02877500  0.24043500  1
  Te  Te30  1  0.71606200  0.97122500  0.74043500  1
  Te  Te31  1  0.21606200  0.52877500  0.25956500  1
  O  O32  1  0.16152200  0.61750900  0.39911600  1
  O  O33  1  0.83847800  0.11750900  0.10088400  1
  O  O34  1  0.33847800  0.38249100  0.89911600  1
  O  O35  1  0.66152200  0.88249100  0.60088400  1
  O  O36  1  0.39911600  0.16152200  0.61750900  1
  O  O37  1  0.10088400  0.83847800  0.11750900  1
  O  O38  1  0.89911600  0.33847800  0.38249100  1
  O  O39  1  0.60088400  0.66152200  0.88249100  1
  O  O40  1  0.61750900  0.39911600  0.16152200  1
  O  O41  1  0.11750900  0.10088400  0.83847800  1
  O  O42  1  0.38249100  0.89911600  0.33847800  1
  O  O43  1  0.88249100  0.60088400  0.66152200  1
  O  O44  1  0.83847800  0.38249100  0.60088400  1
  O  O45  1  0.16152200  0.88249100  0.89911600  1
  O  O46  1  0.66152200  0.61750900  0.10088400  1
  O  O47  1  0.33847800  0.11750900  0.39911600  1
  O  O48  1  0.60088400  0.83847800  0.38249100  1
  O  O49  1  0.89911600  0.16152200  0.88249100  1
  O  O50  1  0.10088400  0.66152200  0.61750900  1
  O  O51  1  0.39911600  0.33847800  0.11750900  1
  O  O52  1  0.38249100  0.60088400  0.83847800  1
  O  O53  1  0.88249100  0.89911600  0.16152200  1
  O  O54  1  0.61750900  0.10088400  0.66152200  1
  O  O55  1  0.11750900  0.39911600  0.33847800  1
  O  O56  1  0.40612000  0.40612000  0.40612000  1
  O  O57  1  0.59388000  0.90612000  0.09388000  1
  O  O58  1  0.09388000  0.59388000  0.90612000  1
  O  O59  1  0.90612000  0.09388000  0.59388000  1
  O  O60  1  0.59388000  0.59388000  0.59388000  1
  O  O61  1  0.40612000  0.09388000  0.90612000  1
  O  O62  1  0.90612000  0.40612000  0.09388000  1
  O  O63  1  0.09388000  0.90612000  0.40612000  1
  O  O64  1  0.40921000  0.67734500  0.41971400  1
  O  O65  1  0.59079000  0.17734500  0.08028600  1
  O  O66  1  0.09079000  0.32265500  0.91971400  1
  O  O67  1  0.90921000  0.82265500  0.58028600  1
  O  O68  1  0.41971400  0.40921000  0.67734500  1
  O  O69  1  0.08028600  0.59079000  0.17734500  1
  O  O70  1  0.91971400  0.09079000  0.32265500  1
  O  O71  1  0.58028600  0.90921000  0.82265500  1
  O  O72  1  0.67734500  0.41971400  0.40921000  1
  O  O73  1  0.17734500  0.08028600  0.59079000  1
  O  O74  1  0.32265500  0.91971400  0.09079000  1
  O  O75  1  0.82265500  0.58028600  0.90921000  1
  O  O76  1  0.59079000  0.32265500  0.58028600  1
  O  O77  1  0.40921000  0.82265500  0.91971400  1
  O  O78  1  0.90921000  0.67734500  0.08028600  1
  O  O79  1  0.09079000  0.17734500  0.41971400  1
  O  O80  1  0.58028600  0.59079000  0.32265500  1
  O  O81  1  0.91971400  0.40921000  0.82265500  1
  O  O82  1  0.08028600  0.90921000  0.67734500  1
  O  O83  1  0.41971400  0.09079000  0.17734500  1
  O  O84  1  0.32265500  0.58028600  0.59079000  1
  O  O85  1  0.82265500  0.91971400  0.40921000  1
  O  O86  1  0.67734500  0.08028600  0.90921000  1
  O  O87  1  0.17734500  0.41971400  0.09079000  1
  O  O88  1  0.31553200  0.81553200  0.68446800  1
  O  O89  1  0.68446800  0.31553200  0.81553200  1
  O  O90  1  0.18446800  0.18446800  0.18446800  1
  O  O91  1  0.81553200  0.68446800  0.31553200  1
  O  O92  1  0.68446800  0.18446800  0.31553200  1
  O  O93  1  0.31553200  0.68446800  0.18446800  1
  O  O94  1  0.81553200  0.81553200  0.81553200  1
  O  O95  1  0.18446800  0.31553200  0.68446800  1
