# generated using pymatgen
data_SiH12C8(NO2)8
_symmetry_space_group_name_H-M   'P 1'
_cell_length_a   10.36769900
_cell_length_b   10.36769900
_cell_length_c   10.28286600
_cell_angle_alpha   90.00000000
_cell_angle_beta   90.00000000
_cell_angle_gamma   90.00000000
_symmetry_Int_Tables_number   1
_chemical_formula_structural   SiH12C8(NO2)8
_chemical_formula_sum   'Si2 H24 C16 N16 O32'
_cell_volume   1105.29686066
_cell_formula_units_Z   2
loop_
 _symmetry_equiv_pos_site_id
 _symmetry_equiv_pos_as_xyz
  1  'x, y, z'
loop_
 _atom_site_type_symbol
 _atom_site_label
 _atom_site_symmetry_multiplicity
 _atom_site_fract_x
 _atom_site_fract_y
 _atom_site_fract_z
 _atom_site_occupancy
  Si  Si0  1  0.50000000  0.50000000  0.50000000  1
  Si  Si1  1  0.00000000  0.00000000  0.00000000  1
  H  H2  1  0.32923100  0.45217700  0.33286900  1
  H  H3  1  0.82923100  0.04782300  0.16713100  1
  H  H4  1  0.67076900  0.54782300  0.33286900  1
  H  H5  1  0.17076900  0.95217700  0.16713100  1
  H  H6  1  0.54782300  0.32923100  0.66713100  1
  H  H7  1  0.95217700  0.82923100  0.83286900  1
  H  H8  1  0.45217700  0.67076900  0.66713100  1
  H  H9  1  0.04782300  0.17076900  0.83286900  1
  H  H10  1  0.37867500  0.61659700  0.32336300  1
  H  H11  1  0.87867500  0.88340300  0.17663700  1
  H  H12  1  0.62132500  0.38340300  0.32336300  1
  H  H13  1  0.12132500  0.11659700  0.17663700  1
  H  H14  1  0.38340300  0.37867500  0.67663700  1
  H  H15  1  0.11659700  0.87867500  0.82336300  1
  H  H16  1  0.61659700  0.62132500  0.67663700  1
  H  H17  1  0.88340300  0.12132500  0.82336300  1
  H  H18  1  0.08488000  0.65636700  0.60345300  1
  H  H19  1  0.58488000  0.84363300  0.89654700  1
  H  H20  1  0.91512000  0.34363300  0.60345300  1
  H  H21  1  0.41512000  0.15636700  0.89654700  1
  H  H22  1  0.34363300  0.08488000  0.39654700  1
  H  H23  1  0.15636700  0.58488000  0.10345300  1
  H  H24  1  0.65636700  0.91512000  0.39654700  1
  H  H25  1  0.84363300  0.41512000  0.10345300  1
  C  C26  1  0.35744600  0.53687400  0.39059300  1
  C  C27  1  0.85744600  0.96312600  0.10940700  1
  C  C28  1  0.64255400  0.46312600  0.39059300  1
  C  C29  1  0.14255400  0.03687400  0.10940700  1
  C  C30  1  0.46312600  0.35744600  0.60940700  1
  C  C31  1  0.03687400  0.85744600  0.89059300  1
  C  C32  1  0.53687400  0.64255400  0.60940700  1
  C  C33  1  0.96312600  0.14255400  0.89059300  1
  C  C34  1  0.14418700  0.61875800  0.41052200  1
  C  C35  1  0.64418700  0.88124200  0.08947800  1
  C  C36  1  0.85581300  0.38124200  0.41052200  1
  C  C37  1  0.35581300  0.11875800  0.08947800  1
  C  C38  1  0.38124200  0.14418700  0.58947800  1
  C  C39  1  0.11875800  0.64418700  0.91052200  1
  C  C40  1  0.61875800  0.85581300  0.58947800  1
  C  C41  1  0.88124200  0.35581300  0.91052200  1
  N  N42  1  0.94100700  0.71824900  0.48597700  1
  N  N43  1  0.44100700  0.78175100  0.01402300  1
  N  N44  1  0.05899300  0.28175100  0.48597700  1
  N  N45  1  0.55899300  0.21824900  0.01402300  1
  N  N46  1  0.28175100  0.94100700  0.51402300  1
  N  N47  1  0.21824900  0.44100700  0.98597700  1
  N  N48  1  0.71824900  0.05899300  0.51402300  1
  N  N49  1  0.78175100  0.55899300  0.98597700  1
  N  N50  1  0.05565700  0.65241800  0.50790100  1
  N  N51  1  0.55565700  0.84758200  0.99209900  1
  N  N52  1  0.94434300  0.34758200  0.50790100  1
  N  N53  1  0.44434300  0.15241800  0.99209900  1
  N  N54  1  0.34758200  0.05565700  0.49209900  1
  N  N55  1  0.15241800  0.55565700  0.00790100  1
  N  N56  1  0.65241800  0.94434300  0.49209900  1
  N  N57  1  0.84758200  0.44434300  0.00790100  1
  O  O58  1  0.24953000  0.57405700  0.47382200  1
  O  O59  1  0.74953000  0.92594300  0.02617800  1
  O  O60  1  0.75047000  0.42594300  0.47382200  1
  O  O61  1  0.25047000  0.07405700  0.02617800  1
  O  O62  1  0.42594300  0.24953000  0.52617800  1
  O  O63  1  0.07405700  0.74953000  0.97382200  1
  O  O64  1  0.57405700  0.75047000  0.52617800  1
  O  O65  1  0.92594300  0.25047000  0.97382200  1
  O  O66  1  0.12905800  0.62641100  0.29345900  1
  O  O67  1  0.62905800  0.87358900  0.20654100  1
  O  O68  1  0.87094200  0.37358900  0.29345900  1
  O  O69  1  0.37094200  0.12641100  0.20654100  1
  O  O70  1  0.37358900  0.12905800  0.70654100  1
  O  O71  1  0.12641100  0.62905800  0.79345900  1
  O  O72  1  0.62641100  0.87094200  0.70654100  1
  O  O73  1  0.87358900  0.37094200  0.79345900  1
  O  O74  1  0.89434800  0.71922100  0.37593400  1
  O  O75  1  0.39434800  0.78077900  0.12406600  1
  O  O76  1  0.10565200  0.28077900  0.37593400  1
  O  O77  1  0.60565200  0.21922100  0.12406600  1
  O  O78  1  0.28077900  0.89434800  0.62406600  1
  O  O79  1  0.21922100  0.39434800  0.87593400  1
  O  O80  1  0.71922100  0.10565200  0.62406600  1
  O  O81  1  0.78077900  0.60565200  0.87593400  1
  O  O82  1  0.89400000  0.76860400  0.58470500  1
  O  O83  1  0.39400000  0.73139600  0.91529500  1
  O  O84  1  0.10600000  0.23139600  0.58470500  1
  O  O85  1  0.60600000  0.26860400  0.91529500  1
  O  O86  1  0.23139600  0.89400000  0.41529500  1
  O  O87  1  0.26860400  0.39400000  0.08470500  1
  O  O88  1  0.76860400  0.10600000  0.41529500  1
  O  O89  1  0.73139600  0.60600000  0.08470500  1
