# generated using pymatgen
data_K2SrTh2(MoO4)6
_symmetry_space_group_name_H-M   'P 1'
_cell_length_a   8.08223395
_cell_length_b   8.46004041
_cell_length_c   16.17886357
_cell_angle_alpha   101.55243475
_cell_angle_beta   102.48325368
_cell_angle_gamma   97.01157423
_symmetry_Int_Tables_number   1
_chemical_formula_structural   K2SrTh2(MoO4)6
_chemical_formula_sum   'K4 Sr2 Th4 Mo12 O48'
_cell_volume   1042.28257136
_cell_formula_units_Z   2
loop_
 _symmetry_equiv_pos_site_id
 _symmetry_equiv_pos_as_xyz
  1  'x, y, z'
loop_
 _atom_site_type_symbol
 _atom_site_label
 _atom_site_symmetry_multiplicity
 _atom_site_fract_x
 _atom_site_fract_y
 _atom_site_fract_z
 _atom_site_occupancy
  K  K0  1  0.80703100  0.28518600  0.56447800  1
  K  K1  1  0.19296900  0.71481400  0.43552200  1
  K  K2  1  0.14517600  0.49633800  0.15840000  1
  K  K3  1  0.85482400  0.50366200  0.84160000  1
  Sr  Sr4  1  0.33710300  0.37071800  0.84054800  1
  Sr  Sr5  1  0.66289700  0.62928200  0.15945200  1
  Th  Th6  1  0.68974300  0.69416100  0.49633500  1
  Th  Th7  1  0.31025700  0.30583900  0.50366500  1
  Th  Th8  1  0.93313600  0.99753900  0.83854100  1
  Th  Th9  1  0.06686400  0.00246100  0.16145900  1
  Mo  Mo10  1  0.47376100  0.00280600  0.66080100  1
  Mo  Mo11  1  0.52623900  0.99719400  0.33919900  1
  Mo  Mo12  1  0.08635700  0.05135200  0.65082900  1
  Mo  Mo13  1  0.91364300  0.94864800  0.34917100  1
  Mo  Mo14  1  0.14084600  0.67805100  0.66518200  1
  Mo  Mo15  1  0.85915400  0.32194900  0.33481800  1
  Mo  Mo16  1  0.53784300  0.62940500  0.68216500  1
  Mo  Mo17  1  0.46215700  0.37059500  0.31783500  1
  Mo  Mo18  1  0.38660100  0.16538500  0.01182800  1
  Mo  Mo19  1  0.61339900  0.83461500  0.98817200  1
  Mo  Mo20  1  0.77398000  0.23676500  0.00430400  1
  Mo  Mo21  1  0.22602000  0.76323500  0.99569600  1
  O  O22  1  0.27554300  0.54665500  0.59626800  1
  O  O23  1  0.72445700  0.45334500  0.40373200  1
  O  O24  1  0.40226900  0.78563300  0.72580600  1
  O  O25  1  0.59773100  0.21436700  0.27419400  1
  O  O26  1  0.34318500  0.11544800  0.72842000  1
  O  O27  1  0.65681500  0.88455200  0.27158000  1
  O  O28  1  0.07848900  0.86848100  0.72876900  1
  O  O29  1  0.92151100  0.13151900  0.27123100  1
  O  O30  1  0.48270400  0.13573000  0.58655500  1
  O  O31  1  0.51729600  0.86427000  0.41344500  1
  O  O32  1  0.02808900  0.17412900  0.74510900  1
  O  O33  1  0.97191100  0.82587100  0.25489100  1
  O  O34  1  0.87189900  0.24721000  0.91247900  1
  O  O35  1  0.12810100  0.75279000  0.08752100  1
  O  O36  1  0.59014100  0.50077800  0.58205500  1
  O  O37  1  0.40985900  0.49922200  0.41794500  1
  O  O38  1  0.87681100  0.94718400  0.58313200  1
  O  O39  1  0.12318900  0.05281600  0.41686800  1
  O  O40  1  0.95543600  0.17537600  0.07842600  1
  O  O41  1  0.04456400  0.82462400  0.92157400  1
  O  O42  1  0.50450800  0.47194900  0.73716400  1
  O  O43  1  0.49549200  0.52805100  0.26283600  1
  O  O44  1  0.21373900  0.88409200  0.59816600  1
  O  O45  1  0.78626100  0.11590800  0.40183400  1
  O  O46  1  0.53269200  0.80608500  0.59254100  1
  O  O47  1  0.46730800  0.19391500  0.40745900  1
  O  O48  1  0.61428200  0.11113800  0.06108600  1
  O  O49  1  0.38571800  0.88886200  0.93891400  1
  O  O50  1  0.13669800  0.20799000  0.59355300  1
  O  O51  1  0.86330200  0.79201000  0.40644600  1
  O  O52  1  0.20281700  0.15184000  0.91675500  1
  O  O53  1  0.79718300  0.84816000  0.08324500  1
  O  O54  1  0.80239800  0.44364800  0.06231600  1
  O  O55  1  0.19760200  0.55635200  0.93768400  1
  O  O56  1  0.10983200  0.54582100  0.73331800  1
  O  O57  1  0.89016800  0.45417900  0.26668200  1
  O  O58  1  0.74703200  0.73828100  0.74512900  1
  O  O59  1  0.25296800  0.26171900  0.25487100  1
  O  O60  1  0.53743500  0.23319100  0.93457500  1
  O  O61  1  0.46256500  0.76680900  0.06542500  1
  O  O62  1  0.67478200  0.05741100  0.73953500  1
  O  O63  1  0.32521800  0.94258900  0.26046500  1
  O  O64  1  0.40499900  0.36590100  0.07476000  1
  O  O65  1  0.59500100  0.63409900  0.92524000  1
  O  O66  1  0.26893600  0.03944700  0.07137200  1
  O  O67  1  0.73106400  0.96055300  0.92862800  1
  O  O68  1  0.94561500  0.62115200  0.57682100  1
  O  O69  1  0.05438500  0.37884800  0.42317900  1
