# generated using pymatgen
data_TeMoSe
_symmetry_space_group_name_H-M   'P 1'
_cell_length_a   3.44062195
_cell_length_b   3.44062195
_cell_length_c   39.05219200
_cell_angle_alpha   90.00000000
_cell_angle_beta   90.00000000
_cell_angle_gamma   119.99999905
_symmetry_Int_Tables_number   1
_chemical_formula_structural   TeMoSe
_chemical_formula_sum   'Te4 Mo4 Se4'
_cell_volume   400.35933869
_cell_formula_units_Z   4
loop_
 _symmetry_equiv_pos_site_id
 _symmetry_equiv_pos_as_xyz
  1  'x, y, z'
loop_
 _atom_site_type_symbol
 _atom_site_label
 _atom_site_symmetry_multiplicity
 _atom_site_fract_x
 _atom_site_fract_y
 _atom_site_fract_z
 _atom_site_occupancy
  Te  Te0  1  0.33333300  0.66666700  0.32931500  1
  Te  Te1  1  0.33333300  0.66666700  0.70504200  1
  Te  Te2  1  0.33333300  0.66666700  0.23428200  1
  Te  Te3  1  0.33333300  0.66666700  0.61002400  1
  Mo  Mo4  1  0.33333300  0.66666700  0.09391100  1
  Mo  Mo5  1  0.33333300  0.66666700  0.46966100  1
  Mo  Mo6  1  0.66666700  0.33333300  0.28178700  1
  Mo  Mo7  1  0.66666700  0.33333300  0.65752700  1
  Se  Se8  1  0.66666700  0.33333300  0.05204600  1
  Se  Se9  1  0.66666700  0.33333300  0.42777600  1
  Se  Se10  1  0.66666700  0.33333300  0.13582000  1
  Se  Se11  1  0.66666700  0.33333300  0.51155800  1
