# generated using pymatgen
data_CoSb3XeF23
_symmetry_space_group_name_H-M   'P 1'
_cell_length_a   10.84961200
_cell_length_b   11.06781600
_cell_length_c   19.11468103
_cell_angle_alpha   55.00680454
_cell_angle_beta   90.00000000
_cell_angle_gamma   90.00000000
_symmetry_Int_Tables_number   1
_chemical_formula_structural   CoSb3XeF23
_chemical_formula_sum   'Co4 Sb12 Xe4 F92'
_cell_volume   1880.37220469
_cell_formula_units_Z   4
loop_
 _symmetry_equiv_pos_site_id
 _symmetry_equiv_pos_as_xyz
  1  'x, y, z'
loop_
 _atom_site_type_symbol
 _atom_site_label
 _atom_site_symmetry_multiplicity
 _atom_site_fract_x
 _atom_site_fract_y
 _atom_site_fract_z
 _atom_site_occupancy
  Co  Co0  1  0.50000000  0.50000000  0.50000000  1
  Co  Co1  1  0.00000000  0.50000000  0.00000000  1
  Co  Co2  1  0.00000000  0.00000000  0.50000000  1
  Co  Co3  1  0.50000000  0.00000000  0.00000000  1
  Sb  Sb4  1  0.70803200  0.21188100  0.49490600  1
  Sb  Sb5  1  0.79196800  0.21188100  0.99490600  1
  Sb  Sb6  1  0.29196800  0.78811900  0.50509400  1
  Sb  Sb7  1  0.20803200  0.78811900  0.00509400  1
  Sb  Sb8  1  0.79532400  0.69335300  0.51112600  1
  Sb  Sb9  1  0.70467600  0.69335300  0.01112600  1
  Sb  Sb10  1  0.20467600  0.30664700  0.48887400  1
  Sb  Sb11  1  0.29532400  0.30664700  0.98887400  1
  Sb  Sb12  1  0.99574700  0.22734700  0.24634100  1
  Sb  Sb13  1  0.50425300  0.22734700  0.74634100  1
  Sb  Sb14  1  0.00425300  0.77265300  0.75365900  1
  Sb  Sb15  1  0.49574700  0.77265300  0.25365900  1
  Xe  Xe16  1  0.94702500  0.79632400  0.24631400  1
  Xe  Xe17  1  0.55297500  0.79632400  0.74631400  1
  Xe  Xe18  1  0.05297500  0.20367600  0.75368600  1
  Xe  Xe19  1  0.44702500  0.20367600  0.25368600  1
  F  F20  1  0.06347600  0.66562800  0.24271100  1
  F  F21  1  0.43652400  0.66562800  0.74271100  1
  F  F22  1  0.93652400  0.33437200  0.75728900  1
  F  F23  1  0.56347600  0.33437200  0.25728900  1
  F  F24  1  0.05175300  0.75047300  0.34201000  1
  F  F25  1  0.44824700  0.75047300  0.84201000  1
  F  F26  1  0.94824700  0.24952700  0.65799000  1
  F  F27  1  0.55175300  0.24952700  0.15799000  1
  F  F28  1  0.87672100  0.80451200  0.14929600  1
  F  F29  1  0.62327900  0.80451200  0.64929600  1
  F  F30  1  0.12327900  0.19548800  0.85070400  1
  F  F31  1  0.37672100  0.19548800  0.35070400  1
  F  F32  1  0.07023500  0.94391000  0.17006200  1
  F  F33  1  0.42976500  0.94391000  0.67006200  1
  F  F34  1  0.92976500  0.05609000  0.82993800  1
  F  F35  1  0.57023500  0.05609000  0.32993800  1
  F  F36  1  0.85990600  0.60881700  0.32184100  1
  F  F37  1  0.64009400  0.60881700  0.82184100  1
  F  F38  1  0.14009400  0.39118300  0.67815900  1
  F  F39  1  0.35990600  0.39118300  0.17815900  1
  F  F40  1  0.58866700  0.36513600  0.47313600  1
  F  F41  1  0.91133300  0.36513600  0.97313600  1
  F  F42  1  0.41133300  0.63486400  0.52686400  1
  F  F43  1  0.08866700  0.63486400  0.02686400  1
  F  F44  1  0.65695700  0.08919100  0.61287100  1
  F  F45  1  0.84304300  0.08919100  0.11287100  1
  F  F46  1  0.34304300  0.91080900  0.38712900  1
  F  F47  1  0.15695700  0.91080900  0.88712900  1
  F  F48  1  0.58698600  0.12172600  0.46843200  1
  F  F49  1  0.91301400  0.12172600  0.96843200  1
  F  F50  1  0.41301400  0.87827400  0.53156800  1
  F  F51  1  0.08698600  0.87827400  0.03156800  1
  F  F52  1  0.82941900  0.05752100  0.52007000  1
  F  F53  1  0.67058100  0.05752100  0.02007000  1
  F  F54  1  0.17058100  0.94247900  0.47993000  1
  F  F55  1  0.32941900  0.94247900  0.97993000  1
  F  F56  1  0.76148900  0.32791700  0.37993100  1
  F  F57  1  0.73851100  0.32791700  0.87993100  1
  F  F58  1  0.23851100  0.67208300  0.62006900  1
  F  F59  1  0.26148900  0.67208300  0.12006900  1
  F  F60  1  0.82646400  0.29972600  0.52492900  1
  F  F61  1  0.67353600  0.29972600  0.02492900  1
  F  F62  1  0.17353600  0.70027400  0.47507100  1
  F  F63  1  0.32646400  0.70027400  0.97507100  1
  F  F64  1  0.66779800  0.55058100  0.52800500  1
  F  F65  1  0.83220200  0.55058100  0.02800500  1
  F  F66  1  0.33220200  0.44941900  0.47199500  1
  F  F67  1  0.16779800  0.44941900  0.97199500  1
  F  F68  1  0.92071800  0.55532400  0.53778600  1
  F  F69  1  0.57928200  0.55532400  0.03778600  1
  F  F70  1  0.07928200  0.44467600  0.46221400  1
  F  F71  1  0.42071800  0.44467600  0.96221400  1
  F  F72  1  0.80781800  0.76509000  0.39279300  1
  F  F73  1  0.69218200  0.76509000  0.89279300  1
  F  F74  1  0.19218200  0.23491000  0.60720700  1
  F  F75  1  0.30781800  0.23491000  0.10720700  1
  F  F76  1  0.92040200  0.84013100  0.49145800  1
  F  F77  1  0.57959800  0.84013100  0.99145800  1
  F  F78  1  0.07959800  0.15986900  0.50854200  1
  F  F79  1  0.42040200  0.15986900  0.00854200  1
  F  F80  1  0.66952700  0.83376200  0.48063400  1
  F  F81  1  0.83047300  0.83376200  0.98063400  1
  F  F82  1  0.33047300  0.16623800  0.51936600  1
  F  F83  1  0.16952700  0.16623800  0.01936600  1
  F  F84  1  0.78452800  0.62554700  0.62704500  1
  F  F85  1  0.71547200  0.62554700  0.12704500  1
  F  F86  1  0.21547200  0.37445300  0.37295500  1
  F  F87  1  0.28452800  0.37445300  0.87295500  1
  F  F88  1  0.97793100  0.14372900  0.36830400  1
  F  F89  1  0.52206900  0.14372900  0.86830400  1
  F  F90  1  0.02206900  0.85627100  0.63169600  1
  F  F91  1  0.47793100  0.85627100  0.13169600  1
  F  F92  1  0.96499700  0.03625400  0.26972800  1
  F  F93  1  0.53500300  0.03625400  0.76972800  1
  F  F94  1  0.03500300  0.96374600  0.73027200  1
  F  F95  1  0.46499700  0.96374600  0.23027200  1
  F  F96  1  0.16693200  0.17545100  0.26499500  1
  F  F97  1  0.33306800  0.17545100  0.76499500  1
  F  F98  1  0.83306800  0.82454900  0.73500500  1
  F  F99  1  0.66693200  0.82454900  0.23500500  1
  F  F100  1  0.01873500  0.31190800  0.12413000  1
  F  F101  1  0.48126500  0.31190800  0.62413000  1
  F  F102  1  0.98126500  0.68809200  0.87587000  1
  F  F103  1  0.51873500  0.68809200  0.37587000  1
  F  F104  1  0.03026700  0.41428500  0.22280800  1
  F  F105  1  0.46973300  0.41428500  0.72280800  1
  F  F106  1  0.96973300  0.58571500  0.77719200  1
  F  F107  1  0.53026700  0.58571500  0.27719200  1
  F  F108  1  0.82494200  0.26582700  0.22865800  1
  F  F109  1  0.67505800  0.26582700  0.72865800  1
  F  F110  1  0.17505800  0.73417300  0.77134200  1
  F  F111  1  0.32494200  0.73417300  0.27134200  1
