# generated using pymatgen
data_CoH7C3NO6
_symmetry_space_group_name_H-M   'P 1'
_cell_length_a   12.72558261
_cell_length_b   12.72558261
_cell_length_c   8.33185200
_cell_angle_alpha   90.00000000
_cell_angle_beta   90.00000000
_cell_angle_gamma   120.00000320
_symmetry_Int_Tables_number   1
_chemical_formula_structural   CoH7C3NO6
_chemical_formula_sum   'Co6 H42 C18 N6 O36'
_cell_volume   1168.49676429
_cell_formula_units_Z   6
loop_
 _symmetry_equiv_pos_site_id
 _symmetry_equiv_pos_as_xyz
  1  'x, y, z'
loop_
 _atom_site_type_symbol
 _atom_site_label
 _atom_site_symmetry_multiplicity
 _atom_site_fract_x
 _atom_site_fract_y
 _atom_site_fract_z
 _atom_site_occupancy
  Co  Co0  1  0.00379500  0.33564200  0.58691900  1
  Co  Co1  1  0.33184700  0.99620500  0.58691900  1
  Co  Co2  1  0.66435800  0.66815300  0.58691900  1
  Co  Co3  1  0.99620500  0.66435800  0.08691900  1
  Co  Co4  1  0.66815300  0.00379500  0.08691900  1
  Co  Co5  1  0.33564200  0.33184700  0.08691900  1
  H  H6  1  0.13289000  0.27419200  0.32555900  1
  H  H7  1  0.14130100  0.86711000  0.32555900  1
  H  H8  1  0.72580800  0.85869900  0.32555900  1
  H  H9  1  0.86711000  0.72580800  0.82555900  1
  H  H10  1  0.85869900  0.13289000  0.82555900  1
  H  H11  1  0.27419200  0.14130100  0.82555900  1
  H  H12  1  0.05676100  0.51091700  0.30739200  1
  H  H13  1  0.45415600  0.94323900  0.30739200  1
  H  H14  1  0.48908300  0.54584400  0.30739200  1
  H  H15  1  0.94323900  0.48908300  0.80739200  1
  H  H16  1  0.54584400  0.05676100  0.80739200  1
  H  H17  1  0.51091700  0.45415600  0.80739200  1
  H  H18  1  0.78725500  0.17613100  0.37167000  1
  H  H19  1  0.38887600  0.21274500  0.37167000  1
  H  H20  1  0.82386900  0.61112400  0.37167000  1
  H  H21  1  0.21274500  0.82386900  0.87167000  1
  H  H22  1  0.61112400  0.78725500  0.87167000  1
  H  H23  1  0.17613100  0.38887600  0.87167000  1
  H  H24  1  0.27116300  0.57852000  0.49646700  1
  H  H25  1  0.30735700  0.72883700  0.49646700  1
  H  H26  1  0.42148000  0.69264300  0.49646700  1
  H  H27  1  0.72883700  0.42148000  0.99646700  1
  H  H28  1  0.69264300  0.27116300  0.99646700  1
  H  H29  1  0.57852000  0.30735700  0.99646700  1
  H  H30  1  0.33333300  0.66666700  0.65815500  1
  H  H31  1  0.66666700  0.33333300  0.15815500  1
  H  H32  1  0.75497200  0.35977400  0.49685800  1
  H  H33  1  0.60480200  0.24502800  0.49685800  1
  H  H34  1  0.64022600  0.39519800  0.49685800  1
  H  H35  1  0.24502800  0.64022600  0.99685800  1
  H  H36  1  0.39519800  0.75497200  0.99685800  1
  H  H37  1  0.35977400  0.60480200  0.99685800  1
  H  H38  1  0.66666700  0.33333300  0.65868900  1
  H  H39  1  0.33333300  0.66666700  0.15868900  1
  H  H40  1  0.93895100  0.02742800  0.16970100  1
  H  H41  1  0.08847700  0.06104900  0.16970100  1
  H  H42  1  0.97257200  0.91152300  0.16970100  1
  H  H43  1  0.06104900  0.97257200  0.66970100  1
  H  H44  1  0.91152300  0.93895100  0.66970100  1
  H  H45  1  0.02742800  0.08847700  0.66970100  1
  H  H46  1  0.00000000  0.00000000  0.00725200  1
  H  H47  1  0.00000000  0.00000000  0.50725200  1
  C  C48  1  0.18929900  0.37384200  0.33243400  1
  C  C49  1  0.18454300  0.81070100  0.33243400  1
  C  C50  1  0.62615800  0.81545700  0.33243400  1
  C  C51  1  0.81070100  0.62615800  0.83243400  1
  C  C52  1  0.81545700  0.18929900  0.83243400  1
  C  C53  1  0.37384200  0.18454300  0.83243400  1
  C  C54  1  0.95852000  0.47374400  0.32538200  1
  C  C55  1  0.51522400  0.04148000  0.32538200  1
  C  C56  1  0.52625600  0.48477600  0.32538200  1
  C  C57  1  0.04148000  0.52625600  0.82538200  1
  C  C58  1  0.48477600  0.95852000  0.82538200  1
  C  C59  1  0.47374400  0.51522400  0.82538200  1
  C  C60  1  0.85111000  0.14264800  0.35012400  1
  C  C61  1  0.29153800  0.14889000  0.35012400  1
  C  C62  1  0.85735200  0.70846200  0.35012400  1
  C  C63  1  0.14889000  0.85735200  0.85012400  1
  C  C64  1  0.70846200  0.85111000  0.85012400  1
  C  C65  1  0.14264800  0.29153800  0.85012400  1
  N  N66  1  0.33333300  0.66666700  0.53548400  1
  N  N67  1  0.66666700  0.33333300  0.03548400  1
  N  N68  1  0.66666700  0.33333300  0.53592000  1
  N  N69  1  0.33333300  0.66666700  0.03592000  1
  N  N70  1  0.00000000  0.00000000  0.13004700  1
  N  N71  1  0.00000000  0.00000000  0.63004700  1
  O  O72  1  0.16197600  0.42675500  0.44142600  1
  O  O73  1  0.26477900  0.83802400  0.44142600  1
  O  O74  1  0.57324500  0.73522100  0.44142600  1
  O  O75  1  0.83802400  0.57324500  0.94142600  1
  O  O76  1  0.73522100  0.16197600  0.94142600  1
  O  O77  1  0.42675500  0.26477900  0.94142600  1
  O  O78  1  0.27580800  0.42840800  0.23437900  1
  O  O79  1  0.15260000  0.72419200  0.23437900  1
  O  O80  1  0.57159200  0.84740000  0.23437900  1
  O  O81  1  0.72419200  0.57159200  0.73437900  1
  O  O82  1  0.84740000  0.27580800  0.73437900  1
  O  O83  1  0.42840800  0.15260000  0.73437900  1
  O  O84  1  0.90817900  0.39901700  0.44070400  1
  O  O85  1  0.49083800  0.09182100  0.44070400  1
  O  O86  1  0.60098300  0.50916200  0.44070400  1
  O  O87  1  0.09182100  0.60098300  0.94070400  1
  O  O88  1  0.50916200  0.90817900  0.94070400  1
  O  O89  1  0.39901700  0.49083800  0.94070400  1
  O  O90  1  0.90281500  0.50819900  0.23258000  1
  O  O91  1  0.60538400  0.09718500  0.23258000  1
  O  O92  1  0.49180100  0.39461600  0.23258000  1
  O  O93  1  0.09718500  0.49180100  0.73258000  1
  O  O94  1  0.39461600  0.90281500  0.73258000  1
  O  O95  1  0.50819900  0.60538400  0.73258000  1
  O  O96  1  0.94208200  0.17825400  0.44159300  1
  O  O97  1  0.23617200  0.05791800  0.44159300  1
  O  O98  1  0.82174600  0.76382800  0.44159300  1
  O  O99  1  0.05791800  0.82174600  0.94159300  1
  O  O100  1  0.76382800  0.94208200  0.94159300  1
  O  O101  1  0.17825400  0.23617200  0.94159300  1
  O  O102  1  0.82801000  0.07010700  0.23245600  1
  O  O103  1  0.24209700  0.17199000  0.23245600  1
  O  O104  1  0.92989300  0.75790300  0.23245600  1
  O  O105  1  0.17199000  0.92989300  0.73245600  1
  O  O106  1  0.75790300  0.82801000  0.73245600  1
  O  O107  1  0.07010700  0.24209700  0.73245600  1
