# generated using pymatgen
data_MoW(SeS)2
_symmetry_space_group_name_H-M   'P 1'
_cell_length_a   3.25553387
_cell_length_b   3.25553387
_cell_length_c   36.89296900
_cell_angle_alpha   90.00000000
_cell_angle_beta   90.00000000
_cell_angle_gamma   119.99999741
_symmetry_Int_Tables_number   1
_chemical_formula_structural   MoW(SeS)2
_chemical_formula_sum   'Mo2 W2 Se4 S4'
_cell_volume   338.62474169
_cell_formula_units_Z   2
loop_
 _symmetry_equiv_pos_site_id
 _symmetry_equiv_pos_as_xyz
  1  'x, y, z'
loop_
 _atom_site_type_symbol
 _atom_site_label
 _atom_site_symmetry_multiplicity
 _atom_site_fract_x
 _atom_site_fract_y
 _atom_site_fract_z
 _atom_site_occupancy
  Mo  Mo0  1  0.00000000  0.00000000  0.09388500  1
  Mo  Mo1  1  0.00000000  0.00000000  0.46963400  1
  W  W2  1  0.33333300  0.66666700  0.28180100  1
  W  W3  1  0.33333300  0.66666700  0.65757100  1
  Se  Se4  1  0.00000000  0.00000000  0.70387000  1
  Se  Se5  1  0.33333300  0.66666700  0.04784200  1
  Se  Se6  1  0.33333300  0.66666700  0.13999000  1
  Se  Se7  1  0.00000000  0.00000000  0.61124000  1
  S  S8  1  0.00000000  0.00000000  0.32384000  1
  S  S9  1  0.33333300  0.66666700  0.42781800  1
  S  S10  1  0.33333300  0.66666700  0.51146700  1
  S  S11  1  0.00000000  0.00000000  0.23978900  1
