# generated using pymatgen
data_SiH23C11N3O8
_symmetry_space_group_name_H-M   'P 1'
_cell_length_a   10.78233692
_cell_length_b   10.38278766
_cell_length_c   11.76387944
_cell_angle_alpha   95.06869289
_cell_angle_beta   110.31052514
_cell_angle_gamma   119.79680283
_symmetry_Int_Tables_number   1
_chemical_formula_structural   SiH23C11N3O8
_chemical_formula_sum   'Si2 H46 C22 N6 O16'
_cell_volume   1015.26445306
_cell_formula_units_Z   2
loop_
 _symmetry_equiv_pos_site_id
 _symmetry_equiv_pos_as_xyz
  1  'x, y, z'
loop_
 _atom_site_type_symbol
 _atom_site_label
 _atom_site_symmetry_multiplicity
 _atom_site_fract_x
 _atom_site_fract_y
 _atom_site_fract_z
 _atom_site_occupancy
  Si  Si0  1  0.18584400  0.84247200  0.54204200  1
  Si  Si1  1  0.81415600  0.15752800  0.45795800  1
  H  H2  1  0.95750600  0.73233400  0.59557200  1
  H  H3  1  0.04249400  0.26766600  0.40442800  1
  H  H4  1  0.10966800  0.92921200  0.69565400  1
  H  H5  1  0.89033200  0.07078800  0.30434600  1
  H  H6  1  0.97818000  0.88904300  0.53561200  1
  H  H7  1  0.02182000  0.11095700  0.46438800  1
  H  H8  1  0.40155500  0.87112700  0.02337700  1
  H  H9  1  0.59844500  0.12887300  0.97662300  1
  H  H10  1  0.41014300  0.40525000  0.38811400  1
  H  H11  1  0.58985700  0.59475000  0.61188600  1
  H  H12  1  0.14881100  0.51699200  0.08198300  1
  H  H13  1  0.85118900  0.48300800  0.91801700  1
  H  H14  1  0.29445600  0.60971800  0.24541400  1
  H  H15  1  0.70554400  0.39028200  0.75458600  1
  H  H16  1  0.27121800  0.20334100  0.30218500  1
  H  H17  1  0.72878200  0.79665900  0.69781500  1
  H  H18  1  0.24541200  0.67190400  0.92923400  1
  H  H19  1  0.75458800  0.32809600  0.07076600  1
  H  H20  1  0.05415700  0.82185800  0.31117300  1
  H  H21  1  0.94584300  0.17814200  0.68882700  1
  H  H22  1  0.36702200  0.74965400  0.62359800  1
  H  H23  1  0.63297800  0.25034600  0.37640200  1
  H  H24  1  0.16245600  0.59175500  0.54008600  1
  H  H25  1  0.83754400  0.40824500  0.45991400  1
  H  H26  1  0.95348500  0.63740600  0.33491700  1
  H  H27  1  0.04651500  0.36259400  0.66508300  1
  H  H28  1  0.39845400  0.12652100  0.66765500  1
  H  H29  1  0.60154600  0.87347900  0.33234500  1
  H  H30  1  0.47320100  0.04446000  0.59516100  1
  H  H31  1  0.52679900  0.95554000  0.40483900  1
  H  H32  1  0.22449600  0.07304000  0.05089500  1
  H  H33  1  0.77550400  0.92696000  0.94910500  1
  H  H34  1  0.11385100  0.22983200  0.05509200  1
  H  H35  1  0.88614900  0.77016800  0.94490800  1
  H  H36  1  0.16213200  0.91625000  0.11785000  1
  H  H37  1  0.83786800  0.08375000  0.88215000  1
  H  H38  1  0.37484000  0.52820900  0.84996600  1
  H  H39  1  0.62516000  0.47179100  0.15003400  1
  H  H40  1  0.59027400  0.72397200  0.05463500  1
  H  H41  1  0.40972600  0.27602800  0.94536500  1
  H  H42  1  0.40924200  0.39924500  0.77427100  1
  H  H43  1  0.59075800  0.60075500  0.22572900  1
  H  H44  1  0.97833400  0.17693800  0.12502000  1
  H  H45  1  0.02166600  0.82306200  0.87498000  1
  H  H46  1  0.77023700  0.72695900  0.11719000  1
  H  H47  1  0.22976300  0.27304100  0.88281000  1
  C  C48  1  0.09407600  0.61472000  0.19767700  1
  C  C49  1  0.90592400  0.38528000  0.80232300  1
  C  C50  1  0.33490900  0.81867000  0.83153200  1
  C  C51  1  0.66509100  0.18133000  0.16846800  1
  C  C52  1  0.01715100  0.13123200  0.06687000  1
  C  C53  1  0.98284900  0.86876800  0.93312900  1
  C  C54  1  0.41043300  0.25946300  0.49435500  1
  C  C55  1  0.58956700  0.74053700  0.50564500  1
  C  C56  1  0.24578700  0.71052300  0.60946200  1
  C  C57  1  0.75421300  0.28947700  0.39053800  1
  C  C58  1  0.43037500  0.46184300  0.86651600  1
  C  C59  1  0.56962500  0.53815700  0.13348400  1
  C  C60  1  0.12328000  0.98038700  0.06268300  1
  C  C61  1  0.87672000  0.01961300  0.93731700  1
  C  C62  1  0.07232400  0.74380100  0.36175800  1
  C  C63  1  0.92767600  0.25619900  0.63824200  1
  C  C64  1  0.04518700  0.84924100  0.59747600  1
  C  C65  1  0.95481300  0.15075900  0.40252400  1
  C  C66  1  0.63891600  0.65115300  0.06454000  1
  C  C67  1  0.36108400  0.34884700  0.93546000  1
  C  C68  1  0.36735900  0.04607000  0.57989300  1
  C  C69  1  0.63264100  0.95393000  0.42010700  1
  N  N70  1  0.18878800  0.57955400  0.17341200  1
  N  N71  1  0.81121200  0.42044600  0.82658800  1
  N  N72  1  0.36667900  0.29149600  0.38438500  1
  N  N73  1  0.63332100  0.70850400  0.61561500  1
  N  N74  1  0.32053100  0.78517700  0.93615500  1
  N  N75  1  0.67946900  0.21482300  0.06384500  1
  O  O76  1  0.16533500  0.70175700  0.32344900  1
  O  O77  1  0.83466500  0.29824300  0.67655100  1
  O  O78  1  0.32822300  0.10129900  0.47201800  1
  O  O79  1  0.67177700  0.89870100  0.52798200  1
  O  O80  1  0.23227800  0.68835300  0.72593400  1
  O  O81  1  0.76772200  0.31164700  0.27406600  1
  O  O82  1  0.51166700  0.35842300  0.60192700  1
  O  O83  1  0.48833300  0.64157700  0.39807300  1
  O  O84  1  0.95982500  0.57602100  0.11887100  1
  O  O85  1  0.04017500  0.42397900  0.88112900  1
  O  O86  1  0.07834200  0.05154900  0.13692700  1
  O  O87  1  0.92165800  0.94845100  0.86307300  1
  O  O88  1  0.42696600  0.94963900  0.82723000  1
  O  O89  1  0.57303400  0.05036100  0.17277000  1
  O  O90  1  0.60100900  0.56868600  0.94004800  1
  O  O91  1  0.39899100  0.43131400  0.05995200  1
