# generated using pymatgen
data_SbH3NF6
_symmetry_space_group_name_H-M   'P 1'
_cell_length_a   7.26514237
_cell_length_b   7.26514237
_cell_length_c   10.90749944
_cell_angle_alpha   88.49696479
_cell_angle_beta   88.49696479
_cell_angle_gamma   117.40825694
_symmetry_Int_Tables_number   1
_chemical_formula_structural   SbH3NF6
_chemical_formula_sum   'Sb4 H12 N4 F24'
_cell_volume   510.44541183
_cell_formula_units_Z   4
loop_
 _symmetry_equiv_pos_site_id
 _symmetry_equiv_pos_as_xyz
  1  'x, y, z'
loop_
 _atom_site_type_symbol
 _atom_site_label
 _atom_site_symmetry_multiplicity
 _atom_site_fract_x
 _atom_site_fract_y
 _atom_site_fract_z
 _atom_site_occupancy
  Sb  Sb0  1  0.50000000  0.50000000  0.50000000  1
  Sb  Sb1  1  0.50000000  0.50000000  0.00000000  1
  Sb  Sb2  1  0.15340800  0.84659200  0.75000000  1
  Sb  Sb3  1  0.84659200  0.15340800  0.25000000  1
  H  H4  1  0.25084800  0.00381300  0.33412900  1
  H  H5  1  0.99618700  0.74915200  0.16587100  1
  H  H6  1  0.74915200  0.99618700  0.66587100  1
  H  H7  1  0.00381300  0.25084800  0.83412900  1
  H  H8  1  0.02849900  0.77678500  0.36069200  1
  H  H9  1  0.22321500  0.97150100  0.13930800  1
  H  H10  1  0.97150100  0.22321500  0.63930800  1
  H  H11  1  0.77678500  0.02849900  0.86069200  1
  H  H12  1  0.26281400  0.77447500  0.34765600  1
  H  H13  1  0.22552500  0.73718600  0.15234400  1
  H  H14  1  0.73718600  0.22552500  0.65234400  1
  H  H15  1  0.77447500  0.26281400  0.84765600  1
  N  N16  1  0.17584300  0.84674900  0.31608100  1
  N  N17  1  0.15325100  0.82415700  0.18391900  1
  N  N18  1  0.82415700  0.15325100  0.68391900  1
  N  N19  1  0.84674900  0.17584300  0.81608100  1
  F  F20  1  0.47345200  0.29659600  0.38535800  1
  F  F21  1  0.70340400  0.52654800  0.11464200  1
  F  F22  1  0.52654800  0.70340400  0.61464200  1
  F  F23  1  0.29659600  0.47345200  0.88535800  1
  F  F24  1  0.21572600  0.33043700  0.55725900  1
  F  F25  1  0.66956300  0.78427400  0.94274100  1
  F  F26  1  0.78427400  0.66956300  0.44274100  1
  F  F27  1  0.33043700  0.21572600  0.05725900  1
  F  F28  1  0.40270600  0.63841800  0.38417100  1
  F  F29  1  0.36158200  0.59729400  0.11582900  1
  F  F30  1  0.59729400  0.36158200  0.61582900  1
  F  F31  1  0.63841800  0.40270600  0.88417100  1
  F  F32  1  0.87684800  0.79827700  0.71737600  1
  F  F33  1  0.20172300  0.12315200  0.78262400  1
  F  F34  1  0.12315200  0.20172300  0.28262400  1
  F  F35  1  0.79827700  0.87684800  0.21737600  1
  F  F36  1  0.07369500  0.56201000  0.71791000  1
  F  F37  1  0.43799000  0.92630500  0.78209000  1
  F  F38  1  0.92630500  0.43799000  0.28209000  1
  F  F39  1  0.56201000  0.07369500  0.21791000  1
  F  F40  1  0.22972300  0.91372300  0.57852500  1
  F  F41  1  0.08627700  0.77027700  0.92147500  1
  F  F42  1  0.77027700  0.08627700  0.42147500  1
  F  F43  1  0.91372300  0.22972300  0.07852500  1
