# generated using pymatgen
data_Te2Mo3W(SeS2)2
_symmetry_space_group_name_H-M   'P 1'
_cell_length_a   3.30722760
_cell_length_b   3.30722760
_cell_length_c   37.57466300
_cell_angle_alpha   90.00000000
_cell_angle_beta   90.00000000
_cell_angle_gamma   119.99999196
_symmetry_Int_Tables_number   1
_chemical_formula_structural   Te2Mo3W(SeS2)2
_chemical_formula_sum   'Te2 Mo3 W1 Se2 S4'
_cell_volume   355.92125806
_cell_formula_units_Z   1
loop_
 _symmetry_equiv_pos_site_id
 _symmetry_equiv_pos_as_xyz
  1  'x, y, z'
loop_
 _atom_site_type_symbol
 _atom_site_label
 _atom_site_symmetry_multiplicity
 _atom_site_fract_x
 _atom_site_fract_y
 _atom_site_fract_z
 _atom_site_occupancy
  Te  Te0  1  0.33333300  0.66666700  0.70838300  1
  Te  Te1  1  0.33333300  0.66666700  0.60669600  1
  Mo  Mo2  1  0.33333300  0.66666700  0.09390500  1
  Mo  Mo3  1  0.33333300  0.66666700  0.46966700  1
  Mo  Mo4  1  0.66666700  0.33333300  0.65755800  1
  W  W5  1  0.66666700  0.33333300  0.28180300  1
  Se  Se6  1  0.66666700  0.33333300  0.04926300  1
  Se  Se7  1  0.66666700  0.33333300  0.13857900  1
  S  S8  1  0.33333300  0.66666700  0.32261800  1
  S  S9  1  0.66666700  0.33333300  0.42894900  1
  S  S10  1  0.66666700  0.33333300  0.51035300  1
  S  S11  1  0.33333300  0.66666700  0.24097400  1
