# generated using pymatgen
data_MoWSeS3
_symmetry_space_group_name_H-M   'P 1'
_cell_length_a   3.21989536
_cell_length_b   3.21989536
_cell_length_c   36.35952600
_cell_angle_alpha   90.00000000
_cell_angle_beta   90.00000000
_cell_angle_gamma   119.99998695
_symmetry_Int_Tables_number   1
_chemical_formula_structural   MoWSeS3
_chemical_formula_sum   'Mo2 W2 Se2 S6'
_cell_volume   326.46183657
_cell_formula_units_Z   2
loop_
 _symmetry_equiv_pos_site_id
 _symmetry_equiv_pos_as_xyz
  1  'x, y, z'
loop_
 _atom_site_type_symbol
 _atom_site_label
 _atom_site_symmetry_multiplicity
 _atom_site_fract_x
 _atom_site_fract_y
 _atom_site_fract_z
 _atom_site_occupancy
  Mo  Mo0  1  0.00000000  0.00000000  0.09391100  1
  Mo  Mo1  1  0.00000000  0.00000000  0.46965500  1
  W  W2  1  0.33333300  0.66666700  0.28181400  1
  W  W3  1  0.33333300  0.66666700  0.65753500  1
  Se  Se4  1  0.33333300  0.66666700  0.04684500  1
  Se  Se5  1  0.33333300  0.66666700  0.14097000  1
  S  S6  1  0.00000000  0.00000000  0.32475800  1
  S  S7  1  0.00000000  0.00000000  0.70051300  1
  S  S8  1  0.33333300  0.66666700  0.42686900  1
  S  S9  1  0.33333300  0.66666700  0.51246000  1
  S  S10  1  0.00000000  0.00000000  0.23885200  1
  S  S11  1  0.00000000  0.00000000  0.61456700  1
