# generated using pymatgen
data_LaH2S2NO9
_symmetry_space_group_name_H-M   'P 1'
_cell_length_a   10.12742700
_cell_length_b   8.46925100
_cell_length_c   12.06920674
_cell_angle_alpha   52.44217132
_cell_angle_beta   90.00000000
_cell_angle_gamma   90.00000000
_symmetry_Int_Tables_number   1
_chemical_formula_structural   LaH2S2NO9
_chemical_formula_sum   'La4 H8 S8 N4 O36'
_cell_volume   820.64024167
_cell_formula_units_Z   4
loop_
 _symmetry_equiv_pos_site_id
 _symmetry_equiv_pos_as_xyz
  1  'x, y, z'
loop_
 _atom_site_type_symbol
 _atom_site_label
 _atom_site_symmetry_multiplicity
 _atom_site_fract_x
 _atom_site_fract_y
 _atom_site_fract_z
 _atom_site_occupancy
  La  La0  1  0.33633300  0.28463800  0.75015600  1
  La  La1  1  0.83633300  0.71536200  0.74984400  1
  La  La2  1  0.66366700  0.71536200  0.24984400  1
  La  La3  1  0.16366700  0.28463800  0.25015600  1
  H  H4  1  0.10545400  0.01446800  0.77454700  1
  H  H5  1  0.60545400  0.98553200  0.72545300  1
  H  H6  1  0.89454600  0.98553200  0.22545300  1
  H  H7  1  0.39454600  0.01446800  0.27454700  1
  H  H8  1  0.12311900  0.19042200  0.61207700  1
  H  H9  1  0.62311900  0.80957800  0.88792300  1
  H  H10  1  0.87688100  0.80957800  0.38792300  1
  H  H11  1  0.37688100  0.19042200  0.11207700  1
  S  S12  1  0.58884300  0.25510900  0.92854400  1
  S  S13  1  0.08884300  0.74489100  0.57145600  1
  S  S14  1  0.41115700  0.74489100  0.07145600  1
  S  S15  1  0.91115700  0.25510900  0.42854400  1
  S  S16  1  0.41462100  0.29622000  0.48385300  1
  S  S17  1  0.91462100  0.70378000  0.01614700  1
  S  S18  1  0.58537900  0.70378000  0.51614700  1
  S  S19  1  0.08537900  0.29622000  0.98385300  1
  N  N20  1  0.14456400  0.74381300  0.27018800  1
  N  N21  1  0.64456400  0.25618700  0.22981200  1
  N  N22  1  0.85543600  0.25618700  0.72981200  1
  N  N23  1  0.35543600  0.74381300  0.77018800  1
  O  O24  1  0.52883800  0.39917800  0.38812900  1
  O  O25  1  0.02883800  0.60082200  0.11187100  1
  O  O26  1  0.47116200  0.60082200  0.61187100  1
  O  O27  1  0.97116200  0.39917800  0.88812900  1
  O  O28  1  0.33402700  0.20373400  0.43481600  1
  O  O29  1  0.83402700  0.79626600  0.06518400  1
  O  O30  1  0.66597300  0.79626600  0.56518400  1
  O  O31  1  0.16597300  0.20373400  0.93481600  1
  O  O32  1  0.46090900  0.14550900  0.63012400  1
  O  O33  1  0.96090900  0.85449100  0.86987600  1
  O  O34  1  0.53909100  0.85449100  0.36987600  1
  O  O35  1  0.03909100  0.14550900  0.13012400  1
  O  O36  1  0.63844100  0.08705800  0.06848100  1
  O  O37  1  0.13844100  0.91294200  0.43151900  1
  O  O38  1  0.36155900  0.91294200  0.93151900  1
  O  O39  1  0.86155900  0.08705800  0.56848100  1
  O  O40  1  0.33186700  0.44156100  0.48527600  1
  O  O41  1  0.83186700  0.55843900  0.01472400  1
  O  O42  1  0.66813300  0.55843900  0.51472400  1
  O  O43  1  0.16813300  0.44156100  0.98527600  1
  O  O44  1  0.67785100  0.42720600  0.86849300  1
  O  O45  1  0.17785100  0.57279400  0.63150700  1
  O  O46  1  0.32214900  0.57279400  0.13150700  1
  O  O47  1  0.82214900  0.42720600  0.36849300  1
  O  O48  1  0.44993100  0.30614700  0.93871100  1
  O  O49  1  0.94993100  0.69385300  0.56128900  1
  O  O50  1  0.55006900  0.69385300  0.06128900  1
  O  O51  1  0.05006900  0.30614700  0.43871100  1
  O  O52  1  0.58353200  0.19651900  0.83420800  1
  O  O53  1  0.08353200  0.80348100  0.66579200  1
  O  O54  1  0.41646800  0.80348100  0.16579200  1
  O  O55  1  0.91646800  0.19651900  0.33420800  1
  O  O56  1  0.15889700  0.13317400  0.70536800  1
  O  O57  1  0.65889700  0.86682600  0.79463200  1
  O  O58  1  0.84110300  0.86682600  0.29463200  1
  O  O59  1  0.34110300  0.13317400  0.20536800  1
