# generated using pymatgen
data_Sc2(TeO3)3
_symmetry_space_group_name_H-M   'P 1'
_cell_length_a   24.76809400
_cell_length_b   5.32012400
_cell_length_c   7.45068218
_cell_angle_alpha   63.68276243
_cell_angle_beta   90.00000000
_cell_angle_gamma   90.00000000
_symmetry_Int_Tables_number   1
_chemical_formula_structural   Sc2(TeO3)3
_chemical_formula_sum   'Sc8 Te12 O36'
_cell_volume   880.01383662
_cell_formula_units_Z   4
loop_
 _symmetry_equiv_pos_site_id
 _symmetry_equiv_pos_as_xyz
  1  'x, y, z'
loop_
 _atom_site_type_symbol
 _atom_site_label
 _atom_site_symmetry_multiplicity
 _atom_site_fract_x
 _atom_site_fract_y
 _atom_site_fract_z
 _atom_site_occupancy
  Sc  Sc0  1  0.52729300  0.66595300  0.63629100  1
  Sc  Sc1  1  0.97270700  0.66595300  0.13629100  1
  Sc  Sc2  1  0.47270700  0.33404700  0.36370900  1
  Sc  Sc3  1  0.02729300  0.33404700  0.86370900  1
  Sc  Sc4  1  0.66057400  0.60955000  0.87798800  1
  Sc  Sc5  1  0.83942600  0.60955000  0.37798800  1
  Sc  Sc6  1  0.33942600  0.39045000  0.12201200  1
  Sc  Sc7  1  0.16057400  0.39045000  0.62201200  1
  Te  Te8  1  0.56422600  0.05672500  0.10089000  1
  Te  Te9  1  0.93577400  0.05672500  0.60089000  1
  Te  Te10  1  0.43577400  0.94327500  0.89911000  1
  Te  Te11  1  0.06422600  0.94327500  0.39911000  1
  Te  Te12  1  0.61700000  0.26813200  0.52612800  1
  Te  Te13  1  0.88300000  0.26813200  0.02612800  1
  Te  Te14  1  0.38300000  0.73186800  0.47387200  1
  Te  Te15  1  0.11700000  0.73186800  0.97387200  1
  Te  Te16  1  0.72317800  0.99590900  0.17099000  1
  Te  Te17  1  0.77682200  0.99590900  0.67099000  1
  Te  Te18  1  0.27682200  0.00409100  0.82901000  1
  Te  Te19  1  0.22317800  0.00409100  0.32901000  1
  O  O20  1  0.52688100  0.03247000  0.33595200  1
  O  O21  1  0.97311900  0.03247000  0.83595200  1
  O  O22  1  0.47311900  0.96753000  0.66404800  1
  O  O23  1  0.02688100  0.96753000  0.16404800  1
  O  O24  1  0.61546600  0.31127900  0.11909300  1
  O  O25  1  0.88453400  0.31127900  0.61909300  1
  O  O26  1  0.38453400  0.68872100  0.88090700  1
  O  O27  1  0.11546600  0.68872100  0.38090700  1
  O  O28  1  0.51658600  0.31318700  0.90678700  1
  O  O29  1  0.98341400  0.31318700  0.40678700  1
  O  O30  1  0.48341400  0.68681300  0.09321300  1
  O  O31  1  0.01658600  0.68681300  0.59321300  1
  O  O32  1  0.54800100  0.45748700  0.45146600  1
  O  O33  1  0.95199900  0.45748700  0.95146600  1
  O  O34  1  0.45199900  0.54251300  0.54853400  1
  O  O35  1  0.04800100  0.54251300  0.04853400  1
  O  O36  1  0.62162600  0.41398000  0.71455500  1
  O  O37  1  0.87837400  0.41398000  0.21455500  1
  O  O38  1  0.37837400  0.58602000  0.28544500  1
  O  O39  1  0.12162600  0.58602000  0.78544500  1
  O  O40  1  0.59140300  0.90116200  0.70621600  1
  O  O41  1  0.90859700  0.90116200  0.20621600  1
  O  O42  1  0.40859700  0.09883800  0.29378400  1
  O  O43  1  0.09140300  0.09883800  0.79378400  1
  O  O44  1  0.72591400  0.34816700  0.94487100  1
  O  O45  1  0.77408600  0.34816700  0.44487100  1
  O  O46  1  0.27408600  0.65183300  0.05512900  1
  O  O47  1  0.22591400  0.65183300  0.55512900  1
  O  O48  1  0.79591400  0.90698200  0.13727200  1
  O  O49  1  0.70408600  0.90698200  0.63727200  1
  O  O50  1  0.20408600  0.09301800  0.86272800  1
  O  O51  1  0.29591400  0.09301800  0.36272800  1
  O  O52  1  0.68270800  0.79580500  0.06091200  1
  O  O53  1  0.81729200  0.79580500  0.56091200  1
  O  O54  1  0.31729200  0.20419500  0.93908800  1
  O  O55  1  0.18270800  0.20419500  0.43908800  1
