# generated using pymatgen
data_KLaH2S2O9
_symmetry_space_group_name_H-M   'P 1'
_cell_length_a   7.32855988
_cell_length_b   7.32855988
_cell_length_c   13.33299200
_cell_angle_alpha   90.00000000
_cell_angle_beta   90.00000000
_cell_angle_gamma   119.99999896
_symmetry_Int_Tables_number   1
_chemical_formula_structural   KLaH2S2O9
_chemical_formula_sum   'K3 La3 H6 S6 O27'
_cell_volume   620.14827039
_cell_formula_units_Z   3
loop_
 _symmetry_equiv_pos_site_id
 _symmetry_equiv_pos_as_xyz
  1  'x, y, z'
loop_
 _atom_site_type_symbol
 _atom_site_label
 _atom_site_symmetry_multiplicity
 _atom_site_fract_x
 _atom_site_fract_y
 _atom_site_fract_z
 _atom_site_occupancy
  K  K0  1  0.00000000  0.44794400  0.83333300  1
  K  K1  1  0.55205600  0.55205600  0.50000000  1
  K  K2  1  0.44794400  0.00000000  0.16666700  1
  La  La3  1  0.44098900  0.00000000  0.66666700  1
  La  La4  1  0.00000000  0.44098900  0.33333300  1
  La  La5  1  0.55901100  0.55901100  0.00000000  1
  H  H6  1  0.05970000  0.08380400  0.62208000  1
  H  H7  1  0.91619600  0.97589600  0.28874700  1
  H  H8  1  0.02410400  0.94030000  0.95541400  1
  H  H9  1  0.08380400  0.05970000  0.37792000  1
  H  H10  1  0.97589600  0.91619600  0.71125300  1
  H  H11  1  0.94030000  0.02410400  0.04458600  1
  S  S12  1  0.99498300  0.43819300  0.57355000  1
  S  S13  1  0.56180700  0.55678900  0.24021700  1
  S  S14  1  0.44321100  0.00501700  0.90688400  1
  S  S15  1  0.43819300  0.99498300  0.42645000  1
  S  S16  1  0.55678900  0.56180700  0.75978300  1
  S  S17  1  0.00501700  0.44321100  0.09311600  1
  O  O18  1  0.11865700  0.37041700  0.50912400  1
  O  O19  1  0.62958300  0.74824000  0.17579000  1
  O  O20  1  0.25176000  0.88134300  0.84245700  1
  O  O21  1  0.37041700  0.11865700  0.49087600  1
  O  O22  1  0.74824000  0.62958300  0.82421000  1
  O  O23  1  0.88134300  0.25176000  0.15754300  1
  O  O24  1  0.88591800  0.50791500  0.50087000  1
  O  O25  1  0.49208500  0.37800300  0.16753700  1
  O  O26  1  0.62199700  0.11408200  0.83420400  1
  O  O27  1  0.50791500  0.88591800  0.49913000  1
  O  O28  1  0.37800300  0.49208500  0.83246300  1
  O  O29  1  0.11408200  0.62199700  0.16579600  1
  O  O30  1  0.13382100  0.61257000  0.64149700  1
  O  O31  1  0.38743000  0.52125100  0.30816300  1
  O  O32  1  0.47874900  0.86617900  0.97483000  1
  O  O33  1  0.61257000  0.13382100  0.35850300  1
  O  O34  1  0.52125100  0.38743000  0.69183700  1
  O  O35  1  0.86617900  0.47874900  0.02517000  1
  O  O36  1  0.83992300  0.25700900  0.63503000  1
  O  O37  1  0.74299100  0.58291400  0.30169700  1
  O  O38  1  0.41708600  0.16007700  0.96836300  1
  O  O39  1  0.25700900  0.83992300  0.36497000  1
  O  O40  1  0.58291400  0.74299100  0.69830300  1
  O  O41  1  0.16007700  0.41708600  0.03163700  1
  O  O42  1  0.09474900  0.00000000  0.66666700  1
  O  O43  1  0.00000000  0.09474900  0.33333300  1
  O  O44  1  0.90525100  0.90525100  0.00000000  1
