# generated using pymatgen
data_Ba3MgV4O14
_symmetry_space_group_name_H-M   'P 1'
_cell_length_a   14.18977300
_cell_length_b   7.29736000
_cell_length_c   14.30332012
_cell_angle_alpha   70.94957080
_cell_angle_beta   90.00000000
_cell_angle_gamma   90.00000000
_symmetry_Int_Tables_number   1
_chemical_formula_structural   Ba3MgV4O14
_chemical_formula_sum   'Ba12 Mg4 V16 O56'
_cell_volume   1399.96228943
_cell_formula_units_Z   4
loop_
 _symmetry_equiv_pos_site_id
 _symmetry_equiv_pos_as_xyz
  1  'x, y, z'
loop_
 _atom_site_type_symbol
 _atom_site_label
 _atom_site_symmetry_multiplicity
 _atom_site_fract_x
 _atom_site_fract_y
 _atom_site_fract_z
 _atom_site_occupancy
  Ba  Ba0  1  0.94504300  0.10916900  0.71829600  1
  Ba  Ba1  1  0.44504300  0.89083100  0.78170400  1
  Ba  Ba2  1  0.05495700  0.89083100  0.28170400  1
  Ba  Ba3  1  0.55495700  0.10916900  0.21829600  1
  Ba  Ba4  1  0.72954800  0.55845000  0.70402100  1
  Ba  Ba5  1  0.22954800  0.44155000  0.79597900  1
  Ba  Ba6  1  0.27045200  0.44155000  0.29597900  1
  Ba  Ba7  1  0.77045200  0.55845000  0.20402100  1
  Ba  Ba8  1  0.89344100  0.22947700  0.01504200  1
  Ba  Ba9  1  0.39344100  0.77052300  0.48495800  1
  Ba  Ba10  1  0.10655900  0.77052300  0.98495800  1
  Ba  Ba11  1  0.60655900  0.22947700  0.51504200  1
  Mg  Mg12  1  0.90195500  0.87969200  0.50654900  1
  Mg  Mg13  1  0.40195500  0.12030800  0.99345100  1
  Mg  Mg14  1  0.09804500  0.12030800  0.49345100  1
  Mg  Mg15  1  0.59804500  0.87969200  0.00654900  1
  V  V16  1  0.97220700  0.60075800  0.73970900  1
  V  V17  1  0.47220700  0.39924200  0.76029100  1
  V  V18  1  0.02779300  0.39924200  0.26029100  1
  V  V19  1  0.52779300  0.60075800  0.23970900  1
  V  V20  1  0.10926600  0.61014100  0.54906400  1
  V  V21  1  0.60926600  0.38985900  0.95093600  1
  V  V22  1  0.89073400  0.38985900  0.45093600  1
  V  V23  1  0.39073400  0.61014100  0.04906400  1
  V  V24  1  0.68739000  0.98606300  0.76793600  1
  V  V25  1  0.18739000  0.01393700  0.73206400  1
  V  V26  1  0.31261000  0.01393700  0.23206400  1
  V  V27  1  0.81261000  0.98606300  0.26793600  1
  V  V28  1  0.82963500  0.80359100  0.94908200  1
  V  V29  1  0.32963500  0.19640900  0.55091800  1
  V  V30  1  0.17036500  0.19640900  0.05091800  1
  V  V31  1  0.67036500  0.80359100  0.44908200  1
  O  O32  1  0.90071000  0.40848700  0.79989200  1
  O  O33  1  0.40071000  0.59151300  0.70010800  1
  O  O34  1  0.09929000  0.59151300  0.20010800  1
  O  O35  1  0.59929000  0.40848700  0.29989200  1
  O  O36  1  0.02275300  0.69559200  0.82081100  1
  O  O37  1  0.52275300  0.30440800  0.67918900  1
  O  O38  1  0.97724700  0.30440800  0.17918900  1
  O  O39  1  0.47724700  0.69559200  0.32081100  1
  O  O40  1  0.90228900  0.77747900  0.65826800  1
  O  O41  1  0.40228900  0.22252100  0.84173200  1
  O  O42  1  0.09771100  0.22252100  0.34173200  1
  O  O43  1  0.59771100  0.77747900  0.15826800  1
  O  O44  1  0.05877900  0.49784700  0.67478500  1
  O  O45  1  0.55877900  0.50215300  0.82521500  1
  O  O46  1  0.94122100  0.50215300  0.32521500  1
  O  O47  1  0.44122100  0.49784700  0.17478500  1
  O  O48  1  0.05324300  0.83591300  0.48649400  1
  O  O49  1  0.55324300  0.16408700  0.01350600  1
  O  O50  1  0.94675700  0.16408700  0.51350600  1
  O  O51  1  0.44675700  0.83591300  0.98649400  1
  O  O52  1  0.22201500  0.64975600  0.57355700  1
  O  O53  1  0.72201500  0.35024400  0.92644300  1
  O  O54  1  0.77798500  0.35024400  0.42644300  1
  O  O55  1  0.27798500  0.64975600  0.07355700  1
  O  O56  1  0.10752600  0.45162000  0.48325000  1
  O  O57  1  0.60752600  0.54838000  0.01675000  1
  O  O58  1  0.89247400  0.54838000  0.51675000  1
  O  O59  1  0.39247400  0.45162000  0.98325000  1
  O  O60  1  0.74287700  0.19678600  0.69918500  1
  O  O61  1  0.24287700  0.80321400  0.80081500  1
  O  O62  1  0.25712300  0.80321400  0.30081500  1
  O  O63  1  0.75712300  0.19678600  0.19918500  1
  O  O64  1  0.62489100  0.89748000  0.68941700  1
  O  O65  1  0.12489100  0.10252000  0.81058300  1
  O  O66  1  0.37510900  0.10252000  0.31058300  1
  O  O67  1  0.87510900  0.89748000  0.18941700  1
  O  O68  1  0.60888000  0.00029100  0.85676500  1
  O  O69  1  0.10888000  0.99970900  0.64323500  1
  O  O70  1  0.39112000  0.99970900  0.14323500  1
  O  O71  1  0.89112000  0.00029100  0.35676500  1
  O  O72  1  0.77872400  0.80985000  0.82799600  1
  O  O73  1  0.27872400  0.19015000  0.67200400  1
  O  O74  1  0.22127600  0.19015000  0.17200400  1
  O  O75  1  0.72127600  0.80985000  0.32799600  1
  O  O76  1  0.92352100  0.96196100  0.92264200  1
  O  O77  1  0.42352100  0.03803900  0.57735800  1
  O  O78  1  0.07647900  0.03803900  0.07735800  1
  O  O79  1  0.57647900  0.96196100  0.42264200  1
  O  O80  1  0.86872800  0.58471600  0.02368100  1
  O  O81  1  0.36872800  0.41528400  0.47631900  1
  O  O82  1  0.13127200  0.41528400  0.97631900  1
  O  O83  1  0.63127200  0.58471600  0.52368100  1
  O  O84  1  0.74762900  0.88210100  0.01573200  1
  O  O85  1  0.24762900  0.11789900  0.48426800  1
  O  O86  1  0.25237100  0.11789900  0.98426800  1
  O  O87  1  0.75237100  0.88210100  0.51573200  1
