# generated using pymatgen
data_Ba2UCrTe7
_symmetry_space_group_name_H-M   'P 1'
_cell_length_a   6.20583400
_cell_length_b   12.66651900
_cell_length_c   18.88419600
_cell_angle_alpha   90.00000000
_cell_angle_beta   90.00000000
_cell_angle_gamma   90.00000000
_symmetry_Int_Tables_number   1
_chemical_formula_structural   Ba2UCrTe7
_chemical_formula_sum   'Ba8 U4 Cr4 Te28'
_cell_volume   1484.41704555
_cell_formula_units_Z   4
loop_
 _symmetry_equiv_pos_site_id
 _symmetry_equiv_pos_as_xyz
  1  'x, y, z'
loop_
 _atom_site_type_symbol
 _atom_site_label
 _atom_site_symmetry_multiplicity
 _atom_site_fract_x
 _atom_site_fract_y
 _atom_site_fract_z
 _atom_site_occupancy
  Ba  Ba0  1  0.25000000  0.32308000  0.94191500  1
  Ba  Ba1  1  0.25000000  0.82308000  0.55808500  1
  Ba  Ba2  1  0.75000000  0.67692000  0.05808500  1
  Ba  Ba3  1  0.75000000  0.17692000  0.44191500  1
  Ba  Ba4  1  0.25000000  0.44571200  0.27706500  1
  Ba  Ba5  1  0.25000000  0.94571200  0.22293500  1
  Ba  Ba6  1  0.75000000  0.55428800  0.72293500  1
  Ba  Ba7  1  0.75000000  0.05428800  0.77706500  1
  U  U8  1  0.25000000  0.29485100  0.62239500  1
  U  U9  1  0.25000000  0.79485100  0.87760500  1
  U  U10  1  0.75000000  0.70514900  0.37760500  1
  U  U11  1  0.75000000  0.20514900  0.12239500  1
  Cr  Cr12  1  0.00000000  0.00000000  0.00000000  1
  Cr  Cr13  1  0.50000000  0.50000000  0.50000000  1
  Cr  Cr14  1  0.50000000  0.00000000  0.00000000  1
  Cr  Cr15  1  0.00000000  0.50000000  0.50000000  1
  Te  Te16  1  0.00235000  0.08021700  0.60192800  1
  Te  Te17  1  0.49765000  0.58021700  0.89807200  1
  Te  Te18  1  0.50235000  0.91978300  0.39807200  1
  Te  Te19  1  0.99765000  0.41978300  0.10192800  1
  Te  Te20  1  0.99765000  0.91978300  0.39807200  1
  Te  Te21  1  0.50235000  0.41978300  0.10192800  1
  Te  Te22  1  0.49765000  0.08021700  0.60192800  1
  Te  Te23  1  0.00235000  0.58021700  0.89807200  1
  Te  Te24  1  0.00289400  0.30803900  0.76745100  1
  Te  Te25  1  0.49710600  0.80803900  0.73254900  1
  Te  Te26  1  0.50289400  0.69196100  0.23254900  1
  Te  Te27  1  0.99710600  0.19196100  0.26745100  1
  Te  Te28  1  0.99710600  0.69196100  0.23254900  1
  Te  Te29  1  0.50289400  0.19196100  0.26745100  1
  Te  Te30  1  0.49710600  0.30803900  0.76745100  1
  Te  Te31  1  0.00289400  0.80803900  0.73254900  1
  Te  Te32  1  0.25000000  0.04091800  0.88040300  1
  Te  Te33  1  0.25000000  0.54091800  0.61959700  1
  Te  Te34  1  0.75000000  0.95908200  0.11959700  1
  Te  Te35  1  0.75000000  0.45908200  0.38040300  1
  Te  Te36  1  0.25000000  0.32664500  0.45909500  1
  Te  Te37  1  0.25000000  0.82664500  0.04090500  1
  Te  Te38  1  0.75000000  0.67335500  0.54090500  1
  Te  Te39  1  0.75000000  0.17335500  0.95909500  1
  Te  Te40  1  0.25000000  0.63952300  0.41570700  1
  Te  Te41  1  0.25000000  0.13952300  0.08429300  1
  Te  Te42  1  0.75000000  0.36047700  0.58429300  1
  Te  Te43  1  0.75000000  0.86047700  0.91570700  1
