# generated using pymatgen
data_Ba4GaB10H7O24
_symmetry_space_group_name_H-M   'P 1'
_cell_length_a   7.11976946
_cell_length_b   7.11976946
_cell_length_c   22.96519806
_cell_angle_alpha   86.91061160
_cell_angle_beta   86.91061160
_cell_angle_gamma   120.19334925
_symmetry_Int_Tables_number   1
_chemical_formula_structural   Ba4GaB10H7O24
_chemical_formula_sum   'Ba8 Ga2 B20 H14 O48'
_cell_volume   1000.30081473
_cell_formula_units_Z   2
loop_
 _symmetry_equiv_pos_site_id
 _symmetry_equiv_pos_as_xyz
  1  'x, y, z'
loop_
 _atom_site_type_symbol
 _atom_site_label
 _atom_site_symmetry_multiplicity
 _atom_site_fract_x
 _atom_site_fract_y
 _atom_site_fract_z
 _atom_site_occupancy
  Ba  Ba0  1  0.39531100  0.21989100  0.92619200  1
  Ba  Ba1  1  0.21989100  0.39531100  0.42619200  1
  Ba  Ba2  1  0.74184300  0.89947400  0.81292800  1
  Ba  Ba3  1  0.89947400  0.74184300  0.31292800  1
  Ba  Ba4  1  0.58696200  0.19707400  0.56038900  1
  Ba  Ba5  1  0.19707400  0.58696200  0.06038900  1
  Ba  Ba6  1  0.06102100  0.58649000  0.69445200  1
  Ba  Ba7  1  0.58649000  0.06102100  0.19445200  1
  Ga  Ga8  1  0.86473300  0.91325800  0.04430000  1
  Ga  Ga9  1  0.91325800  0.86473300  0.54430000  1
  B  B10  1  0.91287400  0.72253400  0.93846600  1
  B  B11  1  0.72253400  0.91287400  0.43846600  1
  B  B12  1  0.92045400  0.51056700  0.85346500  1
  B  B13  1  0.51056700  0.92045400  0.35346500  1
  B  B14  1  0.22771200  0.66739500  0.90956100  1
  B  B15  1  0.66739500  0.22771200  0.40956100  1
  B  B16  1  0.24968900  0.87981800  0.81205700  1
  B  B17  1  0.87981800  0.24968900  0.31205700  1
  B  B18  1  0.31871000  0.27398500  0.78314100  1
  B  B19  1  0.27398500  0.31871000  0.28314100  1
  B  B20  1  0.47758800  0.12318400  0.71851100  1
  B  B21  1  0.12318400  0.47758800  0.21851100  1
  B  B22  1  0.19120200  0.19448200  0.68374800  1
  B  B23  1  0.19448200  0.19120200  0.18374800  1
  B  B24  1  0.17751800  0.29869900  0.57546500  1
  B  B25  1  0.29869900  0.17751800  0.07546500  1
  B  B26  1  0.46825200  0.68150500  0.58146800  1
  B  B27  1  0.68150500  0.46825200  0.08146800  1
  B  B28  1  0.11206800  0.61141100  0.54656400  1
  B  B29  1  0.61141100  0.11206800  0.04656400  1
  H  H30  1  0.67021400  0.31885500  0.80322400  1
  H  H31  1  0.31885500  0.67021400  0.30322400  1
  H  H32  1  0.52050600  0.72166300  0.94529900  1
  H  H33  1  0.72166300  0.52050600  0.44529900  1
  H  H34  1  0.25015100  0.45744000  0.83822100  1
  H  H35  1  0.45744000  0.25015100  0.33822100  1
  H  H36  1  0.70940800  0.06329200  0.67667100  1
  H  H37  1  0.06329200  0.70940800  0.17667100  1
  H  H38  1  0.11563900  0.77407100  0.46605000  1
  H  H39  1  0.77407100  0.11563900  0.96605000  1
  H  H40  1  0.72787400  0.77332800  0.66083200  1
  H  H41  1  0.77332800  0.72787400  0.16083200  1
  H  H42  1  0.64645900  0.58492700  0.71444800  1
  H  H43  1  0.58492700  0.64645900  0.21444800  1
  O  O44  1  0.82536300  0.83405900  0.96633900  1
  O  O45  1  0.83405900  0.82536300  0.46633900  1
  O  O46  1  0.80387200  0.60041500  0.89396100  1
  O  O47  1  0.60041500  0.80387200  0.39396100  1
  O  O48  1  0.10876500  0.74409100  0.95271500  1
  O  O49  1  0.74409100  0.10876500  0.45271500  1
  O  O50  1  0.06756700  0.47043800  0.88615400  1
  O  O51  1  0.47043800  0.06756700  0.38615400  1
  O  O52  1  0.75351000  0.30265700  0.83499400  1
  O  O53  1  0.30265700  0.75351000  0.33499400  1
  O  O54  1  0.36649000  0.61080800  0.94410900  1
  O  O55  1  0.61080800  0.36649000  0.44410900  1
  O  O56  1  0.35469200  0.84661200  0.86372600  1
  O  O57  1  0.84661200  0.35469200  0.36372600  1
  O  O58  1  0.03634700  0.68203600  0.80453800  1
  O  O59  1  0.68203600  0.03634700  0.30453800  1
  O  O60  1  0.21380600  0.06710800  0.82123700  1
  O  O61  1  0.06710800  0.21380600  0.32123700  1
  O  O62  1  0.40062600  0.92673200  0.75792500  1
  O  O63  1  0.92673200  0.40062600  0.25792500  1
  O  O64  1  0.37866700  0.46017200  0.81707800  1
  O  O65  1  0.46017200  0.37866700  0.31707800  1
  O  O66  1  0.52230300  0.31579600  0.74962500  1
  O  O67  1  0.31579600  0.52230300  0.24962500  1
  O  O68  1  0.68474000  0.18350300  0.68359300  1
  O  O69  1  0.18350300  0.68474000  0.18359300  1
  O  O70  1  0.16264400  0.26095100  0.73796800  1
  O  O71  1  0.26095100  0.16264400  0.23796800  1
  O  O72  1  0.31078400  0.09251100  0.67542300  1
  O  O73  1  0.09251100  0.31078400  0.17542300  1
  O  O74  1  0.09739500  0.24352500  0.63920700  1
  O  O75  1  0.24352500  0.09739500  0.13920700  1
  O  O76  1  0.16977600  0.12148400  0.54526400  1
  O  O77  1  0.12148400  0.16977600  0.04526400  1
  O  O78  1  0.42017200  0.47456800  0.57199700  1
  O  O79  1  0.47456800  0.42017200  0.07199700  1
  O  O80  1  0.67651300  0.84597500  0.59076100  1
  O  O81  1  0.84597500  0.67651300  0.09076100  1
  O  O82  1  0.05517100  0.38384600  0.54702600  1
  O  O83  1  0.38384600  0.05517100  0.04702600  1
  O  O84  1  0.30611100  0.73461300  0.58378900  1
  O  O85  1  0.73461300  0.30611100  0.08378900  1
  O  O86  1  0.92918600  0.62627600  0.57183100  1
  O  O87  1  0.62627600  0.92918600  0.07183100  1
  O  O88  1  0.19415800  0.71343600  0.48552600  1
  O  O89  1  0.71343600  0.19415800  0.98552600  1
  O  O90  1  0.75493000  0.74140800  0.70148900  1
  O  O91  1  0.74140800  0.75493000  0.20148900  1
