# generated using pymatgen
data_Rb2U3MnO11
_symmetry_space_group_name_H-M   'P 1'
_cell_length_a   13.42389133
_cell_length_b   13.42389133
_cell_length_c   13.42389112
_cell_angle_alpha   29.76553503
_cell_angle_beta   29.76553503
_cell_angle_gamma   29.76553633
_symmetry_Int_Tables_number   1
_chemical_formula_structural   Rb2U3MnO11
_chemical_formula_sum   'Rb4 U6 Mn2 O22'
_cell_volume   527.91749642
_cell_formula_units_Z   2
loop_
 _symmetry_equiv_pos_site_id
 _symmetry_equiv_pos_as_xyz
  1  'x, y, z'
loop_
 _atom_site_type_symbol
 _atom_site_label
 _atom_site_symmetry_multiplicity
 _atom_site_fract_x
 _atom_site_fract_y
 _atom_site_fract_z
 _atom_site_occupancy
  Rb  Rb0  1  0.82698400  0.82698400  0.82698400  1
  Rb  Rb1  1  0.32698400  0.32698400  0.32698400  1
  Rb  Rb2  1  0.17301600  0.17301600  0.17301600  1
  Rb  Rb3  1  0.67301600  0.67301600  0.67301600  1
  U  U4  1  0.38362200  0.11637800  0.75000000  1
  U  U5  1  0.75000000  0.38362200  0.11637800  1
  U  U6  1  0.11637800  0.75000000  0.38362200  1
  U  U7  1  0.25000000  0.61637800  0.88362200  1
  U  U8  1  0.88362200  0.25000000  0.61637800  1
  U  U9  1  0.61637800  0.88362200  0.25000000  1
  Mn  Mn10  1  0.00000000  0.00000000  0.00000000  1
  Mn  Mn11  1  0.50000000  0.50000000  0.50000000  1
  O  O12  1  0.71571000  0.94209000  0.24020100  1
  O  O13  1  0.24020100  0.71571000  0.94209000  1
  O  O14  1  0.94209000  0.24020100  0.71571000  1
  O  O15  1  0.74020100  0.44209000  0.21571000  1
  O  O16  1  0.21571000  0.74020100  0.44209000  1
  O  O17  1  0.44209000  0.21571000  0.74020100  1
  O  O18  1  0.28429000  0.05791000  0.75979900  1
  O  O19  1  0.75979900  0.28429000  0.05791000  1
  O  O20  1  0.05791000  0.75979900  0.28429000  1
  O  O21  1  0.25979900  0.55791000  0.78429000  1
  O  O22  1  0.78429000  0.25979900  0.55791000  1
  O  O23  1  0.55791000  0.78429000  0.25979900  1
  O  O24  1  0.00142300  0.49857700  0.75000000  1
  O  O25  1  0.75000000  0.00142300  0.49857700  1
  O  O26  1  0.49857700  0.75000000  0.00142300  1
  O  O27  1  0.25000000  0.99857700  0.50142300  1
  O  O28  1  0.50142300  0.25000000  0.99857700  1
  O  O29  1  0.99857700  0.50142300  0.25000000  1
  O  O30  1  0.90524700  0.90524700  0.90524700  1
  O  O31  1  0.40524700  0.40524700  0.40524700  1
  O  O32  1  0.09475300  0.09475300  0.09475300  1
  O  O33  1  0.59475300  0.59475300  0.59475300  1
