# generated using pymatgen
data_ZrH32C10IN5
_symmetry_space_group_name_H-M   'P 1'
_cell_length_a   14.98798444
_cell_length_b   16.31116313
_cell_length_c   17.76568686
_cell_angle_alpha   90.00000000
_cell_angle_beta   90.00000000
_cell_angle_gamma   90.00000000
_symmetry_Int_Tables_number   1
_chemical_formula_structural   ZrH32C10IN5
_chemical_formula_sum   'Zr8 H256 C80 I8 N40'
_cell_volume   4343.20339019
_cell_formula_units_Z   8
loop_
 _symmetry_equiv_pos_site_id
 _symmetry_equiv_pos_as_xyz
  1  'x, y, z'
loop_
 _atom_site_type_symbol
 _atom_site_label
 _atom_site_symmetry_multiplicity
 _atom_site_fract_x
 _atom_site_fract_y
 _atom_site_fract_z
 _atom_site_occupancy
  Zr  Zr0  1  0.88462119  0.74130163  0.91669534  1
  Zr  Zr1  1  0.38462119  0.75869837  0.08330466  1
  Zr  Zr2  1  0.11537881  0.24130163  0.58330466  1
  Zr  Zr3  1  0.61537881  0.25869837  0.41669534  1
  Zr  Zr4  1  0.11537881  0.25869837  0.08330466  1
  Zr  Zr5  1  0.61537881  0.24130163  0.91669534  1
  Zr  Zr6  1  0.88462119  0.75869837  0.41669534  1
  Zr  Zr7  1  0.38462119  0.74130163  0.58330466  1
  H  H8  1  0.94649776  0.64954763  0.07731909  1
  H  H9  1  0.44649776  0.85045237  0.92268091  1
  H  H10  1  0.05350224  0.14954763  0.42268091  1
  H  H11  1  0.55350224  0.35045237  0.57731909  1
  H  H12  1  0.05350224  0.35045237  0.92268091  1
  H  H13  1  0.55350224  0.14954763  0.07731909  1
  H  H14  1  0.94649776  0.85045237  0.57731909  1
  H  H15  1  0.44649776  0.64954763  0.42268091  1
  H  H16  1  0.97577910  0.57409322  0.00886256  1
  H  H17  1  0.47577910  0.92590678  0.99113744  1
  H  H18  1  0.02422090  0.07409322  0.49113744  1
  H  H19  1  0.52422090  0.42590678  0.50886256  1
  H  H20  1  0.02422090  0.42590678  0.99113744  1
  H  H21  1  0.52422090  0.07409322  0.00886256  1
  H  H22  1  0.97577910  0.92590678  0.50886256  1
  H  H23  1  0.47577910  0.57409322  0.49113744  1
  H  H24  1  0.90065962  0.54848424  0.08369810  1
  H  H25  1  0.40065962  0.95151576  0.91630190  1
  H  H26  1  0.09934038  0.04848424  0.41630190  1
  H  H27  1  0.59934038  0.45151576  0.58369810  1
  H  H28  1  0.09934038  0.45151576  0.91630190  1
  H  H29  1  0.59934038  0.04848424  0.08369810  1
  H  H30  1  0.90065962  0.95151576  0.58369810  1
  H  H31  1  0.40065962  0.54848424  0.41630190  1
  H  H32  1  0.75293259  0.57022376  0.92110838  1
  H  H33  1  0.25293259  0.92977624  0.07889162  1
  H  H34  1  0.24706741  0.07022376  0.57889162  1
  H  H35  1  0.74706741  0.42977624  0.42110838  1
  H  H36  1  0.24706741  0.42977624  0.07889162  1
  H  H37  1  0.74706741  0.07022376  0.92110838  1
  H  H38  1  0.75293259  0.92977624  0.42110838  1
  H  H39  1  0.25293259  0.57022376  0.57889162  1
  H  H40  1  0.79017588  0.50344016  0.99422140  1
  H  H41  1  0.29017588  0.99655984  0.00577860  1
  H  H42  1  0.20982412  0.00344016  0.50577860  1
  H  H43  1  0.70982412  0.49655984  0.49422140  1
  H  H44  1  0.20982412  0.49655984  0.00577860  1
  H  H45  1  0.70982412  0.00344016  0.99422140  1
  H  H46  1  0.79017588  0.99655984  0.49422140  1
  H  H47  1  0.29017588  0.50344016  0.50577860  1
  H  H48  1  0.86281728  0.52762127  0.91734496  1
  H  H49  1  0.36281728  0.97237873  0.08265504  1
  H  H50  1  0.13718272  0.02762127  0.58265504  1
  H  H51  1  0.63718272  0.47237873  0.41734496  1
  H  H52  1  0.13718272  0.47237873  0.08265504  1
  H  H53  1  0.63718272  0.02762127  0.91734496  1
  H  H54  1  0.86281728  0.97237873  0.41734496  1
  H  H55  1  0.36281728  0.52762127  0.58265504  1
  H  H56  1  0.89105901  0.94921261  0.91638560  1
  H  H57  1  0.39105901  0.55078739  0.08361440  1
  H  H58  1  0.10894099  0.44921261  0.58361440  1
  H  H59  1  0.60894099  0.05078739  0.41638560  1
  H  H60  1  0.10894099  0.05078739  0.08361440  1
  H  H61  1  0.60894099  0.44921261  0.91638560  1
  H  H62  1  0.89105901  0.55078739  0.41638560  1
  H  H63  1  0.39105901  0.94921261  0.58361440  1
  H  H64  1  0.82566790  0.93209471  0.83323271  1
  H  H65  1  0.32566790  0.56790529  0.16676729  1
  H  H66  1  0.17433210  0.43209471  0.66676729  1
  H  H67  1  0.67433210  0.06790529  0.33323271  1
  H  H68  1  0.17433210  0.06790529  0.16676729  1
  H  H69  1  0.67433210  0.43209471  0.83323271  1
  H  H70  1  0.82566790  0.56790529  0.33323271  1
  H  H71  1  0.32566790  0.93209471  0.66676729  1
  H  H72  1  0.92797537  0.98680852  0.82674284  1
  H  H73  1  0.42797537  0.51319148  0.17325716  1
  H  H74  1  0.07202463  0.48680852  0.67325716  1
  H  H75  1  0.57202463  0.01319148  0.32674284  1
  H  H76  1  0.07202463  0.01319148  0.17325716  1
  H  H77  1  0.57202463  0.48680852  0.82674284  1
  H  H78  1  0.92797537  0.51319148  0.32674284  1
  H  H79  1  0.42797537  0.98680852  0.67325716  1
  H  H80  1  0.98283408  0.78487420  0.75080761  1
  H  H81  1  0.48283408  0.71512580  0.24919239  1
  H  H82  1  0.01716592  0.28487420  0.74919239  1
  H  H83  1  0.51716592  0.21512580  0.25080761  1
  H  H84  1  0.01716592  0.21512580  0.24919239  1
  H  H85  1  0.51716592  0.28487420  0.75080761  1
  H  H86  1  0.98283408  0.71512580  0.25080761  1
  H  H87  1  0.48283408  0.78487420  0.74919239  1
  H  H88  1  0.98037240  0.89239862  0.73171112  1
  H  H89  1  0.48037240  0.60760138  0.26828888  1
  H  H90  1  0.01962760  0.39239862  0.76828888  1
  H  H91  1  0.51962760  0.10760138  0.23171112  1
  H  H92  1  0.01962760  0.10760138  0.26828888  1
  H  H93  1  0.51962760  0.39239862  0.73171112  1
  H  H94  1  0.98037240  0.60760138  0.23171112  1
  H  H95  1  0.48037240  0.89239862  0.76828888  1
  H  H96  1  0.87814035  0.83695694  0.73740953  1
  H  H97  1  0.37814035  0.66304306  0.26259047  1
  H  H98  1  0.12185965  0.33695694  0.76259047  1
  H  H99  1  0.62185965  0.16304306  0.23740953  1
  H  H100  1  0.12185965  0.16304306  0.26259047  1
  H  H101  1  0.62185965  0.33695694  0.73740953  1
  H  H102  1  0.87814035  0.66304306  0.23740953  1
  H  H103  1  0.37814035  0.83695694  0.76259047  1
  H  H104  1  0.79238960  0.66117834  0.78799125  1
  H  H105  1  0.29238960  0.83882166  0.21200875  1
  H  H106  1  0.20761040  0.16117834  0.71200875  1
  H  H107  1  0.70761040  0.33882166  0.28799125  1
  H  H108  1  0.20761040  0.33882166  0.21200875  1
  H  H109  1  0.70761040  0.16117834  0.78799125  1
  H  H110  1  0.79238960  0.83882166  0.28799125  1
  H  H111  1  0.29238960  0.66117834  0.71200875  1
  H  H112  1  0.72330407  0.74305646  0.75527694  1
  H  H113  1  0.22330407  0.75694354  0.24472306  1
  H  H114  1  0.27669593  0.24305646  0.74472306  1
  H  H115  1  0.77669593  0.25694354  0.25527694  1
  H  H116  1  0.27669593  0.25694354  0.24472306  1
  H  H117  1  0.77669593  0.24305646  0.75527694  1
  H  H118  1  0.72330407  0.75694354  0.25527694  1
  H  H119  1  0.22330407  0.74305646  0.74472306  1
  H  H120  1  0.67776490  0.66497138  0.81458425  1
  H  H121  1  0.17776490  0.83502862  0.18541575  1
  H  H122  1  0.32223510  0.16497138  0.68541575  1
  H  H123  1  0.82223510  0.33502862  0.31458425  1
  H  H124  1  0.32223510  0.33502862  0.18541575  1
  H  H125  1  0.82223510  0.16497138  0.81458425  1
  H  H126  1  0.67776490  0.83502862  0.31458425  1
  H  H127  1  0.17776490  0.66497138  0.68541575  1
  H  H128  1  0.69876746  0.84206684  0.93891047  1
  H  H129  1  0.19876746  0.65793316  0.06108953  1
  H  H130  1  0.30123254  0.34206684  0.56108953  1
  H  H131  1  0.80123254  0.15793316  0.43891047  1
  H  H132  1  0.30123254  0.15793316  0.06108953  1
  H  H133  1  0.80123254  0.34206684  0.93891047  1
  H  H134  1  0.69876746  0.65793316  0.43891047  1
  H  H135  1  0.19876746  0.84206684  0.56108953  1
  H  H136  1  0.62414223  0.76776018  0.89982271  1
  H  H137  1  0.12414223  0.73223982  0.10017729  1
  H  H138  1  0.37585777  0.26776018  0.60017729  1
  H  H139  1  0.87585777  0.23223982  0.39982271  1
  H  H140  1  0.37585777  0.23223982  0.10017729  1
  H  H141  1  0.87585777  0.26776018  0.89982271  1
  H  H142  1  0.62414223  0.73223982  0.39982271  1
  H  H143  1  0.12414223  0.76776018  0.60017729  1
  H  H144  1  0.67000435  0.84557150  0.84096964  1
  H  H145  1  0.17000435  0.65442850  0.15903036  1
  H  H146  1  0.32999565  0.34557150  0.65903036  1
  H  H147  1  0.82999565  0.15442850  0.34096964  1
  H  H148  1  0.32999565  0.15442850  0.15903036  1
  H  H149  1  0.82999565  0.34557150  0.84096964  1
  H  H150  1  0.67000435  0.65442850  0.34096964  1
  H  H151  1  0.17000435  0.84557150  0.65903036  1
  H  H152  1  0.07305263  0.72814367  0.94161369  1
  H  H153  1  0.57305263  0.77185633  0.05838631  1
  H  H154  1  0.92694737  0.22814367  0.55838631  1
  H  H155  1  0.42694737  0.27185633  0.44161369  1
  H  H156  1  0.92694737  0.27185633  0.05838631  1
  H  H157  1  0.42694737  0.22814367  0.94161369  1
  H  H158  1  0.07305263  0.77185633  0.44161369  1
  H  H159  1  0.57305263  0.72814367  0.55838631  1
  H  H160  1  0.11569496  0.71074372  0.84943942  1
  H  H161  1  0.61569496  0.78925628  0.15056058  1
  H  H162  1  0.88430504  0.21074372  0.65056058  1
  H  H163  1  0.38430504  0.28925628  0.34943942  1
  H  H164  1  0.88430504  0.28925628  0.15056058  1
  H  H165  1  0.38430504  0.21074372  0.84943942  1
  H  H166  1  0.11569496  0.78925628  0.34943942  1
  H  H167  1  0.61569496  0.71074372  0.65056058  1
  H  H168  1  0.10327310  0.62702892  0.91332127  1
  H  H169  1  0.60327310  0.87297108  0.08667873  1
  H  H170  1  0.89672690  0.12702892  0.58667873  1
  H  H171  1  0.39672690  0.37297108  0.41332127  1
  H  H172  1  0.89672690  0.37297108  0.08667873  1
  H  H173  1  0.39672690  0.12702892  0.91332127  1
  H  H174  1  0.10327310  0.87297108  0.41332127  1
  H  H175  1  0.60327310  0.62702892  0.58667873  1
  H  H176  1  0.91767905  0.59753948  0.78258497  1
  H  H177  1  0.41767905  0.90246052  0.21741503  1
  H  H178  1  0.08232095  0.09753948  0.71741503  1
  H  H179  1  0.58232095  0.40246052  0.28258497  1
  H  H180  1  0.08232095  0.40246052  0.21741503  1
  H  H181  1  0.58232095  0.09753948  0.78258497  1
  H  H182  1  0.91767905  0.90246052  0.28258497  1
  H  H183  1  0.41767905  0.59753948  0.71741503  1
  H  H184  1  0.01537622  0.55393333  0.82357095  1
  H  H185  1  0.51537622  0.94606667  0.17642905  1
  H  H186  1  0.98462378  0.05393333  0.67642905  1
  H  H187  1  0.48462378  0.44606667  0.32357095  1
  H  H188  1  0.98462378  0.44606667  0.17642905  1
  H  H189  1  0.48462378  0.05393333  0.82357095  1
  H  H190  1  0.01537622  0.94606667  0.32357095  1
  H  H191  1  0.51537622  0.55393333  0.67642905  1
  H  H192  1  0.02578500  0.63505908  0.75764744  1
  H  H193  1  0.52578500  0.86494092  0.24235256  1
  H  H194  1  0.97421500  0.13505908  0.74235256  1
  H  H195  1  0.47421500  0.36494092  0.25764744  1
  H  H196  1  0.97421500  0.36494092  0.24235256  1
  H  H197  1  0.47421500  0.13505908  0.75764744  1
  H  H198  1  0.02578500  0.86494092  0.25764744  1
  H  H199  1  0.52578500  0.63505908  0.74235256  1
  H  H200  1  0.77761375  0.78023132  0.04700878  1
  H  H201  1  0.27761375  0.71976868  0.95299122  1
  H  H202  1  0.22238625  0.28023132  0.45299122  1
  H  H203  1  0.72238625  0.21976868  0.54700878  1
  H  H204  1  0.22238625  0.21976868  0.95299122  1
  H  H205  1  0.72238625  0.28023132  0.04700878  1
  H  H206  1  0.77761375  0.71976868  0.54700878  1
  H  H207  1  0.27761375  0.78023132  0.45299122  1
  H  H208  1  0.81280184  0.88182391  0.07108124  1
  H  H209  1  0.31280184  0.61817609  0.92891876  1
  H  H210  1  0.18719816  0.38182391  0.42891876  1
  H  H211  1  0.68719816  0.11817609  0.57108124  1
  H  H212  1  0.18719816  0.11817609  0.92891876  1
  H  H213  1  0.68719816  0.38182391  0.07108124  1
  H  H214  1  0.81280184  0.61817609  0.57108124  1
  H  H215  1  0.31280184  0.88182391  0.42891876  1
  H  H216  1  0.85610106  0.79577068  0.12048431  1
  H  H217  1  0.35610106  0.70422932  0.87951569  1
  H  H218  1  0.14389894  0.29577068  0.37951569  1
  H  H219  1  0.64389894  0.20422932  0.62048431  1
  H  H220  1  0.14389894  0.20422932  0.87951569  1
  H  H221  1  0.64389894  0.29577068  0.12048431  1
  H  H222  1  0.85610106  0.70422932  0.62048431  1
  H  H223  1  0.35610106  0.79577068  0.37951569  1
  H  H224  1  0.04090737  0.85948446  0.99886075  1
  H  H225  1  0.54090737  0.64051554  0.00113925  1
  H  H226  1  0.95909263  0.35948446  0.50113925  1
  H  H227  1  0.45909263  0.14051554  0.49886075  1
  H  H228  1  0.95909263  0.14051554  0.00113925  1
  H  H229  1  0.45909263  0.35948446  0.99886075  1
  H  H230  1  0.04090737  0.64051554  0.49886075  1
  H  H231  1  0.54090737  0.85948446  0.50113925  1
  H  H232  1  0.00564334  0.84116631  0.09387235  1
  H  H233  1  0.50564334  0.65883369  0.90612765  1
  H  H234  1  0.99435666  0.34116631  0.40612765  1
  H  H235  1  0.49435666  0.15883369  0.59387235  1
  H  H236  1  0.99435666  0.15883369  0.90612765  1
  H  H237  1  0.49435666  0.34116631  0.09387235  1
  H  H238  1  0.00564334  0.65883369  0.59387235  1
  H  H239  1  0.50564334  0.84116631  0.40612765  1
  H  H240  1  0.96217177  0.92598802  0.04355893  1
  H  H241  1  0.46217177  0.57401198  0.95644107  1
  H  H242  1  0.03782823  0.42598802  0.45644107  1
  H  H243  1  0.53782823  0.07401198  0.54355893  1
  H  H244  1  0.03782823  0.07401198  0.95644107  1
  H  H245  1  0.53782823  0.42598802  0.04355893  1
  H  H246  1  0.96217177  0.57401198  0.54355893  1
  H  H247  1  0.46217177  0.92598802  0.45644107  1
  H  H248  1  0.79510380  0.63825687  0.03480321  1
  H  H249  1  0.29510380  0.86174313  0.96519679  1
  H  H250  1  0.20489620  0.13825687  0.46519679  1
  H  H251  1  0.70489620  0.36174313  0.53480321  1
  H  H252  1  0.20489620  0.36174313  0.96519679  1
  H  H253  1  0.70489620  0.13825687  0.03480321  1
  H  H254  1  0.79510380  0.86174313  0.53480321  1
  H  H255  1  0.29510380  0.63825687  0.46519679  1
  H  H256  1  0.00724399  0.86829192  0.85881935  1
  H  H257  1  0.50724399  0.63170808  0.14118065  1
  H  H258  1  0.99275601  0.36829192  0.64118065  1
  H  H259  1  0.49275601  0.13170808  0.35881935  1
  H  H260  1  0.99275601  0.13170808  0.14118065  1
  H  H261  1  0.49275601  0.36829192  0.85881935  1
  H  H262  1  0.00724399  0.63170808  0.35881935  1
  H  H263  1  0.50724399  0.86829192  0.64118065  1
  C  C264  1  0.92155146  0.59723022  0.04461219  1
  C  C265  1  0.42155146  0.90276978  0.95538781  1
  C  C266  1  0.07844854  0.09723022  0.45538781  1
  C  C267  1  0.57844854  0.40276978  0.54461219  1
  C  C268  1  0.07844854  0.40276978  0.95538781  1
  C  C269  1  0.57844854  0.09723022  0.04461219  1
  C  C270  1  0.92155146  0.90276978  0.54461219  1
  C  C271  1  0.42155146  0.59723022  0.45538781  1
  C  C272  1  0.81096967  0.55192253  0.95493825  1
  C  C273  1  0.31096967  0.94807747  0.04506175  1
  C  C274  1  0.18903033  0.05192253  0.54506175  1
  C  C275  1  0.68903033  0.44807747  0.45493825  1
  C  C276  1  0.18903033  0.44807747  0.04506175  1
  C  C277  1  0.68903033  0.05192253  0.95493825  1
  C  C278  1  0.81096967  0.94807747  0.45493825  1
  C  C279  1  0.31096967  0.55192253  0.54506175  1
  C  C280  1  0.89378990  0.93613254  0.85579155  1
  C  C281  1  0.39378990  0.56386746  0.14420845  1
  C  C282  1  0.10621010  0.43613254  0.64420845  1
  C  C283  1  0.60621010  0.06386746  0.35579155  1
  C  C284  1  0.10621010  0.06386746  0.14420845  1
  C  C285  1  0.60621010  0.43613254  0.85579155  1
  C  C286  1  0.89378990  0.56386746  0.35579155  1
  C  C287  1  0.39378990  0.93613254  0.64420845  1
  C  C288  1  0.94585640  0.84193402  0.76079005  1
  C  C289  1  0.44585640  0.65806598  0.23920995  1
  C  C290  1  0.05414360  0.34193402  0.73920995  1
  C  C291  1  0.55414360  0.15806598  0.26079005  1
  C  C292  1  0.05414360  0.15806598  0.23920995  1
  C  C293  1  0.55414360  0.34193402  0.76079005  1
  C  C294  1  0.94585640  0.65806598  0.26079005  1
  C  C295  1  0.44585640  0.84193402  0.73920995  1
  C  C296  1  0.73777041  0.70287727  0.80393940  1
  C  C297  1  0.23777041  0.79712273  0.19606060  1
  C  C298  1  0.26222959  0.20287727  0.69606060  1
  C  C299  1  0.76222959  0.29712273  0.30393940  1
  C  C300  1  0.26222959  0.29712273  0.19606060  1
  C  C301  1  0.76222959  0.20287727  0.80393940  1
  C  C302  1  0.73777041  0.79712273  0.30393940  1
  C  C303  1  0.23777041  0.70287727  0.69606060  1
  C  C304  1  0.68489889  0.80446048  0.88886532  1
  C  C305  1  0.18489889  0.69553952  0.11113468  1
  C  C306  1  0.31510111  0.30446048  0.61113468  1
  C  C307  1  0.81510111  0.19553952  0.38886532  1
  C  C308  1  0.31510111  0.19553952  0.11113468  1
  C  C309  1  0.81510111  0.30446048  0.88886532  1
  C  C310  1  0.68489889  0.69553952  0.38886532  1
  C  C311  1  0.18489889  0.80446048  0.61113468  1
  C  C312  1  0.07231438  0.68492800  0.89385705  1
  C  C313  1  0.57231438  0.81507200  0.10614295  1
  C  C314  1  0.92768562  0.18492800  0.60614295  1
  C  C315  1  0.42768562  0.31507200  0.39385705  1
  C  C316  1  0.92768562  0.31507200  0.10614295  1
  C  C317  1  0.42768562  0.18492800  0.89385705  1
  C  C318  1  0.07231438  0.81507200  0.39385705  1
  C  C319  1  0.57231438  0.68492800  0.60614295  1
  C  C320  1  0.98446528  0.61203354  0.80478372  1
  C  C321  1  0.48446528  0.88796646  0.19521628  1
  C  C322  1  0.01553472  0.11203354  0.69521628  1
  C  C323  1  0.51553472  0.38796646  0.30478372  1
  C  C324  1  0.01553472  0.38796646  0.19521628  1
  C  C325  1  0.51553472  0.11203354  0.80478372  1
  C  C326  1  0.98446528  0.88796646  0.30478372  1
  C  C327  1  0.48446528  0.61203354  0.69521628  1
  C  C328  1  0.83542284  0.81772861  0.06412706  1
  C  C329  1  0.33542284  0.68227139  0.93587294  1
  C  C330  1  0.16457716  0.31772861  0.43587294  1
  C  C331  1  0.66457716  0.18227139  0.56412706  1
  C  C332  1  0.16457716  0.18227139  0.93587294  1
  C  C333  1  0.66457716  0.31772861  0.06412706  1
  C  C334  1  0.83542284  0.68227139  0.56412706  1
  C  C335  1  0.33542284  0.81772861  0.43587294  1
  C  C336  1  0.98336835  0.86140552  0.03739514  1
  C  C337  1  0.48336835  0.63859448  0.96260486  1
  C  C338  1  0.01663165  0.36140552  0.46260486  1
  C  C339  1  0.51663165  0.13859448  0.53739514  1
  C  C340  1  0.01663165  0.13859448  0.96260486  1
  C  C341  1  0.51663165  0.36140552  0.03739514  1
  C  C342  1  0.98336835  0.63859448  0.53739514  1
  C  C343  1  0.48336835  0.86140552  0.46260486  1
  I  I344  1  0.18394342  0.92400860  0.84430146  1
  I  I345  1  0.68394342  0.57599140  0.15569854  1
  I  I346  1  0.81605658  0.42400860  0.65569854  1
  I  I347  1  0.31605658  0.07599140  0.34430146  1
  I  I348  1  0.81605658  0.07599140  0.15569854  1
  I  I349  1  0.31605658  0.42400860  0.84430146  1
  I  I350  1  0.18394342  0.57599140  0.34430146  1
  I  I351  1  0.68394342  0.92400860  0.65569854  1
  N  N352  1  0.84561273  0.62347531  0.99710643  1
  N  N353  1  0.34561273  0.87652469  0.00289357  1
  N  N354  1  0.15438727  0.12347531  0.50289357  1
  N  N355  1  0.65438727  0.37652469  0.49710643  1
  N  N356  1  0.15438727  0.37652469  0.00289357  1
  N  N357  1  0.65438727  0.12347531  0.99710643  1
  N  N358  1  0.84561273  0.87652469  0.49710643  1
  N  N359  1  0.34561273  0.62347531  0.50289357  1
  N  N360  1  0.94143992  0.85791253  0.84277283  1
  N  N361  1  0.44143992  0.64208747  0.15722717  1
  N  N362  1  0.05856008  0.35791253  0.65722717  1
  N  N363  1  0.55856008  0.14208747  0.34277283  1
  N  N364  1  0.05856008  0.14208747  0.15722717  1
  N  N365  1  0.55856008  0.35791253  0.84277283  1
  N  N366  1  0.94143992  0.64208747  0.34277283  1
  N  N367  1  0.44143992  0.85791253  0.65722717  1
  N  N368  1  0.75964422  0.75130870  0.87027286  1
  N  N369  1  0.25964422  0.74869130  0.12972714  1
  N  N370  1  0.24035578  0.25130870  0.62972714  1
  N  N371  1  0.74035578  0.24869130  0.37027286  1
  N  N372  1  0.24035578  0.24869130  0.12972714  1
  N  N373  1  0.74035578  0.25130870  0.87027286  1
  N  N374  1  0.75964422  0.74869130  0.37027286  1
  N  N375  1  0.25964422  0.75130870  0.62972714  1
  N  N376  1  0.98216545  0.67048779  0.86635110  1
  N  N377  1  0.48216545  0.82951221  0.13364890  1
  N  N378  1  0.01783455  0.17048779  0.63364890  1
  N  N379  1  0.51783455  0.32951221  0.36635110  1
  N  N380  1  0.01783455  0.32951221  0.13364890  1
  N  N381  1  0.51783455  0.17048779  0.86635110  1
  N  N382  1  0.98216545  0.82951221  0.36635110  1
  N  N383  1  0.48216545  0.67048779  0.63364890  1
  N  N384  1  0.90945478  0.81138288  0.01113537  1
  N  N385  1  0.40945478  0.68861712  0.98886463  1
  N  N386  1  0.09054522  0.31138288  0.48886463  1
  N  N387  1  0.59054522  0.18861712  0.51113537  1
  N  N388  1  0.09054522  0.18861712  0.98886463  1
  N  N389  1  0.59054522  0.31138288  0.01113537  1
  N  N390  1  0.90945478  0.68861712  0.51113537  1
  N  N391  1  0.40945478  0.81138288  0.48886463  1
