# generated using pymatgen
data_H12C4Se(NO)2
_symmetry_space_group_name_H-M   'P 1'
_cell_length_a   6.66855833
_cell_length_b   6.66855833
_cell_length_c   11.35088450
_cell_angle_alpha   75.56394448
_cell_angle_beta   75.56394448
_cell_angle_gamma   94.66856812
_symmetry_Int_Tables_number   1
_chemical_formula_structural   H12C4Se(NO)2
_chemical_formula_sum   'H24 C8 Se2 N4 O4'
_cell_volume   467.82085997
_cell_formula_units_Z   2
loop_
 _symmetry_equiv_pos_site_id
 _symmetry_equiv_pos_as_xyz
  1  'x, y, z'
loop_
 _atom_site_type_symbol
 _atom_site_label
 _atom_site_symmetry_multiplicity
 _atom_site_fract_x
 _atom_site_fract_y
 _atom_site_fract_z
 _atom_site_occupancy
  H  H0  1  0.54514900  0.85371200  0.22253900  1
  H  H1  1  0.14628800  0.45485100  0.27746100  1
  H  H2  1  0.45485100  0.14628800  0.77746100  1
  H  H3  1  0.85371200  0.54514900  0.72253900  1
  H  H4  1  0.46371300  0.81122700  0.39162000  1
  H  H5  1  0.18877300  0.53628700  0.10838000  1
  H  H6  1  0.53628700  0.18877300  0.60838000  1
  H  H7  1  0.81122700  0.46371300  0.89162000  1
  H  H8  1  0.57407800  0.61364500  0.32548300  1
  H  H9  1  0.38635500  0.42592200  0.17451700  1
  H  H10  1  0.42592200  0.38635500  0.67451700  1
  H  H11  1  0.61364500  0.57407800  0.82548300  1
  H  H12  1  0.00846000  0.85501800  0.41601100  1
  H  H13  1  0.14498200  0.99154000  0.08398900  1
  H  H14  1  0.99154000  0.14498200  0.58398900  1
  H  H15  1  0.85501800  0.00846000  0.91601100  1
  H  H16  1  0.84409700  0.61513000  0.43848900  1
  H  H17  1  0.38487000  0.15590300  0.06151100  1
  H  H18  1  0.15590300  0.38487000  0.56151100  1
  H  H19  1  0.61513000  0.84409700  0.93848900  1
  H  H20  1  0.73780100  0.81360900  0.50532500  1
  H  H21  1  0.18639100  0.26219900  0.99467500  1
  H  H22  1  0.26219900  0.18639100  0.49467500  1
  H  H23  1  0.81360900  0.73780100  0.00532500  1
  C  C24  1  0.58061700  0.78298700  0.31176700  1
  C  C25  1  0.21701300  0.41938300  0.18823300  1
  C  C26  1  0.41938300  0.21701300  0.68823300  1
  C  C27  1  0.78298700  0.58061700  0.81176700  1
  C  C28  1  0.84963800  0.78495200  0.42360900  1
  C  C29  1  0.21504800  0.15036200  0.07639100  1
  C  C30  1  0.15036200  0.21504800  0.57639100  1
  C  C31  1  0.78495200  0.84963800  0.92360900  1
  Se  Se32  1  0.84189300  0.15810700  0.25000000  1
  Se  Se33  1  0.15810700  0.84189300  0.75000000  1
  N  N34  1  0.79708700  0.86548100  0.30365900  1
  N  N35  1  0.13451900  0.20291300  0.19634100  1
  N  N36  1  0.20291300  0.13451900  0.69634100  1
  N  N37  1  0.86548100  0.79708700  0.80365900  1
  O  O38  1  0.73555300  0.22424900  0.13218300  1
  O  O39  1  0.77575100  0.26444700  0.36781700  1
  O  O40  1  0.26444700  0.77575100  0.86781700  1
  O  O41  1  0.22424900  0.73555300  0.63218300  1
