# generated using pymatgen
data_SiH12(NF)4
_symmetry_space_group_name_H-M   'P 1'
_cell_length_a   5.46045960
_cell_length_b   5.46045960
_cell_length_c   13.67997300
_cell_angle_alpha   90.00000000
_cell_angle_beta   90.00000000
_cell_angle_gamma   97.01468179
_symmetry_Int_Tables_number   1
_chemical_formula_structural   SiH12(NF)4
_chemical_formula_sum   'Si2 H24 N8 F8'
_cell_volume   404.83743869
_cell_formula_units_Z   2
loop_
 _symmetry_equiv_pos_site_id
 _symmetry_equiv_pos_as_xyz
  1  'x, y, z'
loop_
 _atom_site_type_symbol
 _atom_site_label
 _atom_site_symmetry_multiplicity
 _atom_site_fract_x
 _atom_site_fract_y
 _atom_site_fract_z
 _atom_site_occupancy
  Si  Si0  1  0.50000000  0.50000000  0.50000000  1
  Si  Si1  1  0.00000000  0.00000000  0.00000000  1
  H  H2  1  0.64376800  0.12737500  0.42866200  1
  H  H3  1  0.12737500  0.64376800  0.57133800  1
  H  H4  1  0.62737500  0.14376800  0.92866200  1
  H  H5  1  0.14376800  0.62737500  0.07133800  1
  H  H6  1  0.35623200  0.87262500  0.57133800  1
  H  H7  1  0.87262500  0.35623200  0.42866200  1
  H  H8  1  0.37262500  0.85623200  0.07133800  1
  H  H9  1  0.85623200  0.37262500  0.92866200  1
  H  H10  1  0.65342300  0.34657700  0.34132800  1
  H  H11  1  0.34657700  0.65342300  0.65867200  1
  H  H12  1  0.84657700  0.15342300  0.84132800  1
  H  H13  1  0.15342300  0.84657700  0.15867200  1
  H  H14  1  0.72010700  0.27989300  0.16905700  1
  H  H15  1  0.27989300  0.72010700  0.83094300  1
  H  H16  1  0.77989300  0.22010700  0.66905700  1
  H  H17  1  0.22010700  0.77989300  0.33094300  1
  H  H18  1  0.66166400  0.56335000  0.18449300  1
  H  H19  1  0.56335000  0.66166400  0.81550700  1
  H  H20  1  0.06335000  0.16166400  0.68449300  1
  H  H21  1  0.16166400  0.06335000  0.31550700  1
  H  H22  1  0.33833600  0.43665000  0.81550700  1
  H  H23  1  0.43665000  0.33833600  0.18449300  1
  H  H24  1  0.93665000  0.83833600  0.31550700  1
  H  H25  1  0.83833600  0.93665000  0.68449300  1
  N  N26  1  0.68564400  0.31435600  0.41656800  1
  N  N27  1  0.31435600  0.68564400  0.58343200  1
  N  N28  1  0.81435600  0.18564400  0.91656800  1
  N  N29  1  0.18564400  0.81435600  0.08343200  1
  N  N30  1  0.61324100  0.38675900  0.20788000  1
  N  N31  1  0.38675900  0.61324100  0.79212000  1
  N  N32  1  0.88675900  0.11324100  0.70788000  1
  N  N33  1  0.11324100  0.88675900  0.29212000  1
  F  F34  1  0.41991900  0.24368600  0.57202000  1
  F  F35  1  0.24368600  0.41991900  0.42798000  1
  F  F36  1  0.74368600  0.91991900  0.07201900  1
  F  F37  1  0.91991900  0.74368600  0.92798000  1
  F  F38  1  0.58008100  0.75631400  0.42798000  1
  F  F39  1  0.75631400  0.58008100  0.57202000  1
  F  F40  1  0.25631400  0.08008100  0.92798000  1
  F  F41  1  0.08008100  0.25631400  0.07201900  1
