# generated using pymatgen
data_Co2TeSO8
_symmetry_space_group_name_H-M   'P 1'
_cell_length_a   7.30338400
_cell_length_b   8.45607000
_cell_length_c   10.13901900
_cell_angle_alpha   90.00000000
_cell_angle_beta   90.00000000
_cell_angle_gamma   90.00000000
_symmetry_Int_Tables_number   1
_chemical_formula_structural   Co2TeSO8
_chemical_formula_sum   'Co8 Te4 S4 O32'
_cell_volume   626.16478857
_cell_formula_units_Z   4
loop_
 _symmetry_equiv_pos_site_id
 _symmetry_equiv_pos_as_xyz
  1  'x, y, z'
loop_
 _atom_site_type_symbol
 _atom_site_label
 _atom_site_symmetry_multiplicity
 _atom_site_fract_x
 _atom_site_fract_y
 _atom_site_fract_z
 _atom_site_occupancy
  Co  Co0  1  0.68648600  0.04918700  0.91840400  1
  Co  Co1  1  0.31351400  0.54918700  0.08159600  1
  Co  Co2  1  0.68648600  0.95081300  0.58159600  1
  Co  Co3  1  0.31351400  0.45081300  0.41840400  1
  Co  Co4  1  0.31351400  0.95081300  0.08159600  1
  Co  Co5  1  0.68648600  0.45081300  0.91840400  1
  Co  Co6  1  0.31351400  0.04918700  0.41840400  1
  Co  Co7  1  0.68648600  0.54918700  0.58159600  1
  Te  Te8  1  0.62928000  0.25000000  0.21394700  1
  Te  Te9  1  0.37072000  0.75000000  0.78605300  1
  Te  Te10  1  0.62928000  0.75000000  0.28605300  1
  Te  Te11  1  0.37072000  0.25000000  0.71394700  1
  S  S12  1  0.05632500  0.25000000  0.03015700  1
  S  S13  1  0.94367500  0.75000000  0.96984300  1
  S  S14  1  0.05632500  0.75000000  0.46984300  1
  S  S15  1  0.94367500  0.25000000  0.53015700  1
  O  O16  1  0.43629300  0.25000000  0.33948000  1
  O  O17  1  0.56370700  0.75000000  0.66052000  1
  O  O18  1  0.43629300  0.75000000  0.16052000  1
  O  O19  1  0.56370700  0.25000000  0.83948000  1
  O  O20  1  0.03513300  0.25000000  0.17236000  1
  O  O21  1  0.96486700  0.75000000  0.82764000  1
  O  O22  1  0.03513300  0.75000000  0.32764000  1
  O  O23  1  0.96486700  0.25000000  0.67236000  1
  O  O24  1  0.86542000  0.25000000  0.96648700  1
  O  O25  1  0.13458000  0.75000000  0.03351300  1
  O  O26  1  0.86542000  0.75000000  0.53351300  1
  O  O27  1  0.13458000  0.25000000  0.46648700  1
  O  O28  1  0.75702700  0.00000000  0.75000000  1
  O  O29  1  0.24297300  0.50000000  0.25000000  1
  O  O30  1  0.24297300  0.00000000  0.25000000  1
  O  O31  1  0.75702700  0.50000000  0.75000000  1
  O  O32  1  0.55058700  0.41808500  0.10027000  1
  O  O33  1  0.44941300  0.91808500  0.89973000  1
  O  O34  1  0.55058700  0.58191500  0.39973000  1
  O  O35  1  0.44941300  0.08191500  0.60027000  1
  O  O36  1  0.44941300  0.58191500  0.89973000  1
  O  O37  1  0.55058700  0.08191500  0.10027000  1
  O  O38  1  0.44941300  0.41808500  0.60027000  1
  O  O39  1  0.55058700  0.91808500  0.39973000  1
  O  O40  1  0.84501800  0.89301500  0.02142400  1
  O  O41  1  0.15498200  0.39301500  0.97857600  1
  O  O42  1  0.84501800  0.10698500  0.47857600  1
  O  O43  1  0.15498200  0.60698500  0.52142400  1
  O  O44  1  0.15498200  0.10698500  0.97857600  1
  O  O45  1  0.84501800  0.60698500  0.02142400  1
  O  O46  1  0.15498200  0.89301500  0.52142400  1
  O  O47  1  0.84501800  0.39301500  0.47857600  1
