# generated using pymatgen
data_Ag4Sn3S8
_symmetry_space_group_name_H-M   'P 1'
_cell_length_a   10.90748600
_cell_length_b   10.90748600
_cell_length_c   10.90748600
_cell_angle_alpha   90.00000000
_cell_angle_beta   90.00000000
_cell_angle_gamma   90.00000000
_symmetry_Int_Tables_number   1
_chemical_formula_structural   Ag4Sn3S8
_chemical_formula_sum   'Ag16 Sn12 S32'
_cell_volume   1297.69906791
_cell_formula_units_Z   4
loop_
 _symmetry_equiv_pos_site_id
 _symmetry_equiv_pos_as_xyz
  1  'x, y, z'
loop_
 _atom_site_type_symbol
 _atom_site_label
 _atom_site_symmetry_multiplicity
 _atom_site_fract_x
 _atom_site_fract_y
 _atom_site_fract_z
 _atom_site_occupancy
  Ag  Ag0  1  0.37500000  0.62500000  0.12500000  1
  Ag  Ag1  1  0.12500000  0.37500000  0.62500000  1
  Ag  Ag2  1  0.62500000  0.12500000  0.37500000  1
  Ag  Ag3  1  0.87500000  0.87500000  0.87500000  1
  Ag  Ag4  1  0.85476000  0.89524000  0.37500000  1
  Ag  Ag5  1  0.64524000  0.10476000  0.87500000  1
  Ag  Ag6  1  0.14524000  0.39524000  0.12500000  1
  Ag  Ag7  1  0.35476000  0.60476000  0.62500000  1
  Ag  Ag8  1  0.89524000  0.37500000  0.85476000  1
  Ag  Ag9  1  0.10476000  0.87500000  0.64524000  1
  Ag  Ag10  1  0.39524000  0.12500000  0.14524000  1
  Ag  Ag11  1  0.60476000  0.62500000  0.35476000  1
  Ag  Ag12  1  0.37500000  0.85476000  0.89524000  1
  Ag  Ag13  1  0.87500000  0.64524000  0.10476000  1
  Ag  Ag14  1  0.12500000  0.14524000  0.39524000  1
  Ag  Ag15  1  0.62500000  0.35476000  0.60476000  1
  Sn  Sn16  1  0.11404000  0.63596000  0.37500000  1
  Sn  Sn17  1  0.38596000  0.36404000  0.87500000  1
  Sn  Sn18  1  0.88596000  0.13596000  0.12500000  1
  Sn  Sn19  1  0.61404000  0.86404000  0.62500000  1
  Sn  Sn20  1  0.63596000  0.37500000  0.11404000  1
  Sn  Sn21  1  0.36404000  0.87500000  0.38596000  1
  Sn  Sn22  1  0.13596000  0.12500000  0.88596000  1
  Sn  Sn23  1  0.86404000  0.62500000  0.61404000  1
  Sn  Sn24  1  0.37500000  0.11404000  0.63596000  1
  Sn  Sn25  1  0.87500000  0.38596000  0.36404000  1
  Sn  Sn26  1  0.12500000  0.88596000  0.13596000  1
  Sn  Sn27  1  0.62500000  0.61404000  0.86404000  1
  S  S28  1  0.35104900  0.63835100  0.38757700  1
  S  S29  1  0.14895100  0.36164900  0.88757700  1
  S  S30  1  0.64895100  0.13835100  0.11242300  1
  S  S31  1  0.85104900  0.86164900  0.61242300  1
  S  S32  1  0.63835100  0.38757700  0.35104900  1
  S  S33  1  0.36164900  0.88757700  0.14895100  1
  S  S34  1  0.13835100  0.11242300  0.64895100  1
  S  S35  1  0.86164900  0.61242300  0.85104900  1
  S  S36  1  0.38757700  0.35104900  0.63835100  1
  S  S37  1  0.88757700  0.14895100  0.36164900  1
  S  S38  1  0.11242300  0.64895100  0.13835100  1
  S  S39  1  0.61242300  0.85104900  0.86164900  1
  S  S40  1  0.39895100  0.36242300  0.11164900  1
  S  S41  1  0.60104900  0.86242300  0.38835100  1
  S  S42  1  0.10104900  0.63757700  0.61164900  1
  S  S43  1  0.89895100  0.13757700  0.88835100  1
  S  S44  1  0.11164900  0.39895100  0.36242300  1
  S  S45  1  0.38835100  0.60104900  0.86242300  1
  S  S46  1  0.61164900  0.10104900  0.63757700  1
  S  S47  1  0.88835100  0.89895100  0.13757700  1
  S  S48  1  0.36242300  0.11164900  0.39895100  1
  S  S49  1  0.86242300  0.38835100  0.60104900  1
  S  S50  1  0.63757700  0.61164900  0.10104900  1
  S  S51  1  0.13757700  0.88835100  0.89895100  1
  S  S52  1  0.12108000  0.87892000  0.37892000  1
  S  S53  1  0.37892000  0.12108000  0.87892000  1
  S  S54  1  0.87892000  0.37892000  0.12108000  1
  S  S55  1  0.62108000  0.62108000  0.62108000  1
  S  S56  1  0.62892000  0.37108000  0.87108000  1
  S  S57  1  0.37108000  0.87108000  0.62892000  1
  S  S58  1  0.87108000  0.62892000  0.37108000  1
  S  S59  1  0.12892000  0.12892000  0.12892000  1
