# generated using pymatgen
data_SrV2(CoO4)2
_symmetry_space_group_name_H-M   'P 1'
_cell_length_a   9.77896511
_cell_length_b   9.77896511
_cell_length_c   9.77896511
_cell_angle_alpha   100.91237326
_cell_angle_beta   100.91237326
_cell_angle_gamma   128.41734569
_symmetry_Int_Tables_number   1
_chemical_formula_structural   SrV2(CoO4)2
_chemical_formula_sum   'Sr4 V8 Co8 O32'
_cell_volume   659.70344040
_cell_formula_units_Z   4
loop_
 _symmetry_equiv_pos_site_id
 _symmetry_equiv_pos_as_xyz
  1  'x, y, z'
loop_
 _atom_site_type_symbol
 _atom_site_label
 _atom_site_symmetry_multiplicity
 _atom_site_fract_x
 _atom_site_fract_y
 _atom_site_fract_z
 _atom_site_occupancy
  Sr  Sr0  1  0.50603700  0.00603700  0.50000000  1
  Sr  Sr1  1  0.00603700  0.50603700  0.50000000  1
  Sr  Sr2  1  0.25603700  0.25603700  0.00000000  1
  Sr  Sr3  1  0.75603700  0.75603700  0.00000000  1
  V  V4  1  0.51166400  0.82955900  0.15882200  1
  V  V5  1  0.01166400  0.85284200  0.68210500  1
  V  V6  1  0.60284200  0.26166400  0.18210500  1
  V  V7  1  0.57955900  0.76166400  0.65882200  1
  V  V8  1  0.67073700  0.35284200  0.84117800  1
  V  V9  1  0.17073700  0.32955900  0.31789500  1
  V  V10  1  0.07955900  0.42073700  0.81789500  1
  V  V11  1  0.10284200  0.92073700  0.34117800  1
  Co  Co12  1  0.38945400  0.89196800  0.83589300  1
  Co  Co13  1  0.88945400  0.05356100  0.49748600  1
  Co  Co14  1  0.80356100  0.13945400  0.99748600  1
  Co  Co15  1  0.64196800  0.63945400  0.33589300  1
  Co  Co16  1  0.05607400  0.55356100  0.16410700  1
  Co  Co17  1  0.55607400  0.39196800  0.50251400  1
  Co  Co18  1  0.14196800  0.80607400  0.00251400  1
  Co  Co19  1  0.30356100  0.30607400  0.66410700  1
  O  O20  1  0.00455600  0.85688500  0.86016600  1
  O  O21  1  0.50455600  0.64439000  0.14767100  1
  O  O22  1  0.39439000  0.75455600  0.64767100  1
  O  O23  1  0.60688500  0.25455600  0.36016600  1
  O  O24  1  0.99671900  0.14439000  0.13983400  1
  O  O25  1  0.49671900  0.35688500  0.85232900  1
  O  O26  1  0.10688500  0.74671900  0.35232900  1
  O  O27  1  0.89439000  0.24671900  0.63983400  1
  O  O28  1  0.31180100  0.13797800  0.49026800  1
  O  O29  1  0.81180100  0.32153300  0.17382300  1
  O  O30  1  0.07153300  0.06180100  0.67382300  1
  O  O31  1  0.88797800  0.56180100  0.99026800  1
  O  O32  1  0.64771000  0.82153300  0.50973200  1
  O  O33  1  0.14771000  0.63797800  0.82617700  1
  O  O34  1  0.38797800  0.39771000  0.32617700  1
  O  O35  1  0.57153300  0.89771000  0.00973200  1
  O  O36  1  0.52892800  0.55364100  0.65954200  1
  O  O37  1  0.02892800  0.36938600  0.97528700  1
  O  O38  1  0.11938600  0.27892800  0.47528700  1
  O  O39  1  0.30364100  0.77892800  0.15954200  1
  O  O40  1  0.89410000  0.86938600  0.34045800  1
  O  O41  1  0.39410000  0.05364100  0.02471300  1
  O  O42  1  0.80364100  0.64410000  0.52471300  1
  O  O43  1  0.61938600  0.14410000  0.84045800  1
  O  O44  1  0.19051200  0.86105000  0.67414200  1
  O  O45  1  0.69051200  0.01637100  0.32946200  1
  O  O46  1  0.76637100  0.94051200  0.82946200  1
  O  O47  1  0.61105000  0.44051200  0.17414200  1
  O  O48  1  0.18690800  0.51637100  0.32585800  1
  O  O49  1  0.68690800  0.36105000  0.67053800  1
  O  O50  1  0.11105000  0.93690800  0.17053800  1
  O  O51  1  0.26637100  0.43690800  0.82585800  1
