# generated using pymatgen
data_Na7Fe4(AsO4)6
_symmetry_space_group_name_H-M   'P 1'
_cell_length_a   10.23601890
_cell_length_b   10.23601890
_cell_length_c   10.23601923
_cell_angle_alpha   86.65099889
_cell_angle_beta   86.65099889
_cell_angle_gamma   86.65099396
_symmetry_Int_Tables_number   1
_chemical_formula_structural   Na7Fe4(AsO4)6
_chemical_formula_sum   'Na14 Fe8 As12 O48'
_cell_volume   1067.20072660
_cell_formula_units_Z   2
loop_
 _symmetry_equiv_pos_site_id
 _symmetry_equiv_pos_as_xyz
  1  'x, y, z'
loop_
 _atom_site_type_symbol
 _atom_site_label
 _atom_site_symmetry_multiplicity
 _atom_site_fract_x
 _atom_site_fract_y
 _atom_site_fract_z
 _atom_site_occupancy
  Na  Na0  1  0.50000000  0.50000000  0.50000000  1
  Na  Na1  1  0.00000000  0.00000000  0.00000000  1
  Na  Na2  1  0.65959200  0.22089600  0.46477300  1
  Na  Na3  1  0.46477300  0.65959200  0.22089600  1
  Na  Na4  1  0.22089600  0.46477300  0.65959200  1
  Na  Na5  1  0.96477300  0.72089600  0.15959200  1
  Na  Na6  1  0.15959200  0.96477300  0.72089600  1
  Na  Na7  1  0.72089600  0.15959200  0.96477300  1
  Na  Na8  1  0.34040800  0.77910400  0.53522700  1
  Na  Na9  1  0.53522700  0.34040800  0.77910400  1
  Na  Na10  1  0.77910400  0.53522700  0.34040800  1
  Na  Na11  1  0.03522700  0.27910400  0.84040800  1
  Na  Na12  1  0.84040800  0.03522700  0.27910400  1
  Na  Na13  1  0.27910400  0.84040800  0.03522700  1
  Fe  Fe14  1  0.25000000  0.25000000  0.25000000  1
  Fe  Fe15  1  0.75000000  0.75000000  0.75000000  1
  Fe  Fe16  1  0.47200300  0.02799700  0.25000000  1
  Fe  Fe17  1  0.25000000  0.47200300  0.02799700  1
  Fe  Fe18  1  0.02799700  0.25000000  0.47200300  1
  Fe  Fe19  1  0.75000000  0.52799700  0.97200300  1
  Fe  Fe20  1  0.97200300  0.75000000  0.52799700  1
  Fe  Fe21  1  0.52799700  0.97200300  0.75000000  1
  As  As22  1  0.17314600  0.54843400  0.34302500  1
  As  As23  1  0.34302500  0.17314600  0.54843400  1
  As  As24  1  0.54843400  0.34302500  0.17314600  1
  As  As25  1  0.84302500  0.04843400  0.67314600  1
  As  As26  1  0.67314600  0.84302500  0.04843400  1
  As  As27  1  0.04843400  0.67314600  0.84302500  1
  As  As28  1  0.82685400  0.45156600  0.65697500  1
  As  As29  1  0.65697500  0.82685400  0.45156600  1
  As  As30  1  0.45156600  0.65697500  0.82685400  1
  As  As31  1  0.15697500  0.95156600  0.32685400  1
  As  As32  1  0.32685400  0.15697500  0.95156600  1
  As  As33  1  0.95156600  0.32685400  0.15697500  1
  O  O34  1  0.82319400  0.80961700  0.40962600  1
  O  O35  1  0.40962600  0.82319400  0.80961700  1
  O  O36  1  0.80961700  0.40962600  0.82319400  1
  O  O37  1  0.90962600  0.30961700  0.32319400  1
  O  O38  1  0.32319400  0.90962600  0.30961700  1
  O  O39  1  0.30961700  0.32319400  0.90962600  1
  O  O40  1  0.17680600  0.19038300  0.59037400  1
  O  O41  1  0.59037400  0.17680600  0.19038300  1
  O  O42  1  0.19038300  0.59037400  0.17680600  1
  O  O43  1  0.09037400  0.69038300  0.67680600  1
  O  O44  1  0.67680600  0.09037400  0.69038300  1
  O  O45  1  0.69038300  0.67680600  0.09037400  1
  O  O46  1  0.60836600  0.97901000  0.38304600  1
  O  O47  1  0.38304600  0.60836600  0.97901000  1
  O  O48  1  0.97901000  0.38304600  0.60836600  1
  O  O49  1  0.88304600  0.47901000  0.10836600  1
  O  O50  1  0.10836600  0.88304600  0.47901000  1
  O  O51  1  0.47901000  0.10836600  0.88304600  1
  O  O52  1  0.39163400  0.02099000  0.61695400  1
  O  O53  1  0.61695400  0.39163400  0.02099000  1
  O  O54  1  0.02099000  0.61695400  0.39163400  1
  O  O55  1  0.11695400  0.52099000  0.89163400  1
  O  O56  1  0.89163400  0.11695400  0.52099000  1
  O  O57  1  0.52099000  0.89163400  0.11695400  1
  O  O58  1  0.87795000  0.87807200  0.66863200  1
  O  O59  1  0.66863200  0.87795000  0.87807200  1
  O  O60  1  0.87807200  0.66863200  0.87795000  1
  O  O61  1  0.16863200  0.37807200  0.37795000  1
  O  O62  1  0.37795000  0.16863200  0.37807200  1
  O  O63  1  0.37807200  0.37795000  0.16863200  1
  O  O64  1  0.12205000  0.12192800  0.33136800  1
  O  O65  1  0.33136800  0.12205000  0.12192800  1
  O  O66  1  0.12192800  0.33136800  0.12205000  1
  O  O67  1  0.83136800  0.62192800  0.62205000  1
  O  O68  1  0.62205000  0.83136800  0.62192800  1
  O  O69  1  0.62192800  0.62205000  0.83136800  1
  O  O70  1  0.42480300  0.29923400  0.59535700  1
  O  O71  1  0.59535700  0.42480300  0.29923400  1
  O  O72  1  0.29923400  0.59535700  0.42480300  1
  O  O73  1  0.09535700  0.79923400  0.92480300  1
  O  O74  1  0.92480300  0.09535700  0.79923400  1
  O  O75  1  0.79923400  0.92480300  0.09535700  1
  O  O76  1  0.57519700  0.70076600  0.40464300  1
  O  O77  1  0.40464300  0.57519700  0.70076600  1
  O  O78  1  0.70076600  0.40464300  0.57519700  1
  O  O79  1  0.90464300  0.20076600  0.07519700  1
  O  O80  1  0.07519700  0.90464300  0.20076600  1
  O  O81  1  0.20076600  0.07519700  0.90464300  1
