# generated using pymatgen
data_Ba3MnV4O14
_symmetry_space_group_name_H-M   'P 1'
_cell_length_a   14.26144200
_cell_length_b   7.31389400
_cell_length_c   14.36443092
_cell_angle_alpha   71.15770491
_cell_angle_beta   90.00000000
_cell_angle_gamma   90.00000000
_symmetry_Int_Tables_number   1
_chemical_formula_structural   Ba3MnV4O14
_chemical_formula_sum   'Ba12 Mn4 V16 O56'
_cell_volume   1418.01347046
_cell_formula_units_Z   4
loop_
 _symmetry_equiv_pos_site_id
 _symmetry_equiv_pos_as_xyz
  1  'x, y, z'
loop_
 _atom_site_type_symbol
 _atom_site_label
 _atom_site_symmetry_multiplicity
 _atom_site_fract_x
 _atom_site_fract_y
 _atom_site_fract_z
 _atom_site_occupancy
  Ba  Ba0  1  0.94581400  0.39317600  0.78049300  1
  Ba  Ba1  1  0.44581400  0.60682400  0.71950700  1
  Ba  Ba2  1  0.05418600  0.60682400  0.21950700  1
  Ba  Ba3  1  0.55418600  0.39317600  0.28049300  1
  Ba  Ba4  1  0.22887800  0.05615500  0.70501300  1
  Ba  Ba5  1  0.72887800  0.94384500  0.79498700  1
  Ba  Ba6  1  0.77112200  0.94384500  0.29498700  1
  Ba  Ba7  1  0.27112200  0.05615500  0.20501300  1
  Ba  Ba8  1  0.10888100  0.72589300  0.51513900  1
  Ba  Ba9  1  0.60888100  0.27410700  0.98486100  1
  Ba  Ba10  1  0.89111900  0.27410700  0.48486100  1
  Ba  Ba11  1  0.39111900  0.72589300  0.01513900  1
  Mn  Mn12  1  0.89983400  0.62432300  0.99333700  1
  Mn  Mn13  1  0.39983400  0.37567700  0.50666300  1
  Mn  Mn14  1  0.10016600  0.37567700  0.00666300  1
  Mn  Mn15  1  0.60016600  0.62432300  0.49333700  1
  V  V16  1  0.97215200  0.90387500  0.75863900  1
  V  V17  1  0.47215200  0.09612500  0.74136100  1
  V  V18  1  0.02784800  0.09612500  0.24136100  1
  V  V19  1  0.52784800  0.90387500  0.25863900  1
  V  V20  1  0.11065400  0.89221600  0.95035000  1
  V  V21  1  0.61065400  0.10778400  0.54965000  1
  V  V22  1  0.88934600  0.10778400  0.04965000  1
  V  V23  1  0.38934600  0.89221600  0.45035000  1
  V  V24  1  0.81195200  0.51152800  0.23296000  1
  V  V25  1  0.31195200  0.48847200  0.26704000  1
  V  V26  1  0.18804800  0.48847200  0.76704000  1
  V  V27  1  0.68804800  0.51152800  0.73296000  1
  V  V28  1  0.66866500  0.69768800  0.05058700  1
  V  V29  1  0.16866500  0.30231200  0.44941300  1
  V  V30  1  0.33133500  0.30231200  0.94941300  1
  V  V31  1  0.83133500  0.69768800  0.55058700  1
  O  O32  1  0.02446900  0.81218700  0.67798000  1
  O  O33  1  0.52446900  0.18781300  0.82202000  1
  O  O34  1  0.97553100  0.18781300  0.32202000  1
  O  O35  1  0.47553100  0.81218700  0.17798000  1
  O  O36  1  0.90108800  0.72610400  0.83716900  1
  O  O37  1  0.40108800  0.27389600  0.66283100  1
  O  O38  1  0.09891200  0.27389600  0.16283100  1
  O  O39  1  0.59891200  0.72610400  0.33716900  1
  O  O40  1  0.90142600  0.09657000  0.69949200  1
  O  O41  1  0.40142600  0.90343000  0.80050800  1
  O  O42  1  0.09857400  0.90343000  0.30050800  1
  O  O43  1  0.59857400  0.09657000  0.19949200  1
  O  O44  1  0.05673100  0.00304600  0.82709700  1
  O  O45  1  0.55673100  0.99695400  0.67290300  1
  O  O46  1  0.94326900  0.99695400  0.17290300  1
  O  O47  1  0.44326900  0.00304600  0.32709700  1
  O  O48  1  0.05525900  0.66881200  0.01543800  1
  O  O49  1  0.55525900  0.33118800  0.48456200  1
  O  O50  1  0.94474100  0.33118800  0.98456200  1
  O  O51  1  0.44474100  0.66881200  0.51543800  1
  O  O52  1  0.22191800  0.85263400  0.92289900  1
  O  O53  1  0.72191800  0.14736600  0.57710100  1
  O  O54  1  0.77808200  0.14736600  0.07710100  1
  O  O55  1  0.27808200  0.85263400  0.42289900  1
  O  O56  1  0.11091700  0.05021200  0.01632400  1
  O  O57  1  0.61091700  0.94978800  0.48367600  1
  O  O58  1  0.88908300  0.94978800  0.98367600  1
  O  O59  1  0.38908300  0.05021200  0.51632400  1
  O  O60  1  0.89047700  0.48814900  0.14652400  1
  O  O61  1  0.39047700  0.51185100  0.35347600  1
  O  O62  1  0.10952300  0.51185100  0.85347600  1
  O  O63  1  0.60952300  0.48814900  0.64652400  1
  O  O64  1  0.87497900  0.60300800  0.30944100  1
  O  O65  1  0.37497900  0.39699200  0.19055900  1
  O  O66  1  0.12502100  0.39699200  0.69055900  1
  O  O67  1  0.62502100  0.60300800  0.80944100  1
  O  O68  1  0.75565600  0.30398400  0.30260600  1
  O  O69  1  0.25565600  0.69601600  0.19739400  1
  O  O70  1  0.24434400  0.69601600  0.69739400  1
  O  O71  1  0.74434400  0.30398400  0.80260600  1
  O  O72  1  0.72244400  0.68832100  0.17036900  1
  O  O73  1  0.22244400  0.31167900  0.32963100  1
  O  O74  1  0.27755600  0.31167900  0.82963100  1
  O  O75  1  0.77755600  0.68832100  0.67036900  1
  O  O76  1  0.74727900  0.61321400  0.98331400  1
  O  O77  1  0.24727900  0.38678600  0.51668600  1
  O  O78  1  0.25272100  0.38678600  0.01668600  1
  O  O79  1  0.75272100  0.61321400  0.48331400  1
  O  O80  1  0.57360300  0.54397900  0.07711200  1
  O  O81  1  0.07360300  0.45602100  0.42288800  1
  O  O82  1  0.42639700  0.45602100  0.92288800  1
  O  O83  1  0.92639700  0.54397900  0.57711200  1
  O  O84  1  0.63331000  0.91832000  0.97712700  1
  O  O85  1  0.13331000  0.08168000  0.52287300  1
  O  O86  1  0.36669000  0.08168000  0.02287300  1
  O  O87  1  0.86669000  0.91832000  0.47712700  1
