# generated using pymatgen
data_BaFePHO5
_symmetry_space_group_name_H-M   'P 1'
_cell_length_a   5.10546100
_cell_length_b   8.95122800
_cell_length_c   10.08688600
_cell_angle_alpha   90.00000000
_cell_angle_beta   90.00000000
_cell_angle_gamma   90.00000000
_symmetry_Int_Tables_number   1
_chemical_formula_structural   BaFePHO5
_chemical_formula_sum   'Ba4 Fe4 P4 H4 O20'
_cell_volume   460.97215740
_cell_formula_units_Z   4
loop_
 _symmetry_equiv_pos_site_id
 _symmetry_equiv_pos_as_xyz
  1  'x, y, z'
loop_
 _atom_site_type_symbol
 _atom_site_label
 _atom_site_symmetry_multiplicity
 _atom_site_fract_x
 _atom_site_fract_y
 _atom_site_fract_z
 _atom_site_occupancy
  Ba  Ba0  1  0.96467900  0.26636500  0.71849000  1
  Ba  Ba1  1  0.46467900  0.23363500  0.28151000  1
  Ba  Ba2  1  0.53532100  0.73363500  0.21849000  1
  Ba  Ba3  1  0.03532100  0.76636500  0.78151000  1
  Fe  Fe4  1  0.97250000  0.03551000  0.07769700  1
  Fe  Fe5  1  0.47250000  0.46449000  0.92230300  1
  Fe  Fe6  1  0.52750000  0.96449000  0.57769700  1
  Fe  Fe7  1  0.02750000  0.53551000  0.42230300  1
  P  P8  1  0.47746600  0.07846400  0.90409200  1
  P  P9  1  0.97746600  0.42153600  0.09590800  1
  P  P10  1  0.02253400  0.92153600  0.40409200  1
  P  P11  1  0.52253400  0.57846400  0.59590800  1
  H  H12  1  0.35985300  0.23973100  0.54096700  1
  H  H13  1  0.85985300  0.26026900  0.45903300  1
  H  H14  1  0.14014700  0.76026900  0.04096700  1
  H  H15  1  0.64014700  0.73973100  0.95903300  1
  O  O16  1  0.04219600  0.25304200  0.12030600  1
  O  O17  1  0.54219600  0.24695800  0.87969400  1
  O  O18  1  0.45780400  0.74695800  0.62030600  1
  O  O19  1  0.95780400  0.75304200  0.37969400  1
  O  O20  1  0.55437200  0.03615500  0.04970600  1
  O  O21  1  0.05437200  0.46384500  0.95029400  1
  O  O22  1  0.94562800  0.96384500  0.54970600  1
  O  O23  1  0.44562800  0.53615500  0.45029400  1
  O  O24  1  0.17661200  0.05408700  0.88724100  1
  O  O25  1  0.67661200  0.44591300  0.11275900  1
  O  O26  1  0.32338800  0.94591300  0.38724100  1
  O  O27  1  0.82338800  0.55408700  0.61275900  1
  O  O28  1  0.87104600  0.01380800  0.29905900  1
  O  O29  1  0.37104600  0.48619200  0.70094100  1
  O  O30  1  0.62895400  0.98619200  0.79905900  1
  O  O31  1  0.12895400  0.51380800  0.20094100  1
  O  O32  1  0.52433500  0.18687000  0.55864000  1
  O  O33  1  0.02433500  0.31313000  0.44136000  1
  O  O34  1  0.97566500  0.81313000  0.05864000  1
  O  O35  1  0.47566500  0.68687000  0.94136000  1
