# generated using pymatgen
data_CdCoAsHO5
_symmetry_space_group_name_H-M   'P 1'
_cell_length_a   6.23067200
_cell_length_b   7.66097100
_cell_length_c   8.82254000
_cell_angle_alpha   90.00000000
_cell_angle_beta   90.00000000
_cell_angle_gamma   90.00000000
_symmetry_Int_Tables_number   1
_chemical_formula_structural   CdCoAsHO5
_chemical_formula_sum   'Cd4 Co4 As4 H4 O20'
_cell_volume   421.12627979
_cell_formula_units_Z   4
loop_
 _symmetry_equiv_pos_site_id
 _symmetry_equiv_pos_as_xyz
  1  'x, y, z'
loop_
 _atom_site_type_symbol
 _atom_site_label
 _atom_site_symmetry_multiplicity
 _atom_site_fract_x
 _atom_site_fract_y
 _atom_site_fract_z
 _atom_site_occupancy
  Cd  Cd0  1  0.25000000  0.63088600  0.32673300  1
  Cd  Cd1  1  0.25000000  0.13088600  0.17326700  1
  Cd  Cd2  1  0.75000000  0.36911400  0.67326700  1
  Cd  Cd3  1  0.75000000  0.86911400  0.82673300  1
  Co  Co4  1  0.50000000  0.50000000  0.00000000  1
  Co  Co5  1  0.00000000  0.00000000  0.50000000  1
  Co  Co6  1  0.00000000  0.50000000  0.00000000  1
  Co  Co7  1  0.50000000  0.00000000  0.50000000  1
  As  As8  1  0.25000000  0.62930000  0.67333200  1
  As  As9  1  0.25000000  0.12930000  0.82666800  1
  As  As10  1  0.75000000  0.37070000  0.32666800  1
  As  As11  1  0.75000000  0.87070000  0.17333200  1
  H  H12  1  0.25000000  0.75945700  0.03991800  1
  H  H13  1  0.25000000  0.25945700  0.46008200  1
  H  H14  1  0.75000000  0.24054300  0.96008200  1
  H  H15  1  0.75000000  0.74054300  0.53991800  1
  O  O16  1  0.51784800  0.37934600  0.21852800  1
  O  O17  1  0.98215200  0.87934600  0.28147200  1
  O  O18  1  0.01784800  0.62065400  0.78147200  1
  O  O19  1  0.48215200  0.12065400  0.71852800  1
  O  O20  1  0.48215200  0.62065400  0.78147200  1
  O  O21  1  0.01784800  0.12065400  0.71852800  1
  O  O22  1  0.98215200  0.37934600  0.21852800  1
  O  O23  1  0.51784800  0.87934600  0.28147200  1
  O  O24  1  0.25000000  0.46655100  0.53805300  1
  O  O25  1  0.25000000  0.96655100  0.96194700  1
  O  O26  1  0.75000000  0.53344900  0.46194700  1
  O  O27  1  0.75000000  0.03344900  0.03805300  1
  O  O28  1  0.25000000  0.81485400  0.55709200  1
  O  O29  1  0.25000000  0.31485400  0.94290800  1
  O  O30  1  0.75000000  0.18514600  0.44290800  1
  O  O31  1  0.75000000  0.68514600  0.05709200  1
  O  O32  1  0.25000000  0.63828100  0.08006900  1
  O  O33  1  0.25000000  0.13828100  0.41993100  1
  O  O34  1  0.75000000  0.36171900  0.91993100  1
  O  O35  1  0.75000000  0.86171900  0.58006900  1
