# generated using pymatgen
data_Ti2VHO6
_symmetry_space_group_name_H-M   'P 1'
_cell_length_a   4.63116600
_cell_length_b   8.65422800
_cell_length_c   10.10264445
_cell_angle_alpha   87.12436385
_cell_angle_beta   90.00000000
_cell_angle_gamma   90.00000000
_symmetry_Int_Tables_number   1
_chemical_formula_structural   Ti2VHO6
_chemical_formula_sum   'Ti8 V4 H4 O24'
_cell_volume   404.39570358
_cell_formula_units_Z   4
loop_
 _symmetry_equiv_pos_site_id
 _symmetry_equiv_pos_as_xyz
  1  'x, y, z'
loop_
 _atom_site_type_symbol
 _atom_site_label
 _atom_site_symmetry_multiplicity
 _atom_site_fract_x
 _atom_site_fract_y
 _atom_site_fract_z
 _atom_site_occupancy
  Ti  Ti0  1  0.99999500  0.90413700  0.88016900  1
  Ti  Ti1  1  0.49999500  0.09586300  0.61983100  1
  Ti  Ti2  1  0.00000500  0.09586300  0.11983100  1
  Ti  Ti3  1  0.50000500  0.90413700  0.38016900  1
  Ti  Ti4  1  0.97527700  0.77544800  0.62076900  1
  Ti  Ti5  1  0.47527700  0.22455200  0.87923100  1
  Ti  Ti6  1  0.02472300  0.22455200  0.37923100  1
  Ti  Ti7  1  0.52472300  0.77544800  0.12076900  1
  V  V8  1  0.00875900  0.59143700  0.35129800  1
  V  V9  1  0.50875900  0.40856300  0.14870200  1
  V  V10  1  0.99124100  0.40856300  0.64870200  1
  V  V11  1  0.49124100  0.59143700  0.85129800  1
  H  H12  1  0.57638900  0.40609300  0.44449200  1
  H  H13  1  0.07638900  0.59390700  0.05550800  1
  H  H14  1  0.42361100  0.59390700  0.55550800  1
  H  H15  1  0.92361100  0.40609300  0.94449200  1
  O  O16  1  0.78027200  0.92598400  0.70400000  1
  O  O17  1  0.28027200  0.07401600  0.79600000  1
  O  O18  1  0.21972800  0.07401600  0.29600000  1
  O  O19  1  0.71972800  0.92598400  0.20400000  1
  O  O20  1  0.20373300  0.75687600  0.78603600  1
  O  O21  1  0.70373300  0.24312400  0.71396400  1
  O  O22  1  0.79626700  0.24312400  0.21396400  1
  O  O23  1  0.29626700  0.75687600  0.28603600  1
  O  O24  1  0.79017600  0.09033100  0.95859700  1
  O  O25  1  0.29017600  0.90966900  0.54140300  1
  O  O26  1  0.20982400  0.90966900  0.04140300  1
  O  O27  1  0.70982400  0.09033100  0.45859700  1
  O  O28  1  0.28705300  0.23907000  0.05046300  1
  O  O29  1  0.78705300  0.76093000  0.44953700  1
  O  O30  1  0.71294700  0.76093000  0.94953700  1
  O  O31  1  0.21294700  0.23907000  0.55046300  1
  O  O32  1  0.78517700  0.41571300  0.45793800  1
  O  O33  1  0.28517700  0.58428700  0.04206200  1
  O  O34  1  0.21482300  0.58428700  0.54206200  1
  O  O35  1  0.71482300  0.41571300  0.95793800  1
  O  O36  1  0.74842600  0.59178000  0.19668900  1
  O  O37  1  0.24842600  0.40822000  0.30331100  1
  O  O38  1  0.25157400  0.40822000  0.80331100  1
  O  O39  1  0.75157400  0.59178000  0.69668900  1
