# generated using pymatgen
data_H10IrC2(ClO)3
_symmetry_space_group_name_H-M   'P 1'
_cell_length_a   7.38763078
_cell_length_b   7.53908890
_cell_length_c   8.92358230
_cell_angle_alpha   73.08148978
_cell_angle_beta   74.58086437
_cell_angle_gamma   88.78038559
_symmetry_Int_Tables_number   1
_chemical_formula_structural   H10IrC2(ClO)3
_chemical_formula_sum   'H20 Ir2 C4 Cl6 O6'
_cell_volume   457.53401781
_cell_formula_units_Z   2
loop_
 _symmetry_equiv_pos_site_id
 _symmetry_equiv_pos_as_xyz
  1  'x, y, z'
loop_
 _atom_site_type_symbol
 _atom_site_label
 _atom_site_symmetry_multiplicity
 _atom_site_fract_x
 _atom_site_fract_y
 _atom_site_fract_z
 _atom_site_occupancy
  H  H0  1  0.00186700  0.37511100  0.25390500  1
  H  H1  1  0.99813300  0.62488900  0.74609500  1
  H  H2  1  0.66048000  0.25390500  0.29744100  1
  H  H3  1  0.33952000  0.74609500  0.70255900  1
  H  H4  1  0.74599200  0.38095900  0.46968800  1
  H  H5  1  0.25400800  0.61904100  0.53031200  1
  H  H6  1  0.81283800  0.17548700  0.49540200  1
  H  H7  1  0.18716200  0.82451300  0.50459800  1
  H  H8  1  0.07037600  0.66641000  0.27876100  1
  H  H9  1  0.92962400  0.33359000  0.72123900  1
  H  H10  1  0.17405800  0.73714500  0.06246100  1
  H  H11  1  0.82594200  0.26285500  0.93753900  1
  H  H12  1  0.92681000  0.67322200  0.14194400  1
  H  H13  1  0.07319000  0.32677800  0.85805600  1
  H  H14  1  0.54115300  0.94187200  0.32416800  1
  H  H15  1  0.45884700  0.05812800  0.67583200  1
  H  H16  1  0.61283800  0.01579000  0.10589300  1
  H  H17  1  0.38716200  0.98421000  0.89410700  1
  H  H18  1  0.78493300  0.00757800  0.21795400  1
  H  H19  1  0.21506700  0.99242200  0.78204600  1
  Ir  Ir20  1  0.35993100  0.34662400  0.18816900  1
  Ir  Ir21  1  0.64006900  0.65337600  0.81183100  1
  C  C22  1  0.06629300  0.64709200  0.16271000  1
  C  C23  1  0.93370700  0.35290800  0.83729000  1
  C  C24  1  0.63871100  0.03483100  0.21579800  1
  C  C25  1  0.36128900  0.96516900  0.78420200  1
  Cl  Cl26  1  0.18594500  0.06067500  0.26409900  1
  Cl  Cl27  1  0.81405500  0.93932500  0.73590100  1
  Cl  Cl28  1  0.28142200  0.35178000  0.45905600  1
  Cl  Cl29  1  0.71857800  0.64822000  0.54094400  1
  Cl  Cl30  1  0.54285800  0.63520400  0.09435700  1
  Cl  Cl31  1  0.45714200  0.36479600  0.90564300  1
  O  O32  1  0.10365300  0.45621200  0.16261800  1
  O  O33  1  0.89634700  0.54378800  0.83738200  1
  O  O34  1  0.61330200  0.22842500  0.20876300  1
  O  O35  1  0.38669800  0.77157500  0.79123700  1
  O  O36  1  0.79182600  0.28751600  0.41211800  1
  O  O37  1  0.20817400  0.71248400  0.58788200  1
