# generated using pymatgen
data_Mn2TeSO8
_symmetry_space_group_name_H-M   'P 1'
_cell_length_a   7.39018200
_cell_length_b   8.60449100
_cell_length_c   9.92692600
_cell_angle_alpha   90.00000000
_cell_angle_beta   90.00000000
_cell_angle_gamma   90.00000000
_symmetry_Int_Tables_number   1
_chemical_formula_structural   Mn2TeSO8
_chemical_formula_sum   'Mn8 Te4 S4 O32'
_cell_volume   631.24086043
_cell_formula_units_Z   4
loop_
 _symmetry_equiv_pos_site_id
 _symmetry_equiv_pos_as_xyz
  1  'x, y, z'
loop_
 _atom_site_type_symbol
 _atom_site_label
 _atom_site_symmetry_multiplicity
 _atom_site_fract_x
 _atom_site_fract_y
 _atom_site_fract_z
 _atom_site_occupancy
  Mn  Mn0  1  0.31907800  0.05001500  0.08714700  1
  Mn  Mn1  1  0.68092200  0.55001500  0.91285300  1
  Mn  Mn2  1  0.31907800  0.94998500  0.41285300  1
  Mn  Mn3  1  0.68092200  0.44998500  0.58714700  1
  Mn  Mn4  1  0.68092200  0.94998500  0.91285300  1
  Mn  Mn5  1  0.31907800  0.44998500  0.08714700  1
  Mn  Mn6  1  0.68092200  0.05001500  0.58714700  1
  Mn  Mn7  1  0.31907800  0.55001500  0.41285300  1
  Te  Te8  1  0.64757600  0.25000000  0.28119000  1
  Te  Te9  1  0.35242400  0.75000000  0.71881000  1
  Te  Te10  1  0.64757600  0.75000000  0.21881000  1
  Te  Te11  1  0.35242400  0.25000000  0.78119000  1
  S  S12  1  0.94568900  0.25000000  0.96908300  1
  S  S13  1  0.05431100  0.75000000  0.03091700  1
  S  S14  1  0.94568900  0.75000000  0.53091700  1
  S  S15  1  0.05431100  0.25000000  0.46908300  1
  O  O16  1  0.12631700  0.25000000  0.04240600  1
  O  O17  1  0.87368300  0.75000000  0.95759400  1
  O  O18  1  0.12631700  0.75000000  0.45759400  1
  O  O19  1  0.87368300  0.25000000  0.54240600  1
  O  O20  1  0.44311600  0.25000000  0.16301500  1
  O  O21  1  0.55688400  0.75000000  0.83698500  1
  O  O22  1  0.44311600  0.75000000  0.33698500  1
  O  O23  1  0.55688400  0.25000000  0.66301500  1
  O  O24  1  0.98134600  0.25000000  0.82563600  1
  O  O25  1  0.01865400  0.75000000  0.17436400  1
  O  O26  1  0.98134600  0.75000000  0.67436400  1
  O  O27  1  0.01865400  0.25000000  0.32563600  1
  O  O28  1  0.22272000  0.00000000  0.25000000  1
  O  O29  1  0.77728000  0.50000000  0.75000000  1
  O  O30  1  0.77728000  0.00000000  0.75000000  1
  O  O31  1  0.22272000  0.50000000  0.25000000  1
  O  O32  1  0.56819600  0.08492600  0.39801900  1
  O  O33  1  0.43180400  0.58492600  0.60198100  1
  O  O34  1  0.56819600  0.91507400  0.10198100  1
  O  O35  1  0.43180400  0.41507400  0.89801900  1
  O  O36  1  0.43180400  0.91507400  0.60198100  1
  O  O37  1  0.56819600  0.41507400  0.39801900  1
  O  O38  1  0.43180400  0.08492600  0.89801900  1
  O  O39  1  0.56819600  0.58492600  0.10198100  1
  O  O40  1  0.15824900  0.88971100  0.98343200  1
  O  O41  1  0.84175100  0.38971100  0.01656800  1
  O  O42  1  0.15824900  0.11028900  0.51656800  1
  O  O43  1  0.84175100  0.61028900  0.48343200  1
  O  O44  1  0.84175100  0.11028900  0.01656800  1
  O  O45  1  0.15824900  0.61028900  0.98343200  1
  O  O46  1  0.84175100  0.88971100  0.48343200  1
  O  O47  1  0.15824900  0.38971100  0.51656800  1
