# generated using pymatgen
data_Cu3Sn
_symmetry_space_group_name_H-M   'P 1'
_cell_length_a   24.06793480
_cell_length_b   24.06793480
_cell_length_c   4.33293300
_cell_angle_alpha   90.00000000
_cell_angle_beta   90.00000000
_cell_angle_gamma   166.54471838
_symmetry_Int_Tables_number   1
_chemical_formula_structural   Cu3Sn
_chemical_formula_sum   'Cu30 Sn10'
_cell_volume   584.02384530
_cell_formula_units_Z   10
loop_
 _symmetry_equiv_pos_site_id
 _symmetry_equiv_pos_as_xyz
  1  'x, y, z'
loop_
 _atom_site_type_symbol
 _atom_site_label
 _atom_site_symmetry_multiplicity
 _atom_site_fract_x
 _atom_site_fract_y
 _atom_site_fract_z
 _atom_site_occupancy
  Cu  Cu0  1  0.93039600  0.06960400  0.25000000  1
  Cu  Cu1  1  0.06960400  0.93039600  0.75000000  1
  Cu  Cu2  1  0.82970100  0.17029900  0.25000000  1
  Cu  Cu3  1  0.17029900  0.82970100  0.75000000  1
  Cu  Cu4  1  0.72947800  0.27052200  0.25000000  1
  Cu  Cu5  1  0.27052200  0.72947800  0.75000000  1
  Cu  Cu6  1  0.62919800  0.37080200  0.25000000  1
  Cu  Cu7  1  0.37080200  0.62919800  0.75000000  1
  Cu  Cu8  1  0.53018200  0.46981800  0.25000000  1
  Cu  Cu9  1  0.46981800  0.53018200  0.75000000  1
  Cu  Cu10  1  0.72218900  0.75336400  0.25000000  1
  Cu  Cu11  1  0.75336400  0.72218900  0.75000000  1
  Cu  Cu12  1  0.27781100  0.24663600  0.75000000  1
  Cu  Cu13  1  0.24663600  0.27781100  0.25000000  1
  Cu  Cu14  1  0.63343800  0.86423800  0.25000000  1
  Cu  Cu15  1  0.86423800  0.63343800  0.75000000  1
  Cu  Cu16  1  0.36656200  0.13576200  0.75000000  1
  Cu  Cu17  1  0.13576200  0.36656200  0.25000000  1
  Cu  Cu18  1  0.53126100  0.96207400  0.25000000  1
  Cu  Cu19  1  0.96207400  0.53126100  0.75000000  1
  Cu  Cu20  1  0.46873900  0.03792600  0.75000000  1
  Cu  Cu21  1  0.03792600  0.46873900  0.25000000  1
  Cu  Cu22  1  0.43060600  0.06158000  0.25000000  1
  Cu  Cu23  1  0.06158000  0.43060600  0.75000000  1
  Cu  Cu24  1  0.56939400  0.93842000  0.75000000  1
  Cu  Cu25  1  0.93842000  0.56939400  0.25000000  1
  Cu  Cu26  1  0.32807700  0.15937400  0.25000000  1
  Cu  Cu27  1  0.15937400  0.32807700  0.75000000  1
  Cu  Cu28  1  0.67192300  0.84062600  0.75000000  1
  Cu  Cu29  1  0.84062600  0.67192300  0.25000000  1
  Sn  Sn30  1  0.03413400  0.96586600  0.25000000  1
  Sn  Sn31  1  0.96586600  0.03413400  0.75000000  1
  Sn  Sn32  1  0.13453900  0.86546100  0.25000000  1
  Sn  Sn33  1  0.86546100  0.13453900  0.75000000  1
  Sn  Sn34  1  0.23452200  0.76547800  0.25000000  1
  Sn  Sn35  1  0.76547800  0.23452200  0.75000000  1
  Sn  Sn36  1  0.33453000  0.66547000  0.25000000  1
  Sn  Sn37  1  0.66547000  0.33453000  0.75000000  1
  Sn  Sn38  1  0.43380800  0.56619200  0.25000000  1
  Sn  Sn39  1  0.56619200  0.43380800  0.75000000  1
