# generated using pymatgen
data_Ca2S2O9
_symmetry_space_group_name_H-M   'P 1'
_cell_length_a   7.03937202
_cell_length_b   7.03937202
_cell_length_c   12.75484900
_cell_angle_alpha   90.00000000
_cell_angle_beta   90.00000000
_cell_angle_gamma   120.00000017
_symmetry_Int_Tables_number   1
_chemical_formula_structural   Ca2S2O9
_chemical_formula_sum   'Ca6 S6 O27'
_cell_volume   547.36092086
_cell_formula_units_Z   3
loop_
 _symmetry_equiv_pos_site_id
 _symmetry_equiv_pos_as_xyz
  1  'x, y, z'
loop_
 _atom_site_type_symbol
 _atom_site_label
 _atom_site_symmetry_multiplicity
 _atom_site_fract_x
 _atom_site_fract_y
 _atom_site_fract_z
 _atom_site_occupancy
  Ca  Ca0  1  0.99947400  0.47511300  0.66997500  1
  Ca  Ca1  1  0.47564000  0.00052600  0.00330800  1
  Ca  Ca2  1  0.52488700  0.52436000  0.33664100  1
  Ca  Ca3  1  0.99389700  0.45968800  0.16913600  1
  Ca  Ca4  1  0.46579100  0.00610300  0.50246900  1
  Ca  Ca5  1  0.54031200  0.53420900  0.83580200  1
  S  S6  1  0.45861000  0.99274900  0.25331900  1
  S  S7  1  0.53413900  0.54139000  0.58665200  1
  S  S8  1  0.00725100  0.46586100  0.91998500  1
  S  S9  1  0.46780800  0.00331000  0.75266600  1
  S  S10  1  0.99669000  0.46449800  0.41933300  1
  S  S11  1  0.53550200  0.53219200  0.08599900  1
  O  O12  1  0.40913800  0.13380400  0.32306500  1
  O  O13  1  0.72466700  0.59086200  0.65639900  1
  O  O14  1  0.86619600  0.27533300  0.98973200  1
  O  O15  1  0.27805900  0.85279900  0.68679500  1
  O  O16  1  0.14720100  0.42526000  0.35346200  1
  O  O17  1  0.57474000  0.72194100  0.02012900  1
  O  O18  1  0.52500500  0.86773800  0.32422800  1
  O  O19  1  0.34273300  0.47499500  0.65756100  1
  O  O20  1  0.13226200  0.65726700  0.99089400  1
  O  O21  1  0.64748800  0.14450100  0.67893100  1
  O  O22  1  0.85549900  0.50298700  0.34559800  1
  O  O23  1  0.49701300  0.35251200  0.01226500  1
  O  O24  1  0.26640200  0.84619500  0.18773700  1
  O  O25  1  0.57979200  0.73359800  0.52107000  1
  O  O26  1  0.15380500  0.42020800  0.85440300  1
  O  O27  1  0.41106200  0.13378800  0.82468500  1
  O  O28  1  0.86621200  0.27727500  0.49135200  1
  O  O29  1  0.72272500  0.58893800  0.15801900  1
  O  O30  1  0.63951700  0.13082700  0.17925300  1
  O  O31  1  0.49131000  0.36048300  0.51258700  1
  O  O32  1  0.86917300  0.50869000  0.84592000  1
  O  O33  1  0.53929900  0.87861000  0.82274400  1
  O  O34  1  0.12139000  0.66068900  0.48941000  1
  O  O35  1  0.33931100  0.46070100  0.15607700  1
  O  O36  1  0.03250900  0.11342700  0.12736500  1
  O  O37  1  0.08091800  0.96749100  0.46069900  1
  O  O38  1  0.88657300  0.91908200  0.79403200  1
