# generated using pymatgen
data_LaH3CSO7
_symmetry_space_group_name_H-M   'P 1'
_cell_length_a   7.10129600
_cell_length_b   7.10129600
_cell_length_c   12.04233600
_cell_angle_alpha   90.00000000
_cell_angle_beta   90.00000000
_cell_angle_gamma   90.00000000
_symmetry_Int_Tables_number   1
_chemical_formula_structural   LaH3CSO7
_chemical_formula_sum   'La4 H12 C4 S4 O28'
_cell_volume   607.27579550
_cell_formula_units_Z   4
loop_
 _symmetry_equiv_pos_site_id
 _symmetry_equiv_pos_as_xyz
  1  'x, y, z'
loop_
 _atom_site_type_symbol
 _atom_site_label
 _atom_site_symmetry_multiplicity
 _atom_site_fract_x
 _atom_site_fract_y
 _atom_site_fract_z
 _atom_site_occupancy
  La  La0  1  0.10646600  0.63927000  0.90766200  1
  La  La1  1  0.89353400  0.36073000  0.40766200  1
  La  La2  1  0.63927000  0.89353400  0.65766200  1
  La  La3  1  0.36073000  0.10646600  0.15766200  1
  H  H4  1  0.01872800  0.15641100  0.86661200  1
  H  H5  1  0.98127200  0.84358900  0.36661200  1
  H  H6  1  0.15641100  0.98127200  0.61661200  1
  H  H7  1  0.84358900  0.01872800  0.11661200  1
  H  H8  1  0.17301200  0.40627900  0.68686800  1
  H  H9  1  0.82698800  0.59372100  0.18686800  1
  H  H10  1  0.40627900  0.82698800  0.43686800  1
  H  H11  1  0.59372100  0.17301200  0.93686800  1
  H  H12  1  0.37713200  0.45475300  0.73007700  1
  H  H13  1  0.62286800  0.54524700  0.23007700  1
  H  H14  1  0.45475300  0.62286800  0.48007700  1
  H  H15  1  0.54524700  0.37713200  0.98007700  1
  C  C16  1  0.09993200  0.15090400  0.94449200  1
  C  C17  1  0.90006800  0.84909600  0.44449200  1
  C  C18  1  0.15090400  0.90006800  0.69449200  1
  C  C19  1  0.84909600  0.09993200  0.19449200  1
  S  S20  1  0.75325300  0.38769500  0.71235400  1
  S  S21  1  0.24674700  0.61230500  0.21235400  1
  S  S22  1  0.38769500  0.24674700  0.46235400  1
  S  S23  1  0.61230500  0.75325300  0.96235400  1
  O  O24  1  0.86860700  0.33911100  0.61330800  1
  O  O25  1  0.13139300  0.66088900  0.11330800  1
  O  O26  1  0.33911100  0.13139300  0.36330800  1
  O  O27  1  0.66088900  0.86860700  0.86330800  1
  O  O28  1  0.61303400  0.53750800  0.68377200  1
  O  O29  1  0.38696600  0.46249200  0.18377200  1
  O  O30  1  0.53750800  0.38696600  0.43377200  1
  O  O31  1  0.46249200  0.61303400  0.93377200  1
  O  O32  1  0.87754900  0.45669600  0.80196700  1
  O  O33  1  0.12245100  0.54330400  0.30196700  1
  O  O34  1  0.45669600  0.12245100  0.55196700  1
  O  O35  1  0.54330400  0.87754900  0.05196700  1
  O  O36  1  0.65373300  0.21611000  0.75165300  1
  O  O37  1  0.34626700  0.78389000  0.25165300  1
  O  O38  1  0.21611000  0.34626700  0.50165300  1
  O  O39  1  0.78389000  0.65373300  0.00165300  1
  O  O40  1  0.14094100  0.30364300  0.99359100  1
  O  O41  1  0.85905900  0.69635700  0.49359100  1
  O  O42  1  0.30364300  0.85905900  0.74359100  1
  O  O43  1  0.69635700  0.14094100  0.24359100  1
  O  O44  1  0.14817700  0.99035800  0.98324200  1
  O  O45  1  0.85182300  0.00964200  0.48324200  1
  O  O46  1  0.99035800  0.85182300  0.73324200  1
  O  O47  1  0.00964200  0.14817700  0.23324200  1
  O  O48  1  0.24481200  0.44051100  0.75307900  1
  O  O49  1  0.75518800  0.55948900  0.25307900  1
  O  O50  1  0.44051100  0.75518800  0.50307900  1
  O  O51  1  0.55948900  0.24481200  0.00307900  1
