# generated using pymatgen
data_K2ZrSi3O10
_symmetry_space_group_name_H-M   'P 1'
_cell_length_a   7.27656400
_cell_length_b   10.41304500
_cell_length_c   13.52081600
_cell_angle_alpha   90.00000000
_cell_angle_beta   90.00000000
_cell_angle_gamma   90.00000000
_symmetry_Int_Tables_number   1
_chemical_formula_structural   K2ZrSi3O10
_chemical_formula_sum   'K8 Zr4 Si12 O40'
_cell_volume   1024.48829615
_cell_formula_units_Z   4
loop_
 _symmetry_equiv_pos_site_id
 _symmetry_equiv_pos_as_xyz
  1  'x, y, z'
loop_
 _atom_site_type_symbol
 _atom_site_label
 _atom_site_symmetry_multiplicity
 _atom_site_fract_x
 _atom_site_fract_y
 _atom_site_fract_z
 _atom_site_occupancy
  K  K0  1  0.34358700  0.77435300  0.13462700  1
  K  K1  1  0.84358700  0.72564700  0.86537300  1
  K  K2  1  0.65641300  0.27435300  0.36537300  1
  K  K3  1  0.15641300  0.22564700  0.63462700  1
  K  K4  1  0.77564300  0.57346700  0.58192800  1
  K  K5  1  0.27564300  0.92653300  0.41807200  1
  K  K6  1  0.22435700  0.07346700  0.91807200  1
  K  K7  1  0.72435700  0.42653300  0.08192800  1
  Zr  Zr8  1  0.24139100  0.55372500  0.70704100  1
  Zr  Zr9  1  0.74139100  0.94627500  0.29295900  1
  Zr  Zr10  1  0.75860900  0.05372500  0.79295900  1
  Zr  Zr11  1  0.25860900  0.44627500  0.20704100  1
  Si  Si12  1  0.49270100  0.82801200  0.67465300  1
  Si  Si13  1  0.99270100  0.67198800  0.32534700  1
  Si  Si14  1  0.50729900  0.32801200  0.82534700  1
  Si  Si15  1  0.00729900  0.17198800  0.17465300  1
  Si  Si16  1  0.76691900  0.97202400  0.55062400  1
  Si  Si17  1  0.26691900  0.52797600  0.44937600  1
  Si  Si18  1  0.23308100  0.47202400  0.94937600  1
  Si  Si19  1  0.73308100  0.02797600  0.05062400  1
  Si  Si20  1  0.92043400  0.36395300  0.83318700  1
  Si  Si21  1  0.42043400  0.13604700  0.16681300  1
  Si  Si22  1  0.07956600  0.86395300  0.66681300  1
  Si  Si23  1  0.57956600  0.63604700  0.33318700  1
  O  O24  1  0.25277300  0.58487000  0.86536700  1
  O  O25  1  0.75277300  0.91513000  0.13463300  1
  O  O26  1  0.74722700  0.08487000  0.63463300  1
  O  O27  1  0.24722700  0.41513000  0.36536700  1
  O  O28  1  0.46304300  0.67455000  0.68507300  1
  O  O29  1  0.96304300  0.82545000  0.31492700  1
  O  O30  1  0.53695700  0.17455000  0.81492700  1
  O  O31  1  0.03695700  0.32545000  0.18507300  1
  O  O32  1  0.22380900  0.48502900  0.56144500  1
  O  O33  1  0.72380900  0.01497100  0.43855500  1
  O  O34  1  0.77619100  0.98502900  0.93855500  1
  O  O35  1  0.27619100  0.51497100  0.06144500  1
  O  O36  1  0.00247300  0.44380400  0.73983800  1
  O  O37  1  0.50247300  0.05619600  0.26016200  1
  O  O38  1  0.99752700  0.94380400  0.76016200  1
  O  O39  1  0.49752700  0.55619600  0.23983800  1
  O  O40  1  0.41130000  0.39040300  0.72806100  1
  O  O41  1  0.91130000  0.10959700  0.27193900  1
  O  O42  1  0.58870000  0.89040300  0.77193900  1
  O  O43  1  0.08870000  0.60959700  0.22806100  1
  O  O44  1  0.05818100  0.70995500  0.68386700  1
  O  O45  1  0.55818100  0.79004500  0.31613300  1
  O  O46  1  0.94181900  0.20995500  0.81613300  1
  O  O47  1  0.44181900  0.29004500  0.18386700  1
  O  O48  1  0.29758500  0.90252900  0.64733500  1
  O  O49  1  0.79758500  0.59747100  0.35266500  1
  O  O50  1  0.70241500  0.40252900  0.85266500  1
  O  O51  1  0.20241500  0.09747100  0.14733500  1
  O  O52  1  0.97948200  0.91256500  0.56216500  1
  O  O53  1  0.47948200  0.58743500  0.43783500  1
  O  O54  1  0.02051800  0.41256500  0.93783500  1
  O  O55  1  0.52051800  0.08743500  0.06216500  1
  O  O56  1  0.62759700  0.85051200  0.57759800  1
  O  O57  1  0.12759700  0.64948800  0.42240200  1
  O  O58  1  0.37240300  0.35051200  0.92240200  1
  O  O59  1  0.87240300  0.14948800  0.07759800  1
  O  O60  1  0.63275800  0.29377900  0.58064100  1
  O  O61  1  0.13275800  0.20622100  0.41935900  1
  O  O62  1  0.36724200  0.79377900  0.91935900  1
  O  O63  1  0.86724200  0.70622100  0.08064100  1
