# generated using pymatgen
data_TaP2H27C9Cl2
_symmetry_space_group_name_H-M   'P 1'
_cell_length_a   14.34815083
_cell_length_b   14.34815083
_cell_length_c   14.77738817
_cell_angle_alpha   82.48247230
_cell_angle_beta   82.48247230
_cell_angle_gamma   39.74543177
_symmetry_Int_Tables_number   1
_chemical_formula_structural   TaP2H27C9Cl2
_chemical_formula_sum   'Ta4 P8 H108 C36 Cl8'
_cell_volume   1926.20927265
_cell_formula_units_Z   4
loop_
 _symmetry_equiv_pos_site_id
 _symmetry_equiv_pos_as_xyz
  1  'x, y, z'
loop_
 _atom_site_type_symbol
 _atom_site_label
 _atom_site_symmetry_multiplicity
 _atom_site_fract_x
 _atom_site_fract_y
 _atom_site_fract_z
 _atom_site_occupancy
  Ta  Ta0  1  0.59340400  0.18332700  0.58675800  1
  Ta  Ta1  1  0.81667300  0.40659600  0.91324200  1
  Ta  Ta2  1  0.40659600  0.81667300  0.41324200  1
  Ta  Ta3  1  0.18332700  0.59340400  0.08675800  1
  P  P4  1  0.84692600  0.94386400  0.67069000  1
  P  P5  1  0.05613600  0.15307400  0.82931000  1
  P  P6  1  0.15307400  0.05613600  0.32931000  1
  P  P7  1  0.94386400  0.84692600  0.17069000  1
  P  P8  1  0.35337600  0.30448500  0.50502600  1
  P  P9  1  0.69551500  0.64662400  0.99497400  1
  P  P10  1  0.64662400  0.69551500  0.49497400  1
  P  P11  1  0.30448500  0.35337600  0.00502600  1
  H  H12  1  0.43283700  0.38933200  0.71482800  1
  H  H13  1  0.61066800  0.56716300  0.78517200  1
  H  H14  1  0.56716300  0.61066800  0.28517200  1
  H  H15  1  0.38933200  0.43283700  0.21482800  1
  H  H16  1  0.30435100  0.42276400  0.66263400  1
  H  H17  1  0.57723600  0.69564900  0.83736600  1
  H  H18  1  0.69564900  0.57723600  0.33736600  1
  H  H19  1  0.42276400  0.30435100  0.16263400  1
  H  H20  1  0.36772700  0.48653700  0.60679100  1
  H  H21  1  0.51346300  0.63227300  0.89320900  1
  H  H22  1  0.63227300  0.51346300  0.39320900  1
  H  H23  1  0.48653700  0.36772700  0.10679100  1
  H  H24  1  0.61441900  0.36192000  0.58987700  1
  H  H25  1  0.63808000  0.38558100  0.91012300  1
  H  H26  1  0.38558100  0.63808000  0.41012300  1
  H  H27  1  0.36192000  0.61441900  0.08987700  1
  H  H28  1  0.79399700  0.17888100  0.58240100  1
  H  H29  1  0.82111900  0.20600300  0.91759900  1
  H  H30  1  0.20600300  0.82111900  0.41759900  1
  H  H31  1  0.17888100  0.79399700  0.08240100  1
  H  H32  1  0.69190600  0.24417100  0.68927000  1
  H  H33  1  0.75582900  0.30809400  0.81073000  1
  H  H34  1  0.30809400  0.75582900  0.31073000  1
  H  H35  1  0.24417100  0.69190600  0.18927000  1
  H  H36  1  0.55568000  0.26043400  0.39394700  1
  H  H37  1  0.73956600  0.44432000  0.10605300  1
  H  H38  1  0.44432000  0.73956600  0.60605300  1
  H  H39  1  0.26043400  0.55568000  0.89394700  1
  H  H40  1  0.70259400  0.20830600  0.43288000  1
  H  H41  1  0.79169400  0.29740600  0.06712000  1
  H  H42  1  0.29740600  0.79169400  0.56711900  1
  H  H43  1  0.20830600  0.70259400  0.93288100  1
  H  H44  1  0.52225100  0.38791700  0.44958100  1
  H  H45  1  0.61208300  0.47774900  0.05041900  1
  H  H46  1  0.47774900  0.61208300  0.55041900  1
  H  H47  1  0.38791700  0.52225100  0.94958100  1
  H  H48  1  0.97423400  0.86294000  0.80913200  1
  H  H49  1  0.13706000  0.02576600  0.69086800  1
  H  H50  1  0.02576600  0.13706000  0.19086800  1
  H  H51  1  0.86294000  0.97423400  0.30913200  1
  H  H52  1  0.78281900  0.99314100  0.83110500  1
  H  H53  1  0.00685900  0.21718100  0.66889500  1
  H  H54  1  0.21718100  0.00685900  0.16889500  1
  H  H55  1  0.99314100  0.78281900  0.33110500  1
  H  H56  1  0.85132300  0.05284200  0.78035900  1
  H  H57  1  0.94715800  0.14867700  0.71964100  1
  H  H58  1  0.14867700  0.94715800  0.21964100  1
  H  H59  1  0.05284200  0.85132300  0.28035900  1
  H  H60  1  0.00957700  0.94675700  0.60370900  1
  H  H61  1  0.05324300  0.99042300  0.89629100  1
  H  H62  1  0.99042300  0.05324300  0.39629100  1
  H  H63  1  0.94675700  0.00957700  0.10370900  1
  H  H64  1  0.01129800  0.84995000  0.53721100  1
  H  H65  1  0.15005000  0.98870200  0.96278900  1
  H  H66  1  0.98870200  0.15005000  0.46278900  1
  H  H67  1  0.84995000  0.01129800  0.03721100  1
  H  H68  1  0.10890500  0.76644100  0.64021900  1
  H  H69  1  0.23355900  0.89109500  0.85978100  1
  H  H70  1  0.89109500  0.23355900  0.35978100  1
  H  H71  1  0.76644100  0.10890500  0.14021900  1
  H  H72  1  0.91036800  0.74341200  0.62656700  1
  H  H73  1  0.25658800  0.08963200  0.87343300  1
  H  H74  1  0.08963200  0.25658800  0.37343300  1
  H  H75  1  0.74341200  0.91036800  0.12656700  1
  H  H76  1  0.80791400  0.81047100  0.73316700  1
  H  H77  1  0.18952900  0.19208600  0.76683300  1
  H  H78  1  0.19208600  0.18952900  0.26683300  1
  H  H79  1  0.81047100  0.80791400  0.23316700  1
  H  H80  1  0.99672400  0.69833900  0.72899200  1
  H  H81  1  0.30166100  0.00327600  0.77100800  1
  H  H82  1  0.00327600  0.30166100  0.27100800  1
  H  H83  1  0.69833900  0.99672400  0.22899200  1
  H  H84  1  0.29120600  0.49553100  0.40710600  1
  H  H85  1  0.50446900  0.70879400  0.09289400  1
  H  H86  1  0.70879400  0.50446900  0.59289400  1
  H  H87  1  0.49553100  0.29120600  0.90710600  1
  H  H88  1  0.18627100  0.56346400  0.51292000  1
  H  H89  1  0.43653600  0.81372900  0.98708000  1
  H  H90  1  0.81372900  0.43653600  0.48708000  1
  H  H91  1  0.56346400  0.18627100  0.01292000  1
  H  H92  1  0.14205300  0.52921300  0.42413300  1
  H  H93  1  0.47078700  0.85794700  0.07586700  1
  H  H94  1  0.85794700  0.47078700  0.57586700  1
  H  H95  1  0.52921300  0.14205300  0.92413300  1
  H  H96  1  0.13135500  0.38064700  0.53604600  1
  H  H97  1  0.61935300  0.86864500  0.96395400  1
  H  H98  1  0.86864500  0.61935300  0.46395400  1
  H  H99  1  0.38064700  0.13135500  0.03604600  1
  H  H100  1  0.18494800  0.38620300  0.63620700  1
  H  H101  1  0.61379700  0.81505200  0.86379300  1
  H  H102  1  0.81505200  0.61379700  0.36379300  1
  H  H103  1  0.38620300  0.18494800  0.13620700  1
  H  H104  1  0.27951400  0.21585300  0.59898200  1
  H  H105  1  0.78414700  0.72048600  0.90101800  1
  H  H106  1  0.72048600  0.78414700  0.40101800  1
  H  H107  1  0.21585300  0.27951400  0.09898200  1
  H  H108  1  0.43308100  0.11161100  0.42825900  1
  H  H109  1  0.88838900  0.56691900  0.07174100  1
  H  H110  1  0.56691900  0.88838900  0.57174100  1
  H  H111  1  0.11161100  0.43308100  0.92825900  1
  H  H112  1  0.45709200  0.20229500  0.35531800  1
  H  H113  1  0.79770500  0.54290800  0.14468200  1
  H  H114  1  0.54290800  0.79770500  0.64468200  1
  H  H115  1  0.20229500  0.45709200  0.85531800  1
  H  H116  1  0.27974000  0.28700100  0.37510500  1
  H  H117  1  0.71299900  0.72026000  0.12489500  1
  H  H118  1  0.72026000  0.71299900  0.62489500  1
  H  H119  1  0.28700100  0.27974000  0.87510500  1
  C  C120  1  0.39919400  0.39702300  0.64846400  1
  C  C121  1  0.60297700  0.60080600  0.85153600  1
  C  C122  1  0.60080600  0.60297700  0.35153600  1
  C  C123  1  0.39702300  0.39919400  0.14846400  1
  C  C124  1  0.68432200  0.24920300  0.61507200  1
  C  C125  1  0.75079700  0.31567800  0.88492800  1
  C  C126  1  0.31567800  0.75079700  0.38492800  1
  C  C127  1  0.24920300  0.68432200  0.11507200  1
  C  C128  1  0.58843700  0.27317000  0.44980600  1
  C  C129  1  0.72683000  0.41156300  0.05019400  1
  C  C130  1  0.41156300  0.72683000  0.55019400  1
  C  C131  1  0.27317000  0.58843700  0.94980600  1
  C  C132  1  0.86612300  0.96540500  0.78365400  1
  C  C133  1  0.03459500  0.13387700  0.71634600  1
  C  C134  1  0.13387700  0.03459500  0.21634600  1
  C  C135  1  0.96540500  0.86612300  0.28365400  1
  C  C136  1  0.01006400  0.86975600  0.60684800  1
  C  C137  1  0.13024400  0.98993600  0.89315200  1
  C  C138  1  0.98993600  0.13024400  0.39315200  1
  C  C139  1  0.86975600  0.01006400  0.10684800  1
  C  C140  1  0.89511600  0.78284000  0.69211700  1
  C  C141  1  0.21716000  0.10488400  0.80788300  1
  C  C142  1  0.10488400  0.21716000  0.30788300  1
  C  C143  1  0.78284000  0.89511600  0.19211700  1
  C  C144  1  0.23123000  0.49171700  0.45780900  1
  C  C145  1  0.50828300  0.76877000  0.04219100  1
  C  C146  1  0.76877000  0.50828300  0.54219100  1
  C  C147  1  0.49171700  0.23123000  0.95780900  1
  C  C148  1  0.22470500  0.32400200  0.57598900  1
  C  C149  1  0.67599800  0.77529500  0.92401100  1
  C  C150  1  0.77529500  0.67599800  0.42401100  1
  C  C151  1  0.32400200  0.22470500  0.07598900  1
  C  C152  1  0.38373100  0.21779700  0.40633500  1
  C  C153  1  0.78220300  0.61626900  0.09366500  1
  C  C154  1  0.61626900  0.78220300  0.59366500  1
  C  C155  1  0.21779700  0.38373100  0.90633500  1
  Cl  Cl156  1  0.71435800  0.97909300  0.49376000  1
  Cl  Cl157  1  0.02090700  0.28564200  0.00624000  1
  Cl  Cl158  1  0.28564200  0.02090700  0.50624000  1
  Cl  Cl159  1  0.97909300  0.71435800  0.99376000  1
  Cl  Cl160  1  0.52187300  0.10642700  0.70569000  1
  Cl  Cl161  1  0.89357300  0.47812700  0.79431000  1
  Cl  Cl162  1  0.47812700  0.89357300  0.29431000  1
  Cl  Cl163  1  0.10642700  0.52187300  0.20569000  1
