# generated using pymatgen
data_CsAlVP2(HO5)2
_symmetry_space_group_name_H-M   'P 1'
_cell_length_a   8.13334800
_cell_length_b   8.24665400
_cell_length_c   14.39562862
_cell_angle_alpha   90.00000000
_cell_angle_beta   106.32435250
_cell_angle_gamma   90.00000000
_symmetry_Int_Tables_number   1
_chemical_formula_structural   CsAlVP2(HO5)2
_chemical_formula_sum   'Cs4 Al4 V4 P8 H8 O40'
_cell_volume   926.63112224
_cell_formula_units_Z   4
loop_
 _symmetry_equiv_pos_site_id
 _symmetry_equiv_pos_as_xyz
  1  'x, y, z'
loop_
 _atom_site_type_symbol
 _atom_site_label
 _atom_site_symmetry_multiplicity
 _atom_site_fract_x
 _atom_site_fract_y
 _atom_site_fract_z
 _atom_site_occupancy
  Cs  Cs0  1  0.82854700  0.96508600  0.70971900  1
  Cs  Cs1  1  0.17145300  0.46508600  0.79028100  1
  Cs  Cs2  1  0.17145300  0.03491400  0.29028100  1
  Cs  Cs3  1  0.82854700  0.53491400  0.20971900  1
  Al  Al4  1  0.78407200  0.96610700  0.03147200  1
  Al  Al5  1  0.21592800  0.46610700  0.46852800  1
  Al  Al6  1  0.21592800  0.03389300  0.96852800  1
  Al  Al7  1  0.78407200  0.53389300  0.53147200  1
  V  V8  1  0.28578900  0.94634700  0.64122100  1
  V  V9  1  0.71421100  0.44634700  0.85877900  1
  V  V10  1  0.71421100  0.05365300  0.35877900  1
  V  V11  1  0.28578900  0.55365300  0.14122100  1
  P  P12  1  0.00548300  0.22508400  0.54068200  1
  P  P13  1  0.99451700  0.72508400  0.95931800  1
  P  P14  1  0.99451700  0.77491600  0.45931800  1
  P  P15  1  0.00548300  0.27491600  0.04068200  1
  P  P16  1  0.49761400  0.10727900  0.85508100  1
  P  P17  1  0.50238600  0.60727900  0.64491900  1
  P  P18  1  0.50238600  0.89272100  0.14491900  1
  P  P19  1  0.49761400  0.39272100  0.35508100  1
  H  H20  1  0.47482600  0.21227600  0.60794800  1
  H  H21  1  0.52517400  0.71227600  0.89205200  1
  H  H22  1  0.52517400  0.78772400  0.39205200  1
  H  H23  1  0.47482600  0.28772400  0.10794800  1
  H  H24  1  0.47374100  0.15079700  0.50332700  1
  H  H25  1  0.52625900  0.65079700  0.99667300  1
  H  H26  1  0.52625900  0.84920300  0.49667300  1
  H  H27  1  0.47374100  0.34920300  0.00332700  1
  O  O28  1  0.10274100  0.28250500  0.46706900  1
  O  O29  1  0.89725900  0.78250500  0.03293100  1
  O  O30  1  0.89725900  0.71749500  0.53293100  1
  O  O31  1  0.10274100  0.21749500  0.96706900  1
  O  O32  1  0.93619300  0.38167100  0.57879000  1
  O  O33  1  0.06380700  0.88167100  0.92121000  1
  O  O34  1  0.06380700  0.61832900  0.42121000  1
  O  O35  1  0.93619300  0.11832900  0.07879000  1
  O  O36  1  0.85406000  0.11474800  0.49284900  1
  O  O37  1  0.14594000  0.61474800  0.00715100  1
  O  O38  1  0.14594000  0.88525200  0.50715100  1
  O  O39  1  0.85406000  0.38525200  0.99284900  1
  O  O40  1  0.13025200  0.14530000  0.62967600  1
  O  O41  1  0.86974800  0.64530000  0.87032400  1
  O  O42  1  0.86974800  0.85470000  0.37032400  1
  O  O43  1  0.13025200  0.35470000  0.12967600  1
  O  O44  1  0.45646100  0.11780900  0.56570700  1
  O  O45  1  0.54353900  0.61780900  0.93429300  1
  O  O46  1  0.54353900  0.88219100  0.43429300  1
  O  O47  1  0.45646100  0.38219100  0.06570700  1
  O  O48  1  0.47323200  0.78994700  0.62222900  1
  O  O49  1  0.52676800  0.28994700  0.87777100  1
  O  O50  1  0.52676800  0.21005300  0.37777100  1
  O  O51  1  0.47323200  0.71005300  0.12222900  1
  O  O52  1  0.20383500  0.82817900  0.70753400  1
  O  O53  1  0.79616500  0.32817900  0.79246600  1
  O  O54  1  0.79616500  0.17182100  0.29246600  1
  O  O55  1  0.20383500  0.67182100  0.20753400  1
  O  O56  1  0.65613400  0.00635800  0.91314400  1
  O  O57  1  0.34386600  0.50635800  0.58685600  1
  O  O58  1  0.34386600  0.99364200  0.08685600  1
  O  O59  1  0.65613400  0.49364200  0.41314400  1
  O  O60  1  0.34138800  0.05568600  0.88967600  1
  O  O61  1  0.65861200  0.55568600  0.61032400  1
  O  O62  1  0.65861200  0.94431400  0.11032400  1
  O  O63  1  0.34138800  0.44431400  0.38967600  1
  O  O64  1  0.46525300  0.06698400  0.74794000  1
  O  O65  1  0.53474700  0.56698400  0.75206000  1
  O  O66  1  0.53474700  0.93301600  0.25206000  1
  O  O67  1  0.46525300  0.43301600  0.24794000  1
