# generated using pymatgen
data_Na6Zn3As4O19
_symmetry_space_group_name_H-M   'P 1'
_cell_length_a   12.33895400
_cell_length_b   12.33895400
_cell_length_c   12.33895400
_cell_angle_alpha   90.00000000
_cell_angle_beta   90.00000000
_cell_angle_gamma   90.00000000
_symmetry_Int_Tables_number   1
_chemical_formula_structural   Na6Zn3As4O19
_chemical_formula_sum   'Na24 Zn12 As16 O76'
_cell_volume   1878.60310367
_cell_formula_units_Z   4
loop_
 _symmetry_equiv_pos_site_id
 _symmetry_equiv_pos_as_xyz
  1  'x, y, z'
loop_
 _atom_site_type_symbol
 _atom_site_label
 _atom_site_symmetry_multiplicity
 _atom_site_fract_x
 _atom_site_fract_y
 _atom_site_fract_z
 _atom_site_occupancy
  Na  Na0  1  0.25172900  0.92398700  0.50878800  1
  Na  Na1  1  0.49121200  0.75172900  0.57601300  1
  Na  Na2  1  0.42398700  0.99121200  0.74827100  1
  Na  Na3  1  0.75172900  0.57601300  0.49121200  1
  Na  Na4  1  0.99121200  0.74827100  0.42398700  1
  Na  Na5  1  0.92398700  0.50878800  0.25172900  1
  Na  Na6  1  0.74827100  0.42398700  0.99121200  1
  Na  Na7  1  0.50878800  0.25172900  0.92398700  1
  Na  Na8  1  0.57601300  0.49121200  0.75172900  1
  Na  Na9  1  0.24827100  0.07601300  0.00878800  1
  Na  Na10  1  0.00878800  0.24827100  0.07601300  1
  Na  Na11  1  0.07601300  0.00878800  0.24827100  1
  Na  Na12  1  0.24653400  0.67515600  0.99304300  1
  Na  Na13  1  0.00695700  0.74653400  0.82484400  1
  Na  Na14  1  0.17515600  0.50695700  0.75346600  1
  Na  Na15  1  0.74653400  0.82484400  0.00695700  1
  Na  Na16  1  0.50695700  0.75346600  0.17515600  1
  Na  Na17  1  0.67515600  0.99304300  0.24653400  1
  Na  Na18  1  0.75346600  0.17515600  0.50695700  1
  Na  Na19  1  0.99304300  0.24653400  0.67515600  1
  Na  Na20  1  0.82484400  0.00695700  0.74653400  1
  Na  Na21  1  0.25346600  0.32484400  0.49304300  1
  Na  Na22  1  0.49304300  0.25346600  0.32484400  1
  Na  Na23  1  0.32484400  0.49304300  0.25346600  1
  Zn  Zn24  1  0.23763000  0.62619200  0.49480100  1
  Zn  Zn25  1  0.50519900  0.73763000  0.87380800  1
  Zn  Zn26  1  0.12619200  0.00519900  0.76237000  1
  Zn  Zn27  1  0.73763000  0.87380800  0.50519900  1
  Zn  Zn28  1  0.00519900  0.76237000  0.12619200  1
  Zn  Zn29  1  0.62619200  0.49480100  0.23763000  1
  Zn  Zn30  1  0.76237000  0.12619200  0.00519900  1
  Zn  Zn31  1  0.49480100  0.23763000  0.62619200  1
  Zn  Zn32  1  0.87380800  0.50519900  0.73763000  1
  Zn  Zn33  1  0.26237000  0.37380800  0.99480100  1
  Zn  Zn34  1  0.99480100  0.26237000  0.37380800  1
  Zn  Zn35  1  0.37380800  0.99480100  0.26237000  1
  As  As36  1  0.28029100  0.78029100  0.71970900  1
  As  As37  1  0.78029100  0.71970900  0.28029100  1
  As  As38  1  0.71970900  0.28029100  0.78029100  1
  As  As39  1  0.21970900  0.21970900  0.21970900  1
  As  As40  1  0.02687400  0.52687400  0.97312600  1
  As  As41  1  0.52687400  0.97312600  0.02687400  1
  As  As42  1  0.97312600  0.02687400  0.52687400  1
  As  As43  1  0.47312600  0.47312600  0.47312600  1
  As  As44  1  0.76354500  0.26354500  0.23645500  1
  As  As45  1  0.26354500  0.23645500  0.76354500  1
  As  As46  1  0.23645500  0.76354500  0.26354500  1
  As  As47  1  0.73645500  0.73645500  0.73645500  1
  As  As48  1  0.51740100  0.01740100  0.48259900  1
  As  As49  1  0.01740100  0.48259900  0.51740100  1
  As  As50  1  0.48259900  0.51740100  0.01740100  1
  As  As51  1  0.98259900  0.98259900  0.98259900  1
  O  O52  1  0.43883100  0.93883100  0.56116900  1
  O  O53  1  0.93883100  0.56116900  0.43883100  1
  O  O54  1  0.56116900  0.43883100  0.93883100  1
  O  O55  1  0.06116900  0.06116900  0.06116900  1
  O  O56  1  0.20121000  0.70121000  0.79879000  1
  O  O57  1  0.70121000  0.79879000  0.20121000  1
  O  O58  1  0.79879000  0.20121000  0.70121000  1
  O  O59  1  0.29879000  0.29879000  0.29879000  1
  O  O60  1  0.94732900  0.44732900  0.05267100  1
  O  O61  1  0.44732900  0.05267100  0.94732900  1
  O  O62  1  0.05267100  0.94732900  0.44732900  1
  O  O63  1  0.55267100  0.55267100  0.55267100  1
  O  O64  1  0.68434000  0.18434000  0.31566000  1
  O  O65  1  0.18434000  0.31566000  0.68434000  1
  O  O66  1  0.31566000  0.68434000  0.18434000  1
  O  O67  1  0.81566000  0.81566000  0.81566000  1
  O  O68  1  0.41391500  0.79492200  0.76039000  1
  O  O69  1  0.23961000  0.91391500  0.70507800  1
  O  O70  1  0.29492200  0.73961000  0.58608500  1
  O  O71  1  0.91391500  0.70507800  0.23961000  1
  O  O72  1  0.73961000  0.58608500  0.29492200  1
  O  O73  1  0.79492200  0.76039000  0.41391500  1
  O  O74  1  0.58608500  0.29492200  0.73961000  1
  O  O75  1  0.76039000  0.41391500  0.79492200  1
  O  O76  1  0.70507800  0.23961000  0.91391500  1
  O  O77  1  0.08608500  0.20507800  0.26039000  1
  O  O78  1  0.26039000  0.08608500  0.20507800  1
  O  O79  1  0.20507800  0.26039000  0.08608500  1
  O  O80  1  0.97248200  0.56065500  0.84806100  1
  O  O81  1  0.15193900  0.47248200  0.93934500  1
  O  O82  1  0.06065500  0.65193900  0.02751800  1
  O  O83  1  0.47248200  0.93934500  0.15193900  1
  O  O84  1  0.65193900  0.02751800  0.06065500  1
  O  O85  1  0.56065500  0.84806100  0.97248200  1
  O  O86  1  0.02751800  0.06065500  0.65193900  1
  O  O87  1  0.84806100  0.97248200  0.56065500  1
  O  O88  1  0.93934500  0.15193900  0.47248200  1
  O  O89  1  0.52751800  0.43934500  0.34806100  1
  O  O90  1  0.34806100  0.52751800  0.43934500  1
  O  O91  1  0.43934500  0.34806100  0.52751800  1
  O  O92  1  0.86354500  0.33181700  0.30924000  1
  O  O93  1  0.69076000  0.36354500  0.16818300  1
  O  O94  1  0.83181700  0.19076000  0.13645500  1
  O  O95  1  0.36354500  0.16818300  0.69076000  1
  O  O96  1  0.19076000  0.13645500  0.83181700  1
  O  O97  1  0.33181700  0.30924000  0.86354500  1
  O  O98  1  0.13645500  0.83181700  0.19076000  1
  O  O99  1  0.30924000  0.86354500  0.33181700  1
  O  O100  1  0.16818300  0.69076000  0.36354500  1
  O  O101  1  0.63645500  0.66818300  0.80924000  1
  O  O102  1  0.80924000  0.63645500  0.66818300  1
  O  O103  1  0.66818300  0.80924000  0.63645500  1
  O  O104  1  0.44524300  0.07863000  0.37828000  1
  O  O105  1  0.62172000  0.94524300  0.42137000  1
  O  O106  1  0.57863000  0.12172000  0.55475700  1
  O  O107  1  0.94524300  0.42137000  0.62172000  1
  O  O108  1  0.12172000  0.55475700  0.57863000  1
  O  O109  1  0.07863000  0.37828000  0.44524300  1
  O  O110  1  0.55475700  0.57863000  0.12172000  1
  O  O111  1  0.37828000  0.44524300  0.07863000  1
  O  O112  1  0.42137000  0.62172000  0.94524300  1
  O  O113  1  0.05475700  0.92137000  0.87828000  1
  O  O114  1  0.87828000  0.05475700  0.92137000  1
  O  O115  1  0.92137000  0.87828000  0.05475700  1
  O  O116  1  0.26521300  0.12357300  0.50246600  1
  O  O117  1  0.49753400  0.76521300  0.37642700  1
  O  O118  1  0.62357300  0.99753400  0.73478700  1
  O  O119  1  0.76521300  0.37642700  0.49753400  1
  O  O120  1  0.99753400  0.73478700  0.62357300  1
  O  O121  1  0.12357300  0.50246600  0.26521300  1
  O  O122  1  0.73478700  0.62357300  0.99753400  1
  O  O123  1  0.50246600  0.26521300  0.12357300  1
  O  O124  1  0.37642700  0.49753400  0.76521300  1
  O  O125  1  0.23478700  0.87642700  0.00246600  1
  O  O126  1  0.00246600  0.23478700  0.87642700  1
  O  O127  1  0.87642700  0.00246600  0.23478700  1
