# generated using pymatgen
data_Cu2BiTeSO10
_symmetry_space_group_name_H-M   'P 1'
_cell_length_a   6.10580000
_cell_length_b   9.65374902
_cell_length_c   14.34140201
_cell_angle_alpha   102.39645853
_cell_angle_beta   90.00000000
_cell_angle_gamma   90.00000000
_symmetry_Int_Tables_number   1
_chemical_formula_structural   Cu2BiTeSO10
_chemical_formula_sum   'Cu8 Bi4 Te4 S4 O40'
_cell_volume   825.62902152
_cell_formula_units_Z   4
loop_
 _symmetry_equiv_pos_site_id
 _symmetry_equiv_pos_as_xyz
  1  'x, y, z'
loop_
 _atom_site_type_symbol
 _atom_site_label
 _atom_site_symmetry_multiplicity
 _atom_site_fract_x
 _atom_site_fract_y
 _atom_site_fract_z
 _atom_site_occupancy
  Cu  Cu0  1  0.60798300  0.24599400  0.24279100  1
  Cu  Cu1  1  0.89201700  0.74599400  0.74279100  1
  Cu  Cu2  1  0.39201700  0.75400600  0.75720900  1
  Cu  Cu3  1  0.10798300  0.25400600  0.25720900  1
  Cu  Cu4  1  0.48471100  0.34656000  0.46037900  1
  Cu  Cu5  1  0.01528900  0.84656000  0.96037900  1
  Cu  Cu6  1  0.51528900  0.65344000  0.53962100  1
  Cu  Cu7  1  0.98471100  0.15344000  0.03962100  1
  Bi  Bi8  1  0.39463900  0.02084700  0.37556500  1
  Bi  Bi9  1  0.10536100  0.52084700  0.87556500  1
  Bi  Bi10  1  0.60536100  0.97915300  0.62443500  1
  Bi  Bi11  1  0.89463900  0.47915300  0.12443500  1
  Te  Te12  1  0.87711300  0.92273800  0.19253000  1
  Te  Te13  1  0.62288700  0.42273800  0.69253000  1
  Te  Te14  1  0.12288700  0.07726200  0.80747000  1
  Te  Te15  1  0.37711300  0.57726200  0.30747000  1
  S  S16  1  0.87950900  0.79031700  0.41618200  1
  S  S17  1  0.62049100  0.29031700  0.91618200  1
  S  S18  1  0.12049100  0.20968300  0.58381800  1
  S  S19  1  0.37950900  0.70968300  0.08381800  1
  O  O20  1  0.79898700  0.64800900  0.41821700  1
  O  O21  1  0.70101300  0.14800900  0.91821700  1
  O  O22  1  0.20101300  0.35199100  0.58178300  1
  O  O23  1  0.29898700  0.85199100  0.08178300  1
  O  O24  1  0.72883900  0.85892400  0.35400400  1
  O  O25  1  0.77116100  0.35892400  0.85400400  1
  O  O26  1  0.27116100  0.14107600  0.64599600  1
  O  O27  1  0.22883900  0.64107600  0.14599600  1
  O  O28  1  0.10883000  0.11818700  0.48580600  1
  O  O29  1  0.39117000  0.61818700  0.98580600  1
  O  O30  1  0.89117000  0.88181300  0.51419400  1
  O  O31  1  0.60883000  0.38181300  0.01419400  1
  O  O32  1  0.09971800  0.78398000  0.36903400  1
  O  O33  1  0.40028200  0.28398000  0.86903400  1
  O  O34  1  0.90028200  0.21602000  0.63096600  1
  O  O35  1  0.59971800  0.71602000  0.13096600  1
  O  O36  1  0.09544700  0.05316100  0.25780600  1
  O  O37  1  0.40455300  0.55316100  0.75780600  1
  O  O38  1  0.90455300  0.94683900  0.74219400  1
  O  O39  1  0.59544700  0.44683900  0.24219400  1
  O  O40  1  0.62672300  0.03915600  0.23577100  1
  O  O41  1  0.87327700  0.53915600  0.73577100  1
  O  O42  1  0.37327700  0.96084400  0.76422900  1
  O  O43  1  0.12672300  0.46084400  0.26422900  1
  O  O44  1  0.88044800  0.97510500  0.06706200  1
  O  O45  1  0.61955200  0.47510500  0.56706200  1
  O  O46  1  0.11955200  0.02489500  0.93293800  1
  O  O47  1  0.38044800  0.52489500  0.43293800  1
  O  O48  1  0.34807400  0.21969900  0.17417700  1
  O  O49  1  0.15192600  0.71969900  0.67417700  1
  O  O50  1  0.65192600  0.78030100  0.82582300  1
  O  O51  1  0.84807400  0.28030100  0.32582300  1
  O  O52  1  0.37544400  0.24578300  0.34902100  1
  O  O53  1  0.12455600  0.74578300  0.84902100  1
  O  O54  1  0.62455600  0.75421700  0.65097900  1
  O  O55  1  0.87544400  0.25421700  0.15097900  1
  O  O56  1  0.58208600  0.17490600  0.48037700  1
  O  O57  1  0.91791400  0.67490600  0.98037700  1
  O  O58  1  0.41791400  0.82509400  0.51962300  1
  O  O59  1  0.08208600  0.32509400  0.01962300  1
