# generated using pymatgen
data_Cu7Se2(Cl3O4)2
_symmetry_space_group_name_H-M   'P 1'
_cell_length_a   14.63762800
_cell_length_b   10.58528800
_cell_length_c   11.11272630
_cell_angle_alpha   66.32220371
_cell_angle_beta   90.00000000
_cell_angle_gamma   90.00000000
_symmetry_Int_Tables_number   1
_chemical_formula_structural   Cu7Se2(Cl3O4)2
_chemical_formula_sum   'Cu28 Se8 Cl24 O32'
_cell_volume   1576.89695764
_cell_formula_units_Z   4
loop_
 _symmetry_equiv_pos_site_id
 _symmetry_equiv_pos_as_xyz
  1  'x, y, z'
loop_
 _atom_site_type_symbol
 _atom_site_label
 _atom_site_symmetry_multiplicity
 _atom_site_fract_x
 _atom_site_fract_y
 _atom_site_fract_z
 _atom_site_occupancy
  Cu  Cu0  1  0.62326100  0.48309200  0.74197300  1
  Cu  Cu1  1  0.12326100  0.01690800  0.25802700  1
  Cu  Cu2  1  0.37673900  0.51690800  0.25802700  1
  Cu  Cu3  1  0.87673900  0.98309200  0.74197300  1
  Cu  Cu4  1  0.71289600  0.47892100  0.99973900  1
  Cu  Cu5  1  0.21289600  0.02107900  0.00026100  1
  Cu  Cu6  1  0.28710400  0.52107900  0.00026100  1
  Cu  Cu7  1  0.78710400  0.97892100  0.99973900  1
  Cu  Cu8  1  0.82761800  0.31793100  0.86538600  1
  Cu  Cu9  1  0.32761800  0.18206900  0.13461400  1
  Cu  Cu10  1  0.17238200  0.68206900  0.13461400  1
  Cu  Cu11  1  0.67238200  0.81793100  0.86538600  1
  Cu  Cu12  1  0.80309200  0.62885700  0.69657100  1
  Cu  Cu13  1  0.30309200  0.87114300  0.30342900  1
  Cu  Cu14  1  0.19690800  0.37114300  0.30342900  1
  Cu  Cu15  1  0.69690800  0.12885700  0.69657100  1
  Cu  Cu16  1  0.56260500  0.32101400  0.34619400  1
  Cu  Cu17  1  0.06260500  0.17898600  0.65380600  1
  Cu  Cu18  1  0.43739500  0.67898600  0.65380600  1
  Cu  Cu19  1  0.93739500  0.82101400  0.34619400  1
  Cu  Cu20  1  0.50000000  0.50000000  0.50000000  1
  Cu  Cu21  1  0.00000000  0.00000000  0.50000000  1
  Cu  Cu22  1  0.56297600  0.64911800  0.21019500  1
  Cu  Cu23  1  0.06297600  0.85088200  0.78980500  1
  Cu  Cu24  1  0.43702400  0.35088200  0.78980500  1
  Cu  Cu25  1  0.93702400  0.14911800  0.21019500  1
  Cu  Cu26  1  0.50000000  0.00000000  0.50000000  1
  Cu  Cu27  1  0.00000000  0.50000000  0.50000000  1
  Se  Se28  1  0.62413100  0.19492100  0.00083500  1
  Se  Se29  1  0.12413100  0.30507900  0.99916500  1
  Se  Se30  1  0.37586900  0.80507900  0.99916500  1
  Se  Se31  1  0.87586900  0.69492100  0.00083500  1
  Se  Se32  1  0.36844500  0.23368200  0.53210500  1
  Se  Se33  1  0.86844500  0.26631800  0.46789500  1
  Se  Se34  1  0.63155500  0.76631800  0.46789500  1
  Se  Se35  1  0.13155500  0.73368200  0.53210500  1
  Cl  Cl36  1  0.67568000  0.47971900  0.21404100  1
  Cl  Cl37  1  0.17568000  0.02028100  0.78595900  1
  Cl  Cl38  1  0.32432000  0.52028100  0.78595900  1
  Cl  Cl39  1  0.82432000  0.97971900  0.21404100  1
  Cl  Cl40  1  0.87808100  0.34967100  0.08650600  1
  Cl  Cl41  1  0.37808100  0.15032900  0.91349400  1
  Cl  Cl42  1  0.12191900  0.65032900  0.91349400  1
  Cl  Cl43  1  0.62191900  0.84967100  0.08650600  1
  Cl  Cl44  1  0.62959300  0.11359900  0.38582300  1
  Cl  Cl45  1  0.12959300  0.38640100  0.61417700  1
  Cl  Cl46  1  0.37040700  0.88640100  0.61417700  1
  Cl  Cl47  1  0.87040700  0.61359900  0.38582300  1
  Cl  Cl48  1  0.84180500  0.84210800  0.56771100  1
  Cl  Cl49  1  0.34180500  0.65789200  0.43228900  1
  Cl  Cl50  1  0.15819500  0.15789200  0.43228900  1
  Cl  Cl51  1  0.65819500  0.34210800  0.56771100  1
  Cl  Cl52  1  0.93002100  0.49880600  0.74877300  1
  Cl  Cl53  1  0.43002100  0.00119400  0.25122700  1
  Cl  Cl54  1  0.06997900  0.50119400  0.25122700  1
  Cl  Cl55  1  0.56997900  0.99880600  0.74877300  1
  Cl  Cl56  1  0.57110300  0.65117100  0.88617000  1
  Cl  Cl57  1  0.07110300  0.84882900  0.11383000  1
  Cl  Cl58  1  0.42889700  0.34882900  0.11383000  1
  Cl  Cl59  1  0.92889700  0.15117100  0.88617000  1
  O  O60  1  0.49831400  0.48525200  0.33166000  1
  O  O61  1  0.99831400  0.01474800  0.66834000  1
  O  O62  1  0.50168600  0.51474800  0.66834000  1
  O  O63  1  0.00168600  0.98525200  0.33166000  1
  O  O64  1  0.74052500  0.46805800  0.82779600  1
  O  O65  1  0.24052500  0.03194200  0.17220400  1
  O  O66  1  0.25947500  0.53194200  0.17220400  1
  O  O67  1  0.75947500  0.96805800  0.82779600  1
  O  O68  1  0.65656300  0.30019900  0.07367000  1
  O  O69  1  0.15656300  0.19980100  0.92633000  1
  O  O70  1  0.34343700  0.69980100  0.92633000  1
  O  O71  1  0.84343700  0.80019900  0.07367000  1
  O  O72  1  0.72968700  0.16687800  0.93123400  1
  O  O73  1  0.22968700  0.33312200  0.06876600  1
  O  O74  1  0.27031300  0.83312200  0.06876600  1
  O  O75  1  0.77031300  0.66687800  0.93123400  1
  O  O76  1  0.57143000  0.30783200  0.85445600  1
  O  O77  1  0.07143000  0.19216800  0.14554400  1
  O  O78  1  0.42857000  0.69216800  0.14554400  1
  O  O79  1  0.92857000  0.80783200  0.85445600  1
  O  O80  1  0.42024600  0.34043800  0.59430300  1
  O  O81  1  0.92024600  0.15956200  0.40569700  1
  O  O82  1  0.57975400  0.65956200  0.40569700  1
  O  O83  1  0.07975400  0.84043800  0.59430300  1
  O  O84  1  0.46238600  0.18814800  0.45885100  1
  O  O85  1  0.96238600  0.31185200  0.54114900  1
  O  O86  1  0.53761400  0.81185200  0.54114900  1
  O  O87  1  0.03761400  0.68814800  0.45885100  1
  O  O88  1  0.31961100  0.35390200  0.38668500  1
  O  O89  1  0.81961100  0.14609800  0.61331500  1
  O  O90  1  0.68038900  0.64609800  0.61331500  1
  O  O91  1  0.18038900  0.85390200  0.38668500  1
