# generated using pymatgen
data_Ba(As2O7)2
_symmetry_space_group_name_H-M   'P 1'
_cell_length_a   5.79142900
_cell_length_b   8.91087800
_cell_length_c   11.58545300
_cell_angle_alpha   90.00000000
_cell_angle_beta   90.00000000
_cell_angle_gamma   90.00000000
_symmetry_Int_Tables_number   1
_chemical_formula_structural   Ba(As2O7)2
_chemical_formula_sum   'Ba2 As8 O28'
_cell_volume   597.88719735
_cell_formula_units_Z   2
loop_
 _symmetry_equiv_pos_site_id
 _symmetry_equiv_pos_as_xyz
  1  'x, y, z'
loop_
 _atom_site_type_symbol
 _atom_site_label
 _atom_site_symmetry_multiplicity
 _atom_site_fract_x
 _atom_site_fract_y
 _atom_site_fract_z
 _atom_site_occupancy
  Ba  Ba0  1  0.00000000  0.00000000  0.50000000  1
  Ba  Ba1  1  0.00000000  0.50000000  0.00000000  1
  As  As2  1  0.50000000  0.65775200  0.50000000  1
  As  As3  1  0.50000000  0.84224800  0.00000000  1
  As  As4  1  0.50000000  0.34224800  0.50000000  1
  As  As5  1  0.50000000  0.15775200  0.00000000  1
  As  As6  1  0.79006300  0.50000000  0.68813800  1
  As  As7  1  0.20993700  0.50000000  0.31186200  1
  As  As8  1  0.79006300  0.00000000  0.81186200  1
  As  As9  1  0.20993700  0.00000000  0.18813800  1
  O  O10  1  0.75808700  0.66241000  0.60488100  1
  O  O11  1  0.24191300  0.66241000  0.39511900  1
  O  O12  1  0.75808700  0.83759000  0.89511900  1
  O  O13  1  0.24191300  0.83759000  0.10488100  1
  O  O14  1  0.24191300  0.33759000  0.39511900  1
  O  O15  1  0.75808700  0.33759000  0.60488100  1
  O  O16  1  0.24191300  0.16241000  0.10488100  1
  O  O17  1  0.75808700  0.16241000  0.89511900  1
  O  O18  1  0.65212800  0.50000000  0.82094400  1
  O  O19  1  0.34787200  0.50000000  0.17905600  1
  O  O20  1  0.65212800  0.00000000  0.67905600  1
  O  O21  1  0.34787200  0.00000000  0.32094400  1
  O  O22  1  0.05567500  0.50000000  0.75381700  1
  O  O23  1  0.94432500  0.50000000  0.24618300  1
  O  O24  1  0.05567500  0.00000000  0.74618300  1
  O  O25  1  0.94432500  0.00000000  0.25381700  1
  O  O26  1  0.37799500  0.50000000  0.58721200  1
  O  O27  1  0.62200500  0.50000000  0.41278800  1
  O  O28  1  0.37799500  0.00000000  0.91278800  1
  O  O29  1  0.62200500  0.00000000  0.08721200  1
  O  O30  1  0.36643000  0.68702900  0.92693300  1
  O  O31  1  0.63357000  0.68702900  0.07306700  1
  O  O32  1  0.36643000  0.81297100  0.57306700  1
  O  O33  1  0.63357000  0.81297100  0.42693300  1
  O  O34  1  0.63357000  0.31297100  0.07306700  1
  O  O35  1  0.36643000  0.31297100  0.92693300  1
  O  O36  1  0.63357000  0.18702900  0.42693300  1
  O  O37  1  0.36643000  0.18702900  0.57306700  1
