# generated using pymatgen
data_Ho2HfS5
_symmetry_space_group_name_H-M   'P 1'
_cell_length_a   7.24436900
_cell_length_b   7.71280400
_cell_length_c   11.53956200
_cell_angle_alpha   90.00000000
_cell_angle_beta   90.00000000
_cell_angle_gamma   90.00000000
_symmetry_Int_Tables_number   1
_chemical_formula_structural   Ho2HfS5
_chemical_formula_sum   'Ho8 Hf4 S20'
_cell_volume   644.76608225
_cell_formula_units_Z   4
loop_
 _symmetry_equiv_pos_site_id
 _symmetry_equiv_pos_as_xyz
  1  'x, y, z'
loop_
 _atom_site_type_symbol
 _atom_site_label
 _atom_site_symmetry_multiplicity
 _atom_site_fract_x
 _atom_site_fract_y
 _atom_site_fract_z
 _atom_site_occupancy
  Ho  Ho0  1  0.52095100  0.49695200  0.32072500  1
  Ho  Ho1  1  0.97904900  0.00304800  0.82072500  1
  Ho  Ho2  1  0.47904900  0.99695200  0.67927500  1
  Ho  Ho3  1  0.02095100  0.50304800  0.17927500  1
  Ho  Ho4  1  0.47904900  0.50304800  0.67927500  1
  Ho  Ho5  1  0.02095100  0.99695200  0.17927500  1
  Ho  Ho6  1  0.52095100  0.00304800  0.32072500  1
  Ho  Ho7  1  0.97904900  0.49695200  0.82072500  1
  Hf  Hf8  1  0.07671800  0.75000000  0.49419900  1
  Hf  Hf9  1  0.42328200  0.75000000  0.99419900  1
  Hf  Hf10  1  0.92328200  0.25000000  0.50580100  1
  Hf  Hf11  1  0.57671800  0.25000000  0.00580100  1
  S  S12  1  0.83903700  0.96328500  0.59420700  1
  S  S13  1  0.66096300  0.53671500  0.09420700  1
  S  S14  1  0.16096300  0.46328500  0.40579300  1
  S  S15  1  0.33903700  0.03671500  0.90579300  1
  S  S16  1  0.16096300  0.03671500  0.40579300  1
  S  S17  1  0.33903700  0.46328500  0.90579300  1
  S  S18  1  0.83903700  0.53671500  0.59420700  1
  S  S19  1  0.66096300  0.96328500  0.09420700  1
  S  S20  1  0.83237300  0.75000000  0.31882000  1
  S  S21  1  0.66762700  0.75000000  0.81882000  1
  S  S22  1  0.16762700  0.25000000  0.68118000  1
  S  S23  1  0.33237300  0.25000000  0.18118000  1
  S  S24  1  0.44754400  0.75000000  0.49631900  1
  S  S25  1  0.05245600  0.75000000  0.99631900  1
  S  S26  1  0.55245600  0.25000000  0.50368100  1
  S  S27  1  0.94754400  0.25000000  0.00368100  1
  S  S28  1  0.18976900  0.75000000  0.70726200  1
  S  S29  1  0.31023100  0.75000000  0.20726200  1
  S  S30  1  0.81023100  0.25000000  0.29273800  1
  S  S31  1  0.68976900  0.25000000  0.79273800  1
