# generated using pymatgen
data_MnB10(H13O4)2
_symmetry_space_group_name_H-M   'P 1'
_cell_length_a   6.90458700
_cell_length_b   7.48132119
_cell_length_c   18.71047788
_cell_angle_alpha   80.35110131
_cell_angle_beta   79.36736351
_cell_angle_gamma   62.51896468
_symmetry_Int_Tables_number   1
_chemical_formula_structural   MnB10(H13O4)2
_chemical_formula_sum   'Mn2 B20 H52 O16'
_cell_volume   838.94217235
_cell_formula_units_Z   2
loop_
 _symmetry_equiv_pos_site_id
 _symmetry_equiv_pos_as_xyz
  1  'x, y, z'
loop_
 _atom_site_type_symbol
 _atom_site_label
 _atom_site_symmetry_multiplicity
 _atom_site_fract_x
 _atom_site_fract_y
 _atom_site_fract_z
 _atom_site_occupancy
  Mn  Mn0  1  0.50000000  0.00000000  0.50000000  1
  Mn  Mn1  1  0.00000000  0.50000000  0.00000000  1
  B  B2  1  0.35026000  0.61889400  0.34396100  1
  B  B3  1  0.31311500  0.88110600  0.15603900  1
  B  B4  1  0.64974000  0.38110600  0.65603900  1
  B  B5  1  0.68688500  0.11889400  0.84396100  1
  B  B6  1  0.20377300  0.63045100  0.27781700  1
  B  B7  1  0.11204100  0.86954900  0.22218300  1
  B  B8  1  0.79622700  0.36954900  0.72218300  1
  B  B9  1  0.88795900  0.13045100  0.77781700  1
  B  B10  1  0.50490800  0.53623700  0.26323300  1
  B  B11  1  0.30437800  0.96376300  0.23676700  1
  B  B12  1  0.49509200  0.46376300  0.73676700  1
  B  B13  1  0.69562200  0.03623700  0.76323300  1
  B  B14  1  0.47402200  0.76354100  0.29834800  1
  B  B15  1  0.53591100  0.73645900  0.20165200  1
  B  B16  1  0.52597800  0.23645900  0.70165200  1
  B  B17  1  0.46408900  0.26354100  0.79834800  1
  B  B18  1  0.34365000  0.64310700  0.18722300  1
  B  B19  1  0.17398000  0.85689300  0.31277700  1
  B  B20  1  0.65635000  0.35689300  0.81277700  1
  B  B21  1  0.82602000  0.14310700  0.68722300  1
  H  H22  1  0.55836500  0.71721800  0.05479200  1
  H  H23  1  0.33037500  0.78278200  0.44520800  1
  H  H24  1  0.44163500  0.28278200  0.94520800  1
  H  H25  1  0.66962500  0.21721800  0.55479200  1
  H  H26  1  0.54132000  0.74686100  0.97033700  1
  H  H27  1  0.25851800  0.75313900  0.52966300  1
  H  H28  1  0.45868000  0.25313900  0.02966300  1
  H  H29  1  0.74148200  0.24686100  0.47033700  1
  H  H30  1  0.91249100  0.79635200  0.41700700  1
  H  H31  1  0.12585000  0.70364800  0.08299300  1
  H  H32  1  0.08750900  0.20364800  0.58299300  1
  H  H33  1  0.87415000  0.29635200  0.91700700  1
  H  H34  1  0.82344200  0.63225300  0.44075300  1
  H  H35  1  0.89644900  0.86774700  0.05924700  1
  H  H36  1  0.17655800  0.36774700  0.55924700  1
  H  H37  1  0.10355100  0.13225300  0.94075300  1
  H  H38  1  0.41092100  0.27486700  0.36775400  1
  H  H39  1  0.05354200  0.22513300  0.13224600  1
  H  H40  1  0.58907900  0.72513300  0.63224600  1
  H  H41  1  0.94645800  0.77486700  0.86775400  1
  H  H42  1  0.44418500  0.06193900  0.35037800  1
  H  H43  1  0.85650200  0.43806100  0.14962200  1
  H  H44  1  0.55581500  0.93806100  0.64962200  1
  H  H45  1  0.14349800  0.56193900  0.85037800  1
  H  H46  1  0.73579000  0.19342300  0.09487700  1
  H  H47  1  0.02409000  0.30657700  0.40512300  1
  H  H48  1  0.26421000  0.80657700  0.90512300  1
  H  H49  1  0.97591000  0.69342300  0.59487700  1
  H  H50  1  0.60329100  0.07279000  0.13277900  1
  H  H51  1  0.80886000  0.42721000  0.36722100  1
  H  H52  1  0.39670900  0.92721000  0.86722100  1
  H  H53  1  0.19114000  0.57279000  0.63277900  1
  H  H54  1  0.36202800  0.53489500  0.40477300  1
  H  H55  1  0.30169700  0.96510500  0.09522700  1
  H  H56  1  0.63797200  0.46510500  0.59522700  1
  H  H57  1  0.69830300  0.03489500  0.90477300  1
  H  H58  1  0.08983300  0.54471100  0.28851800  1
  H  H59  1  0.92306300  0.95528900  0.21148200  1
  H  H60  1  0.91016700  0.45528900  0.71148200  1
  H  H61  1  0.07693700  0.04471100  0.78851800  1
  H  H62  1  0.65413000  0.36828800  0.26190000  1
  H  H63  1  0.28431700  0.13171200  0.23810000  1
  H  H64  1  0.34587000  0.63171200  0.73810000  1
  H  H65  1  0.71568300  0.86828800  0.76190000  1
  H  H66  1  0.59781900  0.79364000  0.32684400  1
  H  H67  1  0.71830300  0.70636000  0.17315600  1
  H  H68  1  0.40218100  0.20636000  0.67315600  1
  H  H69  1  0.28169700  0.29364000  0.82684400  1
  H  H70  1  0.35900200  0.52930300  0.14544700  1
  H  H71  1  0.03375300  0.97069700  0.35455300  1
  H  H72  1  0.64099800  0.47069700  0.85455300  1
  H  H73  1  0.96624700  0.02930300  0.64544700  1
  O  O74  1  0.64501900  0.67408500  0.00759500  1
  O  O75  1  0.32669900  0.82591500  0.49240500  1
  O  O76  1  0.35498100  0.32591500  0.99240500  1
  O  O77  1  0.67330100  0.17408500  0.50759500  1
  O  O78  1  0.80923200  0.76199900  0.45311000  1
  O  O79  1  0.02434000  0.73800100  0.04689000  1
  O  O80  1  0.19076800  0.23800100  0.54689000  1
  O  O81  1  0.97566000  0.26199900  0.95311000  1
  O  O82  1  0.39601300  0.15224400  0.38955900  1
  O  O83  1  0.93781600  0.34775600  0.11044100  1
  O  O84  1  0.60398700  0.84775600  0.61044100  1
  O  O85  1  0.06218400  0.65224400  0.88955900  1
  O  O86  1  0.66817500  0.11065300  0.08527100  1
  O  O87  1  0.86409900  0.38934700  0.41472900  1
  O  O88  1  0.33182500  0.88934700  0.91472900  1
  O  O89  1  0.13590100  0.61065300  0.58527100  1
