# generated using pymatgen
data_U2PbS5
_symmetry_space_group_name_H-M   'P 1'
_cell_length_a   7.40258700
_cell_length_b   7.71518500
_cell_length_c   12.30939900
_cell_angle_alpha   90.00000000
_cell_angle_beta   90.00000000
_cell_angle_gamma   90.00000000
_symmetry_Int_Tables_number   1
_chemical_formula_structural   U2PbS5
_chemical_formula_sum   'U8 Pb4 S20'
_cell_volume   703.01843543
_cell_formula_units_Z   4
loop_
 _symmetry_equiv_pos_site_id
 _symmetry_equiv_pos_as_xyz
  1  'x, y, z'
loop_
 _atom_site_type_symbol
 _atom_site_label
 _atom_site_symmetry_multiplicity
 _atom_site_fract_x
 _atom_site_fract_y
 _atom_site_fract_z
 _atom_site_occupancy
  U  U0  1  0.51484000  0.50250400  0.32143400  1
  U  U1  1  0.98516000  0.99749600  0.82143400  1
  U  U2  1  0.48516000  0.00250400  0.67856600  1
  U  U3  1  0.01484000  0.49749600  0.17856600  1
  U  U4  1  0.48516000  0.49749600  0.67856600  1
  U  U5  1  0.01484000  0.00250400  0.17856600  1
  U  U6  1  0.51484000  0.99749600  0.32143400  1
  U  U7  1  0.98516000  0.50250400  0.82143400  1
  Pb  Pb8  1  0.05932100  0.75000000  0.49148600  1
  Pb  Pb9  1  0.44067900  0.75000000  0.99148600  1
  Pb  Pb10  1  0.94067900  0.25000000  0.50851400  1
  Pb  Pb11  1  0.55932100  0.25000000  0.00851400  1
  S  S12  1  0.83249700  0.96487600  0.62324300  1
  S  S13  1  0.66750300  0.53512400  0.12324300  1
  S  S14  1  0.16750300  0.46487600  0.37675700  1
  S  S15  1  0.33249700  0.03512400  0.87675700  1
  S  S16  1  0.16750300  0.03512400  0.37675700  1
  S  S17  1  0.33249700  0.46487600  0.87675700  1
  S  S18  1  0.83249700  0.53512400  0.62324300  1
  S  S19  1  0.66750300  0.96487600  0.12324300  1
  S  S20  1  0.82105600  0.75000000  0.30912900  1
  S  S21  1  0.67894400  0.75000000  0.80912900  1
  S  S22  1  0.17894400  0.25000000  0.69087100  1
  S  S23  1  0.32105600  0.25000000  0.19087100  1
  S  S24  1  0.48440100  0.75000000  0.49629800  1
  S  S25  1  0.01559900  0.75000000  0.99629800  1
  S  S26  1  0.51559900  0.25000000  0.50370200  1
  S  S27  1  0.98440100  0.25000000  0.00370200  1
  S  S28  1  0.20044800  0.75000000  0.71312200  1
  S  S29  1  0.29955200  0.75000000  0.21312200  1
  S  S30  1  0.79955200  0.25000000  0.28687800  1
  S  S31  1  0.70044800  0.25000000  0.78687800  1
