# generated using pymatgen
data_Cd2Hg2S2O11
_symmetry_space_group_name_H-M   'P 1'
_cell_length_a   6.32136400
_cell_length_b   7.89456292
_cell_length_c   10.66396074
_cell_angle_alpha   102.18809560
_cell_angle_beta   90.00000000
_cell_angle_gamma   90.00000000
_symmetry_Int_Tables_number   1
_chemical_formula_structural   Cd2Hg2S2O11
_chemical_formula_sum   'Cd4 Hg4 S4 O22'
_cell_volume   520.18320152
_cell_formula_units_Z   2
loop_
 _symmetry_equiv_pos_site_id
 _symmetry_equiv_pos_as_xyz
  1  'x, y, z'
loop_
 _atom_site_type_symbol
 _atom_site_label
 _atom_site_symmetry_multiplicity
 _atom_site_fract_x
 _atom_site_fract_y
 _atom_site_fract_z
 _atom_site_occupancy
  Cd  Cd0  1  0.48979000  0.67580500  0.41542400  1
  Cd  Cd1  1  0.51021000  0.32419500  0.58457600  1
  Cd  Cd2  1  0.48979000  0.82419500  0.08457600  1
  Cd  Cd3  1  0.51021000  0.17580500  0.91542400  1
  Hg  Hg4  1  0.28187400  0.25000000  0.25000000  1
  Hg  Hg5  1  0.71812600  0.75000000  0.75000000  1
  Hg  Hg6  1  0.00000000  0.50000000  0.50000000  1
  Hg  Hg7  1  0.00000000  0.00000000  0.00000000  1
  S  S8  1  0.78107600  0.47757400  0.14518500  1
  S  S9  1  0.21892400  0.52242600  0.85481500  1
  S  S10  1  0.78107600  0.02242600  0.35481500  1
  S  S11  1  0.21892400  0.97757400  0.64518500  1
  O  O12  1  0.29917700  0.42164300  0.43181400  1
  O  O13  1  0.70082300  0.57835700  0.56818600  1
  O  O14  1  0.29917700  0.07835700  0.06818600  1
  O  O15  1  0.70082300  0.92164300  0.93181400  1
  O  O16  1  0.28681900  0.75000000  0.25000000  1
  O  O17  1  0.71318100  0.25000000  0.75000000  1
  O  O18  1  0.76765700  0.31058500  0.04869600  1
  O  O19  1  0.23234300  0.68941500  0.95130400  1
  O  O20  1  0.76765700  0.18941500  0.45130400  1
  O  O21  1  0.23234300  0.81058500  0.54869600  1
  O  O22  1  0.60533300  0.47607000  0.24095300  1
  O  O23  1  0.39466700  0.52393000  0.75904700  1
  O  O24  1  0.60533300  0.02393000  0.25904700  1
  O  O25  1  0.39466700  0.97607000  0.74095300  1
  O  O26  1  0.75182900  0.62628700  0.08191900  1
  O  O27  1  0.24817100  0.37371300  0.91808100  1
  O  O28  1  0.75182900  0.87371300  0.41808100  1
  O  O29  1  0.24817100  0.12628700  0.58191900  1
  O  O30  1  0.98913400  0.48815900  0.21018000  1
  O  O31  1  0.01086600  0.51184100  0.78982000  1
  O  O32  1  0.98913400  0.01184100  0.28982000  1
  O  O33  1  0.01086600  0.98815900  0.71018000  1
