# generated using pymatgen
data_CoP3H15C3NO12
_symmetry_space_group_name_H-M   'P 1'
_cell_length_a   16.29651000
_cell_length_b   9.25549800
_cell_length_c   9.89436852
_cell_angle_alpha   64.69306430
_cell_angle_beta   90.00000000
_cell_angle_gamma   90.00000000
_symmetry_Int_Tables_number   1
_chemical_formula_structural   CoP3H15C3NO12
_chemical_formula_sum   'Co4 P12 H60 C12 N4 O48'
_cell_volume   1349.16700923
_cell_formula_units_Z   4
loop_
 _symmetry_equiv_pos_site_id
 _symmetry_equiv_pos_as_xyz
  1  'x, y, z'
loop_
 _atom_site_type_symbol
 _atom_site_label
 _atom_site_symmetry_multiplicity
 _atom_site_fract_x
 _atom_site_fract_y
 _atom_site_fract_z
 _atom_site_occupancy
  Co  Co0  1  0.20825200  0.54391600  0.32679200  1
  Co  Co1  1  0.70825200  0.45608400  0.17320800  1
  Co  Co2  1  0.79174800  0.45608400  0.67320800  1
  Co  Co3  1  0.29174800  0.54391600  0.82679200  1
  P  P4  1  0.28310300  0.17409300  0.50834100  1
  P  P5  1  0.78310300  0.82590700  0.99165900  1
  P  P6  1  0.71689700  0.82590700  0.49165900  1
  P  P7  1  0.21689700  0.17409300  0.00834100  1
  P  P8  1  0.03933700  0.93901300  0.78507100  1
  P  P9  1  0.53933700  0.06098700  0.71492900  1
  P  P10  1  0.96066300  0.06098700  0.21492900  1
  P  P11  1  0.46066300  0.93901300  0.28507100  1
  P  P12  1  0.11880000  0.54973900  0.61484200  1
  P  P13  1  0.61880000  0.45026100  0.88515800  1
  P  P14  1  0.88120000  0.45026100  0.38515800  1
  P  P15  1  0.38120000  0.54973900  0.11484200  1
  H  H16  1  0.08289600  0.77316400  0.63301200  1
  H  H17  1  0.58289600  0.22683600  0.86698800  1
  H  H18  1  0.91710400  0.22683600  0.36698800  1
  H  H19  1  0.41710400  0.77316400  0.13301200  1
  H  H20  1  0.16678200  0.02375300  0.57711700  1
  H  H21  1  0.66678200  0.97624700  0.92288300  1
  H  H22  1  0.83321800  0.97624700  0.42288300  1
  H  H23  1  0.33321800  0.02375300  0.07711700  1
  H  H24  1  0.90472500  0.92585300  0.77066300  1
  H  H25  1  0.40472500  0.07414700  0.72933700  1
  H  H26  1  0.09527500  0.07414700  0.22933700  1
  H  H27  1  0.59527500  0.92585300  0.27066300  1
  H  H28  1  0.16716800  0.85544800  0.16941200  1
  H  H29  1  0.66716800  0.14455200  0.33058800  1
  H  H30  1  0.83283200  0.14455200  0.83058800  1
  H  H31  1  0.33283200  0.85544800  0.66941200  1
  H  H32  1  0.11087400  0.77808500  0.08680400  1
  H  H33  1  0.61087400  0.22191500  0.41319600  1
  H  H34  1  0.88912600  0.22191500  0.91319600  1
  H  H35  1  0.38912600  0.77808500  0.58680400  1
  H  H36  1  0.26876200  0.68367300  0.49504000  1
  H  H37  1  0.76876200  0.31632700  0.00496000  1
  H  H38  1  0.73123800  0.31632700  0.50496000  1
  H  H39  1  0.23123800  0.68367300  0.99504000  1
  H  H40  1  0.31812400  0.76651700  0.33559000  1
  H  H41  1  0.81812400  0.23348300  0.16441000  1
  H  H42  1  0.68187600  0.23348300  0.66441000  1
  H  H43  1  0.18187600  0.76651700  0.83559000  1
  H  H44  1  0.16703900  0.40736200  0.13956900  1
  H  H45  1  0.66703900  0.59263800  0.36043100  1
  H  H46  1  0.83296100  0.59263800  0.86043100  1
  H  H47  1  0.33296100  0.40736200  0.63956900  1
  H  H48  1  0.11251500  0.31812900  0.28217100  1
  H  H49  1  0.61251500  0.68187100  0.21782900  1
  H  H50  1  0.88748500  0.68187100  0.71782900  1
  H  H51  1  0.38748500  0.31812900  0.78217100  1
  H  H52  1  0.08152300  0.40266100  0.87576300  1
  H  H53  1  0.58152300  0.59733900  0.62423700  1
  H  H54  1  0.91847700  0.59733900  0.12423700  1
  H  H55  1  0.41847700  0.40266100  0.37576300  1
  H  H56  1  0.99835100  0.40266200  0.75336000  1
  H  H57  1  0.49835100  0.59733800  0.74664000  1
  H  H58  1  0.00164900  0.59733800  0.24664000  1
  H  H59  1  0.50164900  0.40266200  0.25336000  1
  H  H60  1  0.32335000  0.05375600  0.34427500  1
  H  H61  1  0.82335000  0.94624400  0.15572500  1
  H  H62  1  0.67665000  0.94624400  0.65572500  1
  H  H63  1  0.17665000  0.05375600  0.84427500  1
  H  H64  1  0.28661800  0.25412400  0.24559200  1
  H  H65  1  0.78661800  0.74587600  0.25440800  1
  H  H66  1  0.71338200  0.74587600  0.75440800  1
  H  H67  1  0.21338200  0.25412400  0.74559200  1
  H  H68  1  0.06426900  0.20693100  0.59771200  1
  H  H69  1  0.56426900  0.79306900  0.90228800  1
  H  H70  1  0.93573100  0.79306900  0.40228800  1
  H  H71  1  0.43573100  0.20693100  0.09771200  1
  H  H72  1  0.97735300  0.20316000  0.70621200  1
  H  H73  1  0.47735300  0.79684000  0.79378800  1
  H  H74  1  0.02264700  0.79684000  0.29378800  1
  H  H75  1  0.52264700  0.20316000  0.20621200  1
  C  C76  1  0.06426300  0.38471600  0.77667300  1
  C  C77  1  0.56426300  0.61528400  0.72332700  1
  C  C78  1  0.93573700  0.61528400  0.22332700  1
  C  C79  1  0.43573700  0.38471600  0.27667300  1
  C  C80  1  0.32849900  0.17562200  0.33518300  1
  C  C81  1  0.82849900  0.82437800  0.16481700  1
  C  C82  1  0.67150100  0.82437800  0.66481700  1
  C  C83  1  0.17150100  0.17562200  0.83518300  1
  C  C84  1  0.04066500  0.16047600  0.71369900  1
  C  C85  1  0.54066500  0.83952400  0.78630100  1
  C  C86  1  0.95933500  0.83952400  0.28630100  1
  C  C87  1  0.45933500  0.16047600  0.21369900  1
  N  N88  1  0.08873800  0.23085600  0.79259600  1
  N  N89  1  0.58873800  0.76914400  0.70740400  1
  N  N90  1  0.91126200  0.76914400  0.20740400  1
  N  N91  1  0.41126200  0.23085600  0.29259600  1
  O  O92  1  0.11474100  0.50884300  0.48220300  1
  O  O93  1  0.61474100  0.49115700  0.01779700  1
  O  O94  1  0.88525900  0.49115700  0.51779700  1
  O  O95  1  0.38525900  0.50884300  0.98220300  1
  O  O96  1  0.20357500  0.56615100  0.66907700  1
  O  O97  1  0.70357500  0.43384900  0.83092300  1
  O  O98  1  0.79642500  0.43384900  0.33092300  1
  O  O99  1  0.29642500  0.56615100  0.16907700  1
  O  O100  1  0.06316300  0.69965800  0.58681400  1
  O  O101  1  0.56316300  0.30034200  0.91318600  1
  O  O102  1  0.93683700  0.30034200  0.41318600  1
  O  O103  1  0.43683700  0.69965800  0.08681400  1
  O  O104  1  0.27955700  0.34502300  0.49338600  1
  O  O105  1  0.77955700  0.65497700  0.00661400  1
  O  O106  1  0.72044300  0.65497700  0.50661400  1
  O  O107  1  0.22044300  0.34502300  0.99338600  1
  O  O108  1  0.32665400  0.05364100  0.64558800  1
  O  O109  1  0.82665400  0.94635900  0.85441200  1
  O  O110  1  0.67334600  0.94635900  0.35441200  1
  O  O111  1  0.17334600  0.05364100  0.14558800  1
  O  O112  1  0.19415200  0.11490200  0.48974000  1
  O  O113  1  0.69415200  0.88509800  0.01026000  1
  O  O114  1  0.80584800  0.88509800  0.51026000  1
  O  O115  1  0.30584800  0.11490200  0.98974000  1
  O  O116  1  0.04229000  0.85850100  0.95227900  1
  O  O117  1  0.54229000  0.14149900  0.54772100  1
  O  O118  1  0.95771000  0.14149900  0.04772100  1
  O  O119  1  0.45771000  0.85850100  0.45227900  1
  O  O120  1  0.95572000  0.91242900  0.71641100  1
  O  O121  1  0.45572000  0.08757100  0.78358900  1
  O  O122  1  0.04428000  0.08757100  0.28358900  1
  O  O123  1  0.54428000  0.91242900  0.21641100  1
  O  O124  1  0.10893200  0.89398400  0.70337500  1
  O  O125  1  0.60893200  0.10601600  0.79662500  1
  O  O126  1  0.89106800  0.10601600  0.29662500  1
  O  O127  1  0.39106800  0.89398400  0.20337500  1
  O  O128  1  0.15466000  0.75275100  0.16456800  1
  O  O129  1  0.65466000  0.24724900  0.33543200  1
  O  O130  1  0.84534000  0.24724900  0.83543200  1
  O  O131  1  0.34534000  0.75275100  0.66456800  1
  O  O132  1  0.27281100  0.69508800  0.39205400  1
  O  O133  1  0.77281100  0.30491200  0.10794600  1
  O  O134  1  0.72718900  0.30491200  0.60794600  1
  O  O135  1  0.22718900  0.69508800  0.89205400  1
  O  O136  1  0.13909200  0.42021700  0.22252200  1
  O  O137  1  0.63909200  0.57978300  0.27747800  1
  O  O138  1  0.86090800  0.57978300  0.77747800  1
  O  O139  1  0.36090800  0.42021700  0.72252200  1
