# generated using pymatgen
data_CuH28C10(N3Cl2)2
_symmetry_space_group_name_H-M   'P 1'
_cell_length_a   8.71587700
_cell_length_b   10.90336338
_cell_length_c   13.65961062
_cell_angle_alpha   80.29184224
_cell_angle_beta   71.39522889
_cell_angle_gamma   66.44135624
_symmetry_Int_Tables_number   1
_chemical_formula_structural   CuH28C10(N3Cl2)2
_chemical_formula_sum   'Cu2 H56 C20 N12 Cl8'
_cell_volume   1126.46394869
_cell_formula_units_Z   2
loop_
 _symmetry_equiv_pos_site_id
 _symmetry_equiv_pos_as_xyz
  1  'x, y, z'
loop_
 _atom_site_type_symbol
 _atom_site_label
 _atom_site_symmetry_multiplicity
 _atom_site_fract_x
 _atom_site_fract_y
 _atom_site_fract_z
 _atom_site_occupancy
  Cu  Cu0  1  0.21910700  0.25000000  0.75000000  1
  Cu  Cu1  1  0.78089300  0.75000000  0.25000000  1
  H  H2  1  0.81278500  0.19798000  0.92999300  1
  H  H3  1  0.94075800  0.30202000  0.57000700  1
  H  H4  1  0.18721500  0.80202000  0.07000700  1
  H  H5  1  0.05924200  0.69798000  0.42999300  1
  H  H6  1  0.38447200  0.31174800  0.12615700  1
  H  H7  1  0.82237700  0.18825200  0.37384300  1
  H  H8  1  0.61552800  0.68825200  0.87384300  1
  H  H9  1  0.17762300  0.81174800  0.62615700  1
  H  H10  1  0.92944600  0.19357800  0.01765900  1
  H  H11  1  0.14068200  0.30642200  0.48234100  1
  H  H12  1  0.07055400  0.80642200  0.98234100  1
  H  H13  1  0.85931800  0.69357800  0.51765900  1
  H  H14  1  0.31623100  0.37058500  0.29179400  1
  H  H15  1  0.97861000  0.12941500  0.20820600  1
  H  H16  1  0.68376900  0.62941500  0.70820600  1
  H  H17  1  0.02139000  0.87058500  0.79179400  1
  H  H18  1  0.53443400  0.24804800  0.27674600  1
  H  H19  1  0.05922700  0.25195200  0.22325400  1
  H  H20  1  0.46556600  0.75195200  0.72325400  1
  H  H21  1  0.94077300  0.74804800  0.77674600  1
  H  H22  1  0.31159700  0.61383500  0.24189900  1
  H  H23  1  0.16733100  0.88616500  0.25810100  1
  H  H24  1  0.68840300  0.38616500  0.75810100  1
  H  H25  1  0.83266900  0.11383500  0.74189900  1
  H  H26  1  0.77665300  0.50332700  0.09326900  1
  H  H27  1  0.37324900  0.99667300  0.40673100  1
  H  H28  1  0.22334700  0.49667300  0.90673100  1
  H  H29  1  0.62675100  0.00332700  0.59326900  1
  H  H30  1  0.50678400  0.59461000  0.27202600  1
  H  H31  1  0.37342000  0.90539000  0.22797400  1
  H  H32  1  0.49321600  0.40539000  0.72797400  1
  H  H33  1  0.62658000  0.09461000  0.77202600  1
  H  H34  1  0.51448400  0.13936900  0.15282900  1
  H  H35  1  0.80668200  0.36063100  0.34717100  1
  H  H36  1  0.48551600  0.86063100  0.84717100  1
  H  H37  1  0.19331800  0.63936900  0.65282900  1
  H  H38  1  0.50592200  0.19863600  0.02396400  1
  H  H39  1  0.72852100  0.30136400  0.47603600  1
  H  H40  1  0.49407800  0.80136400  0.97603600  1
  H  H41  1  0.27147900  0.69863600  0.52396400  1
  H  H42  1  0.45601700  0.38736100  0.35575500  1
  H  H43  1  0.19913300  0.11263900  0.14424500  1
  H  H44  1  0.54398300  0.61263900  0.64424500  1
  H  H45  1  0.80086700  0.88736100  0.85575500  1
  H  H46  1  0.82850600  0.07352400  0.03431500  1
  H  H47  1  0.93634500  0.42647600  0.46568500  1
  H  H48  1  0.17149400  0.92647600  0.96568500  1
  H  H49  1  0.06365500  0.57352400  0.53431500  1
  H  H50  1  0.82730000  0.41768200  0.98338100  1
  H  H51  1  0.22836300  0.08231800  0.51661900  1
  H  H52  1  0.17270000  0.58231800  0.01661900  1
  H  H53  1  0.77163700  0.91768200  0.48338100  1
  H  H54  1  0.49378600  0.63168300  0.14153600  1
  H  H55  1  0.26700500  0.86831700  0.35846400  1
  H  H56  1  0.50621400  0.36831700  0.85846400  1
  H  H57  1  0.73299500  0.13168300  0.64153600  1
  C  C58  1  0.64310000  0.37923600  0.11139600  1
  C  C59  1  0.13373200  0.12076400  0.38860400  1
  C  C60  1  0.35690000  0.62076400  0.88860400  1
  C  C61  1  0.86626800  0.87923600  0.61139600  1
  C  C62  1  0.45212200  0.35439700  0.28513500  1
  C  C63  1  0.09165400  0.14560300  0.21486500  1
  C  C64  1  0.54787800  0.64560300  0.71486500  1
  C  C65  1  0.90834600  0.85439700  0.78513500  1
  C  C66  1  0.45466600  0.57735300  0.21417100  1
  C  C67  1  0.24618900  0.92264700  0.28582900  1
  C  C68  1  0.54533400  0.42264700  0.78582900  1
  C  C69  1  0.75381100  0.07735300  0.71417100  1
  C  C70  1  0.81679700  0.17763700  0.01107200  1
  C  C71  1  0.00550600  0.32236300  0.48892800  1
  C  C72  1  0.18320300  0.82236300  0.98892800  1
  C  C73  1  0.99449400  0.67763700  0.51107200  1
  C  C74  1  0.50509800  0.22659900  0.09786000  1
  C  C75  1  0.82955700  0.27340100  0.40214000  1
  C  C76  1  0.49490200  0.77340100  0.90214000  1
  C  C77  1  0.17044300  0.72659900  0.59786000  1
  N  N78  1  0.51794700  0.43465100  0.19716900  1
  N  N79  1  0.14976800  0.06534900  0.30283100  1
  N  N80  1  0.48205300  0.56534900  0.80283100  1
  N  N81  1  0.85023200  0.93465100  0.69716900  1
  N  N82  1  0.75431300  0.43975200  0.05787300  1
  N  N83  1  0.25193800  0.06024800  0.44212700  1
  N  N84  1  0.24568700  0.56024800  0.94212700  1
  N  N85  1  0.74806200  0.93975200  0.55787300  1
  N  N86  1  0.65598200  0.26421400  0.07943300  1
  N  N87  1  0.99962900  0.23578600  0.42056700  1
  N  N88  1  0.34401800  0.73578600  0.92056700  1
  N  N89  1  0.00037100  0.76421400  0.57943300  1
  Cl  Cl90  1  0.99445000  0.44940100  0.80174600  1
  Cl  Cl91  1  0.24559700  0.05059900  0.69825400  1
  Cl  Cl92  1  0.00555000  0.55059900  0.19825400  1
  Cl  Cl93  1  0.75440300  0.94940100  0.30174600  1
  Cl  Cl94  1  0.36397200  0.31577400  0.59475100  1
  Cl  Cl95  1  0.27449700  0.18422600  0.90524900  1
  Cl  Cl96  1  0.63602800  0.68422600  0.40524900  1
  Cl  Cl97  1  0.72550300  0.81577400  0.09475100  1
