# generated using pymatgen
data_Al3P2(H4O7)2
_symmetry_space_group_name_H-M   'P 1'
_cell_length_a   7.43551459
_cell_length_b   7.83011419
_cell_length_c   10.05681976
_cell_angle_alpha   70.21821961
_cell_angle_beta   69.50047397
_cell_angle_gamma   65.56580100
_symmetry_Int_Tables_number   1
_chemical_formula_structural   Al3P2(H4O7)2
_chemical_formula_sum   'Al6 P4 H16 O28'
_cell_volume   486.28509537
_cell_formula_units_Z   2
loop_
 _symmetry_equiv_pos_site_id
 _symmetry_equiv_pos_as_xyz
  1  'x, y, z'
loop_
 _atom_site_type_symbol
 _atom_site_label
 _atom_site_symmetry_multiplicity
 _atom_site_fract_x
 _atom_site_fract_y
 _atom_site_fract_z
 _atom_site_occupancy
  Al  Al0  1  0.73339700  0.82270400  0.24511700  1
  Al  Al1  1  0.26660300  0.17729600  0.75488300  1
  Al  Al2  1  0.24680800  0.81801600  0.73602000  1
  Al  Al3  1  0.75319200  0.18198400  0.26398000  1
  Al  Al4  1  0.75719200  0.50161200  0.75322000  1
  Al  Al5  1  0.24280800  0.49838800  0.24678000  1
  P  P6  1  0.65143900  0.60595500  0.05946100  1
  P  P7  1  0.34856100  0.39404500  0.94053900  1
  P  P8  1  0.16591300  0.60212200  0.54827800  1
  P  P9  1  0.83408700  0.39787800  0.45172200  1
  H  H10  1  0.86648900  0.04848100  0.76368500  1
  H  H11  1  0.13351100  0.95151900  0.23631500  1
  H  H12  1  0.86180900  0.83343900  0.82818300  1
  H  H13  1  0.13819100  0.16656100  0.17181700  1
  H  H14  1  0.35740600  0.87335900  0.40563600  1
  H  H15  1  0.64259400  0.12664100  0.59436400  1
  H  H16  1  0.40379100  0.07043200  0.32056300  1
  H  H17  1  0.59620900  0.92956800  0.67943700  1
  H  H18  1  0.82705300  0.85615700  0.45484300  1
  H  H19  1  0.17294700  0.14384300  0.54515700  1
  H  H20  1  0.30591100  0.86010000  0.95870700  1
  H  H21  1  0.69408900  0.13990000  0.04129300  1
  H  H22  1  0.04011900  0.69496600  0.07139200  1
  H  H23  1  0.95988100  0.30503400  0.92860800  1
  H  H24  1  0.57762100  0.70379600  0.57262100  1
  H  H25  1  0.42237900  0.29620400  0.42737900  1
  O  O26  1  0.93439200  0.64109700  0.61647500  1
  O  O27  1  0.06560800  0.35890300  0.38352500  1
  O  O28  1  0.19633800  0.64153100  0.38111600  1
  O  O29  1  0.80366200  0.35846900  0.61888400  1
  O  O30  1  0.71656300  0.64008500  0.89062300  1
  O  O31  1  0.28343700  0.35991500  0.10937700  1
  O  O32  1  0.94570400  0.91533800  0.80033600  1
  O  O33  1  0.05429600  0.08466200  0.19966400  1
  O  O34  1  0.76246600  0.93386100  0.37417400  1
  O  O35  1  0.23753400  0.06613900  0.62582600  1
  O  O36  1  0.26620900  0.93147200  0.86678200  1
  O  O37  1  0.73379100  0.06852800  0.13321800  1
  O  O38  1  0.70466400  0.60567200  0.39440400  1
  O  O39  1  0.29533600  0.39432800  0.60559500  1
  O  O40  1  0.68964000  0.76016800  0.09718600  1
  O  O41  1  0.31036000  0.23983200  0.90281400  1
  O  O42  1  0.01796600  0.69452200  0.17352600  1
  O  O43  1  0.98203400  0.30547800  0.82647400  1
  O  O44  1  0.42937300  0.94005400  0.31180900  1
  O  O45  1  0.57062700  0.05994600  0.68819100  1
  O  O46  1  0.21753000  0.59718500  0.87620100  1
  O  O47  1  0.78247000  0.40281500  0.12379900  1
  O  O48  1  0.53999100  0.70665400  0.67617800  1
  O  O49  1  0.46000900  0.29334600  0.32382200  1
  O  O50  1  0.22999100  0.75041400  0.57397600  1
  O  O51  1  0.77000900  0.24958600  0.42602400  1
  O  O52  1  0.42013000  0.63617800  0.11120500  1
  O  O53  1  0.57987000  0.36382200  0.88879500  1
