# generated using pymatgen
data_Lu(FeO2)2
_symmetry_space_group_name_H-M   'P 1'
_cell_length_a   6.01222911
_cell_length_b   6.01222911
_cell_length_c   16.90650675
_cell_angle_alpha   93.36067679
_cell_angle_beta   93.36067679
_cell_angle_gamma   119.81651286
_symmetry_Int_Tables_number   1
_chemical_formula_structural   Lu(FeO2)2
_chemical_formula_sum   'Lu6 Fe12 O24'
_cell_volume   526.58285865
_cell_formula_units_Z   6
loop_
 _symmetry_equiv_pos_site_id
 _symmetry_equiv_pos_as_xyz
  1  'x, y, z'
loop_
 _atom_site_type_symbol
 _atom_site_label
 _atom_site_symmetry_multiplicity
 _atom_site_fract_x
 _atom_site_fract_y
 _atom_site_fract_z
 _atom_site_occupancy
  Lu  Lu0  1  0.74517300  0.74517300  0.23919900  1
  Lu  Lu1  1  0.25482700  0.25482700  0.76080100  1
  Lu  Lu2  1  0.08588900  0.41630000  0.25308200  1
  Lu  Lu3  1  0.41630000  0.08588900  0.25308200  1
  Lu  Lu4  1  0.91411100  0.58370000  0.74691800  1
  Lu  Lu5  1  0.58370000  0.91411100  0.74691800  1
  Fe  Fe6  1  0.69070000  0.02606100  0.07086000  1
  Fe  Fe7  1  0.02606100  0.69070000  0.07086000  1
  Fe  Fe8  1  0.30930000  0.97393900  0.92914000  1
  Fe  Fe9  1  0.97393900  0.30930000  0.92914000  1
  Fe  Fe10  1  0.13863400  0.13863400  0.42614600  1
  Fe  Fe11  1  0.86136600  0.86136600  0.57385400  1
  Fe  Fe12  1  0.35432400  0.35432400  0.07058600  1
  Fe  Fe13  1  0.64567600  0.64567600  0.92941400  1
  Fe  Fe14  1  0.47876000  0.80883900  0.42820500  1
  Fe  Fe15  1  0.80883900  0.47876000  0.42820500  1
  Fe  Fe16  1  0.52124000  0.19116100  0.57179500  1
  Fe  Fe17  1  0.19116100  0.52124000  0.57179500  1
  O  O18  1  0.20257800  0.20257800  0.55263500  1
  O  O19  1  0.79742200  0.79742200  0.44736500  1
  O  O20  1  0.38751100  0.38751100  0.19075900  1
  O  O21  1  0.61248900  0.61248900  0.80924100  1
  O  O22  1  0.69460700  0.69460700  0.06519000  1
  O  O23  1  0.30539300  0.30539300  0.93481000  1
  O  O24  1  0.01469400  0.35331400  0.05542000  1
  O  O25  1  0.35331400  0.01469400  0.05542000  1
  O  O26  1  0.98530600  0.64668600  0.94458000  1
  O  O27  1  0.64668600  0.98530600  0.94458000  1
  O  O28  1  0.76986800  0.44658100  0.31094400  1
  O  O29  1  0.44658100  0.76986800  0.31094400  1
  O  O30  1  0.23013200  0.55341900  0.68905600  1
  O  O31  1  0.55341900  0.23013200  0.68905600  1
  O  O32  1  0.09029500  0.09029500  0.30834300  1
  O  O33  1  0.90970500  0.90970500  0.69165700  1
  O  O34  1  0.14469900  0.49677000  0.44024000  1
  O  O35  1  0.49677000  0.14469900  0.44024000  1
  O  O36  1  0.85530100  0.50323000  0.55976000  1
  O  O37  1  0.50323000  0.85530100  0.55976000  1
  O  O38  1  0.07384600  0.72839900  0.18898300  1
  O  O39  1  0.72839900  0.07384600  0.18898300  1
  O  O40  1  0.92615400  0.27160100  0.81101700  1
  O  O41  1  0.27160100  0.92615400  0.81101700  1
