# generated using pymatgen
data_GdH6C2ClO7
_symmetry_space_group_name_H-M   'P 1'
_cell_length_a   5.94015700
_cell_length_b   16.31581900
_cell_length_c   8.91929887
_cell_angle_alpha   90.00000000
_cell_angle_beta   116.14241964
_cell_angle_gamma   90.00000000
_symmetry_Int_Tables_number   1
_chemical_formula_structural   GdH6C2ClO7
_chemical_formula_sum   'Gd4 H24 C8 Cl4 O28'
_cell_volume   776.01394491
_cell_formula_units_Z   4
loop_
 _symmetry_equiv_pos_site_id
 _symmetry_equiv_pos_as_xyz
  1  'x, y, z'
loop_
 _atom_site_type_symbol
 _atom_site_label
 _atom_site_symmetry_multiplicity
 _atom_site_fract_x
 _atom_site_fract_y
 _atom_site_fract_z
 _atom_site_occupancy
  Gd  Gd0  1  0.19603000  0.89690500  0.66630700  1
  Gd  Gd1  1  0.19603000  0.60309500  0.16630700  1
  Gd  Gd2  1  0.80397000  0.10309500  0.33369300  1
  Gd  Gd3  1  0.80397000  0.39690500  0.83369300  1
  H  H4  1  0.16781500  0.82852700  0.99075700  1
  H  H5  1  0.16781500  0.67147300  0.49075700  1
  H  H6  1  0.83218500  0.17147300  0.00924300  1
  H  H7  1  0.83218500  0.32852700  0.50924300  1
  H  H8  1  0.90945900  0.87568900  0.89052600  1
  H  H9  1  0.90945900  0.62431100  0.39052600  1
  H  H10  1  0.09054100  0.12431100  0.10947400  1
  H  H11  1  0.09054100  0.37568900  0.60947400  1
  H  H12  1  0.74428800  0.78388800  0.45295300  1
  H  H13  1  0.74428800  0.71611200  0.95295300  1
  H  H14  1  0.25571200  0.21611200  0.54704700  1
  H  H15  1  0.25571200  0.28388800  0.04704700  1
  H  H16  1  0.74703800  0.79672600  0.62740700  1
  H  H17  1  0.74703800  0.70327400  0.12740700  1
  H  H18  1  0.25296200  0.20327400  0.37259300  1
  H  H19  1  0.25296200  0.29672600  0.87259300  1
  H  H20  1  0.17966100  0.82291800  0.33182300  1
  H  H21  1  0.17966100  0.67708200  0.83182300  1
  H  H22  1  0.82033900  0.17708200  0.66817700  1
  H  H23  1  0.82033900  0.32291800  0.16817700  1
  H  H24  1  0.96715500  0.89174100  0.28894800  1
  H  H25  1  0.96715500  0.60825900  0.78894800  1
  H  H26  1  0.03284500  0.10825900  0.71105200  1
  H  H27  1  0.03284500  0.39174100  0.21105200  1
  C  C28  1  0.40079800  0.03464400  0.96649200  1
  C  C29  1  0.40079800  0.46535600  0.46649200  1
  C  C30  1  0.59920200  0.96535600  0.03350800  1
  C  C31  1  0.59920200  0.53464400  0.53350800  1
  C  C32  1  0.60736900  0.96946800  0.54522000  1
  C  C33  1  0.60736900  0.53053200  0.04522000  1
  C  C34  1  0.39263100  0.03053200  0.45478000  1
  C  C35  1  0.39263100  0.46946800  0.95478000  1
  Cl  Cl36  1  0.41505000  0.73889600  0.71610600  1
  Cl  Cl37  1  0.41505000  0.76110400  0.21610600  1
  Cl  Cl38  1  0.58495000  0.26110400  0.28389400  1
  Cl  Cl39  1  0.58495000  0.23889600  0.78389400  1
  O  O40  1  0.23063600  0.02626800  0.81757900  1
  O  O41  1  0.23063600  0.47373200  0.31757900  1
  O  O42  1  0.76936400  0.97373200  0.18242100  1
  O  O43  1  0.76936400  0.52626800  0.68242100  1
  O  O44  1  0.42216600  0.09354800  0.06342300  1
  O  O45  1  0.42216600  0.40645200  0.56342300  1
  O  O46  1  0.57783400  0.90645200  0.93657700  1
  O  O47  1  0.57783400  0.59354800  0.43657700  1
  O  O48  1  0.57800700  0.91759500  0.63956500  1
  O  O49  1  0.57800700  0.58240500  0.13956500  1
  O  O50  1  0.42199300  0.08240500  0.36043500  1
  O  O51  1  0.42199300  0.41759500  0.86043500  1
  O  O52  1  0.79930600  0.97650900  0.51771900  1
  O  O53  1  0.79930600  0.52349100  0.01771900  1
  O  O54  1  0.20069400  0.02349100  0.48228100  1
  O  O55  1  0.20069400  0.47650900  0.98228100  1
  O  O56  1  0.07339500  0.86433300  0.89347000  1
  O  O57  1  0.07339500  0.63566700  0.39347000  1
  O  O58  1  0.92660500  0.13566700  0.10653000  1
  O  O59  1  0.92660500  0.36433300  0.60653000  1
  O  O60  1  0.85677700  0.79471100  0.57168200  1
  O  O61  1  0.85677700  0.70528900  0.07168200  1
  O  O62  1  0.14322300  0.20528900  0.42831800  1
  O  O63  1  0.14322300  0.29471100  0.92831800  1
  O  O64  1  0.08580600  0.85532500  0.37855100  1
  O  O65  1  0.08580600  0.64467500  0.87855100  1
  O  O66  1  0.91419400  0.14467500  0.62144900  1
  O  O67  1  0.91419400  0.35532500  0.12144900  1
