# generated using pymatgen
data_Ba4Sm(RuO4)3
_symmetry_space_group_name_H-M   'P 1'
_cell_length_a   5.97967712
_cell_length_b   5.97967712
_cell_length_c   29.76704628
_cell_angle_alpha   88.92588276
_cell_angle_beta   88.92588276
_cell_angle_gamma   59.95235146
_symmetry_Int_Tables_number   1
_chemical_formula_structural   Ba4Sm(RuO4)3
_chemical_formula_sum   'Ba12 Sm3 Ru9 O36'
_cell_volume   921.10980455
_cell_formula_units_Z   3
loop_
 _symmetry_equiv_pos_site_id
 _symmetry_equiv_pos_as_xyz
  1  'x, y, z'
loop_
 _atom_site_type_symbol
 _atom_site_label
 _atom_site_symmetry_multiplicity
 _atom_site_fract_x
 _atom_site_fract_y
 _atom_site_fract_z
 _atom_site_occupancy
  Ba  Ba0  1  0.66775800  0.66775800  0.53686800  1
  Ba  Ba1  1  0.33224200  0.33224200  0.46313200  1
  Ba  Ba2  1  0.65817000  0.65817000  0.38349700  1
  Ba  Ba3  1  0.34183000  0.34183000  0.61650300  1
  Ba  Ba4  1  0.99392000  0.99392000  0.28262300  1
  Ba  Ba5  1  0.00608000  0.00608000  0.71737700  1
  Ba  Ba6  1  0.66842700  0.66842700  0.79699700  1
  Ba  Ba7  1  0.33157300  0.33157300  0.20300300  1
  Ba  Ba8  1  0.00144400  0.00144400  0.13075200  1
  Ba  Ba9  1  0.99855600  0.99855600  0.86924800  1
  Ba  Ba10  1  0.67073900  0.67073900  0.94958300  1
  Ba  Ba11  1  0.32926100  0.32926100  0.05041700  1
  Sm  Sm12  1  0.67763000  0.67763000  0.66698400  1
  Sm  Sm13  1  0.32237000  0.32237000  0.33301600  1
  Sm  Sm14  1  0.00000000  0.00000000  0.00000000  1
  Ru  Ru15  1  0.00000000  0.00000000  0.50000000  1
  Ru  Ru16  1  0.98685900  0.98685900  0.41429200  1
  Ru  Ru17  1  0.01314100  0.01314100  0.58570800  1
  Ru  Ru18  1  0.66053900  0.66053900  0.25160500  1
  Ru  Ru19  1  0.33946100  0.33946100  0.74839500  1
  Ru  Ru20  1  0.67104900  0.67104900  0.16641900  1
  Ru  Ru21  1  0.32895200  0.32895200  0.83358100  1
  Ru  Ru22  1  0.65867800  0.65867800  0.08057300  1
  Ru  Ru23  1  0.34132200  0.34132200  0.91942700  1
  O  O24  1  0.83876000  0.83876000  0.46184100  1
  O  O25  1  0.16124000  0.16124000  0.53815900  1
  O  O26  1  0.86350500  0.86350500  0.62544800  1
  O  O27  1  0.13649500  0.13649500  0.37455200  1
  O  O28  1  0.49517600  0.49517600  0.28499100  1
  O  O29  1  0.50482400  0.50482400  0.71500900  1
  O  O30  1  0.17735400  0.17735400  0.79121900  1
  O  O31  1  0.82264600  0.82264600  0.20878100  1
  O  O32  1  0.51213200  0.51213200  0.12826700  1
  O  O33  1  0.48786800  0.48786800  0.87173300  1
  O  O34  1  0.19781700  0.19781700  0.96252900  1
  O  O35  1  0.80218300  0.80218300  0.03747100  1
  O  O36  1  0.30204000  0.83753300  0.45602300  1
  O  O37  1  0.83753300  0.30204000  0.45602300  1
  O  O38  1  0.69796000  0.16246700  0.54397700  1
  O  O39  1  0.16246700  0.69796000  0.54397700  1
  O  O40  1  0.33191300  0.86083100  0.62037000  1
  O  O41  1  0.86083100  0.33191300  0.62037000  1
  O  O42  1  0.66808700  0.13916900  0.37963000  1
  O  O43  1  0.13916900  0.66808700  0.37963000  1
  O  O44  1  0.50140400  0.03649000  0.71063800  1
  O  O45  1  0.03649000  0.50140400  0.71063800  1
  O  O46  1  0.49859600  0.96351000  0.28936200  1
  O  O47  1  0.96351000  0.49859600  0.28936200  1
  O  O48  1  0.64332900  0.16811100  0.79216000  1
  O  O49  1  0.16811100  0.64332900  0.79216000  1
  O  O50  1  0.35667100  0.83188900  0.20784000  1
  O  O51  1  0.83188900  0.35667100  0.20784000  1
  O  O52  1  0.48245100  0.02434800  0.87727100  1
  O  O53  1  0.02434800  0.48245100  0.87727100  1
  O  O54  1  0.51754900  0.97565200  0.12272900  1
  O  O55  1  0.97565200  0.51754900  0.12272900  1
  O  O56  1  0.66650700  0.19430100  0.95148000  1
  O  O57  1  0.19430100  0.66650700  0.95148000  1
  O  O58  1  0.33349300  0.80569900  0.04852000  1
  O  O59  1  0.80569900  0.33349300  0.04852000  1
