# generated using pymatgen
data_CeMoClO4
_symmetry_space_group_name_H-M   'P 1'
_cell_length_a   5.93548400
_cell_length_b   7.55012500
_cell_length_c   19.66253330
_cell_angle_alpha   89.77973344
_cell_angle_beta   90.00000000
_cell_angle_gamma   90.00000000
_symmetry_Int_Tables_number   1
_chemical_formula_structural   CeMoClO4
_chemical_formula_sum   'Ce8 Mo8 Cl8 O32'
_cell_volume   881.14329801
_cell_formula_units_Z   8
loop_
 _symmetry_equiv_pos_site_id
 _symmetry_equiv_pos_as_xyz
  1  'x, y, z'
loop_
 _atom_site_type_symbol
 _atom_site_label
 _atom_site_symmetry_multiplicity
 _atom_site_fract_x
 _atom_site_fract_y
 _atom_site_fract_z
 _atom_site_occupancy
  Ce  Ce0  1  0.69460900  0.37085100  0.10799300  1
  Ce  Ce1  1  0.19460900  0.12914900  0.89200700  1
  Ce  Ce2  1  0.30539100  0.62914900  0.89200700  1
  Ce  Ce3  1  0.80539100  0.87085100  0.10799300  1
  Ce  Ce4  1  0.69567100  0.38123200  0.60812700  1
  Ce  Ce5  1  0.19567100  0.11876800  0.39187300  1
  Ce  Ce6  1  0.30432900  0.61876800  0.39187300  1
  Ce  Ce7  1  0.80432900  0.88123200  0.60812700  1
  Mo  Mo8  1  0.75222300  0.38152700  0.82263100  1
  Mo  Mo9  1  0.25222300  0.11847300  0.17736900  1
  Mo  Mo10  1  0.24777700  0.61847300  0.17736900  1
  Mo  Mo11  1  0.74777700  0.88152700  0.82263100  1
  Mo  Mo12  1  0.75183800  0.37010200  0.32253400  1
  Mo  Mo13  1  0.25183800  0.12989800  0.67746600  1
  Mo  Mo14  1  0.24816200  0.62989800  0.67746600  1
  Mo  Mo15  1  0.74816200  0.87010200  0.32253400  1
  Cl  Cl16  1  0.76857800  0.12684800  0.99363400  1
  Cl  Cl17  1  0.26857800  0.37315200  0.00636600  1
  Cl  Cl18  1  0.23142200  0.87315200  0.00636600  1
  Cl  Cl19  1  0.73142200  0.62684800  0.99363400  1
  Cl  Cl20  1  0.76855400  0.12669400  0.49372000  1
  Cl  Cl21  1  0.26855400  0.37330600  0.50628000  1
  Cl  Cl22  1  0.23144600  0.87330600  0.50628000  1
  Cl  Cl23  1  0.73144600  0.62669400  0.49372000  1
  O  O24  1  0.76248000  0.38417900  0.73314200  1
  O  O25  1  0.26248000  0.11582100  0.26685800  1
  O  O26  1  0.23752000  0.61582100  0.26685800  1
  O  O27  1  0.73752000  0.88417900  0.73314200  1
  O  O28  1  0.84421000  0.13053700  0.83743800  1
  O  O29  1  0.34421000  0.36946300  0.16256200  1
  O  O30  1  0.15579000  0.86946300  0.16256200  1
  O  O31  1  0.65579000  0.63053700  0.83743800  1
  O  O32  1  0.96950100  0.16018300  0.13246100  1
  O  O33  1  0.46950100  0.33981700  0.86753900  1
  O  O34  1  0.03049900  0.83981700  0.86753900  1
  O  O35  1  0.53049900  0.66018300  0.13246100  1
  O  O36  1  0.53166000  0.08082600  0.12909400  1
  O  O37  1  0.03166000  0.41917400  0.87090600  1
  O  O38  1  0.46834000  0.91917400  0.87090600  1
  O  O39  1  0.96834000  0.58082600  0.12909400  1
  O  O40  1  0.76068400  0.37172900  0.23324400  1
  O  O41  1  0.26068400  0.12827100  0.76675600  1
  O  O42  1  0.23931600  0.62827100  0.76675600  1
  O  O43  1  0.73931600  0.87172900  0.23324400  1
  O  O44  1  0.84583100  0.11969000  0.33739200  1
  O  O45  1  0.34583100  0.38031000  0.66260800  1
  O  O46  1  0.15416900  0.88031000  0.66260800  1
  O  O47  1  0.65416900  0.61969000  0.33739200  1
  O  O48  1  0.96915700  0.17183500  0.63242800  1
  O  O49  1  0.46915700  0.32816500  0.36757200  1
  O  O50  1  0.03084300  0.82816500  0.36757200  1
  O  O51  1  0.53084300  0.67183500  0.63242800  1
  O  O52  1  0.53115500  0.09085200  0.62916200  1
  O  O53  1  0.03115500  0.40914800  0.37083800  1
  O  O54  1  0.46884500  0.90914800  0.37083800  1
  O  O55  1  0.96884500  0.59085200  0.62916200  1
