# generated using pymatgen
data_HfMg6BO7
_symmetry_space_group_name_H-M   'P 1'
_cell_length_a   4.07505300
_cell_length_b   4.07505300
_cell_length_c   10.52447000
_cell_angle_alpha   90.00000000
_cell_angle_beta   90.00000000
_cell_angle_gamma   90.00000000
_symmetry_Int_Tables_number   1
_chemical_formula_structural   HfMg6BO7
_chemical_formula_sum   'Hf1 Mg6 B1 O7'
_cell_volume   174.76994822
_cell_formula_units_Z   1
loop_
 _symmetry_equiv_pos_site_id
 _symmetry_equiv_pos_as_xyz
  1  'x, y, z'
loop_
 _atom_site_type_symbol
 _atom_site_label
 _atom_site_symmetry_multiplicity
 _atom_site_fract_x
 _atom_site_fract_y
 _atom_site_fract_z
 _atom_site_occupancy
  Hf  Hf0  1  0.50000000  0.50000000  0.99824300  1
  Mg  Mg1  1  0.00000000  0.00000000  0.50749900  1
  Mg  Mg2  1  0.50000000  0.50000000  0.52094300  1
  Mg  Mg3  1  0.00000000  0.50000000  0.27778200  1
  Mg  Mg4  1  0.00000000  0.50000000  0.74912200  1
  Mg  Mg5  1  0.50000000  0.00000000  0.27778200  1
  Mg  Mg6  1  0.50000000  0.00000000  0.74912200  1
  B  B7  1  0.00000000  0.00000000  0.14971100  1
  O  O8  1  0.00000000  0.00000000  0.28848300  1
  O  O9  1  0.00000000  0.00000000  0.69685700  1
  O  O10  1  0.50000000  0.50000000  0.71471300  1
  O  O11  1  0.00000000  0.50000000  0.93876500  1
  O  O12  1  0.00000000  0.50000000  0.47110500  1
  O  O13  1  0.50000000  0.00000000  0.93876500  1
  O  O14  1  0.50000000  0.00000000  0.47110500  1
