# generated using pymatgen
data_H12C71F4
_symmetry_space_group_name_H-M   'P 1'
_cell_length_a   10.42338824
_cell_length_b   10.46906693
_cell_length_c   19.27921029
_cell_angle_alpha   105.20271739
_cell_angle_beta   99.52470762
_cell_angle_gamma   93.14222630
_symmetry_Int_Tables_number   1
_chemical_formula_structural   H12C71F4
_chemical_formula_sum   'H24 C142 F8'
_cell_volume   1991.50724996
_cell_formula_units_Z   2
loop_
 _symmetry_equiv_pos_site_id
 _symmetry_equiv_pos_as_xyz
  1  'x, y, z'
loop_
 _atom_site_type_symbol
 _atom_site_label
 _atom_site_symmetry_multiplicity
 _atom_site_fract_x
 _atom_site_fract_y
 _atom_site_fract_z
 _atom_site_occupancy
  H  H0  1  0.68629183  0.19847041  0.54362848  1
  H  H1  1  0.31370817  0.80152959  0.45637152  1
  H  H2  1  0.64597669  0.83953820  0.36742288  1
  H  H3  1  0.35402331  0.16046180  0.63257712  1
  H  H4  1  0.35898408  0.11915823  0.36477125  1
  H  H5  1  0.64101592  0.88084177  0.63522875  1
  H  H6  1  0.36463424  0.29027524  0.49596845  1
  H  H7  1  0.63536576  0.70972476  0.50403155  1
  H  H8  1  0.52372482  0.34759484  0.54903754  1
  H  H9  1  0.47627518  0.65240516  0.45096246  1
  H  H10  1  0.47903165  0.37726425  0.46200185  1
  H  H11  1  0.52096835  0.62273575  0.53799815  1
  H  H12  1  0.88603510  0.98468803  0.46572821  1
  H  H13  1  0.11396490  0.01531197  0.53427179  1
  H  H14  1  0.83755581  0.04079946  0.55189333  1
  H  H15  1  0.16244419  0.95920054  0.44810667  1
  H  H16  1  0.79481287  0.87282995  0.49834126  1
  H  H17  1  0.20518713  0.12717005  0.50165874  1
  H  H18  1  0.42175565  0.77644987  0.28187808  1
  H  H19  1  0.57824435  0.22355013  0.71812192  1
  H  H20  1  0.32027648  0.90516572  0.27333293  1
  H  H21  1  0.67972352  0.09483428  0.72666707  1
  H  H22  1  0.46889902  0.89836068  0.23995917  1
  H  H23  1  0.53110098  0.10163932  0.76004083  1
  C  C24  1  0.28431638  0.73244421  0.97846844  1
  C  C25  1  0.71568362  0.26755579  0.02153156  1
  C  C26  1  0.22769637  0.59049774  0.96005631  1
  C  C27  1  0.77230363  0.40950226  0.03994369  1
  C  C28  1  0.32509210  0.51305287  0.92750249  1
  C  C29  1  0.67490790  0.48694713  0.07249751  1
  C  C30  1  0.39752107  0.59698605  0.89466658  1
  C  C31  1  0.60247893  0.40301395  0.10533342  1
  C  C32  1  0.37782305  0.73358943  0.92845231  1
  C  C33  1  0.62217695  0.26641057  0.07154769  1
  C  C34  1  0.38903454  0.83118243  0.89277086  1
  C  C35  1  0.61096546  0.16881757  0.10722914  1
  C  C36  1  0.29820036  0.93429952  0.89512868  1
  C  C37  1  0.70179964  0.06570048  0.10487132  1
  C  C38  1  0.19535718  0.93694919  0.93288134  1
  C  C39  1  0.80464282  0.06305081  0.06711866  1
  C  C40  1  0.17846098  0.84807424  0.98026972  1
  C  C41  1  0.82153902  0.15192576  0.01973028  1
  C  C42  1  0.03956060  0.79116291  0.95903057  1
  C  C43  1  0.96043940  0.20883709  0.04096943  1
  C  C44  1  0.00050713  0.65629458  0.94516441  1
  C  C45  1  0.99949287  0.34370542  0.05483559  1
  C  C46  1  0.09376990  0.55388910  0.94374838  1
  C  C47  1  0.90623010  0.44611090  0.05625162  1
  C  C48  1  0.03129220  0.43307931  0.88736435  1
  C  C49  1  0.96870780  0.56692069  0.11263565  1
  C  C50  1  0.09857642  0.34338386  0.84226829  1
  C  C51  1  0.90142358  0.65661614  0.15773171  1
  C  C52  1  0.23955503  0.34574875  0.84947819  1
  C  C53  1  0.76044497  0.65425125  0.15052181  1
  C  C54  1  0.27228314  0.34594992  0.77903000  1
  C  C55  1  0.72771686  0.65405008  0.22097000  1
  C  C56  1  0.36286225  0.43826885  0.76706982  1
  C  C57  1  0.63713775  0.56173115  0.23293018  1
  C  C58  1  0.42356590  0.56001140  0.82325662  1
  C  C59  1  0.57643410  0.43998860  0.17674338  1
  C  C60  1  0.43898674  0.66349412  0.78690081  1
  C  C61  1  0.56101326  0.33650588  0.21309919  1
  C  C62  1  0.42246037  0.79571756  0.82081599  1
  C  C63  1  0.57753963  0.20428244  0.17918401  1
  C  C64  1  0.35533467  0.87629725  0.77850143  1
  C  C65  1  0.64466533  0.12370275  0.22149857  1
  C  C66  1  0.27767695  0.96029232  0.82408034  1
  C  C67  1  0.72232305  0.03970768  0.17591966  1
  C  C68  1  0.15441381  0.98648262  0.79253233  1
  C  C69  1  0.84558619  0.01351738  0.20746767  1
  C  C70  1  0.04629850  0.98373974  0.83049861  1
  C  C71  1  0.95370150  0.01626026  0.16950139  1
  C  C72  1  0.06672415  0.95590518  0.89844753  1
  C  C73  1  0.93327585  0.04409482  0.10155247  1
  C  C74  1  0.97121747  0.86732937  0.91477179  1
  C  C75  1  0.02878253  0.13267063  0.08522821  1
  C  C76  1  0.85812291  0.81147048  0.86305317  1
  C  C77  1  0.14187709  0.18852952  0.13694683  1
  C  C78  1  0.81244200  0.67364707  0.85170288  1
  C  C79  1  0.18755800  0.32635293  0.14829712  1
  C  C80  1  0.88429050  0.59783422  0.89136172  1
  C  C81  1  0.11570950  0.40216578  0.10863828  1
  C  C82  1  0.90291349  0.46212908  0.85572493  1
  C  C83  1  0.09708651  0.53787092  0.14427507  1
  C  C84  1  0.84805167  0.40692966  0.78171018  1
  C  C85  1  0.15194833  0.59307034  0.21828982  1
  C  C86  1  0.92263099  0.32320231  0.73454121  1
  C  C87  1  0.07736901  0.67679769  0.26545879  1
  C  C88  1  0.04566884  0.29614980  0.76435701  1
  C  C89  1  0.95433116  0.70385020  0.23564299  1
  C  C90  1  0.15257987  0.29811740  0.72544912  1
  C  C91  1  0.84742013  0.70188260  0.27455088  1
  C  C92  1  0.13294032  0.32823807  0.65855112  1
  C  C93  1  0.86705968  0.67176193  0.34144888  1
  C  C94  1  0.23073012  0.41566298  0.64353182  1
  C  C95  1  0.76926988  0.58433702  0.35646818  1
  C  C96  1  0.34184128  0.47065142  0.69709640  1
  C  C97  1  0.65815872  0.52934858  0.30290360  1
  C  C98  1  0.39029797  0.60855351  0.70927932  1
  C  C99  1  0.60970203  0.39144649  0.29072068  1
  C  C100  1  0.32629285  0.68642327  0.66814557  1
  C  C101  1  0.67370715  0.31357673  0.33185443  1
  C  C102  1  0.30812915  0.82300353  0.70359916  1
  C  C103  1  0.69187085  0.17699647  0.29640084  1
  C  C104  1  0.18031546  0.85013088  0.67109296  1
  C  C105  1  0.81968454  0.14986912  0.32890704  1
  C  C106  1  0.10468599  0.93015635  0.71487651  1
  C  C107  1  0.89531401  0.06984365  0.28512349  1
  C  C108  1  0.96524802  0.89244912  0.70516253  1
  C  C109  1  0.03475198  0.10755088  0.29483747  1
  C  C110  1  0.92910852  0.92544811  0.77680387  1
  C  C111  1  0.07089148  0.07455189  0.22319613  1
  C  C112  1  0.83631738  0.84123285  0.79286308  1
  C  C113  1  0.16368262  0.15876715  0.20713692  1
  C  C114  1  0.77541464  0.72086947  0.73788336  1
  C  C115  1  0.22458536  0.27913053  0.26211664  1
  C  C116  1  0.75958934  0.61754143  0.77442385  1
  C  C117  1  0.24041066  0.38245857  0.22557615  1
  C  C118  1  0.77685705  0.48621131  0.73993207  1
  C  C119  1  0.22314295  0.51378869  0.26006793  1
  C  C120  1  0.81053735  0.45312720  0.66757215  1
  C  C121  1  0.18946265  0.54687280  0.33242785  1
  C  C122  1  0.90090346  0.35196786  0.66433161  1
  C  C123  1  0.09909654  0.64803214  0.33566839  1
  C  C124  1  0.00487466  0.35489341  0.62689484  1
  C  C125  1  0.99512534  0.64510659  0.37310516  1
  C  C126  1  0.02325003  0.45886550  0.59141586  1
  C  C127  1  0.97674997  0.54113450  0.40858414  1
  C  C128  1  0.16297904  0.49634456  0.60147934  1
  C  C129  1  0.83702096  0.50365544  0.39852066  1
  C  C130  1  0.21012490  0.62945785  0.61358327  1
  C  C131  1  0.78987510  0.37054215  0.38641673  1
  C  C132  1  0.11933044  0.73034829  0.61576840  1
  C  C133  1  0.88066956  0.26965171  0.38423160  1
  C  C134  1  0.98495534  0.69414512  0.60636670  1
  C  C135  1  0.01504466  0.30585488  0.39363330  1
  C  C136  1  0.90659247  0.77647575  0.65207581  1
  C  C137  1  0.09340753  0.22352425  0.34792419  1
  C  C138  1  0.80986658  0.68923267  0.66866539  1
  C  C139  1  0.19013342  0.31076733  0.33133461  1
  C  C140  1  0.82773875  0.55296611  0.63280360  1
  C  C141  1  0.17226125  0.44703389  0.36719640  1
  C  C142  1  0.93597464  0.55599923  0.59423166  1
  C  C143  1  0.06402536  0.44400077  0.40576834  1
  C  C144  1  0.27291507  0.83876983  0.04483340  1
  C  C145  1  0.72708493  0.16123017  0.95516660  1
  C  C146  1  0.33353160  0.36959863  0.91812992  1
  C  C147  1  0.66646840  0.63040137  0.08187008  1
  C  C148  1  0.51791889  0.17433778  0.45778475  1
  C  C149  1  0.48208111  0.82566222  0.54221525  1
  C  C150  1  0.63327616  0.13548109  0.49103467  1
  C  C151  1  0.36672384  0.86451891  0.50896533  1
  C  C152  1  0.68111123  0.01537189  0.45904633  1
  C  C153  1  0.31888877  0.98462811  0.54095367  1
  C  C154  1  0.61029386  0.93392227  0.39259149  1
  C  C155  1  0.38970614  0.06607773  0.60740851  1
  C  C156  1  0.49450878  0.96968079  0.35763316  1
  C  C157  1  0.50549122  0.03031921  0.64236684  1
  C  C158  1  0.44955769  0.09049254  0.39116478  1
  C  C159  1  0.55044231  0.90950746  0.60883522  1
  C  C160  1  0.46886801  0.30396499  0.49313774  1
  C  C161  1  0.53113199  0.69603501  0.50686226  1
  C  C162  1  0.80616143  0.97654078  0.49580792  1
  C  C163  1  0.19383857  0.02345922  0.50419208  1
  C  C164  1  0.42211117  0.88286006  0.28481580  1
  C  C165  1  0.57788883  0.11713994  0.71518420  1
  F  F166  1  0.22525592  0.80328333  0.09967176  1
  F  F167  1  0.77474408  0.19671667  0.90032824  1
  F  F168  1  0.37326760  0.93711463  0.07458244  1
  F  F169  1  0.62673240  0.06288537  0.92541756  1
  F  F170  1  0.29176567  0.31979250  0.97083658  1
  F  F171  1  0.70823433  0.68020750  0.02916342  1
  F  F172  1  0.45497730  0.32772102  0.91052082  1
  F  F173  1  0.54502270  0.67227898  0.08947918  1
