# generated using pymatgen
data_Nd6Fe13Pb
_symmetry_space_group_name_H-M   'P 1'
_cell_length_a   8.08827400
_cell_length_b   8.08827400
_cell_length_c   13.08421615
_cell_angle_alpha   108.00410644
_cell_angle_beta   108.00410644
_cell_angle_gamma   90.00000000
_symmetry_Int_Tables_number   1
_chemical_formula_structural   Nd6Fe13Pb
_chemical_formula_sum   'Nd12 Fe26 Pb2'
_cell_volume   769.86685897
_cell_formula_units_Z   2
loop_
 _symmetry_equiv_pos_site_id
 _symmetry_equiv_pos_as_xyz
  1  'x, y, z'
loop_
 _atom_site_type_symbol
 _atom_site_label
 _atom_site_symmetry_multiplicity
 _atom_site_fract_x
 _atom_site_fract_y
 _atom_site_fract_z
 _atom_site_occupancy
  Nd  Nd0  1  0.60415000  0.60415000  0.20829900  1
  Nd  Nd1  1  0.10415000  0.10415000  0.20829900  1
  Nd  Nd2  1  0.39585000  0.39585000  0.79170100  1
  Nd  Nd3  1  0.89585000  0.89585000  0.79170100  1
  Nd  Nd4  1  0.97835100  0.47835100  0.63129900  1
  Nd  Nd5  1  0.65294800  0.15294800  0.63129900  1
  Nd  Nd6  1  0.15294800  0.97835100  0.63129900  1
  Nd  Nd7  1  0.47835100  0.65294800  0.63129900  1
  Nd  Nd8  1  0.02164900  0.52164900  0.36870100  1
  Nd  Nd9  1  0.34705200  0.84705200  0.36870100  1
  Nd  Nd10  1  0.84705200  0.02164900  0.36870100  1
  Nd  Nd11  1  0.52164900  0.34705200  0.36870100  1
  Fe  Fe12  1  0.00000000  0.50000000  0.00000000  1
  Fe  Fe13  1  0.50000000  0.00000000  0.00000000  1
  Fe  Fe14  1  0.71025600  0.56650400  0.00000000  1
  Fe  Fe15  1  0.28974400  0.43349600  0.00000000  1
  Fe  Fe16  1  0.78974400  0.06650400  0.00000000  1
  Fe  Fe17  1  0.21025600  0.93349600  0.00000000  1
  Fe  Fe18  1  0.56650400  0.28974400  0.00000000  1
  Fe  Fe19  1  0.43349600  0.71025600  0.00000000  1
  Fe  Fe20  1  0.06650400  0.21025600  0.00000000  1
  Fe  Fe21  1  0.93349600  0.78974400  0.00000000  1
  Fe  Fe22  1  0.12021300  0.62021300  0.88295800  1
  Fe  Fe23  1  0.76274600  0.26274600  0.88295800  1
  Fe  Fe24  1  0.26274600  0.12021300  0.88295800  1
  Fe  Fe25  1  0.62021300  0.76274600  0.88295800  1
  Fe  Fe26  1  0.87978700  0.37978700  0.11704200  1
  Fe  Fe27  1  0.23725400  0.73725400  0.11704200  1
  Fe  Fe28  1  0.73725400  0.87978700  0.11704200  1
  Fe  Fe29  1  0.37978700  0.23725400  0.11704200  1
  Fe  Fe30  1  0.29294700  0.79294700  0.81306200  1
  Fe  Fe31  1  0.52011500  0.02011500  0.81306200  1
  Fe  Fe32  1  0.02011500  0.29294700  0.81306200  1
  Fe  Fe33  1  0.79294700  0.52011500  0.81306200  1
  Fe  Fe34  1  0.70705300  0.20705300  0.18693800  1
  Fe  Fe35  1  0.47988500  0.97988500  0.18693800  1
  Fe  Fe36  1  0.97988500  0.70705300  0.18693800  1
  Fe  Fe37  1  0.20705300  0.47988500  0.18693800  1
  Pb  Pb38  1  0.25000000  0.25000000  0.50000000  1
  Pb  Pb39  1  0.75000000  0.75000000  0.50000000  1
