# generated using pymatgen
data_PrH4Cl3O11
_symmetry_space_group_name_H-M   'P 1'
_cell_length_a   5.80284900
_cell_length_b   12.80476200
_cell_length_c   13.72722300
_cell_angle_alpha   90.00000000
_cell_angle_beta   90.00000000
_cell_angle_gamma   90.00000000
_symmetry_Int_Tables_number   1
_chemical_formula_structural   PrH4Cl3O11
_chemical_formula_sum   'Pr4 H16 Cl12 O44'
_cell_volume   1019.98895555
_cell_formula_units_Z   4
loop_
 _symmetry_equiv_pos_site_id
 _symmetry_equiv_pos_as_xyz
  1  'x, y, z'
loop_
 _atom_site_type_symbol
 _atom_site_label
 _atom_site_symmetry_multiplicity
 _atom_site_fract_x
 _atom_site_fract_y
 _atom_site_fract_z
 _atom_site_occupancy
  Pr  Pr0  1  0.74785600  0.99699000  0.25847100  1
  Pr  Pr1  1  0.75214400  0.00301000  0.75847100  1
  Pr  Pr2  1  0.24785600  0.50301000  0.74152900  1
  Pr  Pr3  1  0.25214400  0.49699000  0.24152900  1
  H  H4  1  0.94251100  0.12567300  0.43500800  1
  H  H5  1  0.55748900  0.87432700  0.93500800  1
  H  H6  1  0.44251100  0.37432700  0.56499200  1
  H  H7  1  0.05748900  0.62567300  0.06499200  1
  H  H8  1  0.70628100  0.18175100  0.41507700  1
  H  H9  1  0.79371900  0.81824900  0.91507700  1
  H  H10  1  0.20628100  0.31824900  0.58492300  1
  H  H11  1  0.29371900  0.68175100  0.08492300  1
  H  H12  1  0.83029300  0.06880200  0.03904700  1
  H  H13  1  0.66970700  0.93119800  0.53904700  1
  H  H14  1  0.33029300  0.43119800  0.96095300  1
  H  H15  1  0.16970700  0.56880200  0.46095300  1
  H  H16  1  0.59245000  0.12199700  0.06415000  1
  H  H17  1  0.90755000  0.87800300  0.56415000  1
  H  H18  1  0.09245000  0.37800300  0.93585000  1
  H  H19  1  0.40755000  0.62199700  0.43585000  1
  Cl  Cl20  1  0.25110000  0.92371000  0.09782900  1
  Cl  Cl21  1  0.24890000  0.07629000  0.59782900  1
  Cl  Cl22  1  0.75110000  0.57629000  0.90217100  1
  Cl  Cl23  1  0.74890000  0.42371000  0.40217100  1
  Cl  Cl24  1  0.24122500  0.12431400  0.88954200  1
  Cl  Cl25  1  0.25877500  0.87568600  0.38954200  1
  Cl  Cl26  1  0.74122500  0.37568600  0.11045800  1
  Cl  Cl27  1  0.75877500  0.62431400  0.61045800  1
  Cl  Cl28  1  0.22997600  0.19415700  0.26474200  1
  Cl  Cl29  1  0.27002400  0.80584300  0.76474200  1
  Cl  Cl30  1  0.72997600  0.30584300  0.73525800  1
  Cl  Cl31  1  0.77002400  0.69415700  0.23525800  1
  O  O32  1  0.29720300  0.83906300  0.02549400  1
  O  O33  1  0.20279700  0.16093700  0.52549400  1
  O  O34  1  0.79720300  0.66093700  0.97450600  1
  O  O35  1  0.70279700  0.33906300  0.47450600  1
  O  O36  1  0.41744200  0.90591300  0.18160500  1
  O  O37  1  0.08255800  0.09408700  0.68160500  1
  O  O38  1  0.91744200  0.59408700  0.81839500  1
  O  O39  1  0.58255800  0.40591300  0.31839500  1
  O  O40  1  0.01488600  0.90228400  0.13990300  1
  O  O41  1  0.48511400  0.09771600  0.63990300  1
  O  O42  1  0.51488600  0.59771600  0.86009700  1
  O  O43  1  0.98511400  0.40228400  0.36009700  1
  O  O44  1  0.28516000  0.16891300  0.98645600  1
  O  O45  1  0.21484000  0.83108700  0.48645600  1
  O  O46  1  0.78516000  0.33108700  0.01354400  1
  O  O47  1  0.71484000  0.66891300  0.51354400  1
  O  O48  1  0.06971800  0.95575500  0.36984200  1
  O  O49  1  0.43028200  0.04424500  0.86984200  1
  O  O50  1  0.56971800  0.54424500  0.63015800  1
  O  O51  1  0.93028200  0.45575500  0.13015800  1
  O  O52  1  0.47853900  0.94206100  0.39804500  1
  O  O53  1  0.02146100  0.05793900  0.89804500  1
  O  O54  1  0.97853900  0.55793900  0.60195500  1
  O  O55  1  0.52146100  0.44206100  0.10195500  1
  O  O56  1  0.06088700  0.12502600  0.21231800  1
  O  O57  1  0.43911300  0.87497400  0.71231800  1
  O  O58  1  0.56088700  0.37497400  0.78768200  1
  O  O59  1  0.93911300  0.62502600  0.28768200  1
  O  O60  1  0.46293100  0.14367800  0.25261600  1
  O  O61  1  0.03706900  0.85632200  0.75261600  1
  O  O62  1  0.96293100  0.35632200  0.74738400  1
  O  O63  1  0.53706900  0.64367800  0.24738400  1
  O  O64  1  0.23820700  0.29300300  0.20724000  1
  O  O65  1  0.26179300  0.70699700  0.70724000  1
  O  O66  1  0.73820700  0.20699700  0.79276000  1
  O  O67  1  0.76179300  0.79300300  0.29276000  1
  O  O68  1  0.79699100  0.12002800  0.39904800  1
  O  O69  1  0.70300900  0.87997200  0.89904800  1
  O  O70  1  0.29699100  0.37997200  0.60095200  1
  O  O71  1  0.20300900  0.62002800  0.10095200  1
  O  O72  1  0.70341100  0.06933800  0.08631300  1
  O  O73  1  0.79658900  0.93066200  0.58631300  1
  O  O74  1  0.20341100  0.43066200  0.91368700  1
  O  O75  1  0.29658900  0.56933800  0.41368700  1
