# generated using pymatgen
data_Fe2AsSO14
_symmetry_space_group_name_H-M   'P 1'
_cell_length_a   6.31155300
_cell_length_b   19.29429700
_cell_length_c   11.14979871
_cell_angle_alpha   90.00000000
_cell_angle_beta   114.34787072
_cell_angle_gamma   90.00000000
_symmetry_Int_Tables_number   1
_chemical_formula_structural   Fe2AsSO14
_chemical_formula_sum   'Fe8 As4 S4 O56'
_cell_volume   1237.02588757
_cell_formula_units_Z   4
loop_
 _symmetry_equiv_pos_site_id
 _symmetry_equiv_pos_as_xyz
  1  'x, y, z'
loop_
 _atom_site_type_symbol
 _atom_site_label
 _atom_site_symmetry_multiplicity
 _atom_site_fract_x
 _atom_site_fract_y
 _atom_site_fract_z
 _atom_site_occupancy
  Fe  Fe0  1  0.72210100  0.61074100  0.53466300  1
  Fe  Fe1  1  0.72210100  0.88925900  0.03466300  1
  Fe  Fe2  1  0.27789900  0.38925900  0.46533700  1
  Fe  Fe3  1  0.27789900  0.11074100  0.96533700  1
  Fe  Fe4  1  0.10285000  0.52700300  0.80730100  1
  Fe  Fe5  1  0.10285000  0.97299700  0.30730100  1
  Fe  Fe6  1  0.89715000  0.47299700  0.19269900  1
  Fe  Fe7  1  0.89715000  0.02700300  0.69269900  1
  As  As8  1  0.47650100  0.49086000  0.29743200  1
  As  As9  1  0.47650100  0.00914000  0.79743200  1
  As  As10  1  0.52349900  0.50914000  0.70256800  1
  As  As11  1  0.52349900  0.99086000  0.20256800  1
  S  S12  1  0.00452500  0.75696100  0.56002800  1
  S  S13  1  0.00452500  0.74303900  0.06002800  1
  S  S14  1  0.99547500  0.24303900  0.43997200  1
  S  S15  1  0.99547500  0.25696100  0.93997200  1
  O  O16  1  0.58347000  0.46378100  0.18384600  1
  O  O17  1  0.58347000  0.03621900  0.68384600  1
  O  O18  1  0.41653000  0.53621900  0.81615400  1
  O  O19  1  0.41653000  0.96378100  0.31615400  1
  O  O20  1  0.18669700  0.50889000  0.19545400  1
  O  O21  1  0.18669700  0.99111000  0.69545400  1
  O  O22  1  0.81330300  0.49111000  0.80454600  1
  O  O23  1  0.81330300  0.00889000  0.30454600  1
  O  O24  1  0.61666400  0.56635500  0.36701500  1
  O  O25  1  0.61666400  0.93364500  0.86701500  1
  O  O26  1  0.38333600  0.43364500  0.63298500  1
  O  O27  1  0.38333600  0.06635500  0.13298500  1
  O  O28  1  0.51220500  0.42849700  0.41395800  1
  O  O29  1  0.51220500  0.07150300  0.91395800  1
  O  O30  1  0.48779500  0.57150300  0.58604200  1
  O  O31  1  0.48779500  0.92849700  0.08604200  1
  O  O32  1  0.25690100  0.44652000  0.90073500  1
  O  O33  1  0.25690100  0.05348000  0.40073500  1
  O  O34  1  0.74309900  0.55348000  0.09926500  1
  O  O35  1  0.74309900  0.94652000  0.59926500  1
  O  O36  1  0.17483800  0.57936400  0.94820900  1
  O  O37  1  0.17483800  0.92063600  0.44820900  1
  O  O38  1  0.82516200  0.42063600  0.05179100  1
  O  O39  1  0.82516200  0.07936400  0.55179100  1
  O  O40  1  0.04015300  0.44830400  0.69320900  1
  O  O41  1  0.04015300  0.05169600  0.19320900  1
  O  O42  1  0.95984700  0.55169600  0.30679100  1
  O  O43  1  0.95984700  0.94830400  0.80679100  1
  O  O44  1  0.97682000  0.59146800  0.68186000  1
  O  O45  1  0.97682000  0.90853200  0.18186000  1
  O  O46  1  0.02318000  0.40853200  0.31814000  1
  O  O47  1  0.02318000  0.09146800  0.81814000  1
  O  O48  1  0.46298300  0.71801600  0.56281200  1
  O  O49  1  0.46298300  0.78198400  0.06281200  1
  O  O50  1  0.53701700  0.28198400  0.43718800  1
  O  O51  1  0.53701700  0.21801600  0.93718800  1
  O  O52  1  0.36124300  0.74142900  0.45299000  1
  O  O53  1  0.36124300  0.75857100  0.95299000  1
  O  O54  1  0.63875700  0.25857100  0.54701000  1
  O  O55  1  0.63875700  0.24142900  0.04701000  1
  O  O56  1  0.83689600  0.69579200  0.49668300  1
  O  O57  1  0.83689600  0.80420800  0.99668300  1
  O  O58  1  0.16310400  0.30420800  0.50331700  1
  O  O59  1  0.16310400  0.19579200  0.00331700  1
  O  O60  1  0.04552100  0.71284400  0.94788600  1
  O  O61  1  0.04552100  0.78715600  0.44788600  1
  O  O62  1  0.95447900  0.28715600  0.05211400  1
  O  O63  1  0.95447900  0.21284400  0.55211400  1
  O  O64  1  0.89553700  0.80569200  0.61522900  1
  O  O65  1  0.89553700  0.69430800  0.11522900  1
  O  O66  1  0.10446300  0.19430800  0.38477100  1
  O  O67  1  0.10446300  0.30569200  0.88477100  1
  O  O68  1  0.77304200  0.27012300  0.33996800  1
  O  O69  1  0.77304200  0.22987700  0.83996800  1
  O  O70  1  0.22695800  0.72987700  0.66003200  1
  O  O71  1  0.22695800  0.77012300  0.16003200  1
