# generated using pymatgen
data_Cs2Zn5P6(HO2)14
_symmetry_space_group_name_H-M   'P 1'
_cell_length_a   8.60916748
_cell_length_b   10.00245327
_cell_length_c   10.01873484
_cell_angle_alpha   111.16971414
_cell_angle_beta   111.34342556
_cell_angle_gamma   98.88555033
_symmetry_Int_Tables_number   1
_chemical_formula_structural   Cs2Zn5P6(HO2)14
_chemical_formula_sum   'Cs2 Zn5 P6 H14 O28'
_cell_volume   707.58304039
_cell_formula_units_Z   1
loop_
 _symmetry_equiv_pos_site_id
 _symmetry_equiv_pos_as_xyz
  1  'x, y, z'
loop_
 _atom_site_type_symbol
 _atom_site_label
 _atom_site_symmetry_multiplicity
 _atom_site_fract_x
 _atom_site_fract_y
 _atom_site_fract_z
 _atom_site_occupancy
  Cs  Cs0  1  0.01415700  0.50033700  0.74360900  1
  Cs  Cs1  1  0.98584300  0.49966300  0.25639100  1
  Zn  Zn2  1  0.55687200  0.16575700  0.72658300  1
  Zn  Zn3  1  0.44312800  0.83424300  0.27341700  1
  Zn  Zn4  1  0.07411600  0.16416300  0.92683300  1
  Zn  Zn5  1  0.92588400  0.83583700  0.07316700  1
  Zn  Zn6  1  0.50000000  0.50000000  0.50000000  1
  P  P7  1  0.73368100  0.05447600  0.96682200  1
  P  P8  1  0.26631900  0.94552400  0.03317800  1
  P  P9  1  0.62942000  0.51443300  0.86710300  1
  P  P10  1  0.37058000  0.48556700  0.13289700  1
  P  P11  1  0.81051400  0.05756800  0.57009500  1
  P  P12  1  0.18948600  0.94243200  0.42990500  1
  H  H13  1  0.70167000  0.77384900  0.55098700  1
  H  H14  1  0.29833000  0.22615100  0.44901300  1
  H  H15  1  0.73691100  0.77871100  0.71932500  1
  H  H16  1  0.26308900  0.22128900  0.28067500  1
  H  H17  1  0.39500600  0.64579000  0.70822700  1
  H  H18  1  0.60499400  0.35421000  0.29177300  1
  H  H19  1  0.37603900  0.72627900  0.59627500  1
  H  H20  1  0.62396100  0.27372100  0.40372500  1
  H  H21  1  0.63267200  0.06117600  0.14535800  1
  H  H22  1  0.36732800  0.93882400  0.85464200  1
  H  H23  1  0.45987400  0.61425300  0.97096400  1
  H  H24  1  0.54012600  0.38574700  0.02903600  1
  H  H25  1  0.92540800  0.06467200  0.40552400  1
  H  H26  1  0.07459200  0.93532800  0.59447600  1
  O  O27  1  0.76657200  0.90069200  0.93074200  1
  O  O28  1  0.23342800  0.09930800  0.06925800  1
  O  O29  1  0.88392500  0.17958200  0.99142500  1
  O  O30  1  0.11607500  0.82041800  0.00857500  1
  O  O31  1  0.55345000  0.02873400  0.83054900  1
  O  O32  1  0.44655000  0.97126600  0.16945100  1
  O  O33  1  0.72644500  0.12210800  0.13471000  1
  O  O34  1  0.27355500  0.87789200  0.86529000  1
  O  O35  1  0.58478800  0.36778900  0.88741700  1
  O  O36  1  0.41521200  0.63221100  0.11258300  1
  O  O37  1  0.62612100  0.47819700  0.70537300  1
  O  O38  1  0.37387900  0.52180300  0.29462700  1
  O  O39  1  0.80678200  0.62428200  0.01316900  1
  O  O40  1  0.19321800  0.37571800  0.98683100  1
  O  O41  1  0.47751300  0.58910000  0.86999200  1
  O  O42  1  0.52248700  0.41090000  0.13000800  1
  O  O43  1  0.67488400  0.89622500  0.45794700  1
  O  O44  1  0.32511600  0.10377500  0.54205300  1
  O  O45  1  0.97385000  0.04390700  0.69227400  1
  O  O46  1  0.02615000  0.95609300  0.30772600  1
  O  O47  1  0.73702100  0.17479300  0.65010100  1
  O  O48  1  0.26297900  0.82520700  0.34989900  1
  O  O49  1  0.87297900  0.12605900  0.46958400  1
  O  O50  1  0.12702100  0.87394100  0.53041600  1
  O  O51  1  0.71241800  0.71054800  0.60904800  1
  O  O52  1  0.28758200  0.28945200  0.39095200  1
  O  O53  1  0.34853400  0.62730200  0.59475800  1
  O  O54  1  0.65146600  0.37269800  0.40524200  1
