# generated using pymatgen
data_MgB4(H10N)2
_symmetry_space_group_name_H-M   'P 1'
_cell_length_a   5.30131400
_cell_length_b   13.47712400
_cell_length_c   14.04465900
_cell_angle_alpha   90.00000000
_cell_angle_beta   90.00000000
_cell_angle_gamma   90.00000000
_symmetry_Int_Tables_number   1
_chemical_formula_structural   MgB4(H10N)2
_chemical_formula_sum   'Mg4 B16 H80 N8'
_cell_volume   1003.44125370
_cell_formula_units_Z   4
loop_
 _symmetry_equiv_pos_site_id
 _symmetry_equiv_pos_as_xyz
  1  'x, y, z'
loop_
 _atom_site_type_symbol
 _atom_site_label
 _atom_site_symmetry_multiplicity
 _atom_site_fract_x
 _atom_site_fract_y
 _atom_site_fract_z
 _atom_site_occupancy
  Mg  Mg0  1  0.18868600  0.50401400  0.87117800  1
  Mg  Mg1  1  0.68868600  0.99598600  0.12882200  1
  Mg  Mg2  1  0.31131400  0.49598600  0.37117800  1
  Mg  Mg3  1  0.81131400  0.00401400  0.62882200  1
  B  B4  1  0.49970400  0.39396600  0.25427300  1
  B  B5  1  0.99970400  0.10603400  0.74572700  1
  B  B6  1  0.00029600  0.60603400  0.75427300  1
  B  B7  1  0.50029600  0.89396600  0.24572700  1
  B  B8  1  0.53875400  0.09830600  0.00294100  1
  B  B9  1  0.03875400  0.40169400  0.99705900  1
  B  B10  1  0.96124600  0.90169400  0.50294100  1
  B  B11  1  0.46124600  0.59830600  0.49705900  1
  B  B12  1  0.45203600  0.36876300  0.76604500  1
  B  B13  1  0.95203600  0.13123700  0.23395500  1
  B  B14  1  0.04796400  0.63123700  0.26604500  1
  B  B15  1  0.54796400  0.86876300  0.73395500  1
  B  B16  1  0.09208200  0.36999900  0.46696900  1
  B  B17  1  0.59208200  0.13000100  0.53303100  1
  B  B18  1  0.40791800  0.63000100  0.96696900  1
  B  B19  1  0.90791800  0.86999900  0.03303100  1
  H  H20  1  0.40638900  0.22385100  0.83699600  1
  H  H21  1  0.90638900  0.27614900  0.16300400  1
  H  H22  1  0.09361100  0.77614900  0.33699600  1
  H  H23  1  0.59361100  0.72385100  0.66300400  1
  H  H24  1  0.70145900  0.24611700  0.80837200  1
  H  H25  1  0.20145900  0.25388300  0.19162800  1
  H  H26  1  0.79854100  0.75388300  0.30837200  1
  H  H27  1  0.29854100  0.74611700  0.69162800  1
  H  H28  1  0.57578600  0.30047200  0.90169500  1
  H  H29  1  0.07578600  0.19952800  0.09830500  1
  H  H30  1  0.92421400  0.69952800  0.40169500  1
  H  H31  1  0.42421400  0.80047200  0.59830500  1
  H  H32  1  0.03640000  0.44225800  0.60680100  1
  H  H33  1  0.53640000  0.05774200  0.39319900  1
  H  H34  1  0.46360000  0.55774200  0.10680100  1
  H  H35  1  0.96360000  0.94225800  0.89319900  1
  H  H36  1  0.79411500  0.37296500  0.57505200  1
  H  H37  1  0.29411500  0.12703500  0.42494800  1
  H  H38  1  0.70588500  0.62703500  0.07505200  1
  H  H39  1  0.20588500  0.87296500  0.92494800  1
  H  H40  1  0.05504300  0.32034700  0.61444600  1
  H  H41  1  0.55504300  0.17965300  0.38555400  1
  H  H42  1  0.44495700  0.67965300  0.11444600  1
  H  H43  1  0.94495700  0.82034700  0.88555400  1
  H  H44  1  0.26765400  0.39995400  0.26479300  1
  H  H45  1  0.76765400  0.10004600  0.73520700  1
  H  H46  1  0.23234600  0.60004600  0.76479300  1
  H  H47  1  0.73234600  0.89995400  0.23520700  1
  H  H48  1  0.56143200  0.44022600  0.18379500  1
  H  H49  1  0.06143200  0.05977400  0.81620500  1
  H  H50  1  0.93856800  0.55977400  0.68379500  1
  H  H51  1  0.43856800  0.94022600  0.31620500  1
  H  H52  1  0.61550000  0.42696100  0.32397900  1
  H  H53  1  0.11550000  0.07303900  0.67602100  1
  H  H54  1  0.88450000  0.57303900  0.82397900  1
  H  H55  1  0.38450000  0.92696100  0.17602100  1
  H  H56  1  0.55345100  0.30603600  0.24968900  1
  H  H57  1  0.05345100  0.19396400  0.75031100  1
  H  H58  1  0.94654900  0.69396400  0.74968900  1
  H  H59  1  0.44654900  0.80603600  0.25031100  1
  H  H60  1  0.57132600  0.06795300  0.92254000  1
  H  H61  1  0.07132600  0.43204700  0.07746000  1
  H  H62  1  0.92867400  0.93204700  0.42254000  1
  H  H63  1  0.42867400  0.56795300  0.57746000  1
  H  H64  1  0.74981400  0.10583500  0.04066000  1
  H  H65  1  0.24981400  0.39416500  0.95934000  1
  H  H66  1  0.75018600  0.89416500  0.54066000  1
  H  H67  1  0.25018600  0.60583500  0.45934000  1
  H  H68  1  0.44060400  0.17962600  0.00844900  1
  H  H69  1  0.94060400  0.32037400  0.99155100  1
  H  H70  1  0.05939600  0.82037400  0.50844900  1
  H  H71  1  0.55939600  0.67962600  0.49155100  1
  H  H72  1  0.40128600  0.03890700  0.04638900  1
  H  H73  1  0.90128600  0.46109300  0.95361100  1
  H  H74  1  0.09871400  0.96109300  0.54638900  1
  H  H75  1  0.59871400  0.53890700  0.45361100  1
  H  H76  1  0.23013100  0.38863900  0.78596400  1
  H  H77  1  0.73013100  0.11136100  0.21403600  1
  H  H78  1  0.26986900  0.61136100  0.28596400  1
  H  H79  1  0.76986900  0.88863900  0.71403600  1
  H  H80  1  0.59413400  0.43850500  0.77671200  1
  H  H81  1  0.09413400  0.06149500  0.22328800  1
  H  H82  1  0.90586600  0.56149500  0.27671200  1
  H  H83  1  0.40586600  0.93850500  0.72328800  1
  H  H84  1  0.44673300  0.34116800  0.68376300  1
  H  H85  1  0.94673300  0.15883200  0.31623700  1
  H  H86  1  0.05326700  0.65883200  0.18376300  1
  H  H87  1  0.55326700  0.84116800  0.81623700  1
  H  H88  1  0.32310500  0.37433000  0.47006100  1
  H  H89  1  0.82310500  0.12567000  0.52993900  1
  H  H90  1  0.17689500  0.62567000  0.97006100  1
  H  H91  1  0.67689500  0.87433000  0.02993900  1
  H  H92  1  0.02379200  0.29436100  0.42896500  1
  H  H93  1  0.52379200  0.20563900  0.57103500  1
  H  H94  1  0.47620800  0.70563900  0.92896500  1
  H  H95  1  0.97620800  0.79436100  0.07103500  1
  H  H96  1  0.99758700  0.44025700  0.42316500  1
  H  H97  1  0.49758700  0.05974300  0.57683500  1
  H  H98  1  0.50241300  0.55974300  0.92316500  1
  H  H99  1  0.00241300  0.94025700  0.07683500  1
  N  N100  1  0.53856500  0.27920300  0.83255900  1
  N  N101  1  0.03856500  0.22079700  0.16744100  1
  N  N102  1  0.96143500  0.72079700  0.33255900  1
  N  N103  1  0.46143500  0.77920300  0.66744100  1
  N  N104  1  0.98694300  0.37724500  0.57285200  1
  N  N105  1  0.48694300  0.12275500  0.42714800  1
  N  N106  1  0.51305700  0.62275500  0.07285200  1
  N  N107  1  0.01305700  0.87724500  0.92714800  1
