# generated using pymatgen
data_Cd(PO4)2
_symmetry_space_group_name_H-M   'P 1'
_cell_length_a   12.31457903
_cell_length_b   12.31457903
_cell_length_c   5.52511700
_cell_angle_alpha   90.00000000
_cell_angle_beta   90.00000000
_cell_angle_gamma   119.99999480
_symmetry_Int_Tables_number   1
_chemical_formula_structural   Cd(PO4)2
_chemical_formula_sum   'Cd3 P6 O24'
_cell_volume   725.62339109
_cell_formula_units_Z   3
loop_
 _symmetry_equiv_pos_site_id
 _symmetry_equiv_pos_as_xyz
  1  'x, y, z'
loop_
 _atom_site_type_symbol
 _atom_site_label
 _atom_site_symmetry_multiplicity
 _atom_site_fract_x
 _atom_site_fract_y
 _atom_site_fract_z
 _atom_site_occupancy
  Cd  Cd0  1  0.00000000  0.50000000  0.00000000  1
  Cd  Cd1  1  0.50000000  0.00000000  0.00000000  1
  Cd  Cd2  1  0.50000000  0.50000000  0.00000000  1
  P  P3  1  0.18558500  0.64341100  0.50888200  1
  P  P4  1  0.45782500  0.81441500  0.50888200  1
  P  P5  1  0.35658900  0.54217500  0.50888200  1
  P  P6  1  0.81441500  0.35658900  0.49111800  1
  P  P7  1  0.54217500  0.18558500  0.49111800  1
  P  P8  1  0.64341100  0.45782500  0.49111800  1
  O  O9  1  0.22670800  0.53952800  0.44863100  1
  O  O10  1  0.31282000  0.77329200  0.44863100  1
  O  O11  1  0.46047200  0.68718000  0.44863100  1
  O  O12  1  0.77329200  0.46047200  0.55136900  1
  O  O13  1  0.68718000  0.22670800  0.55136900  1
  O  O14  1  0.53952800  0.31282000  0.55136900  1
  O  O15  1  0.15889800  0.64528900  0.77588200  1
  O  O16  1  0.48639100  0.84110200  0.77588200  1
  O  O17  1  0.35471100  0.51360900  0.77588200  1
  O  O18  1  0.84110200  0.35471100  0.22411800  1
  O  O19  1  0.51360900  0.15889800  0.22411800  1
  O  O20  1  0.64528900  0.48639100  0.22411800  1
  O  O21  1  0.08744500  0.62393700  0.32800100  1
  O  O22  1  0.53649200  0.91255500  0.32800100  1
  O  O23  1  0.37606300  0.46350800  0.32800100  1
  O  O24  1  0.91255500  0.37606300  0.67199900  1
  O  O25  1  0.46350800  0.08744500  0.67199900  1
  O  O26  1  0.62393700  0.53649200  0.67199900  1
  O  O27  1  0.88748500  0.62255400  0.99033700  1
  O  O28  1  0.73506900  0.11251500  0.99033700  1
  O  O29  1  0.37744600  0.26493100  0.99033700  1
  O  O30  1  0.11251500  0.37744600  0.00966300  1
  O  O31  1  0.26493100  0.88748500  0.00966300  1
  O  O32  1  0.62255400  0.73506900  0.00966300  1
