# generated using pymatgen
data_RbHfMg14O15
_symmetry_space_group_name_H-M   'P 1'
_cell_length_a   4.14119700
_cell_length_b   8.43665300
_cell_length_c   10.79131200
_cell_angle_alpha   90.00000000
_cell_angle_beta   90.00000000
_cell_angle_gamma   90.00000000
_symmetry_Int_Tables_number   1
_chemical_formula_structural   RbHfMg14O15
_chemical_formula_sum   'Rb1 Hf1 Mg14 O15'
_cell_volume   377.02515464
_cell_formula_units_Z   1
loop_
 _symmetry_equiv_pos_site_id
 _symmetry_equiv_pos_as_xyz
  1  'x, y, z'
loop_
 _atom_site_type_symbol
 _atom_site_label
 _atom_site_symmetry_multiplicity
 _atom_site_fract_x
 _atom_site_fract_y
 _atom_site_fract_z
 _atom_site_occupancy
  Rb  Rb0  1  0.00000000  0.00000000  0.93412600  1
  Hf  Hf1  1  0.00000000  0.50000000  0.99211200  1
  Mg  Mg2  1  0.00000000  0.00000000  0.47720700  1
  Mg  Mg3  1  0.00000000  0.50000000  0.47090600  1
  Mg  Mg4  1  0.50000000  0.76480800  0.08168700  1
  Mg  Mg5  1  0.50000000  0.23519200  0.08168700  1
  Mg  Mg6  1  0.50000000  0.74515500  0.48343600  1
  Mg  Mg7  1  0.50000000  0.25484500  0.48343600  1
  Mg  Mg8  1  0.50000000  0.00000000  0.66993300  1
  Mg  Mg9  1  0.50000000  0.50000000  0.72183600  1
  Mg  Mg10  1  0.50000000  0.00000000  0.27093000  1
  Mg  Mg11  1  0.50000000  0.50000000  0.26408200  1
  Mg  Mg12  1  0.00000000  0.75824700  0.68194000  1
  Mg  Mg13  1  0.00000000  0.24175300  0.68194000  1
  Mg  Mg14  1  0.00000000  0.75216100  0.27272700  1
  Mg  Mg15  1  0.00000000  0.24783900  0.27272700  1
  O  O16  1  0.00000000  0.00000000  0.67961200  1
  O  O17  1  0.00000000  0.00000000  0.29182200  1
  O  O18  1  0.00000000  0.50000000  0.28508900  1
  O  O19  1  0.50000000  0.75399600  0.68898800  1
  O  O20  1  0.50000000  0.24600400  0.68898800  1
  O  O21  1  0.50000000  0.74588700  0.27448600  1
  O  O22  1  0.50000000  0.25411300  0.27448600  1
  O  O23  1  0.50000000  0.00000000  0.08027100  1
  O  O24  1  0.50000000  0.50000000  0.06347700  1
  O  O25  1  0.50000000  0.00000000  0.48160600  1
  O  O26  1  0.50000000  0.50000000  0.49839900  1
  O  O27  1  0.00000000  0.71874800  0.06313300  1
  O  O28  1  0.00000000  0.28125200  0.06313300  1
  O  O29  1  0.00000000  0.74451600  0.48789800  1
  O  O30  1  0.00000000  0.25548400  0.48789800  1
