# generated using pymatgen
data_YbCO4
_symmetry_space_group_name_H-M   'P 1'
_cell_length_a   9.79749400
_cell_length_b   9.79749400
_cell_length_c   7.83673000
_cell_angle_alpha   90.00000000
_cell_angle_beta   90.00000000
_cell_angle_gamma   90.00000000
_symmetry_Int_Tables_number   1
_chemical_formula_structural   YbCO4
_chemical_formula_sum   'Yb8 C8 O32'
_cell_volume   752.25467705
_cell_formula_units_Z   8
loop_
 _symmetry_equiv_pos_site_id
 _symmetry_equiv_pos_as_xyz
  1  'x, y, z'
loop_
 _atom_site_type_symbol
 _atom_site_label
 _atom_site_symmetry_multiplicity
 _atom_site_fract_x
 _atom_site_fract_y
 _atom_site_fract_z
 _atom_site_occupancy
  Yb  Yb0  1  0.74305100  0.25694900  0.00000000  1
  Yb  Yb1  1  0.74305100  0.74305100  0.00000000  1
  Yb  Yb2  1  0.25694900  0.25694900  0.00000000  1
  Yb  Yb3  1  0.25694900  0.74305100  0.00000000  1
  Yb  Yb4  1  0.75694900  0.24305100  0.50000000  1
  Yb  Yb5  1  0.75694900  0.75694900  0.50000000  1
  Yb  Yb6  1  0.24305100  0.24305100  0.50000000  1
  Yb  Yb7  1  0.24305100  0.75694900  0.50000000  1
  C  C8  1  0.74810200  0.00000000  0.16996500  1
  C  C9  1  0.25189800  0.00000000  0.16996500  1
  C  C10  1  0.50000000  0.24810200  0.66996500  1
  C  C11  1  0.50000000  0.75189800  0.66996500  1
  C  C12  1  0.75189800  0.50000000  0.33003500  1
  C  C13  1  0.24810200  0.50000000  0.33003500  1
  C  C14  1  0.00000000  0.25189800  0.83003500  1
  C  C15  1  0.00000000  0.74810200  0.83003500  1
  O  O16  1  0.50000000  0.27268300  0.04386700  1
  O  O17  1  0.50000000  0.72731700  0.04386700  1
  O  O18  1  0.77268300  0.00000000  0.54386700  1
  O  O19  1  0.22731700  0.00000000  0.54386700  1
  O  O20  1  0.00000000  0.22731700  0.45613300  1
  O  O21  1  0.00000000  0.77268300  0.45613300  1
  O  O22  1  0.72731700  0.50000000  0.95613300  1
  O  O23  1  0.27268300  0.50000000  0.95613300  1
  O  O24  1  0.73680300  0.00000000  0.00617300  1
  O  O25  1  0.26319700  0.00000000  0.00617300  1
  O  O26  1  0.50000000  0.23680300  0.50617300  1
  O  O27  1  0.50000000  0.76319700  0.50617300  1
  O  O28  1  0.76319700  0.50000000  0.49382700  1
  O  O29  1  0.23680300  0.50000000  0.49382700  1
  O  O30  1  0.00000000  0.26319700  0.99382700  1
  O  O31  1  0.00000000  0.73680300  0.99382700  1
  O  O32  1  0.74635300  0.38520600  0.24901300  1
  O  O33  1  0.74635300  0.61479400  0.24901300  1
  O  O34  1  0.25364700  0.38520600  0.24901300  1
  O  O35  1  0.25364700  0.61479400  0.24901300  1
  O  O36  1  0.88520600  0.24635300  0.74901300  1
  O  O37  1  0.88520600  0.75364700  0.74901300  1
  O  O38  1  0.11479400  0.24635300  0.74901300  1
  O  O39  1  0.11479400  0.75364700  0.74901300  1
  O  O40  1  0.75364700  0.11479400  0.25098700  1
  O  O41  1  0.75364700  0.88520600  0.25098700  1
  O  O42  1  0.24635300  0.11479400  0.25098700  1
  O  O43  1  0.24635300  0.88520600  0.25098700  1
  O  O44  1  0.61479400  0.25364700  0.75098700  1
  O  O45  1  0.61479400  0.74635300  0.75098700  1
  O  O46  1  0.38520600  0.25364700  0.75098700  1
  O  O47  1  0.38520600  0.74635300  0.75098700  1
