# generated using pymatgen
data_Ta3Bi7O18
_symmetry_space_group_name_H-M   'P 1'
_cell_length_a   6.70362900
_cell_length_b   7.67769155
_cell_length_c   16.78345473
_cell_angle_alpha   103.17290221
_cell_angle_beta   93.95018641
_cell_angle_gamma   90.06888756
_symmetry_Int_Tables_number   1
_chemical_formula_structural   Ta3Bi7O18
_chemical_formula_sum   'Ta6 Bi14 O36'
_cell_volume   838.96250005
_cell_formula_units_Z   2
loop_
 _symmetry_equiv_pos_site_id
 _symmetry_equiv_pos_as_xyz
  1  'x, y, z'
loop_
 _atom_site_type_symbol
 _atom_site_label
 _atom_site_symmetry_multiplicity
 _atom_site_fract_x
 _atom_site_fract_y
 _atom_site_fract_z
 _atom_site_occupancy
  Ta  Ta0  1  0.09504200  0.81563200  0.12217100  1
  Ta  Ta1  1  0.10040200  0.31122800  0.11825700  1
  Ta  Ta2  1  0.50257300  0.49793200  0.49826400  1
  Ta  Ta3  1  0.86458500  0.69715200  0.89699800  1
  Ta  Ta4  1  0.49711000  0.00178000  0.50055600  1
  Ta  Ta5  1  0.86220300  0.19913100  0.89552000  1
  Bi  Bi6  1  0.80358200  0.89913000  0.32229400  1
  Bi  Bi7  1  0.29102400  0.16229800  0.32375200  1
  Bi  Bi8  1  0.30206500  0.64837100  0.29438800  1
  Bi  Bi9  1  0.14174700  0.11070100  0.72220100  1
  Bi  Bi10  1  0.67326600  0.35646200  0.70815000  1
  Bi  Bi11  1  0.14770400  0.61133800  0.72346900  1
  Bi  Bi12  1  0.80489800  0.39236700  0.29252600  1
  Bi  Bi13  1  0.63717000  0.56811900  0.11076900  1
  Bi  Bi14  1  0.02644100  0.74544600  0.50087400  1
  Bi  Bi15  1  0.39413600  0.95064800  0.89633600  1
  Bi  Bi16  1  0.96736600  0.25879400  0.50631500  1
  Bi  Bi17  1  0.33603500  0.45435000  0.90693800  1
  Bi  Bi18  1  0.67370300  0.83919700  0.68252900  1
  Bi  Bi19  1  0.57671900  0.05751200  0.11825000  1
  O  O20  1  0.03733100  0.57372600  0.14263600  1
  O  O21  1  0.13236800  0.33424900  0.24247500  1
  O  O22  1  0.83304600  0.66982900  0.76839100  1
  O  O23  1  0.13416400  0.91523300  0.24290900  1
  O  O24  1  0.83562400  0.09561400  0.76925400  1
  O  O25  1  0.16361200  0.14684700  0.86577100  1
  O  O26  1  0.37500700  0.75843900  0.10851100  1
  O  O27  1  0.37114300  0.35947500  0.10406800  1
  O  O28  1  0.79703300  0.28686100  0.14974300  1
  O  O29  1  0.97477600  0.28364800  0.00622800  1
  O  O30  1  0.46735400  0.76479500  0.52786500  1
  O  O31  1  0.63719500  0.61586700  0.24070500  1
  O  O32  1  0.79622500  0.53059400  0.48388100  1
  O  O33  1  0.14639900  0.05262200  0.09989100  1
  O  O34  1  0.79230400  0.93862900  0.46612300  1
  O  O35  1  0.98407600  0.33580000  0.66877200  1
  O  O36  1  0.00054800  0.67695500  0.35231900  1
  O  O37  1  0.80601200  0.95425600  0.90813900  1
  O  O38  1  0.56038400  0.13559500  0.24668800  1
  O  O39  1  0.59822300  0.09853200  0.61532700  1
  O  O40  1  0.40570900  0.88644300  0.76835700  1
  O  O41  1  0.57019700  0.51733300  0.61970700  1
  O  O42  1  0.91055500  0.43413000  0.86748200  1
  O  O43  1  0.99217200  0.82846800  0.64109900  1
  O  O44  1  0.32507500  0.39288400  0.77658500  1
  O  O45  1  0.58213900  0.25057200  0.90619500  1
  O  O46  1  0.16380500  0.72218500  0.86409600  1
  O  O47  1  0.55453100  0.23686100  0.47233300  1
  O  O48  1  0.79394400  0.85909200  0.14230900  1
  O  O49  1  0.58526500  0.65785200  0.91032100  1
  O  O50  1  0.44324100  0.89894100  0.37613200  1
  O  O51  1  0.44844900  0.48754700  0.37796400  1
  O  O52  1  0.22147200  0.05773200  0.51353100  1
  O  O53  1  0.96231300  0.17842100  0.37023400  1
  O  O54  1  0.21571700  0.45773300  0.50836900  1
  O  O55  1  0.98727800  0.72326000  0.00463300  1
