# generated using pymatgen
data_La2GeS5
_symmetry_space_group_name_H-M   'P 1'
_cell_length_a   7.32408600
_cell_length_b   9.70862457
_cell_length_c   11.27072812
_cell_angle_alpha   81.75268068
_cell_angle_beta   90.00000000
_cell_angle_gamma   90.00000000
_symmetry_Int_Tables_number   1
_chemical_formula_structural   La2GeS5
_chemical_formula_sum   'La8 Ge4 S20'
_cell_volume   793.13716254
_cell_formula_units_Z   4
loop_
 _symmetry_equiv_pos_site_id
 _symmetry_equiv_pos_as_xyz
  1  'x, y, z'
loop_
 _atom_site_type_symbol
 _atom_site_label
 _atom_site_symmetry_multiplicity
 _atom_site_fract_x
 _atom_site_fract_y
 _atom_site_fract_z
 _atom_site_occupancy
  La  La0  1  0.56023700  0.50458900  0.67184100  1
  La  La1  1  0.06023700  0.49541100  0.82815900  1
  La  La2  1  0.43976300  0.49541100  0.32815900  1
  La  La3  1  0.93976300  0.50458900  0.17184100  1
  La  La4  1  0.39477500  0.74204800  0.99008300  1
  La  La5  1  0.89477500  0.25795200  0.50991700  1
  La  La6  1  0.60522500  0.25795200  0.00991700  1
  La  La7  1  0.10522500  0.74204800  0.49008300  1
  Ge  Ge8  1  0.09198100  0.11249400  0.20967200  1
  Ge  Ge9  1  0.59198100  0.88750600  0.29032800  1
  Ge  Ge10  1  0.90801900  0.88750600  0.79032800  1
  Ge  Ge11  1  0.40801900  0.11249400  0.70967200  1
  S  S12  1  0.71754700  0.53423500  0.94947300  1
  S  S13  1  0.21754700  0.46576500  0.55052700  1
  S  S14  1  0.28245300  0.46576500  0.05052700  1
  S  S15  1  0.78245300  0.53423500  0.44947300  1
  S  S16  1  0.88295300  0.98480200  0.34368000  1
  S  S17  1  0.38295300  0.01519800  0.15632000  1
  S  S18  1  0.11704700  0.01519800  0.65632000  1
  S  S19  1  0.61704700  0.98480200  0.84368000  1
  S  S20  1  0.66410400  0.72910800  0.17438000  1
  S  S21  1  0.16410400  0.27089200  0.32562000  1
  S  S22  1  0.33589600  0.27089200  0.82562000  1
  S  S23  1  0.83589600  0.72910800  0.67438000  1
  S  S24  1  0.01553600  0.81554600  0.96726600  1
  S  S25  1  0.51553600  0.18445400  0.53273400  1
  S  S26  1  0.98446400  0.18445400  0.03273400  1
  S  S27  1  0.48446400  0.81554600  0.46726600  1
  S  S28  1  0.32408900  0.69861200  0.74770300  1
  S  S29  1  0.82408900  0.30138800  0.75229700  1
  S  S30  1  0.67591100  0.30138800  0.25229700  1
  S  S31  1  0.17591100  0.69861200  0.24770300  1
