# generated using pymatgen
data_Ce2Sb4Ir3
_symmetry_space_group_name_H-M   'P 1'
_cell_length_a   4.56810600
_cell_length_b   10.96669900
_cell_length_c   16.30634900
_cell_angle_alpha   90.00000000
_cell_angle_beta   90.00000000
_cell_angle_gamma   90.00000000
_symmetry_Int_Tables_number   1
_chemical_formula_structural   Ce2Sb4Ir3
_chemical_formula_sum   'Ce8 Sb16 Ir12'
_cell_volume   816.89987521
_cell_formula_units_Z   4
loop_
 _symmetry_equiv_pos_site_id
 _symmetry_equiv_pos_as_xyz
  1  'x, y, z'
loop_
 _atom_site_type_symbol
 _atom_site_label
 _atom_site_symmetry_multiplicity
 _atom_site_fract_x
 _atom_site_fract_y
 _atom_site_fract_z
 _atom_site_occupancy
  Ce  Ce0  1  0.25000000  0.74509100  0.50515800  1
  Ce  Ce1  1  0.25000000  0.75490900  0.00515800  1
  Ce  Ce2  1  0.75000000  0.25490900  0.49484200  1
  Ce  Ce3  1  0.75000000  0.24509100  0.99484200  1
  Ce  Ce4  1  0.25000000  0.58877800  0.75034300  1
  Ce  Ce5  1  0.25000000  0.91122200  0.25034300  1
  Ce  Ce6  1  0.75000000  0.41122200  0.24965700  1
  Ce  Ce7  1  0.75000000  0.08877900  0.74965700  1
  Sb  Sb8  1  0.25000000  0.27430600  0.65031300  1
  Sb  Sb9  1  0.25000000  0.22569400  0.15031300  1
  Sb  Sb10  1  0.75000000  0.72569400  0.34968700  1
  Sb  Sb11  1  0.75000000  0.77430600  0.84968700  1
  Sb  Sb12  1  0.25000000  0.88800800  0.71169400  1
  Sb  Sb13  1  0.25000000  0.61199200  0.21169400  1
  Sb  Sb14  1  0.75000000  0.11199200  0.28830600  1
  Sb  Sb15  1  0.75000000  0.38800800  0.78830600  1
  Sb  Sb16  1  0.25000000  0.06288500  0.89394100  1
  Sb  Sb17  1  0.25000000  0.43711500  0.39394100  1
  Sb  Sb18  1  0.75000000  0.93711500  0.10605900  1
  Sb  Sb19  1  0.75000000  0.56288500  0.60605900  1
  Sb  Sb20  1  0.25000000  0.44626500  0.93201000  1
  Sb  Sb21  1  0.25000000  0.05373500  0.43201000  1
  Sb  Sb22  1  0.75000000  0.55373500  0.06799000  1
  Sb  Sb23  1  0.75000000  0.94626500  0.56799000  1
  Ir  Ir24  1  0.25000000  0.46769600  0.55624200  1
  Ir  Ir25  1  0.25000000  0.03230400  0.05624200  1
  Ir  Ir26  1  0.75000000  0.53230400  0.44375800  1
  Ir  Ir27  1  0.75000000  0.96769600  0.94375800  1
  Ir  Ir28  1  0.25000000  0.05594200  0.59280500  1
  Ir  Ir29  1  0.25000000  0.44405800  0.09280500  1
  Ir  Ir30  1  0.75000000  0.94405800  0.40719500  1
  Ir  Ir31  1  0.75000000  0.55594200  0.90719500  1
  Ir  Ir32  1  0.25000000  0.27432800  0.81663300  1
  Ir  Ir33  1  0.25000000  0.22567200  0.31663300  1
  Ir  Ir34  1  0.75000000  0.72567200  0.18336700  1
  Ir  Ir35  1  0.75000000  0.77432800  0.68336700  1
