# generated using pymatgen
data_KUSeO8
_symmetry_space_group_name_H-M   'P 1'
_cell_length_a   8.26072500
_cell_length_b   8.47236600
_cell_length_c   11.69959978
_cell_angle_alpha   70.86013860
_cell_angle_beta   90.00000000
_cell_angle_gamma   90.00000000
_symmetry_Int_Tables_number   1
_chemical_formula_structural   KUSeO8
_chemical_formula_sum   'K4 U4 Se4 O32'
_cell_volume   773.56616154
_cell_formula_units_Z   4
loop_
 _symmetry_equiv_pos_site_id
 _symmetry_equiv_pos_as_xyz
  1  'x, y, z'
loop_
 _atom_site_type_symbol
 _atom_site_label
 _atom_site_symmetry_multiplicity
 _atom_site_fract_x
 _atom_site_fract_y
 _atom_site_fract_z
 _atom_site_occupancy
  K  K0  1  0.53552900  0.43998600  0.79522000  1
  K  K1  1  0.03552900  0.56001400  0.70478000  1
  K  K2  1  0.46447100  0.56001400  0.20478000  1
  K  K3  1  0.96447100  0.43998600  0.29522000  1
  U  U4  1  0.09580900  0.93004300  0.29353800  1
  U  U5  1  0.59580900  0.06995700  0.20646200  1
  U  U6  1  0.90419100  0.06995700  0.70646200  1
  U  U7  1  0.40419100  0.93004300  0.79353800  1
  Se  Se8  1  0.23750500  0.30757400  0.03679000  1
  Se  Se9  1  0.73750500  0.69242600  0.46321000  1
  Se  Se10  1  0.76249500  0.69242600  0.96321000  1
  Se  Se11  1  0.26249500  0.30757400  0.53679000  1
  O  O12  1  0.44098300  0.28136000  0.06587100  1
  O  O13  1  0.94098300  0.71864000  0.43412900  1
  O  O14  1  0.55901700  0.71864000  0.93412900  1
  O  O15  1  0.05901700  0.28136000  0.56587100  1
  O  O16  1  0.02672700  0.09206200  0.35324800  1
  O  O17  1  0.52672700  0.90793800  0.14675200  1
  O  O18  1  0.97327300  0.90793800  0.64675200  1
  O  O19  1  0.47327300  0.09206200  0.85324800  1
  O  O20  1  0.21300200  0.36254700  0.88951900  1
  O  O21  1  0.71300200  0.63745300  0.61048100  1
  O  O22  1  0.78699800  0.63745300  0.11048100  1
  O  O23  1  0.28699800  0.36254700  0.38951900  1
  O  O24  1  0.17227100  0.44285600  0.10044500  1
  O  O25  1  0.67227100  0.55714400  0.39955500  1
  O  O26  1  0.82772900  0.55714400  0.89955500  1
  O  O27  1  0.32772900  0.44285600  0.60044500  1
  O  O28  1  0.18098000  0.75287800  0.25506800  1
  O  O29  1  0.68098000  0.24712200  0.24493200  1
  O  O30  1  0.81902000  0.24712200  0.74493200  1
  O  O31  1  0.31902000  0.75287800  0.75506800  1
  O  O32  1  0.85566000  0.96509900  0.20337600  1
  O  O33  1  0.35566000  0.03490100  0.29662400  1
  O  O34  1  0.14434000  0.03490100  0.79662400  1
  O  O35  1  0.64434000  0.96509900  0.70337600  1
  O  O36  1  0.15155200  0.11615400  0.10297600  1
  O  O37  1  0.65155200  0.88384600  0.39702400  1
  O  O38  1  0.84844800  0.88384600  0.89702400  1
  O  O39  1  0.34844800  0.11615400  0.60297600  1
  O  O40  1  0.27808500  0.82653100  0.44715300  1
  O  O41  1  0.77808500  0.17346900  0.05284700  1
  O  O42  1  0.72191500  0.17346900  0.55284700  1
  O  O43  1  0.22191500  0.82653100  0.94715300  1
