# generated using pymatgen
data_K5Fe2Te5
_symmetry_space_group_name_H-M   'P 1'
_cell_length_a   17.22911059
_cell_length_b   17.22911059
_cell_length_c   17.22911059
_cell_angle_alpha   90.00000000
_cell_angle_beta   90.00000000
_cell_angle_gamma   90.00000000
_symmetry_Int_Tables_number   1
_chemical_formula_structural   K5Fe2Te5
_chemical_formula_sum   'K60 Fe24 Te60'
_cell_volume   5114.32798271
_cell_formula_units_Z   12
loop_
 _symmetry_equiv_pos_site_id
 _symmetry_equiv_pos_as_xyz
  1  'x, y, z'
loop_
 _atom_site_type_symbol
 _atom_site_label
 _atom_site_symmetry_multiplicity
 _atom_site_fract_x
 _atom_site_fract_y
 _atom_site_fract_z
 _atom_site_occupancy
  K  K0  1  0.50000000  0.50000000  0.00000000  1
  K  K1  1  0.50000000  0.00000000  0.50000000  1
  K  K2  1  0.00000000  0.50000000  0.50000000  1
  K  K3  1  0.00000000  0.00000000  0.00000000  1
  K  K4  1  0.12646133  0.87353867  0.37353867  1
  K  K5  1  0.87353867  0.37353867  0.12646133  1
  K  K6  1  0.37353867  0.12646133  0.87353867  1
  K  K7  1  0.62646133  0.62646133  0.62646133  1
  K  K8  1  0.87353867  0.12646133  0.62646133  1
  K  K9  1  0.12646133  0.62646133  0.87353867  1
  K  K10  1  0.62646133  0.87353867  0.12646133  1
  K  K11  1  0.37353867  0.37353867  0.37353867  1
  K  K12  1  0.13086795  0.60435044  0.11245120  1
  K  K13  1  0.86913205  0.10435044  0.38754880  1
  K  K14  1  0.36913205  0.39564956  0.61245120  1
  K  K15  1  0.63086795  0.89564956  0.88754880  1
  K  K16  1  0.11245120  0.13086795  0.60435044  1
  K  K17  1  0.38754880  0.86913205  0.10435044  1
  K  K18  1  0.61245120  0.36913205  0.39564956  1
  K  K19  1  0.88754880  0.63086795  0.89564956  1
  K  K20  1  0.60435044  0.11245120  0.13086795  1
  K  K21  1  0.10435044  0.38754880  0.86913205  1
  K  K22  1  0.39564956  0.61245120  0.36913205  1
  K  K23  1  0.89564956  0.88754880  0.63086795  1
  K  K24  1  0.86913205  0.39564956  0.88754880  1
  K  K25  1  0.13086795  0.89564956  0.61245120  1
  K  K26  1  0.63086795  0.60435044  0.38754880  1
  K  K27  1  0.36913205  0.10435044  0.11245120  1
  K  K28  1  0.88754880  0.86913205  0.39564956  1
  K  K29  1  0.61245120  0.13086795  0.89564956  1
  K  K30  1  0.38754880  0.63086795  0.60435044  1
  K  K31  1  0.11245120  0.36913205  0.10435044  1
  K  K32  1  0.39564956  0.88754880  0.86913205  1
  K  K33  1  0.89564956  0.61245120  0.13086795  1
  K  K34  1  0.60435044  0.38754880  0.63086795  1
  K  K35  1  0.10435044  0.11245120  0.36913205  1
  K  K36  1  0.15335145  0.61438970  0.35015310  1
  K  K37  1  0.84664855  0.11438970  0.14984690  1
  K  K38  1  0.34664855  0.38561030  0.85015310  1
  K  K39  1  0.65335145  0.88561030  0.64984690  1
  K  K40  1  0.35015310  0.15335145  0.61438970  1
  K  K41  1  0.14984690  0.84664855  0.11438970  1
  K  K42  1  0.85015310  0.34664855  0.38561030  1
  K  K43  1  0.64984690  0.65335145  0.88561030  1
  K  K44  1  0.61438970  0.35015310  0.15335145  1
  K  K45  1  0.11438970  0.14984690  0.84664855  1
  K  K46  1  0.38561030  0.85015310  0.34664855  1
  K  K47  1  0.88561030  0.64984690  0.65335145  1
  K  K48  1  0.84664855  0.38561030  0.64984690  1
  K  K49  1  0.15335145  0.88561030  0.85015310  1
  K  K50  1  0.65335145  0.61438970  0.14984690  1
  K  K51  1  0.34664855  0.11438970  0.35015310  1
  K  K52  1  0.64984690  0.84664855  0.38561030  1
  K  K53  1  0.85015310  0.15335145  0.88561030  1
  K  K54  1  0.14984690  0.65335145  0.61438970  1
  K  K55  1  0.35015310  0.34664855  0.11438970  1
  K  K56  1  0.38561030  0.64984690  0.84664855  1
  K  K57  1  0.88561030  0.85015310  0.15335145  1
  K  K58  1  0.61438970  0.14984690  0.65335145  1
  K  K59  1  0.11438970  0.35015310  0.34664855  1
  Fe  Fe60  1  0.33416490  0.55380681  0.15739337  1
  Fe  Fe61  1  0.66583510  0.05380681  0.34260663  1
  Fe  Fe62  1  0.16583510  0.44619319  0.65739337  1
  Fe  Fe63  1  0.83416490  0.94619319  0.84260663  1
  Fe  Fe64  1  0.15739337  0.33416490  0.55380681  1
  Fe  Fe65  1  0.34260663  0.66583510  0.05380681  1
  Fe  Fe66  1  0.65739337  0.16583510  0.44619319  1
  Fe  Fe67  1  0.84260663  0.83416490  0.94619319  1
  Fe  Fe68  1  0.55380681  0.15739337  0.33416490  1
  Fe  Fe69  1  0.05380681  0.34260663  0.66583510  1
  Fe  Fe70  1  0.44619319  0.65739337  0.16583510  1
  Fe  Fe71  1  0.94619319  0.84260663  0.83416490  1
  Fe  Fe72  1  0.66583510  0.44619319  0.84260663  1
  Fe  Fe73  1  0.33416490  0.94619319  0.65739337  1
  Fe  Fe74  1  0.83416490  0.55380681  0.34260663  1
  Fe  Fe75  1  0.16583510  0.05380681  0.15739337  1
  Fe  Fe76  1  0.84260663  0.66583510  0.44619319  1
  Fe  Fe77  1  0.65739337  0.33416490  0.94619319  1
  Fe  Fe78  1  0.34260663  0.83416490  0.55380681  1
  Fe  Fe79  1  0.15739337  0.16583510  0.05380681  1
  Fe  Fe80  1  0.44619319  0.84260663  0.66583510  1
  Fe  Fe81  1  0.94619319  0.65739337  0.33416490  1
  Fe  Fe82  1  0.55380681  0.34260663  0.83416490  1
  Fe  Fe83  1  0.05380681  0.15739337  0.16583510  1
  Te  Te84  1  0.30271906  0.69728094  0.19728094  1
  Te  Te85  1  0.69728094  0.19728094  0.30271906  1
  Te  Te86  1  0.19728094  0.30271906  0.69728094  1
  Te  Te87  1  0.80271906  0.80271906  0.80271906  1
  Te  Te88  1  0.69728094  0.30271906  0.80271906  1
  Te  Te89  1  0.30271906  0.80271906  0.69728094  1
  Te  Te90  1  0.80271906  0.69728094  0.30271906  1
  Te  Te91  1  0.19728094  0.19728094  0.19728094  1
  Te  Te92  1  0.47312268  0.51113410  0.20109765  1
  Te  Te93  1  0.52687732  0.01113410  0.29890235  1
  Te  Te94  1  0.02687732  0.48886590  0.70109765  1
  Te  Te95  1  0.97312268  0.98886590  0.79890235  1
  Te  Te96  1  0.20109765  0.47312268  0.51113410  1
  Te  Te97  1  0.29890235  0.52687732  0.01113410  1
  Te  Te98  1  0.70109765  0.02687732  0.48886590  1
  Te  Te99  1  0.79890235  0.97312268  0.98886590  1
  Te  Te100  1  0.51113410  0.20109765  0.47312268  1
  Te  Te101  1  0.01113410  0.29890235  0.52687732  1
  Te  Te102  1  0.48886590  0.70109765  0.02687732  1
  Te  Te103  1  0.98886590  0.79890235  0.97312268  1
  Te  Te104  1  0.52687732  0.48886590  0.79890235  1
  Te  Te105  1  0.47312268  0.98886590  0.70109765  1
  Te  Te106  1  0.97312268  0.51113410  0.29890235  1
  Te  Te107  1  0.02687732  0.01113410  0.20109765  1
  Te  Te108  1  0.79890235  0.52687732  0.48886590  1
  Te  Te109  1  0.70109765  0.47312268  0.98886590  1
  Te  Te110  1  0.29890235  0.97312268  0.51113410  1
  Te  Te111  1  0.20109765  0.02687732  0.01113410  1
  Te  Te112  1  0.48886590  0.79890235  0.52687732  1
  Te  Te113  1  0.98886590  0.70109765  0.47312268  1
  Te  Te114  1  0.51113410  0.29890235  0.97312268  1
  Te  Te115  1  0.01113410  0.20109765  0.02687732  1
  Te  Te116  1  0.26086612  0.74060411  0.46830271  1
  Te  Te117  1  0.73913388  0.24060411  0.03169729  1
  Te  Te118  1  0.23913388  0.25939589  0.96830271  1
  Te  Te119  1  0.76086612  0.75939589  0.53169729  1
  Te  Te120  1  0.46830271  0.26086612  0.74060411  1
  Te  Te121  1  0.03169729  0.73913388  0.24060411  1
  Te  Te122  1  0.96830271  0.23913388  0.25939589  1
  Te  Te123  1  0.53169729  0.76086612  0.75939589  1
  Te  Te124  1  0.74060411  0.46830271  0.26086612  1
  Te  Te125  1  0.24060411  0.03169729  0.73913388  1
  Te  Te126  1  0.25939589  0.96830271  0.23913388  1
  Te  Te127  1  0.75939589  0.53169729  0.76086612  1
  Te  Te128  1  0.73913388  0.25939589  0.53169729  1
  Te  Te129  1  0.26086612  0.75939589  0.96830271  1
  Te  Te130  1  0.76086612  0.74060411  0.03169729  1
  Te  Te131  1  0.23913388  0.24060411  0.46830271  1
  Te  Te132  1  0.53169729  0.73913388  0.25939589  1
  Te  Te133  1  0.96830271  0.26086612  0.75939589  1
  Te  Te134  1  0.03169729  0.76086612  0.74060411  1
  Te  Te135  1  0.46830271  0.23913388  0.24060411  1
  Te  Te136  1  0.25939589  0.53169729  0.73913388  1
  Te  Te137  1  0.75939589  0.96830271  0.26086612  1
  Te  Te138  1  0.74060411  0.03169729  0.76086612  1
  Te  Te139  1  0.24060411  0.46830271  0.23913388  1
  Te  Te140  1  0.00000000  0.00000000  0.50000000  1
  Te  Te141  1  0.00000000  0.50000000  0.00000000  1
  Te  Te142  1  0.50000000  0.00000000  0.00000000  1
  Te  Te143  1  0.50000000  0.50000000  0.50000000  1
