# generated using pymatgen
data_VPNO6
_symmetry_space_group_name_H-M   'P 1'
_cell_length_a   6.65305700
_cell_length_b   10.09626900
_cell_length_c   18.97267300
_cell_angle_alpha   90.00000000
_cell_angle_beta   90.00000000
_cell_angle_gamma   90.00000000
_symmetry_Int_Tables_number   1
_chemical_formula_structural   VPNO6
_chemical_formula_sum   'V8 P8 N8 O48'
_cell_volume   1274.41442637
_cell_formula_units_Z   8
loop_
 _symmetry_equiv_pos_site_id
 _symmetry_equiv_pos_as_xyz
  1  'x, y, z'
loop_
 _atom_site_type_symbol
 _atom_site_label
 _atom_site_symmetry_multiplicity
 _atom_site_fract_x
 _atom_site_fract_y
 _atom_site_fract_z
 _atom_site_occupancy
  V  V0  1  0.53581800  0.95212000  0.74217200  1
  V  V1  1  0.03581800  0.54788000  0.25782800  1
  V  V2  1  0.46418200  0.45212000  0.75782800  1
  V  V3  1  0.96418200  0.04788000  0.24217200  1
  V  V4  1  0.46418200  0.04788000  0.25782800  1
  V  V5  1  0.96418200  0.45212000  0.74217200  1
  V  V6  1  0.53581800  0.54788000  0.24217200  1
  V  V7  1  0.03581800  0.95212000  0.75782800  1
  P  P8  1  0.29885500  0.94225900  0.89292600  1
  P  P9  1  0.79885500  0.55774100  0.10707400  1
  P  P10  1  0.70114500  0.44225900  0.60707400  1
  P  P11  1  0.20114500  0.05774100  0.39292600  1
  P  P12  1  0.70114500  0.05774100  0.10707400  1
  P  P13  1  0.20114500  0.44225900  0.89292600  1
  P  P14  1  0.29885500  0.55774100  0.39292600  1
  P  P15  1  0.79885500  0.94225900  0.60707400  1
  N  N16  1  0.63336800  0.78334300  0.41518800  1
  N  N17  1  0.13336800  0.71665700  0.58481200  1
  N  N18  1  0.36663200  0.28334300  0.08481200  1
  N  N19  1  0.86663200  0.21665700  0.91518800  1
  N  N20  1  0.36663200  0.21665700  0.58481200  1
  N  N21  1  0.86663200  0.28334300  0.41518800  1
  N  N22  1  0.63336800  0.71665700  0.91518800  1
  N  N23  1  0.13336800  0.78334300  0.08481200  1
  O  O24  1  0.46692300  0.73501200  0.93142500  1
  O  O25  1  0.96692300  0.76498800  0.06857500  1
  O  O26  1  0.53307700  0.23501200  0.56857500  1
  O  O27  1  0.03307700  0.26498800  0.43142500  1
  O  O28  1  0.53307700  0.26498800  0.06857500  1
  O  O29  1  0.03307700  0.23501200  0.93142500  1
  O  O30  1  0.46692300  0.76498800  0.43142500  1
  O  O31  1  0.96692300  0.73501200  0.56857500  1
  O  O32  1  0.28514000  0.98833000  0.96606600  1
  O  O33  1  0.78514000  0.51167000  0.03393400  1
  O  O34  1  0.71486000  0.48833000  0.53393400  1
  O  O35  1  0.21486000  0.01167000  0.46606600  1
  O  O36  1  0.71486000  0.01167000  0.03393400  1
  O  O37  1  0.21486000  0.48833000  0.96606600  1
  O  O38  1  0.28514000  0.51167000  0.46606600  1
  O  O39  1  0.78514000  0.98833000  0.53393400  1
  O  O40  1  0.61642800  0.88549700  0.64511400  1
  O  O41  1  0.11642800  0.61450300  0.35488600  1
  O  O42  1  0.38357200  0.38549700  0.85488600  1
  O  O43  1  0.88357200  0.11450300  0.14511400  1
  O  O44  1  0.38357200  0.11450300  0.35488600  1
  O  O45  1  0.88357200  0.38549700  0.64511400  1
  O  O46  1  0.61642800  0.61450300  0.14511400  1
  O  O47  1  0.11642800  0.88549700  0.85488600  1
  O  O48  1  0.97813700  0.97337100  0.65365900  1
  O  O49  1  0.47813700  0.52662900  0.34634100  1
  O  O50  1  0.02186300  0.47337100  0.84634100  1
  O  O51  1  0.52186300  0.02662900  0.15365900  1
  O  O52  1  0.02186300  0.02662900  0.34634100  1
  O  O53  1  0.52186300  0.47337100  0.65365900  1
  O  O54  1  0.97813700  0.52662900  0.15365900  1
  O  O55  1  0.47813700  0.97337100  0.84634100  1
  O  O56  1  0.45641200  0.89216800  0.27720800  1
  O  O57  1  0.95641200  0.60783200  0.72279200  1
  O  O58  1  0.54358800  0.39216800  0.22279200  1
  O  O59  1  0.04358800  0.10783200  0.77720800  1
  O  O60  1  0.54358800  0.10783200  0.72279200  1
  O  O61  1  0.04358800  0.39216800  0.27720800  1
  O  O62  1  0.45641200  0.60783200  0.77720800  1
  O  O63  1  0.95641200  0.89216800  0.22279200  1
  O  O64  1  0.71352700  0.11056300  0.26996500  1
  O  O65  1  0.21352700  0.38943700  0.73003500  1
  O  O66  1  0.28647300  0.61056300  0.23003500  1
  O  O67  1  0.78647300  0.88943700  0.76996500  1
  O  O68  1  0.28647300  0.88943700  0.73003500  1
  O  O69  1  0.78647300  0.61056300  0.26996500  1
  O  O70  1  0.71352700  0.38943700  0.76996500  1
  O  O71  1  0.21352700  0.11056300  0.23003500  1
