# generated using pymatgen
data_RbMg14BO15
_symmetry_space_group_name_H-M   'P 1'
_cell_length_a   4.52423300
_cell_length_b   8.26901400
_cell_length_c   8.92255700
_cell_angle_alpha   90.00000000
_cell_angle_beta   90.00000000
_cell_angle_gamma   90.00000000
_symmetry_Int_Tables_number   1
_chemical_formula_structural   RbMg14BO15
_chemical_formula_sum   'Rb1 Mg14 B1 O15'
_cell_volume   333.80129825
_cell_formula_units_Z   1
loop_
 _symmetry_equiv_pos_site_id
 _symmetry_equiv_pos_as_xyz
  1  'x, y, z'
loop_
 _atom_site_type_symbol
 _atom_site_label
 _atom_site_symmetry_multiplicity
 _atom_site_fract_x
 _atom_site_fract_y
 _atom_site_fract_z
 _atom_site_occupancy
  Rb  Rb0  1  0.00000000  0.00000000  0.96417800  1
  Mg  Mg1  1  0.00000000  0.00000000  0.49634300  1
  Mg  Mg2  1  0.00000000  0.50000000  0.49477300  1
  Mg  Mg3  1  0.50000000  0.74015900  0.00945200  1
  Mg  Mg4  1  0.50000000  0.25984100  0.00945200  1
  Mg  Mg5  1  0.50000000  0.74646500  0.48949800  1
  Mg  Mg6  1  0.50000000  0.25353500  0.48949800  1
  Mg  Mg7  1  0.50000000  0.00000000  0.72436300  1
  Mg  Mg8  1  0.50000000  0.50000000  0.77115100  1
  Mg  Mg9  1  0.50000000  0.00000000  0.25215900  1
  Mg  Mg10  1  0.50000000  0.50000000  0.24672700  1
  Mg  Mg11  1  0.00000000  0.73471000  0.72771100  1
  Mg  Mg12  1  0.00000000  0.26529000  0.72771100  1
  Mg  Mg13  1  0.00000000  0.75694500  0.25454500  1
  Mg  Mg14  1  0.00000000  0.24305500  0.25454500  1
  B  B15  1  0.00000000  0.50000000  0.06770500  1
  O  O16  1  0.00000000  0.50000000  0.71943100  1
  O  O17  1  0.00000000  0.00000000  0.26871500  1
  O  O18  1  0.00000000  0.50000000  0.23548800  1
  O  O19  1  0.50000000  0.75010100  0.75747700  1
  O  O20  1  0.50000000  0.24989900  0.75747700  1
  O  O21  1  0.50000000  0.74739200  0.25132900  1
  O  O22  1  0.50000000  0.25260800  0.25132900  1
  O  O23  1  0.50000000  0.00000000  0.02867200  1
  O  O24  1  0.50000000  0.50000000  0.01341500  1
  O  O25  1  0.50000000  0.00000000  0.49293900  1
  O  O26  1  0.50000000  0.50000000  0.48413600  1
  O  O27  1  0.00000000  0.66559600  0.01625000  1
  O  O28  1  0.00000000  0.33440400  0.01625000  1
  O  O29  1  0.00000000  0.74443100  0.48864000  1
  O  O30  1  0.00000000  0.25556900  0.48864000  1
