# generated using pymatgen
data_VSO10
_symmetry_space_group_name_H-M   'P 1'
_cell_length_a   9.72007800
_cell_length_b   7.20603400
_cell_length_c   15.41528292
_cell_angle_alpha   69.20307453
_cell_angle_beta   90.00000000
_cell_angle_gamma   90.00000000
_symmetry_Int_Tables_number   1
_chemical_formula_structural   VSO10
_chemical_formula_sum   'V4 S4 O40'
_cell_volume   1009.38545157
_cell_formula_units_Z   4
loop_
 _symmetry_equiv_pos_site_id
 _symmetry_equiv_pos_as_xyz
  1  'x, y, z'
loop_
 _atom_site_type_symbol
 _atom_site_label
 _atom_site_symmetry_multiplicity
 _atom_site_fract_x
 _atom_site_fract_y
 _atom_site_fract_z
 _atom_site_occupancy
  V  V0  1  0.29536100  0.67477400  0.45885800  1
  V  V1  1  0.79536100  0.32522600  0.04114200  1
  V  V2  1  0.70463900  0.32522600  0.54114200  1
  V  V3  1  0.20463900  0.67477400  0.95885800  1
  S  S4  1  0.96246600  0.97050600  0.19376200  1
  S  S5  1  0.46246600  0.02949400  0.30623800  1
  S  S6  1  0.03753400  0.02949400  0.80623800  1
  S  S7  1  0.53753400  0.97050600  0.69376200  1
  O  O8  1  0.45490300  0.56428400  0.43082300  1
  O  O9  1  0.95490300  0.43571600  0.06917700  1
  O  O10  1  0.54509700  0.43571600  0.56917700  1
  O  O11  1  0.04509700  0.56428400  0.93082300  1
  O  O12  1  0.11338800  0.67065700  0.42870600  1
  O  O13  1  0.61338800  0.32934300  0.07129400  1
  O  O14  1  0.88661200  0.32934300  0.57129400  1
  O  O15  1  0.38661200  0.67065700  0.92870600  1
  O  O16  1  0.23458200  0.57670700  0.25722100  1
  O  O17  1  0.73458200  0.42329300  0.24277900  1
  O  O18  1  0.76541800  0.42329300  0.74277900  1
  O  O19  1  0.26541800  0.57670700  0.75722100  1
  O  O20  1  0.30367600  0.69876300  0.56005100  1
  O  O21  1  0.80367600  0.30123700  0.93994900  1
  O  O22  1  0.69632400  0.30123700  0.43994900  1
  O  O23  1  0.19632400  0.69876300  0.06005100  1
  O  O24  1  0.24296400  0.41287300  0.47867400  1
  O  O25  1  0.74296400  0.58712700  0.02132600  1
  O  O26  1  0.75703600  0.58712700  0.52132600  1
  O  O27  1  0.25703600  0.41287300  0.97867400  1
  O  O28  1  0.33446900  0.92561900  0.35863100  1
  O  O29  1  0.83446900  0.07438100  0.14136900  1
  O  O30  1  0.66553100  0.07438100  0.64136900  1
  O  O31  1  0.16553100  0.92561900  0.85863100  1
  O  O32  1  0.08673700  0.07310200  0.14421000  1
  O  O33  1  0.58673700  0.92689800  0.35579000  1
  O  O34  1  0.91326300  0.92689800  0.85579000  1
  O  O35  1  0.41326300  0.07310200  0.64421000  1
  O  O36  1  0.96461000  0.98652700  0.28668200  1
  O  O37  1  0.46461000  0.01347300  0.21331800  1
  O  O38  1  0.03539000  0.01347300  0.71331800  1
  O  O39  1  0.53539000  0.98652700  0.78668200  1
  O  O40  1  0.95646300  0.76260300  0.20044800  1
  O  O41  1  0.45646300  0.23739700  0.29955200  1
  O  O42  1  0.04353700  0.23739700  0.79955200  1
  O  O43  1  0.54353700  0.76260300  0.70044800  1
  O  O44  1  0.69828000  0.58881000  0.23376900  1
  O  O45  1  0.19828000  0.41119000  0.26623100  1
  O  O46  1  0.30172000  0.41119000  0.76623100  1
  O  O47  1  0.80172000  0.58881000  0.73376900  1
