# generated using pymatgen
data_KCa4Si8H16O28F
_symmetry_space_group_name_H-M   'P 1'
_cell_length_a   9.06671700
_cell_length_b   9.06671700
_cell_length_c   16.01284500
_cell_angle_alpha   90.00000000
_cell_angle_beta   90.00000000
_cell_angle_gamma   90.00000000
_symmetry_Int_Tables_number   1
_chemical_formula_structural   KCa4Si8H16O28F
_chemical_formula_sum   'K2 Ca8 Si16 H32 O56 F2'
_cell_volume   1316.34164234
_cell_formula_units_Z   2
loop_
 _symmetry_equiv_pos_site_id
 _symmetry_equiv_pos_as_xyz
  1  'x, y, z'
loop_
 _atom_site_type_symbol
 _atom_site_label
 _atom_site_symmetry_multiplicity
 _atom_site_fract_x
 _atom_site_fract_y
 _atom_site_fract_z
 _atom_site_occupancy
  K  K0  1  0.50000000  0.50000000  0.00000000  1
  K  K1  1  0.00000000  0.00000000  0.50000000  1
  Ca  Ca2  1  0.74574300  0.61003500  0.50000000  1
  Ca  Ca3  1  0.25425700  0.38996500  0.50000000  1
  Ca  Ca4  1  0.75425700  0.11003500  0.00000000  1
  Ca  Ca5  1  0.24574300  0.88996500  0.00000000  1
  Ca  Ca6  1  0.61003500  0.25425700  0.50000000  1
  Ca  Ca7  1  0.38996500  0.74574300  0.50000000  1
  Ca  Ca8  1  0.11003500  0.24574300  0.00000000  1
  Ca  Ca9  1  0.88996500  0.75425700  0.00000000  1
  Si  Si10  1  0.58667500  0.72580500  0.31025700  1
  Si  Si11  1  0.41332500  0.27419500  0.31025700  1
  Si  Si12  1  0.91332500  0.22580500  0.81025700  1
  Si  Si13  1  0.08667500  0.77419500  0.81025700  1
  Si  Si14  1  0.72580500  0.41332500  0.31025700  1
  Si  Si15  1  0.27419500  0.58667500  0.31025700  1
  Si  Si16  1  0.22580500  0.08667500  0.81025700  1
  Si  Si17  1  0.77419500  0.91332500  0.81025700  1
  Si  Si18  1  0.41332500  0.27419500  0.68974300  1
  Si  Si19  1  0.58667500  0.72580500  0.68974300  1
  Si  Si20  1  0.08667500  0.77419500  0.18974300  1
  Si  Si21  1  0.91332500  0.22580500  0.18974300  1
  Si  Si22  1  0.27419500  0.58667500  0.68974300  1
  Si  Si23  1  0.72580500  0.41332500  0.68974300  1
  Si  Si24  1  0.77419500  0.91332500  0.18974300  1
  Si  Si25  1  0.22580500  0.08667500  0.18974300  1
  H  H26  1  0.67122500  0.94852300  0.41129500  1
  H  H27  1  0.32877500  0.05147700  0.41129500  1
  H  H28  1  0.82877500  0.44852300  0.91129500  1
  H  H29  1  0.17122500  0.55147700  0.91129500  1
  H  H30  1  0.94852300  0.32877500  0.41129500  1
  H  H31  1  0.05147700  0.67122500  0.41129500  1
  H  H32  1  0.44852300  0.17122500  0.91129500  1
  H  H33  1  0.55147700  0.82877500  0.91129500  1
  H  H34  1  0.32877500  0.05147700  0.58870500  1
  H  H35  1  0.67122500  0.94852300  0.58870500  1
  H  H36  1  0.17122500  0.55147700  0.08870500  1
  H  H37  1  0.82877500  0.44852300  0.08870500  1
  H  H38  1  0.05147700  0.67122500  0.58870500  1
  H  H39  1  0.94852300  0.32877500  0.58870500  1
  H  H40  1  0.55147700  0.82877500  0.08870500  1
  H  H41  1  0.44852300  0.17122500  0.08870500  1
  H  H42  1  0.92583100  0.72187500  0.35120900  1
  H  H43  1  0.07416900  0.27812500  0.35120900  1
  H  H44  1  0.57416900  0.22187500  0.85120900  1
  H  H45  1  0.42583100  0.77812500  0.85120900  1
  H  H46  1  0.72187500  0.07416900  0.35120900  1
  H  H47  1  0.27812500  0.92583100  0.35120900  1
  H  H48  1  0.22187500  0.42583100  0.85120900  1
  H  H49  1  0.77812500  0.57416900  0.85120900  1
  H  H50  1  0.07416900  0.27812500  0.64879100  1
  H  H51  1  0.92583100  0.72187500  0.64879100  1
  H  H52  1  0.42583100  0.77812500  0.14879100  1
  H  H53  1  0.57416900  0.22187500  0.14879100  1
  H  H54  1  0.27812500  0.92583100  0.64879100  1
  H  H55  1  0.72187500  0.07416900  0.64879100  1
  H  H56  1  0.77812500  0.57416900  0.14879100  1
  H  H57  1  0.22187500  0.42583100  0.14879100  1
  O  O58  1  0.63724500  0.86275500  0.25000000  1
  O  O59  1  0.36275500  0.13724500  0.25000000  1
  O  O60  1  0.86275500  0.36275500  0.75000000  1
  O  O61  1  0.13724500  0.63724500  0.75000000  1
  O  O62  1  0.86275500  0.36275500  0.25000000  1
  O  O63  1  0.13724500  0.63724500  0.25000000  1
  O  O64  1  0.36275500  0.13724500  0.75000000  1
  O  O65  1  0.63724500  0.86275500  0.75000000  1
  O  O66  1  0.68990600  0.58416800  0.28218800  1
  O  O67  1  0.31009400  0.41583200  0.28218800  1
  O  O68  1  0.81009400  0.08416800  0.78218800  1
  O  O69  1  0.18990600  0.91583200  0.78218800  1
  O  O70  1  0.58416800  0.31009400  0.28218800  1
  O  O71  1  0.41583200  0.68990600  0.28218800  1
  O  O72  1  0.08416800  0.18990600  0.78218800  1
  O  O73  1  0.91583200  0.81009400  0.78218800  1
  O  O74  1  0.31009400  0.41583200  0.71781200  1
  O  O75  1  0.68990600  0.58416800  0.71781200  1
  O  O76  1  0.18990600  0.91583200  0.21781200  1
  O  O77  1  0.81009400  0.08416800  0.21781200  1
  O  O78  1  0.41583200  0.68990600  0.71781200  1
  O  O79  1  0.58416800  0.31009400  0.71781200  1
  O  O80  1  0.91583200  0.81009400  0.21781200  1
  O  O81  1  0.08416800  0.18990600  0.21781200  1
  O  O82  1  0.60170600  0.76512300  0.40807700  1
  O  O83  1  0.39829400  0.23487700  0.40807700  1
  O  O84  1  0.89829400  0.26512300  0.90807700  1
  O  O85  1  0.10170600  0.73487700  0.90807700  1
  O  O86  1  0.76512300  0.39829400  0.40807700  1
  O  O87  1  0.23487700  0.60170600  0.40807700  1
  O  O88  1  0.26512300  0.10170600  0.90807700  1
  O  O89  1  0.73487700  0.89829400  0.90807700  1
  O  O90  1  0.39829400  0.23487700  0.59192300  1
  O  O91  1  0.60170600  0.76512300  0.59192300  1
  O  O92  1  0.10170600  0.73487700  0.09192300  1
  O  O93  1  0.89829400  0.26512300  0.09192300  1
  O  O94  1  0.23487700  0.60170600  0.59192300  1
  O  O95  1  0.76512300  0.39829400  0.59192300  1
  O  O96  1  0.73487700  0.89829400  0.09192300  1
  O  O97  1  0.26512300  0.10170600  0.09192300  1
  O  O98  1  0.94963700  0.71385200  0.41079500  1
  O  O99  1  0.05036300  0.28614800  0.41079500  1
  O  O100  1  0.55036300  0.21385200  0.91079500  1
  O  O101  1  0.44963700  0.78614800  0.91079500  1
  O  O102  1  0.71385200  0.05036300  0.41079500  1
  O  O103  1  0.28614800  0.94963700  0.41079500  1
  O  O104  1  0.21385200  0.44963700  0.91079500  1
  O  O105  1  0.78614800  0.55036300  0.91079500  1
  O  O106  1  0.05036300  0.28614800  0.58920500  1
  O  O107  1  0.94963700  0.71385200  0.58920500  1
  O  O108  1  0.44963700  0.78614800  0.08920500  1
  O  O109  1  0.55036300  0.21385200  0.08920500  1
  O  O110  1  0.28614800  0.94963700  0.58920500  1
  O  O111  1  0.71385200  0.05036300  0.58920500  1
  O  O112  1  0.78614800  0.55036300  0.08920500  1
  O  O113  1  0.21385200  0.44963700  0.08920500  1
  F  F114  1  0.50000000  0.50000000  0.50000000  1
  F  F115  1  0.00000000  0.00000000  0.00000000  1
