# generated using pymatgen
data_Na11B21(BrO18)2
_symmetry_space_group_name_H-M   'P 1'
_cell_length_a   9.14925211
_cell_length_b   9.14925211
_cell_length_c   24.40478305
_cell_angle_alpha   80.49635099
_cell_angle_beta   80.49635099
_cell_angle_gamma   59.25353926
_symmetry_Int_Tables_number   1
_chemical_formula_structural   Na11B21(BrO18)2
_chemical_formula_sum   'Na22 B42 Br4 O72'
_cell_volume   1723.77897332
_cell_formula_units_Z   2
loop_
 _symmetry_equiv_pos_site_id
 _symmetry_equiv_pos_as_xyz
  1  'x, y, z'
loop_
 _atom_site_type_symbol
 _atom_site_label
 _atom_site_symmetry_multiplicity
 _atom_site_fract_x
 _atom_site_fract_y
 _atom_site_fract_z
 _atom_site_occupancy
  Na  Na0  1  0.27713400  0.02777000  0.65753900  1
  Na  Na1  1  0.97223000  0.72286600  0.84246100  1
  Na  Na2  1  0.72286600  0.97223000  0.34246100  1
  Na  Na3  1  0.02777000  0.27713400  0.15753900  1
  Na  Na4  1  0.01024500  0.77283900  0.65694900  1
  Na  Na5  1  0.22716100  0.98975500  0.84305100  1
  Na  Na6  1  0.98975500  0.22716100  0.34305100  1
  Na  Na7  1  0.77283900  0.01024500  0.15694900  1
  Na  Na8  1  0.32708300  0.52017500  0.49590300  1
  Na  Na9  1  0.47982500  0.67291700  0.00409700  1
  Na  Na10  1  0.67291700  0.47982500  0.50409700  1
  Na  Na11  1  0.52017500  0.32708300  0.99590300  1
  Na  Na12  1  0.90791200  0.88955100  0.49016500  1
  Na  Na13  1  0.11044900  0.09208800  0.00983500  1
  Na  Na14  1  0.09208800  0.11044900  0.50983500  1
  Na  Na15  1  0.88955100  0.90791200  0.99016500  1
  Na  Na16  1  0.52471300  0.52206600  0.65792700  1
  Na  Na17  1  0.47793400  0.47528700  0.84207300  1
  Na  Na18  1  0.47528700  0.47793400  0.34207300  1
  Na  Na19  1  0.52206600  0.52471300  0.15792700  1
  Na  Na20  1  0.50000000  0.00000000  0.50000000  1
  Na  Na21  1  0.00000000  0.50000000  0.00000000  1
  B  B22  1  0.88564700  0.33523000  0.60097700  1
  B  B23  1  0.66477000  0.11435300  0.89902300  1
  B  B24  1  0.11435300  0.66477000  0.39902300  1
  B  B25  1  0.33523000  0.88564700  0.10097700  1
  B  B26  1  0.68638200  0.92298100  0.59306600  1
  B  B27  1  0.07701900  0.31361800  0.90693400  1
  B  B28  1  0.31361800  0.07701900  0.40693400  1
  B  B29  1  0.92298100  0.68638200  0.09306600  1
  B  B30  1  0.13176900  0.39384600  0.57746000  1
  B  B31  1  0.60615400  0.86823100  0.92254000  1
  B  B32  1  0.86823100  0.60615400  0.42254000  1
  B  B33  1  0.39384600  0.13176900  0.07746000  1
  B  B34  1  0.44139700  0.22323300  0.60665500  1
  B  B35  1  0.77676700  0.55860300  0.89334500  1
  B  B36  1  0.55860300  0.77676700  0.39334500  1
  B  B37  1  0.22323300  0.44139700  0.10665500  1
  B  B38  1  0.84127700  0.62868900  0.56479800  1
  B  B39  1  0.37131100  0.15872300  0.93520200  1
  B  B40  1  0.15872300  0.37131100  0.43520200  1
  B  B41  1  0.62868900  0.84127700  0.06479800  1
  B  B42  1  0.08464300  0.91535700  0.75000000  1
  B  B43  1  0.91535700  0.08464300  0.25000000  1
  B  B44  1  0.25894200  0.83168200  0.41679500  1
  B  B45  1  0.16831800  0.74105800  0.08320500  1
  B  B46  1  0.74105800  0.16831800  0.58320500  1
  B  B47  1  0.83168200  0.25894200  0.91679500  1
  B  B48  1  0.24969600  0.59017500  0.74839600  1
  B  B49  1  0.40982500  0.75030400  0.75160400  1
  B  B50  1  0.75030400  0.40982500  0.25160400  1
  B  B51  1  0.59017500  0.24969600  0.24839600  1
  B  B52  1  0.65554600  0.77724700  0.69418200  1
  B  B53  1  0.22275300  0.34445400  0.80581800  1
  B  B54  1  0.34445400  0.22275300  0.30581800  1
  B  B55  1  0.77724700  0.65554600  0.19418200  1
  B  B56  1  0.87124300  0.19953500  0.70200300  1
  B  B57  1  0.80046500  0.12875700  0.79799700  1
  B  B58  1  0.12875700  0.80046500  0.29799700  1
  B  B59  1  0.19953500  0.87124300  0.20200300  1
  B  B60  1  0.67580600  0.68843500  0.79292600  1
  B  B61  1  0.31156500  0.32419400  0.70707400  1
  B  B62  1  0.32419400  0.31156500  0.20707400  1
  B  B63  1  0.68843500  0.67580600  0.29292600  1
  Br  Br64  1  0.31281200  0.77228300  0.56061200  1
  Br  Br65  1  0.22771700  0.68718800  0.93938800  1
  Br  Br66  1  0.68718800  0.22771700  0.43938800  1
  Br  Br67  1  0.77228300  0.31281200  0.06061200  1
  O  O68  1  0.75853500  0.24146500  0.75000000  1
  O  O69  1  0.24146500  0.75853500  0.25000000  1
  O  O70  1  0.29861900  0.35105400  0.57232700  1
  O  O71  1  0.64894600  0.70138100  0.92767300  1
  O  O72  1  0.70138100  0.64894600  0.42767300  1
  O  O73  1  0.35105400  0.29861900  0.07232700  1
  O  O74  1  0.73608100  0.79960700  0.54946900  1
  O  O75  1  0.20039300  0.26391900  0.95053100  1
  O  O76  1  0.26391900  0.20039300  0.45053100  1
  O  O77  1  0.79960700  0.73608100  0.04946900  1
  O  O78  1  0.73467700  0.82031800  0.64676600  1
  O  O79  1  0.17968200  0.26532300  0.85323400  1
  O  O80  1  0.26532300  0.17968200  0.35323400  1
  O  O81  1  0.82031800  0.73467700  0.14676600  1
  O  O82  1  0.82324100  0.32739200  0.65903000  1
  O  O83  1  0.67260800  0.17675900  0.84097000  1
  O  O84  1  0.17675900  0.67260800  0.34097000  1
  O  O85  1  0.32739200  0.82324100  0.15903000  1
  O  O86  1  0.40376700  0.59623300  0.75000000  1
  O  O87  1  0.59623300  0.40376700  0.25000000  1
  O  O88  1  0.51125100  0.05333700  0.58839000  1
  O  O89  1  0.94666300  0.48874900  0.91161000  1
  O  O90  1  0.48874900  0.94666300  0.41161000  1
  O  O91  1  0.05333700  0.51125100  0.08839000  1
  O  O92  1  0.50366400  0.78030800  0.69674300  1
  O  O93  1  0.21969200  0.49633600  0.80325700  1
  O  O94  1  0.49633600  0.21969200  0.30325700  1
  O  O95  1  0.78030800  0.50366400  0.19674300  1
  O  O96  1  0.09838400  0.75630700  0.74098300  1
  O  O97  1  0.24369300  0.90161600  0.75901700  1
  O  O98  1  0.90161600  0.24369300  0.25901700  1
  O  O99  1  0.75630700  0.09838400  0.24098300  1
  O  O100  1  0.21910200  0.48294500  0.42248400  1
  O  O101  1  0.51705500  0.78089800  0.07751600  1
  O  O102  1  0.78089800  0.51705500  0.57751600  1
  O  O103  1  0.48294500  0.21910200  0.92248400  1
  O  O104  1  0.01720900  0.56817800  0.56254300  1
  O  O105  1  0.43182200  0.98279100  0.93745700  1
  O  O106  1  0.98279100  0.43182200  0.43745700  1
  O  O107  1  0.56817800  0.01720900  0.06254300  1
  O  O108  1  0.80401400  0.99774300  0.57877800  1
  O  O109  1  0.00225700  0.19598600  0.92122200  1
  O  O110  1  0.19598600  0.00225700  0.42122200  1
  O  O111  1  0.99774300  0.80401400  0.07877800  1
  O  O112  1  0.42797000  0.72011700  0.40224900  1
  O  O113  1  0.27988300  0.57203000  0.09775100  1
  O  O114  1  0.57203000  0.27988300  0.59775100  1
  O  O115  1  0.72011700  0.42797000  0.90224900  1
  O  O116  1  0.01444200  0.04254200  0.69882200  1
  O  O117  1  0.95745800  0.98555800  0.80117800  1
  O  O118  1  0.98555800  0.95745800  0.30117800  1
  O  O119  1  0.04254200  0.01444200  0.19882200  1
  O  O120  1  0.07186100  0.28063400  0.59237700  1
  O  O121  1  0.71936600  0.92813900  0.90762300  1
  O  O122  1  0.92813900  0.71936600  0.40762300  1
  O  O123  1  0.28063400  0.07186100  0.09237700  1
  O  O124  1  0.27852800  0.49018800  0.69991600  1
  O  O125  1  0.50981200  0.72147200  0.80008400  1
  O  O126  1  0.72147200  0.50981200  0.30008400  1
  O  O127  1  0.49018800  0.27852800  0.19991600  1
  O  O128  1  0.74699700  0.72214100  0.74065500  1
  O  O129  1  0.27785900  0.25300300  0.75934500  1
  O  O130  1  0.25300300  0.27785900  0.25934500  1
  O  O131  1  0.72214100  0.74699700  0.24065500  1
  O  O132  1  0.14277500  0.77203200  0.43071500  1
  O  O133  1  0.22796800  0.85722500  0.06928500  1
  O  O134  1  0.85722500  0.22796800  0.56928500  1
  O  O135  1  0.77203200  0.14277500  0.93071500  1
  O  O136  1  0.37331500  0.21903500  0.66536600  1
  O  O137  1  0.78096500  0.62668500  0.83463400  1
  O  O138  1  0.62668500  0.78096500  0.33463400  1
  O  O139  1  0.21903500  0.37331500  0.16536600  1
