# generated using pymatgen
data_K2BiCl5O2
_symmetry_space_group_name_H-M   'P 1'
_cell_length_a   8.12450600
_cell_length_b   20.62812700
_cell_length_c   13.44389700
_cell_angle_alpha   90.00000000
_cell_angle_beta   90.00000000
_cell_angle_gamma   90.00000000
_symmetry_Int_Tables_number   1
_chemical_formula_structural   K2BiCl5O2
_chemical_formula_sum   'K16 Bi8 Cl40 O16'
_cell_volume   2253.10762209
_cell_formula_units_Z   8
loop_
 _symmetry_equiv_pos_site_id
 _symmetry_equiv_pos_as_xyz
  1  'x, y, z'
loop_
 _atom_site_type_symbol
 _atom_site_label
 _atom_site_symmetry_multiplicity
 _atom_site_fract_x
 _atom_site_fract_y
 _atom_site_fract_z
 _atom_site_occupancy
  K  K0  1  0.50783000  0.53451700  0.18769700  1
  K  K1  1  0.00783000  0.96548300  0.31230300  1
  K  K2  1  0.49217000  0.03451700  0.81230300  1
  K  K3  1  0.99217000  0.46548300  0.68769700  1
  K  K4  1  0.49217000  0.46548300  0.81230300  1
  K  K5  1  0.99217000  0.03451700  0.68769700  1
  K  K6  1  0.50783000  0.96548300  0.18769700  1
  K  K7  1  0.00783000  0.53451700  0.31230300  1
  K  K8  1  0.67504400  0.75000000  0.83608000  1
  K  K9  1  0.17504400  0.75000000  0.66392000  1
  K  K10  1  0.32495600  0.25000000  0.16392000  1
  K  K11  1  0.82495600  0.25000000  0.33608000  1
  K  K12  1  0.53272100  0.75000000  0.16141000  1
  K  K13  1  0.03272100  0.75000000  0.33859000  1
  K  K14  1  0.46727900  0.25000000  0.83859000  1
  K  K15  1  0.96727900  0.25000000  0.66141000  1
  Bi  Bi16  1  0.60412400  0.64183200  0.49035900  1
  Bi  Bi17  1  0.10412400  0.85816800  0.00964100  1
  Bi  Bi18  1  0.39587600  0.14183200  0.50964100  1
  Bi  Bi19  1  0.89587600  0.35816800  0.99035900  1
  Bi  Bi20  1  0.39587600  0.35816800  0.50964100  1
  Bi  Bi21  1  0.89587600  0.14183200  0.99035900  1
  Bi  Bi22  1  0.60412400  0.85816800  0.49035900  1
  Bi  Bi23  1  0.10412400  0.64183200  0.00964100  1
  Cl  Cl24  1  0.87847800  0.57456400  0.53299900  1
  Cl  Cl25  1  0.37847800  0.92543600  0.96700100  1
  Cl  Cl26  1  0.12152200  0.07456400  0.46700100  1
  Cl  Cl27  1  0.62152200  0.42543600  0.03299900  1
  Cl  Cl28  1  0.12152200  0.42543600  0.46700100  1
  Cl  Cl29  1  0.62152200  0.07456400  0.03299900  1
  Cl  Cl30  1  0.87847800  0.92543600  0.53299900  1
  Cl  Cl31  1  0.37847800  0.57456400  0.96700100  1
  Cl  Cl32  1  0.39182000  0.56124100  0.41997200  1
  Cl  Cl33  1  0.89182000  0.93875900  0.08002800  1
  Cl  Cl34  1  0.60818000  0.06124100  0.58002800  1
  Cl  Cl35  1  0.10818000  0.43875900  0.91997200  1
  Cl  Cl36  1  0.60818000  0.43875900  0.58002800  1
  Cl  Cl37  1  0.10818000  0.06124100  0.91997200  1
  Cl  Cl38  1  0.39182000  0.93875900  0.41997200  1
  Cl  Cl39  1  0.89182000  0.56124100  0.08002800  1
  Cl  Cl40  1  0.39977100  0.75000000  0.44837800  1
  Cl  Cl41  1  0.89977100  0.75000000  0.05162200  1
  Cl  Cl42  1  0.60022900  0.25000000  0.55162200  1
  Cl  Cl43  1  0.10022900  0.25000000  0.94837800  1
  Cl  Cl44  1  0.81207300  0.75000000  0.55805500  1
  Cl  Cl45  1  0.31207300  0.75000000  0.94194500  1
  Cl  Cl46  1  0.18792700  0.25000000  0.44194500  1
  Cl  Cl47  1  0.68792700  0.25000000  0.05805500  1
  Cl  Cl48  1  0.72938900  0.65153800  0.30413100  1
  Cl  Cl49  1  0.22938900  0.84846200  0.19586900  1
  Cl  Cl50  1  0.27061100  0.15153800  0.69586900  1
  Cl  Cl51  1  0.77061100  0.34846200  0.80413100  1
  Cl  Cl52  1  0.27061100  0.34846200  0.69586900  1
  Cl  Cl53  1  0.77061100  0.15153800  0.80413100  1
  Cl  Cl54  1  0.72938900  0.84846200  0.30413100  1
  Cl  Cl55  1  0.22938900  0.65153800  0.19586900  1
  Cl  Cl56  1  0.47155000  0.63800300  0.68206500  1
  Cl  Cl57  1  0.97155000  0.86199700  0.81793500  1
  Cl  Cl58  1  0.52845000  0.13800300  0.31793500  1
  Cl  Cl59  1  0.02845000  0.36199700  0.18206500  1
  Cl  Cl60  1  0.52845000  0.36199700  0.31793500  1
  Cl  Cl61  1  0.02845000  0.13800300  0.18206500  1
  Cl  Cl62  1  0.47155000  0.86199700  0.68206500  1
  Cl  Cl63  1  0.97155000  0.63800300  0.81793500  1
  O  O64  1  0.80872600  0.54436900  0.81499300  1
  O  O65  1  0.30872600  0.95563100  0.68500700  1
  O  O66  1  0.19127400  0.04436900  0.18500700  1
  O  O67  1  0.69127400  0.45563100  0.31499300  1
  O  O68  1  0.19127400  0.45563100  0.18500700  1
  O  O69  1  0.69127400  0.04436900  0.31499300  1
  O  O70  1  0.80872600  0.95563100  0.81499300  1
  O  O71  1  0.30872600  0.54436900  0.68500700  1
  O  O72  1  0.55178700  0.67007400  0.99226300  1
  O  O73  1  0.05178700  0.82992600  0.50773700  1
  O  O74  1  0.44821300  0.17007400  0.00773700  1
  O  O75  1  0.94821300  0.32992600  0.49226300  1
  O  O76  1  0.44821300  0.32992600  0.00773700  1
  O  O77  1  0.94821300  0.17007400  0.49226300  1
  O  O78  1  0.55178700  0.82992600  0.99226300  1
  O  O79  1  0.05178700  0.67007400  0.50773700  1
