# generated using pymatgen
data_CaFe2(AsO5)2
_symmetry_space_group_name_H-M   'P 1'
_cell_length_a   7.63424500
_cell_length_b   9.07516548
_cell_length_c   11.99909500
_cell_angle_alpha   90.00000000
_cell_angle_beta   90.00000000
_cell_angle_gamma   114.87322815
_symmetry_Int_Tables_number   1
_chemical_formula_structural   CaFe2(AsO5)2
_chemical_formula_sum   'Ca4 Fe8 As8 O40'
_cell_volume   754.20887314
_cell_formula_units_Z   4
loop_
 _symmetry_equiv_pos_site_id
 _symmetry_equiv_pos_as_xyz
  1  'x, y, z'
loop_
 _atom_site_type_symbol
 _atom_site_label
 _atom_site_symmetry_multiplicity
 _atom_site_fract_x
 _atom_site_fract_y
 _atom_site_fract_z
 _atom_site_occupancy
  Ca  Ca0  1  0.00000000  0.00000000  0.25000000  1
  Ca  Ca1  1  0.00000000  0.00000000  0.75000000  1
  Ca  Ca2  1  0.50000000  0.50000000  0.50000000  1
  Ca  Ca3  1  0.00000000  0.50000000  0.00000000  1
  Fe  Fe4  1  0.24491300  0.75713100  0.36906800  1
  Fe  Fe5  1  0.75508700  0.24286900  0.36906800  1
  Fe  Fe6  1  0.48778200  0.24286900  0.13093200  1
  Fe  Fe7  1  0.51221800  0.75713100  0.13093200  1
  Fe  Fe8  1  0.75508700  0.24286900  0.63093200  1
  Fe  Fe9  1  0.24491300  0.75713100  0.63093200  1
  Fe  Fe10  1  0.51221800  0.75713100  0.86906800  1
  Fe  Fe11  1  0.48778200  0.24286900  0.86906800  1
  As  As12  1  0.30062900  0.08919700  0.50000000  1
  As  As13  1  0.69937100  0.91080300  0.50000000  1
  As  As14  1  0.21143200  0.91080300  0.00000000  1
  As  As15  1  0.78856800  0.08919700  0.00000000  1
  As  As16  1  0.21312300  0.42624600  0.25000000  1
  As  As17  1  0.78687700  0.57375400  0.25000000  1
  As  As18  1  0.78687700  0.57375400  0.75000000  1
  As  As19  1  0.21312300  0.42624600  0.75000000  1
  O  O20  1  0.78912100  0.03360200  0.38455000  1
  O  O21  1  0.21087900  0.96639800  0.38455000  1
  O  O22  1  0.75551900  0.96639800  0.11545000  1
  O  O23  1  0.24448100  0.03360200  0.11545000  1
  O  O24  1  0.21087900  0.96639800  0.61545000  1
  O  O25  1  0.78912100  0.03360200  0.61545000  1
  O  O26  1  0.24448100  0.03360200  0.88455000  1
  O  O27  1  0.75551900  0.96639800  0.88455000  1
  O  O28  1  0.55426200  0.16852100  0.50000000  1
  O  O29  1  0.44573800  0.83147900  0.50000000  1
  O  O30  1  0.38574100  0.83147900  0.00000000  1
  O  O31  1  0.61425900  0.16852100  0.00000000  1
  O  O32  1  0.23884800  0.24544600  0.50000000  1
  O  O33  1  0.76115200  0.75455400  0.50000000  1
  O  O34  1  0.99340200  0.75455400  0.00000000  1
  O  O35  1  0.00659800  0.24544600  0.00000000  1
  O  O36  1  0.97256700  0.29823900  0.25838300  1
  O  O37  1  0.02743300  0.70176100  0.25838300  1
  O  O38  1  0.67432700  0.70176100  0.24161700  1
  O  O39  1  0.32567300  0.29823900  0.24161700  1
  O  O40  1  0.02743300  0.70176100  0.74161700  1
  O  O41  1  0.97256700  0.29823900  0.74161700  1
  O  O42  1  0.32567300  0.29823900  0.75838300  1
  O  O43  1  0.67432700  0.70176100  0.75838300  1
  O  O44  1  0.29481200  0.55266200  0.36404400  1
  O  O45  1  0.70518800  0.44733800  0.36404400  1
  O  O46  1  0.74215000  0.44733800  0.13595600  1
  O  O47  1  0.25785000  0.55266200  0.13595600  1
  O  O48  1  0.70518800  0.44733800  0.63595600  1
  O  O49  1  0.29481200  0.55266200  0.63595600  1
  O  O50  1  0.25785000  0.55266200  0.86404400  1
  O  O51  1  0.74215000  0.44733800  0.86404400  1
  O  O52  1  0.91419300  0.33274000  0.50000000  1
  O  O53  1  0.08580700  0.66726000  0.50000000  1
  O  O54  1  0.58145300  0.66726000  0.00000000  1
  O  O55  1  0.41854700  0.33274000  0.00000000  1
  O  O56  1  0.42451800  0.84903600  0.25000000  1
  O  O57  1  0.57548200  0.15096400  0.25000000  1
  O  O58  1  0.57548200  0.15096400  0.75000000  1
  O  O59  1  0.42451800  0.84903600  0.75000000  1
