# generated using pymatgen
data_FeB6(CO)4
_symmetry_space_group_name_H-M   'P 1'
_cell_length_a   11.59697400
_cell_length_b   11.92973300
_cell_length_c   16.33695800
_cell_angle_alpha   90.00000000
_cell_angle_beta   90.00000000
_cell_angle_gamma   90.00000000
_symmetry_Int_Tables_number   1
_chemical_formula_structural   FeB6(CO)4
_chemical_formula_sum   'Fe8 B48 C32 O32'
_cell_volume   2260.19859095
_cell_formula_units_Z   8
loop_
 _symmetry_equiv_pos_site_id
 _symmetry_equiv_pos_as_xyz
  1  'x, y, z'
loop_
 _atom_site_type_symbol
 _atom_site_label
 _atom_site_symmetry_multiplicity
 _atom_site_fract_x
 _atom_site_fract_y
 _atom_site_fract_z
 _atom_site_occupancy
  Fe  Fe0  1  0.73043600  0.16746300  0.47754900  1
  Fe  Fe1  1  0.23043600  0.33253700  0.52245100  1
  Fe  Fe2  1  0.26956400  0.66746300  0.02245100  1
  Fe  Fe3  1  0.76956400  0.83253700  0.97754900  1
  Fe  Fe4  1  0.26956400  0.83253700  0.52245100  1
  Fe  Fe5  1  0.76956400  0.66746300  0.47754900  1
  Fe  Fe6  1  0.73043600  0.33253700  0.97754900  1
  Fe  Fe7  1  0.23043600  0.16746300  0.02245100  1
  B  B8  1  0.77036100  0.08362800  0.29424500  1
  B  B9  1  0.27036100  0.41637200  0.70575500  1
  B  B10  1  0.22963900  0.58362800  0.20575500  1
  B  B11  1  0.72963900  0.91637200  0.79424500  1
  B  B12  1  0.22963900  0.91637200  0.70575500  1
  B  B13  1  0.72963900  0.58362800  0.29424500  1
  B  B14  1  0.77036100  0.41637200  0.79424500  1
  B  B15  1  0.27036100  0.08362800  0.20575500  1
  B  B16  1  0.69804400  0.15214800  0.22148700  1
  B  B17  1  0.19804400  0.34785200  0.77851300  1
  B  B18  1  0.30195600  0.65214800  0.27851300  1
  B  B19  1  0.80195600  0.84785200  0.72148700  1
  B  B20  1  0.30195600  0.84785200  0.77851300  1
  B  B21  1  0.80195600  0.65214800  0.22148700  1
  B  B22  1  0.69804400  0.34785200  0.72148700  1
  B  B23  1  0.19804400  0.15214800  0.27851300  1
  B  B24  1  0.62572300  0.07827000  0.28497800  1
  B  B25  1  0.12572300  0.42173000  0.71502200  1
  B  B26  1  0.37427700  0.57827000  0.21502200  1
  B  B27  1  0.87427700  0.92173000  0.78497800  1
  B  B28  1  0.37427700  0.92173000  0.71502200  1
  B  B29  1  0.87427700  0.57827000  0.28497800  1
  B  B30  1  0.62572300  0.42173000  0.78497800  1
  B  B31  1  0.12572300  0.07827000  0.21502200  1
  B  B32  1  0.68277800  0.08019200  0.37546000  1
  B  B33  1  0.18277800  0.41980800  0.62454000  1
  B  B34  1  0.31722200  0.58019200  0.12454000  1
  B  B35  1  0.81722200  0.91980800  0.87546000  1
  B  B36  1  0.31722200  0.91980800  0.62454000  1
  B  B37  1  0.81722200  0.58019200  0.37546000  1
  B  B38  1  0.68277800  0.41980800  0.87546000  1
  B  B39  1  0.18277800  0.08019200  0.12454000  1
  B  B40  1  0.80535600  0.17948200  0.36433200  1
  B  B41  1  0.30535600  0.32051800  0.63566800  1
  B  B42  1  0.19464400  0.67948200  0.13566800  1
  B  B43  1  0.69464400  0.82051800  0.86433200  1
  B  B44  1  0.19464400  0.82051800  0.63566800  1
  B  B45  1  0.69464400  0.67948200  0.36433200  1
  B  B46  1  0.80535600  0.32051800  0.86433200  1
  B  B47  1  0.30535600  0.17948200  0.13566800  1
  B  B48  1  0.79721600  0.21820900  0.26946700  1
  B  B49  1  0.29721600  0.28179100  0.73053300  1
  B  B50  1  0.20278400  0.71820900  0.23053300  1
  B  B51  1  0.70278400  0.78179100  0.76946700  1
  B  B52  1  0.20278400  0.78179100  0.73053300  1
  B  B53  1  0.70278400  0.71820900  0.26946700  1
  B  B54  1  0.79721600  0.28179100  0.76946700  1
  B  B55  1  0.29721600  0.21820900  0.23053300  1
  C  C56  1  0.81297100  0.27594000  0.52551900  1
  C  C57  1  0.31297100  0.22406000  0.47448100  1
  C  C58  1  0.18702900  0.77594000  0.97448100  1
  C  C59  1  0.68702900  0.72406000  0.02551900  1
  C  C60  1  0.18702900  0.72406000  0.47448100  1
  C  C61  1  0.68702900  0.77594000  0.52551900  1
  C  C62  1  0.81297100  0.22406000  0.02551900  1
  C  C63  1  0.31297100  0.27594000  0.97448100  1
  C  C64  1  0.61863000  0.12755000  0.54856600  1
  C  C65  1  0.11863000  0.37245000  0.45143400  1
  C  C66  1  0.38137000  0.62755000  0.95143400  1
  C  C67  1  0.88137000  0.87245000  0.04856600  1
  C  C68  1  0.38137000  0.87245000  0.45143400  1
  C  C69  1  0.88137000  0.62755000  0.54856600  1
  C  C70  1  0.61863000  0.37245000  0.04856600  1
  C  C71  1  0.11863000  0.12755000  0.95143400  1
  C  C72  1  0.63480500  0.26440300  0.42788000  1
  C  C73  1  0.13480500  0.23559700  0.57212000  1
  C  C74  1  0.36519500  0.76440300  0.07212000  1
  C  C75  1  0.86519500  0.73559700  0.92788000  1
  C  C76  1  0.36519500  0.73559700  0.57212000  1
  C  C77  1  0.86519500  0.76440300  0.42788000  1
  C  C78  1  0.63480500  0.23559700  0.92788000  1
  C  C79  1  0.13480500  0.26440300  0.07212000  1
  C  C80  1  0.82499000  0.05687200  0.51445000  1
  C  C81  1  0.32499000  0.44312800  0.48555000  1
  C  C82  1  0.17501000  0.55687200  0.98555000  1
  C  C83  1  0.67501000  0.94312800  0.01445000  1
  C  C84  1  0.17501000  0.94312800  0.48555000  1
  C  C85  1  0.67501000  0.55687200  0.51445000  1
  C  C86  1  0.82499000  0.44312800  0.01445000  1
  C  C87  1  0.32499000  0.05687200  0.98555000  1
  O  O88  1  0.86596100  0.34847400  0.55364100  1
  O  O89  1  0.36596100  0.15152600  0.44635900  1
  O  O90  1  0.13403900  0.84847400  0.94635900  1
  O  O91  1  0.63403900  0.65152600  0.05364100  1
  O  O92  1  0.13403900  0.65152600  0.44635900  1
  O  O93  1  0.63403900  0.84847400  0.55364100  1
  O  O94  1  0.86596100  0.15152600  0.05364100  1
  O  O95  1  0.36596100  0.34847400  0.94635900  1
  O  O96  1  0.54375200  0.10516000  0.59196000  1
  O  O97  1  0.04375200  0.39484000  0.40804000  1
  O  O98  1  0.45624800  0.60516000  0.90804000  1
  O  O99  1  0.95624800  0.89484000  0.09196000  1
  O  O100  1  0.45624800  0.89484000  0.40804000  1
  O  O101  1  0.95624800  0.60516000  0.59196000  1
  O  O102  1  0.54375200  0.39484000  0.09196000  1
  O  O103  1  0.04375200  0.10516000  0.90804000  1
  O  O104  1  0.57309600  0.32611400  0.39550100  1
  O  O105  1  0.07309600  0.17388600  0.60449900  1
  O  O106  1  0.42690400  0.82611400  0.10449900  1
  O  O107  1  0.92690400  0.67388600  0.89550100  1
  O  O108  1  0.42690400  0.67388600  0.60449900  1
  O  O109  1  0.92690400  0.82611400  0.39550100  1
  O  O110  1  0.57309600  0.17388600  0.89550100  1
  O  O111  1  0.07309600  0.32611400  0.10449900  1
  O  O112  1  0.88172500  0.98911400  0.54505500  1
  O  O113  1  0.38172500  0.51088600  0.45494500  1
  O  O114  1  0.11827500  0.48911400  0.95494500  1
  O  O115  1  0.61827500  0.01088600  0.04505500  1
  O  O116  1  0.11827500  0.01088600  0.45494500  1
  O  O117  1  0.61827500  0.48911400  0.54505500  1
  O  O118  1  0.88172500  0.51088600  0.04505500  1
  O  O119  1  0.38172500  0.98911400  0.95494500  1
