# generated using pymatgen
data_UB6H36(C2N)3
_symmetry_space_group_name_H-M   'P 1'
_cell_length_a   12.49021500
_cell_length_b   11.02759300
_cell_length_c   14.93827208
_cell_angle_alpha   90.00000000
_cell_angle_beta   95.75613887
_cell_angle_gamma   90.00000000
_symmetry_Int_Tables_number   1
_chemical_formula_structural   UB6H36(C2N)3
_chemical_formula_sum   'U4 B24 H144 C24 N12'
_cell_volume   2047.17825566
_cell_formula_units_Z   4
loop_
 _symmetry_equiv_pos_site_id
 _symmetry_equiv_pos_as_xyz
  1  'x, y, z'
loop_
 _atom_site_type_symbol
 _atom_site_label
 _atom_site_symmetry_multiplicity
 _atom_site_fract_x
 _atom_site_fract_y
 _atom_site_fract_z
 _atom_site_occupancy
  U  U0  1  0.80566800  0.05249700  0.20656400  1
  U  U1  1  0.19433200  0.55249700  0.29343600  1
  U  U2  1  0.19433200  0.94750300  0.79343600  1
  U  U3  1  0.80566800  0.44750300  0.70656400  1
  B  B4  1  0.73902900  0.84108700  0.10368500  1
  B  B5  1  0.26097100  0.34108700  0.39631500  1
  B  B6  1  0.26097100  0.15891300  0.89631500  1
  B  B7  1  0.73902900  0.65891300  0.60368500  1
  B  B8  1  0.78628800  0.02676100  0.01722900  1
  B  B9  1  0.21371200  0.52676100  0.48277100  1
  B  B10  1  0.21371200  0.97323900  0.98277100  1
  B  B11  1  0.78628800  0.47323900  0.51722900  1
  B  B12  1  0.69075800  0.01102500  0.35643200  1
  B  B13  1  0.30924200  0.51102500  0.14356800  1
  B  B14  1  0.30924200  0.98897500  0.64356800  1
  B  B15  1  0.69075800  0.48897500  0.85643200  1
  B  B16  1  0.60462800  0.15585700  0.23985700  1
  B  B17  1  0.39537200  0.65585700  0.26014300  1
  B  B18  1  0.39537200  0.84414300  0.76014300  1
  B  B19  1  0.60462800  0.34414300  0.73985700  1
  B  B20  1  0.88166400  0.26899600  0.18298900  1
  B  B21  1  0.11833600  0.76899600  0.31701100  1
  B  B22  1  0.11833600  0.73100400  0.81701100  1
  B  B23  1  0.88166400  0.23100400  0.68298900  1
  B  B24  1  0.02010500  0.45146500  0.21008400  1
  B  B25  1  0.97989500  0.95146500  0.28991600  1
  B  B26  1  0.97989500  0.54853500  0.78991600  1
  B  B27  1  0.02010500  0.04853500  0.71008400  1
  H  H28  1  0.84173000  0.85373000  0.89481200  1
  H  H29  1  0.15827000  0.35373000  0.60518800  1
  H  H30  1  0.15827000  0.14627000  0.10518800  1
  H  H31  1  0.84173000  0.64627000  0.39481200  1
  H  H32  1  0.91123400  0.82509000  0.00316200  1
  H  H33  1  0.08876600  0.32509000  0.49683800  1
  H  H34  1  0.08876600  0.17491000  0.99683800  1
  H  H35  1  0.91123400  0.67491000  0.50316200  1
  H  H36  1  0.80787900  0.72289500  0.95721400  1
  H  H37  1  0.19212100  0.22289500  0.54278600  1
  H  H38  1  0.19212100  0.27710500  0.04278600  1
  H  H39  1  0.80787900  0.77710500  0.45721400  1
  H  H40  1  0.62458800  0.78418700  0.93908500  1
  H  H41  1  0.37541200  0.28418700  0.56091500  1
  H  H42  1  0.37541200  0.21581300  0.06091500  1
  H  H43  1  0.62458800  0.71581300  0.43908500  1
  H  H44  1  0.58527500  0.93104900  0.97563300  1
  H  H45  1  0.41472500  0.43104900  0.52436700  1
  H  H46  1  0.41472500  0.06895100  0.02436700  1
  H  H47  1  0.58527500  0.56895100  0.47563300  1
  H  H48  1  0.65907000  0.91747000  0.87970300  1
  H  H49  1  0.34093000  0.41747000  0.62029700  1
  H  H50  1  0.34093000  0.08253000  0.12029700  1
  H  H51  1  0.65907000  0.58253000  0.37970300  1
  H  H52  1  0.67295900  0.90623600  0.13779000  1
  H  H53  1  0.32704100  0.40623600  0.36221000  1
  H  H54  1  0.32704100  0.09376400  0.86221000  1
  H  H55  1  0.67295900  0.59376400  0.63779000  1
  H  H56  1  0.82771100  0.85026300  0.14814300  1
  H  H57  1  0.17228900  0.35026400  0.35185700  1
  H  H58  1  0.17228900  0.14973700  0.85185700  1
  H  H59  1  0.82771100  0.64973700  0.64814300  1
  H  H60  1  0.71005200  0.73608100  0.10391700  1
  H  H61  1  0.28994800  0.23608100  0.39608300  1
  H  H62  1  0.28994800  0.26391900  0.89608300  1
  H  H63  1  0.71005200  0.76391900  0.60391700  1
  H  H64  1  0.87345300  0.02921000  0.06563400  1
  H  H65  1  0.12654700  0.52921000  0.43436600  1
  H  H66  1  0.12654700  0.97079000  0.93436600  1
  H  H67  1  0.87345300  0.47079000  0.56563400  1
  H  H68  1  0.71691800  0.08055800  0.05662100  1
  H  H69  1  0.28308200  0.58055800  0.44337900  1
  H  H70  1  0.28308200  0.91944200  0.94337900  1
  H  H71  1  0.71691800  0.41944200  0.55662100  1
  H  H72  1  0.79775300  0.07621400  0.94624400  1
  H  H73  1  0.20224700  0.57621400  0.55375600  1
  H  H74  1  0.20224700  0.92378600  0.05375600  1
  H  H75  1  0.79775300  0.42378600  0.44624400  1
  H  H76  1  0.58019100  0.14643500  0.47059100  1
  H  H77  1  0.41980900  0.64643500  0.02940900  1
  H  H78  1  0.41980900  0.85356500  0.52940900  1
  H  H79  1  0.58019100  0.35356500  0.97059100  1
  H  H80  1  0.65693400  0.24683100  0.40796700  1
  H  H81  1  0.34306600  0.74683100  0.09203300  1
  H  H82  1  0.34306600  0.75316900  0.59203300  1
  H  H83  1  0.65693400  0.25316900  0.90796700  1
  H  H84  1  0.51309700  0.24685900  0.38882300  1
  H  H85  1  0.48690300  0.74685900  0.11117700  1
  H  H86  1  0.48690300  0.75314100  0.61117700  1
  H  H87  1  0.51309700  0.25314100  0.88882300  1
  H  H88  1  0.41919300  0.08592300  0.31714700  1
  H  H89  1  0.58080700  0.58592400  0.18285300  1
  H  H90  1  0.58080700  0.91407600  0.68285300  1
  H  H91  1  0.41919300  0.41407700  0.81714700  1
  H  H92  1  0.48662500  0.95608700  0.27661300  1
  H  H93  1  0.51337500  0.45608700  0.22338700  1
  H  H94  1  0.51337500  0.04391300  0.72338700  1
  H  H95  1  0.48662500  0.54391300  0.77661300  1
  H  H96  1  0.48306600  0.97737500  0.39464500  1
  H  H97  1  0.51693400  0.47737500  0.10535500  1
  H  H98  1  0.51693400  0.02262500  0.60535500  1
  H  H99  1  0.48306600  0.52262500  0.89464500  1
  H  H100  1  0.77245100  0.07639400  0.35801700  1
  H  H101  1  0.22754900  0.57639400  0.14198300  1
  H  H102  1  0.22754900  0.92360600  0.64198300  1
  H  H103  1  0.77245100  0.42360600  0.85801700  1
  H  H104  1  0.69349600  0.93471700  0.29524900  1
  H  H105  1  0.30650400  0.43471700  0.20475100  1
  H  H106  1  0.30650400  0.06528300  0.70475100  1
  H  H107  1  0.69349600  0.56528300  0.79524900  1
  H  H108  1  0.69026100  0.96026100  0.42842600  1
  H  H109  1  0.30973900  0.46026100  0.07157400  1
  H  H110  1  0.30973900  0.03973900  0.57157400  1
  H  H111  1  0.69026100  0.53973900  0.92842600  1
  H  H112  1  0.61371300  0.07368200  0.18400400  1
  H  H113  1  0.38628700  0.57368200  0.31599600  1
  H  H114  1  0.38628700  0.92631800  0.81599600  1
  H  H115  1  0.61371300  0.42631800  0.68400400  1
  H  H116  1  0.68880000  0.21502300  0.24954700  1
  H  H117  1  0.31120000  0.71502300  0.25045300  1
  H  H118  1  0.31120000  0.78497700  0.75045300  1
  H  H119  1  0.68880000  0.28497700  0.74954700  1
  H  H120  1  0.53032700  0.22121100  0.21276500  1
  H  H121  1  0.46967300  0.72121100  0.28723500  1
  H  H122  1  0.46967300  0.77878900  0.78723500  1
  H  H123  1  0.53032700  0.27878900  0.71276500  1
  H  H124  1  0.74248200  0.45208100  0.16582200  1
  H  H125  1  0.25751800  0.95208100  0.33417800  1
  H  H126  1  0.25751800  0.54791900  0.83417800  1
  H  H127  1  0.74248200  0.04791900  0.66582200  1
  H  H128  1  0.82228200  0.47542000  0.27070700  1
  H  H129  1  0.17771800  0.97542000  0.22929300  1
  H  H130  1  0.17771800  0.52458000  0.72929300  1
  H  H131  1  0.82228200  0.02458000  0.77070700  1
  H  H132  1  0.83332400  0.57810700  0.17896000  1
  H  H133  1  0.16667600  0.07810700  0.32104000  1
  H  H134  1  0.16667600  0.42189300  0.82104000  1
  H  H135  1  0.83332400  0.92189300  0.67896000  1
  H  H136  1  0.91281700  0.51964700  0.05071700  1
  H  H137  1  0.08718300  0.01964700  0.44928300  1
  H  H138  1  0.08718300  0.48035300  0.94928300  1
  H  H139  1  0.91281700  0.98035300  0.55071700  1
  H  H140  1  0.96941000  0.37182000  0.03957300  1
  H  H141  1  0.03059000  0.87182000  0.46042700  1
  H  H142  1  0.03059000  0.62818000  0.96042700  1
  H  H143  1  0.96941000  0.12818000  0.53957300  1
  H  H144  1  0.82660400  0.39045000  0.03281600  1
  H  H145  1  0.17339600  0.89045000  0.46718400  1
  H  H146  1  0.17339600  0.60955000  0.96718400  1
  H  H147  1  0.82660400  0.10955000  0.53281600  1
  H  H148  1  0.79211900  0.24643700  0.14177500  1
  H  H149  1  0.20788100  0.74643700  0.35822500  1
  H  H150  1  0.20788100  0.75356300  0.85822500  1
  H  H151  1  0.79211900  0.25356300  0.64177500  1
  H  H152  1  0.94622800  0.19634500  0.15583100  1
  H  H153  1  0.05377200  0.69634500  0.34416900  1
  H  H154  1  0.05377200  0.80365500  0.84416900  1
  H  H155  1  0.94622800  0.30365500  0.65583100  1
  H  H156  1  0.87411100  0.24656700  0.26367900  1
  H  H157  1  0.12588900  0.74656700  0.23632100  1
  H  H158  1  0.12588900  0.75343300  0.73632100  1
  H  H159  1  0.87411100  0.25343300  0.76367900  1
  H  H160  1  0.09673300  0.38885900  0.19157100  1
  H  H161  1  0.90326700  0.88885900  0.30842900  1
  H  H162  1  0.90326700  0.61114100  0.80842900  1
  H  H163  1  0.09673300  0.11114100  0.69157100  1
  H  H164  1  0.03596300  0.55663500  0.18436200  1
  H  H165  1  0.96403700  0.05663500  0.31563800  1
  H  H166  1  0.96403700  0.44336500  0.81563800  1
  H  H167  1  0.03596300  0.94336500  0.68436200  1
  H  H168  1  0.02131200  0.45575400  0.29326900  1
  H  H169  1  0.97868800  0.95575400  0.20673100  1
  H  H170  1  0.97868800  0.54424600  0.70673100  1
  H  H171  1  0.02131200  0.04424600  0.79326900  1
  C  C172  1  0.83322300  0.81808800  0.96245600  1
  C  C173  1  0.16677700  0.31808800  0.53754400  1
  C  C174  1  0.16677700  0.18191200  0.03754400  1
  C  C175  1  0.83322300  0.68191200  0.46245600  1
  C  C176  1  0.64847700  0.87975700  0.94618900  1
  C  C177  1  0.35152300  0.37975700  0.55381100  1
  C  C178  1  0.35152300  0.12024300  0.05381100  1
  C  C179  1  0.64847700  0.62024300  0.44618900  1
  C  C180  1  0.58462200  0.18996800  0.40482400  1
  C  C181  1  0.41537800  0.68996800  0.09517600  1
  C  C182  1  0.41537800  0.81003200  0.59517600  1
  C  C183  1  0.58462200  0.31003200  0.90482400  1
  C  C184  1  0.48802000  0.02410600  0.33023800  1
  C  C185  1  0.51198000  0.52410600  0.16976200  1
  C  C186  1  0.51198000  0.97589400  0.66976200  1
  C  C187  1  0.48802000  0.47589400  0.83023800  1
  C  C188  1  0.82084600  0.48330200  0.19751100  1
  C  C189  1  0.17915400  0.98330200  0.30248900  1
  C  C190  1  0.17915400  0.51669800  0.80248900  1
  C  C191  1  0.82084600  0.01669800  0.69751100  1
  C  C192  1  0.90402900  0.42298200  0.06535800  1
  C  C193  1  0.09597100  0.92298200  0.43464200  1
  C  C194  1  0.09597100  0.57701800  0.93464200  1
  C  C195  1  0.90402900  0.07701800  0.56535800  1
  N  N196  1  0.75120900  0.88966400  0.00523300  1
  N  N197  1  0.24879100  0.38966400  0.49476700  1
  N  N198  1  0.24879100  0.11033600  0.99476700  1
  N  N199  1  0.75120900  0.61033600  0.50523300  1
  N  N200  1  0.58934900  0.09539700  0.33418100  1
  N  N201  1  0.41065100  0.59539700  0.16581900  1
  N  N202  1  0.41065100  0.90460300  0.66581900  1
  N  N203  1  0.58934900  0.40460300  0.83418100  1
  N  N204  1  0.90783300  0.40586200  0.16500400  1
  N  N205  1  0.09216700  0.90586200  0.33499600  1
  N  N206  1  0.09216700  0.59413800  0.83499600  1
  N  N207  1  0.90783300  0.09413800  0.66500400  1
