# generated using pymatgen
data_Er3Ir2
_symmetry_space_group_name_H-M   'P 1'
_cell_length_a   14.81805563
_cell_length_b   14.81805563
_cell_length_c   14.81805563
_cell_angle_alpha   135.68755955
_cell_angle_beta   135.68755955
_cell_angle_gamma   64.46374464
_symmetry_Int_Tables_number   1
_chemical_formula_structural   Er3Ir2
_chemical_formula_sum   'Er42 Ir28'
_cell_volume   1565.81522192
_cell_formula_units_Z   14
loop_
 _symmetry_equiv_pos_site_id
 _symmetry_equiv_pos_as_xyz
  1  'x, y, z'
loop_
 _atom_site_type_symbol
 _atom_site_label
 _atom_site_symmetry_multiplicity
 _atom_site_fract_x
 _atom_site_fract_y
 _atom_site_fract_z
 _atom_site_occupancy
  Er  Er0  1  0.63230200  0.50376900  0.27925900  1
  Er  Er1  1  0.22451000  0.35304300  0.72074100  1
  Er  Er2  1  0.13230200  0.85304300  0.12853300  1
  Er  Er3  1  0.72451000  0.00376900  0.87146700  1
  Er  Er4  1  0.35304300  0.63230200  0.12853300  1
  Er  Er5  1  0.50376900  0.22451000  0.87146700  1
  Er  Er6  1  0.00376900  0.13230200  0.27925900  1
  Er  Er7  1  0.85304300  0.72451000  0.72074100  1
  Er  Er8  1  0.36769800  0.49623100  0.72074100  1
  Er  Er9  1  0.77549000  0.64695700  0.27925900  1
  Er  Er10  1  0.86769800  0.14695700  0.87146700  1
  Er  Er11  1  0.27549000  0.99623100  0.12853300  1
  Er  Er12  1  0.64695700  0.36769800  0.87146700  1
  Er  Er13  1  0.49623100  0.77549000  0.12853300  1
  Er  Er14  1  0.99623100  0.86769800  0.72074100  1
  Er  Er15  1  0.14695700  0.27549000  0.27925900  1
  Er  Er16  1  0.38555000  0.51678600  0.29012200  1
  Er  Er17  1  0.22666300  0.09542700  0.70987800  1
  Er  Er18  1  0.88555000  0.59542700  0.86876400  1
  Er  Er19  1  0.72666300  0.01678600  0.13123600  1
  Er  Er20  1  0.09542700  0.38555000  0.86876400  1
  Er  Er21  1  0.51678600  0.22666300  0.13123600  1
  Er  Er22  1  0.01678600  0.88555000  0.29012200  1
  Er  Er23  1  0.59542700  0.72666300  0.70987800  1
  Er  Er24  1  0.61445000  0.48321400  0.70987800  1
  Er  Er25  1  0.77333700  0.90457300  0.29012200  1
  Er  Er26  1  0.11445000  0.40457300  0.13123600  1
  Er  Er27  1  0.27333700  0.98321400  0.86876400  1
  Er  Er28  1  0.90457300  0.61445000  0.13123600  1
  Er  Er29  1  0.48321400  0.77333700  0.86876400  1
  Er  Er30  1  0.98321400  0.11445000  0.70987800  1
  Er  Er31  1  0.40457300  0.27333700  0.29012200  1
  Er  Er32  1  0.85026000  0.35026000  0.20052000  1
  Er  Er33  1  0.14974000  0.64974000  0.79948000  1
  Er  Er34  1  0.35026000  0.14974000  0.50000000  1
  Er  Er35  1  0.64974000  0.85026000  0.50000000  1
  Er  Er36  1  0.38765600  0.88765600  0.50000000  1
  Er  Er37  1  0.88765600  0.38765600  0.50000000  1
  Er  Er38  1  0.61234400  0.11234400  0.50000000  1
  Er  Er39  1  0.11234400  0.61234400  0.50000000  1
  Er  Er40  1  0.25000000  0.75000000  0.50000000  1
  Er  Er41  1  0.75000000  0.25000000  0.50000000  1
  Ir  Ir42  1  0.71469500  0.21469500  0.14145500  1
  Ir  Ir43  1  0.07324000  0.57324000  0.85854500  1
  Ir  Ir44  1  0.21469500  0.07324000  0.50000000  1
  Ir  Ir45  1  0.57324000  0.71469500  0.50000000  1
  Ir  Ir46  1  0.28530500  0.78530500  0.85854500  1
  Ir  Ir47  1  0.92676000  0.42676000  0.14145500  1
  Ir  Ir48  1  0.78530500  0.92676000  0.50000000  1
  Ir  Ir49  1  0.42676000  0.28530500  0.50000000  1
  Ir  Ir50  1  0.46569600  0.96569600  0.80838500  1
  Ir  Ir51  1  0.15731100  0.65731100  0.19161500  1
  Ir  Ir52  1  0.96569600  0.15731100  0.50000000  1
  Ir  Ir53  1  0.65731100  0.46569600  0.50000000  1
  Ir  Ir54  1  0.53430400  0.03430400  0.19161500  1
  Ir  Ir55  1  0.84268900  0.34268900  0.80838500  1
  Ir  Ir56  1  0.03430400  0.84268900  0.50000000  1
  Ir  Ir57  1  0.34268900  0.53430400  0.50000000  1
  Ir  Ir58  1  0.59661600  0.09661600  0.69323300  1
  Ir  Ir59  1  0.40338400  0.90338400  0.30676700  1
  Ir  Ir60  1  0.09661600  0.40338400  0.50000000  1
  Ir  Ir61  1  0.90338400  0.59661600  0.50000000  1
  Ir  Ir62  1  0.36613500  0.36613500  0.00000000  1
  Ir  Ir63  1  0.86613500  0.86613500  0.00000000  1
  Ir  Ir64  1  0.63386500  0.63386500  0.00000000  1
  Ir  Ir65  1  0.13386500  0.13386500  0.00000000  1
  Ir  Ir66  1  0.50000000  0.50000000  0.00000000  1
  Ir  Ir67  1  0.00000000  0.00000000  0.00000000  1
  Ir  Ir68  1  0.25000000  0.25000000  0.00000000  1
  Ir  Ir69  1  0.75000000  0.75000000  0.00000000  1
