# generated using pymatgen
data_Eu3Si2BO10
_symmetry_space_group_name_H-M   'P 1'
_cell_length_a   7.14027850
_cell_length_b   9.85701643
_cell_length_c   23.26044057
_cell_angle_alpha   90.00000000
_cell_angle_beta   90.00000000
_cell_angle_gamma   90.00000000
_symmetry_Int_Tables_number   1
_chemical_formula_structural   Eu3Si2BO10
_chemical_formula_sum   'Eu24 Si16 B8 O80'
_cell_volume   1637.11266443
_cell_formula_units_Z   8
loop_
 _symmetry_equiv_pos_site_id
 _symmetry_equiv_pos_as_xyz
  1  'x, y, z'
loop_
 _atom_site_type_symbol
 _atom_site_label
 _atom_site_symmetry_multiplicity
 _atom_site_fract_x
 _atom_site_fract_y
 _atom_site_fract_z
 _atom_site_occupancy
  Eu  Eu0  1  0.82106062  0.36459411  0.83480594  1
  Eu  Eu1  1  0.67893938  0.86459411  0.16519406  1
  Eu  Eu2  1  0.32106062  0.63540589  0.66519406  1
  Eu  Eu3  1  0.17893938  0.13540589  0.33480594  1
  Eu  Eu4  1  0.17893938  0.63540589  0.16519406  1
  Eu  Eu5  1  0.32106062  0.13540589  0.83480594  1
  Eu  Eu6  1  0.67893938  0.36459411  0.33480594  1
  Eu  Eu7  1  0.82106062  0.86459411  0.66519406  1
  Eu  Eu8  1  0.09160401  0.76854122  0.81753666  1
  Eu  Eu9  1  0.40839599  0.26854122  0.18246334  1
  Eu  Eu10  1  0.59160401  0.23145878  0.68246334  1
  Eu  Eu11  1  0.90839599  0.73145878  0.31753666  1
  Eu  Eu12  1  0.90839599  0.23145878  0.18246334  1
  Eu  Eu13  1  0.59160401  0.73145878  0.81753666  1
  Eu  Eu14  1  0.40839599  0.76854122  0.31753666  1
  Eu  Eu15  1  0.09160401  0.26854122  0.68246334  1
  Eu  Eu16  1  0.86197600  0.00939587  0.92702248  1
  Eu  Eu17  1  0.63802400  0.50939587  0.07297752  1
  Eu  Eu18  1  0.36197600  0.99060413  0.57297752  1
  Eu  Eu19  1  0.13802400  0.49060413  0.42702248  1
  Eu  Eu20  1  0.13802400  0.99060413  0.07297752  1
  Eu  Eu21  1  0.36197600  0.49060413  0.92702248  1
  Eu  Eu22  1  0.63802400  0.00939587  0.42702248  1
  Eu  Eu23  1  0.86197600  0.50939587  0.57297752  1
  Si  Si24  1  0.85787399  0.62304106  0.92192859  1
  Si  Si25  1  0.64212601  0.12304106  0.07807141  1
  Si  Si26  1  0.35787399  0.37695894  0.57807141  1
  Si  Si27  1  0.14212601  0.87695894  0.42192859  1
  Si  Si28  1  0.14212601  0.37695894  0.07807141  1
  Si  Si29  1  0.35787399  0.87695894  0.92192859  1
  Si  Si30  1  0.64212601  0.62304106  0.42192859  1
  Si  Si31  1  0.85787399  0.12304106  0.57807141  1
  Si  Si32  1  0.81396175  0.06065817  0.77888743  1
  Si  Si33  1  0.68603825  0.56065817  0.22111257  1
  Si  Si34  1  0.31396175  0.93934183  0.72111257  1
  Si  Si35  1  0.18603825  0.43934183  0.27888743  1
  Si  Si36  1  0.18603825  0.93934183  0.22111257  1
  Si  Si37  1  0.31396175  0.43934183  0.77888743  1
  Si  Si38  1  0.68603825  0.06065817  0.27888743  1
  Si  Si39  1  0.81396175  0.56065817  0.72111257  1
  B  B40  1  0.66163384  0.25496538  0.97160699  1
  B  B41  1  0.83836616  0.75496538  0.02839301  1
  B  B42  1  0.16163384  0.74503462  0.52839301  1
  B  B43  1  0.33836616  0.24503462  0.47160699  1
  B  B44  1  0.33836616  0.74503462  0.02839301  1
  B  B45  1  0.16163384  0.24503462  0.97160699  1
  B  B46  1  0.83836616  0.25496538  0.47160699  1
  B  B47  1  0.66163384  0.75496538  0.52839301  1
  O  O48  1  0.86749211  0.09814818  0.71136726  1
  O  O49  1  0.63250789  0.59814818  0.28863274  1
  O  O50  1  0.36749211  0.90185182  0.78863274  1
  O  O51  1  0.13250789  0.40185182  0.21136726  1
  O  O52  1  0.13250789  0.90185182  0.28863274  1
  O  O53  1  0.36749211  0.40185182  0.71136726  1
  O  O54  1  0.63250789  0.09814818  0.21136726  1
  O  O55  1  0.86749211  0.59814818  0.78863274  1
  O  O56  1  0.85383243  0.77426441  0.89120112  1
  O  O57  1  0.64616757  0.27426441  0.10879888  1
  O  O58  1  0.35383243  0.22573559  0.60879888  1
  O  O59  1  0.14616757  0.72573559  0.39120112  1
  O  O60  1  0.14616757  0.22573559  0.10879888  1
  O  O61  1  0.35383243  0.72573559  0.89120112  1
  O  O62  1  0.64616757  0.77426441  0.39120112  1
  O  O63  1  0.85383243  0.27426441  0.60879888  1
  O  O64  1  0.79493260  0.39436503  0.72172566  1
  O  O65  1  0.70506740  0.89436503  0.27827434  1
  O  O66  1  0.29493260  0.60563497  0.77827434  1
  O  O67  1  0.20506740  0.10563497  0.22172566  1
  O  O68  1  0.20506740  0.60563497  0.27827434  1
  O  O69  1  0.29493260  0.10563497  0.72172566  1
  O  O70  1  0.70506740  0.39436503  0.22172566  1
  O  O71  1  0.79493260  0.89436503  0.77827434  1
  O  O72  1  0.66196522  0.13750223  0.00706690  1
  O  O73  1  0.83803478  0.63750223  0.99293310  1
  O  O74  1  0.16196522  0.86249777  0.49293310  1
  O  O75  1  0.33803478  0.36249777  0.50706690  1
  O  O76  1  0.33803478  0.86249777  0.99293310  1
  O  O77  1  0.16196522  0.36249777  0.00706690  1
  O  O78  1  0.83803478  0.13750223  0.50706690  1
  O  O79  1  0.66196522  0.63750223  0.49293310  1
  O  O80  1  0.58294469  0.37267758  0.99034889  1
  O  O81  1  0.91705531  0.87267758  0.00965111  1
  O  O82  1  0.08294469  0.62732242  0.50965111  1
  O  O83  1  0.41705531  0.12732242  0.49034889  1
  O  O84  1  0.41705531  0.62732242  0.00965111  1
  O  O85  1  0.08294469  0.12732242  0.99034889  1
  O  O86  1  0.91705531  0.37267758  0.49034889  1
  O  O87  1  0.58294469  0.87267758  0.50965111  1
  O  O88  1  0.67339578  0.54793932  0.89420452  1
  O  O89  1  0.82660422  0.04793932  0.10579548  1
  O  O90  1  0.17339578  0.45206068  0.60579548  1
  O  O91  1  0.32660422  0.95206068  0.39420452  1
  O  O92  1  0.32660422  0.45206068  0.10579548  1
  O  O93  1  0.17339578  0.95206068  0.89420452  1
  O  O94  1  0.82660422  0.54793932  0.39420452  1
  O  O95  1  0.67339578  0.04793932  0.60579548  1
  O  O96  1  0.62570274  0.15445055  0.78905397  1
  O  O97  1  0.87429726  0.65445055  0.21094603  1
  O  O98  1  0.12570274  0.84554945  0.71094603  1
  O  O99  1  0.37429726  0.34554945  0.28905397  1
  O  O100  1  0.37429726  0.84554945  0.21094603  1
  O  O101  1  0.12570274  0.34554945  0.78905397  1
  O  O102  1  0.87429726  0.15445055  0.28905397  1
  O  O103  1  0.62570274  0.65445055  0.71094603  1
  O  O104  1  0.96253228  0.10899260  0.82807659  1
  O  O105  1  0.53746772  0.60899260  0.17192341  1
  O  O106  1  0.46253228  0.89100740  0.67192341  1
  O  O107  1  0.03746772  0.39100740  0.32807659  1
  O  O108  1  0.03746772  0.89100740  0.17192341  1
  O  O109  1  0.46253228  0.39100740  0.82807659  1
  O  O110  1  0.53746772  0.10899260  0.32807659  1
  O  O111  1  0.96253228  0.60899260  0.67192341  1
  O  O112  1  0.74417299  0.24045881  0.91900708  1
  O  O113  1  0.75582701  0.74045881  0.08099292  1
  O  O114  1  0.24417299  0.75954119  0.58099292  1
  O  O115  1  0.25582701  0.25954119  0.41900708  1
  O  O116  1  0.25582701  0.75954119  0.08099292  1
  O  O117  1  0.24417299  0.25954119  0.91900708  1
  O  O118  1  0.75582701  0.24045881  0.41900708  1
  O  O119  1  0.74417299  0.74045881  0.58099292  1
  O  O120  1  0.03975717  0.53686214  0.90063851  1
  O  O121  1  0.46024283  0.03686214  0.09936149  1
  O  O122  1  0.53975717  0.46313786  0.59936149  1
  O  O123  1  0.96024283  0.96313786  0.40063851  1
  O  O124  1  0.96024283  0.46313786  0.09936149  1
  O  O125  1  0.53975717  0.96313786  0.90063851  1
  O  O126  1  0.46024283  0.53686214  0.40063851  1
  O  O127  1  0.03975717  0.03686214  0.59936149  1
