# generated using pymatgen
data_Cu2H13C2S2NO11
_symmetry_space_group_name_H-M   'P 1'
_cell_length_a   17.52405800
_cell_length_b   7.00601500
_cell_length_c   12.59823030
_cell_angle_alpha   56.57260043
_cell_angle_beta   90.00000000
_cell_angle_gamma   90.00000000
_symmetry_Int_Tables_number   1
_chemical_formula_structural   Cu2H13C2S2NO11
_chemical_formula_sum   'Cu8 H52 C8 S8 N4 O44'
_cell_volume   1290.87923094
_cell_formula_units_Z   4
loop_
 _symmetry_equiv_pos_site_id
 _symmetry_equiv_pos_as_xyz
  1  'x, y, z'
loop_
 _atom_site_type_symbol
 _atom_site_label
 _atom_site_symmetry_multiplicity
 _atom_site_fract_x
 _atom_site_fract_y
 _atom_site_fract_z
 _atom_site_occupancy
  Cu  Cu0  1  0.46251600  0.00175300  0.24497300  1
  Cu  Cu1  1  0.03748400  0.00175300  0.74497300  1
  Cu  Cu2  1  0.53748400  0.99824700  0.75502700  1
  Cu  Cu3  1  0.96251600  0.99824700  0.25502700  1
  Cu  Cu4  1  0.50000000  0.00000000  0.50000000  1
  Cu  Cu5  1  0.00000000  0.00000000  0.00000000  1
  Cu  Cu6  1  0.50000000  0.50000000  0.50000000  1
  Cu  Cu7  1  0.00000000  0.50000000  0.00000000  1
  H  H8  1  0.57367800  0.86747300  0.38856200  1
  H  H9  1  0.92632200  0.86747300  0.88856200  1
  H  H10  1  0.42632200  0.13252700  0.61143800  1
  H  H11  1  0.07367800  0.13252700  0.11143800  1
  H  H12  1  0.42346200  0.22200400  0.00746700  1
  H  H13  1  0.07653800  0.22200400  0.50746700  1
  H  H14  1  0.57653800  0.77799600  0.99253300  1
  H  H15  1  0.92346200  0.77799600  0.49253300  1
  H  H16  1  0.40345500  0.95362700  0.08641700  1
  H  H17  1  0.09654500  0.95362700  0.58641700  1
  H  H18  1  0.59654500  0.04637300  0.91358300  1
  H  H19  1  0.90345500  0.04637300  0.41358300  1
  H  H20  1  0.56057100  0.30507100  0.15123600  1
  H  H21  1  0.93942900  0.30507100  0.65123600  1
  H  H22  1  0.43942900  0.69492900  0.84876400  1
  H  H23  1  0.06057100  0.69492900  0.34876400  1
  H  H24  1  0.56582500  0.20283300  0.06515500  1
  H  H25  1  0.93417500  0.20283300  0.56515500  1
  H  H26  1  0.43417500  0.79716700  0.93484500  1
  H  H27  1  0.06582500  0.79716700  0.43484500  1
  H  H28  1  0.17879600  0.26685400  0.77540400  1
  H  H29  1  0.32120400  0.26685400  0.27540400  1
  H  H30  1  0.82120400  0.73314600  0.22459600  1
  H  H31  1  0.67879600  0.73314600  0.72459600  1
  H  H32  1  0.23293600  0.48907200  0.66893100  1
  H  H33  1  0.26706400  0.48907200  0.16893100  1
  H  H34  1  0.76706400  0.51092800  0.33106900  1
  H  H35  1  0.73293600  0.51092800  0.83106900  1
  H  H36  1  0.28864100  0.13752900  0.71757600  1
  H  H37  1  0.21135900  0.13752900  0.21757600  1
  H  H38  1  0.71135900  0.86247100  0.28242400  1
  H  H39  1  0.78864100  0.86247100  0.78242400  1
  H  H40  1  0.34866200  0.28920900  0.76272000  1
  H  H41  1  0.15133800  0.28920900  0.26272000  1
  H  H42  1  0.65133800  0.71079100  0.23728000  1
  H  H43  1  0.84866200  0.71079100  0.73728000  1
  H  H44  1  0.29407500  0.04480000  0.88054600  1
  H  H45  1  0.20592500  0.04480000  0.38054600  1
  H  H46  1  0.70592500  0.95520000  0.11945400  1
  H  H47  1  0.79407500  0.95520000  0.61945400  1
  H  H48  1  0.18525500  0.54420200  0.82920000  1
  H  H49  1  0.31474500  0.54420200  0.32920000  1
  H  H50  1  0.81474500  0.45579800  0.17080000  1
  H  H51  1  0.68525500  0.45579800  0.67080000  1
  H  H52  1  0.23322800  0.28599700  0.94686300  1
  H  H53  1  0.26677200  0.28599700  0.44686300  1
  H  H54  1  0.76677200  0.71400300  0.05313700  1
  H  H55  1  0.73322800  0.71400300  0.55313700  1
  H  H56  1  0.28756100  0.52803200  0.82944800  1
  H  H57  1  0.21243900  0.52803200  0.32944800  1
  H  H58  1  0.71243900  0.47196800  0.17055200  1
  H  H59  1  0.78756100  0.47196800  0.67055200  1
  C  C60  1  0.29539600  0.19385600  0.78259400  1
  C  C61  1  0.20460400  0.19385600  0.28259400  1
  C  C62  1  0.70460400  0.80614400  0.21740600  1
  C  C63  1  0.79539600  0.80614400  0.71740600  1
  C  C64  1  0.23424500  0.43312400  0.84807000  1
  C  C65  1  0.26575500  0.43312400  0.34807000  1
  C  C66  1  0.76575500  0.56687600  0.15193000  1
  C  C67  1  0.73424500  0.56687600  0.65193000  1
  S  S68  1  0.35617000  0.76153900  0.48291200  1
  S  S69  1  0.14383000  0.76153900  0.98291200  1
  S  S70  1  0.64383000  0.23846100  0.51708800  1
  S  S71  1  0.85617000  0.23846100  0.01708800  1
  S  S72  1  0.47282900  0.55764200  0.19355800  1
  S  S73  1  0.02717100  0.55764200  0.69355800  1
  S  S74  1  0.52717100  0.44235800  0.80644200  1
  S  S75  1  0.97282900  0.44235800  0.30644200  1
  N  N76  1  0.23065000  0.34832300  0.76272100  1
  N  N77  1  0.26935000  0.34832300  0.26272100  1
  N  N78  1  0.76935000  0.65167700  0.23727900  1
  N  N79  1  0.73065000  0.65167700  0.73727900  1
  O  O80  1  0.51963200  0.84456600  0.41273800  1
  O  O81  1  0.98036800  0.84456600  0.91273800  1
  O  O82  1  0.48036800  0.15543400  0.58726200  1
  O  O83  1  0.01963200  0.15543400  0.08726200  1
  O  O84  1  0.44199200  0.32076900  0.27033400  1
  O  O85  1  0.05800800  0.32076900  0.77033400  1
  O  O86  1  0.55800800  0.67923100  0.72966600  1
  O  O87  1  0.94199200  0.67923100  0.22966600  1
  O  O88  1  0.54773400  0.55533500  0.13552200  1
  O  O89  1  0.95226600  0.55533500  0.63552200  1
  O  O90  1  0.45226600  0.44466500  0.86447800  1
  O  O91  1  0.04773400  0.44466500  0.36447800  1
  O  O92  1  0.41799200  0.71229200  0.08812000  1
  O  O93  1  0.08200800  0.71229200  0.58812000  1
  O  O94  1  0.58200800  0.28770800  0.91188000  1
  O  O95  1  0.91799200  0.28770800  0.41188000  1
  O  O96  1  0.48350200  0.64745600  0.27519500  1
  O  O97  1  0.01649800  0.64745600  0.77519500  1
  O  O98  1  0.51649800  0.35254400  0.72480500  1
  O  O99  1  0.98350200  0.35254400  0.22480500  1
  O  O100  1  0.36138300  0.91216900  0.34056600  1
  O  O101  1  0.13861700  0.91216900  0.84056600  1
  O  O102  1  0.63861700  0.08783100  0.65943400  1
  O  O103  1  0.86138300  0.08783100  0.15943400  1
  O  O104  1  0.39574300  0.87558900  0.54068000  1
  O  O105  1  0.10425700  0.87558900  0.04068000  1
  O  O106  1  0.60425700  0.12441100  0.45932000  1
  O  O107  1  0.89574300  0.12441100  0.95932000  1
  O  O108  1  0.39326600  0.53516400  0.52807700  1
  O  O109  1  0.10673400  0.53516400  0.02807700  1
  O  O110  1  0.60673400  0.46483600  0.47192300  1
  O  O111  1  0.89326600  0.46483600  0.97192300  1
  O  O112  1  0.27639600  0.72267400  0.52286800  1
  O  O113  1  0.22360400  0.72267400  0.02286800  1
  O  O114  1  0.72360400  0.27732600  0.47713200  1
  O  O115  1  0.77639600  0.27732600  0.97713200  1
  O  O116  1  0.40194700  0.09328400  0.09039100  1
  O  O117  1  0.09805300  0.09328400  0.59039100  1
  O  O118  1  0.59805300  0.90671600  0.90960900  1
  O  O119  1  0.90194700  0.90671600  0.40960900  1
  O  O120  1  0.56052200  0.15663300  0.15584000  1
  O  O121  1  0.93947800  0.15663300  0.65584000  1
  O  O122  1  0.43947800  0.84336700  0.84416000  1
  O  O123  1  0.06052200  0.84336700  0.34416000  1
