# generated using pymatgen
data_K9(FeO4)2
_symmetry_space_group_name_H-M   'P 1'
_cell_length_a   10.56596146
_cell_length_b   10.56596146
_cell_length_c   13.58791175
_cell_angle_alpha   87.37090795
_cell_angle_beta   87.37090795
_cell_angle_gamma   76.38071799
_symmetry_Int_Tables_number   1
_chemical_formula_structural   K9(FeO4)2
_chemical_formula_sum   'K36 Fe8 O32'
_cell_volume   1471.78145143
_cell_formula_units_Z   4
loop_
 _symmetry_equiv_pos_site_id
 _symmetry_equiv_pos_as_xyz
  1  'x, y, z'
loop_
 _atom_site_type_symbol
 _atom_site_label
 _atom_site_symmetry_multiplicity
 _atom_site_fract_x
 _atom_site_fract_y
 _atom_site_fract_z
 _atom_site_occupancy
  K  K0  1  0.10835500  0.71273800  0.71686900  1
  K  K1  1  0.28726200  0.89164500  0.78313100  1
  K  K2  1  0.89164500  0.28726200  0.28313100  1
  K  K3  1  0.71273800  0.10835500  0.21686900  1
  K  K4  1  0.44377500  0.55622500  0.75000000  1
  K  K5  1  0.55622500  0.44377500  0.25000000  1
  K  K6  1  0.90675400  0.39803700  0.53459700  1
  K  K7  1  0.60196300  0.09324600  0.96540300  1
  K  K8  1  0.09324600  0.60196300  0.46540300  1
  K  K9  1  0.39803700  0.90675400  0.03459700  1
  K  K10  1  0.90417800  0.68749000  0.89028900  1
  K  K11  1  0.31251000  0.09582200  0.60971100  1
  K  K12  1  0.09582200  0.31251000  0.10971100  1
  K  K13  1  0.68749000  0.90417800  0.39028900  1
  K  K14  1  0.92347600  0.90417100  0.53914600  1
  K  K15  1  0.09582900  0.07652400  0.96085400  1
  K  K16  1  0.07652400  0.09582900  0.46085400  1
  K  K17  1  0.90417100  0.92347600  0.03914600  1
  K  K18  1  0.20062700  0.38983200  0.65795500  1
  K  K19  1  0.61016800  0.79937300  0.84204500  1
  K  K20  1  0.79937300  0.61016800  0.34204500  1
  K  K21  1  0.38983200  0.20062700  0.15795500  1
  K  K22  1  0.61263300  0.57952500  0.02787000  1
  K  K23  1  0.42047500  0.38736700  0.47213000  1
  K  K24  1  0.38736700  0.42047500  0.97213000  1
  K  K25  1  0.57952500  0.61263300  0.52787000  1
  K  K26  1  0.09412400  0.40148800  0.88006300  1
  K  K27  1  0.59851200  0.90587600  0.61993700  1
  K  K28  1  0.90587600  0.59851200  0.11993700  1
  K  K29  1  0.40148800  0.09412400  0.38006300  1
  K  K30  1  0.81507600  0.38640700  0.78647300  1
  K  K31  1  0.61359300  0.18492400  0.71352700  1
  K  K32  1  0.18492400  0.61359300  0.21352700  1
  K  K33  1  0.38640700  0.81507600  0.28647300  1
  K  K34  1  0.96060500  0.03939500  0.75000000  1
  K  K35  1  0.03939500  0.96060500  0.25000000  1
  Fe  Fe36  1  0.82435800  0.66143700  0.66128500  1
  Fe  Fe37  1  0.33856300  0.17564200  0.83871500  1
  Fe  Fe38  1  0.17564200  0.33856300  0.33871500  1
  Fe  Fe39  1  0.66143700  0.82435800  0.16128500  1
  Fe  Fe40  1  0.19847500  0.72607300  0.98073100  1
  Fe  Fe41  1  0.27392700  0.80152500  0.51926900  1
  Fe  Fe42  1  0.80152500  0.27392700  0.01926900  1
  Fe  Fe43  1  0.72607300  0.19847500  0.48073100  1
  O  O44  1  0.08947500  0.83573000  0.89078700  1
  O  O45  1  0.16427000  0.91052500  0.60921300  1
  O  O46  1  0.91052500  0.16427000  0.10921300  1
  O  O47  1  0.83573000  0.08947500  0.39078700  1
  O  O48  1  0.14075600  0.57194400  0.01652700  1
  O  O49  1  0.42805600  0.85924400  0.48347300  1
  O  O50  1  0.85924400  0.42805600  0.98347300  1
  O  O51  1  0.57194400  0.14075600  0.51652700  1
  O  O52  1  0.82738200  0.18197700  0.59237900  1
  O  O53  1  0.81802300  0.17261800  0.90762100  1
  O  O54  1  0.17261800  0.81802300  0.40762100  1
  O  O55  1  0.18197700  0.82738200  0.09237900  1
  O  O56  1  0.31233500  0.62898300  0.57788200  1
  O  O57  1  0.37101700  0.68766500  0.92211800  1
  O  O58  1  0.68766500  0.37101700  0.42211800  1
  O  O59  1  0.62898300  0.31233500  0.07788200  1
  O  O60  1  0.81547500  0.69193700  0.52146500  1
  O  O61  1  0.30806300  0.18452500  0.97853500  1
  O  O62  1  0.18452500  0.30806300  0.47853500  1
  O  O63  1  0.69193700  0.81547500  0.02146500  1
  O  O64  1  0.97167200  0.53147500  0.70336100  1
  O  O65  1  0.46852500  0.02832800  0.79663900  1
  O  O66  1  0.02832800  0.46852500  0.29663900  1
  O  O67  1  0.53147500  0.97167200  0.20336100  1
  O  O68  1  0.83294100  0.81910400  0.71669400  1
  O  O69  1  0.18089600  0.16705900  0.78330600  1
  O  O70  1  0.16705900  0.18089600  0.28330600  1
  O  O71  1  0.81910400  0.83294100  0.21669400  1
  O  O72  1  0.66975000  0.61294200  0.70888800  1
  O  O73  1  0.38705800  0.33025000  0.79111200  1
  O  O74  1  0.33025000  0.38705800  0.29111200  1
  O  O75  1  0.61294200  0.66975000  0.20888800  1
