# generated using pymatgen
data_CsNO3
_symmetry_space_group_name_H-M   'P 1'
_cell_length_a   9.30429800
_cell_length_b   9.30429800
_cell_length_c   9.30429800
_cell_angle_alpha   90.00000000
_cell_angle_beta   90.00000000
_cell_angle_gamma   90.00000000
_symmetry_Int_Tables_number   1
_chemical_formula_structural   CsNO3
_chemical_formula_sum   'Cs8 N8 O24'
_cell_volume   805.47271753
_cell_formula_units_Z   8
loop_
 _symmetry_equiv_pos_site_id
 _symmetry_equiv_pos_as_xyz
  1  'x, y, z'
loop_
 _atom_site_type_symbol
 _atom_site_label
 _atom_site_symmetry_multiplicity
 _atom_site_fract_x
 _atom_site_fract_y
 _atom_site_fract_z
 _atom_site_occupancy
  Cs  Cs0  1  0.50000000  0.50000000  0.00000000  1
  Cs  Cs1  1  0.50000000  0.00000000  0.50000000  1
  Cs  Cs2  1  0.00000000  0.50000000  0.50000000  1
  Cs  Cs3  1  0.00000000  0.00000000  0.00000000  1
  Cs  Cs4  1  0.00000000  0.00000000  0.50000000  1
  Cs  Cs5  1  0.00000000  0.50000000  0.00000000  1
  Cs  Cs6  1  0.50000000  0.00000000  0.00000000  1
  Cs  Cs7  1  0.50000000  0.50000000  0.50000000  1
  N  N8  1  0.22408700  0.77591300  0.27591300  1
  N  N9  1  0.77591300  0.27591300  0.22408700  1
  N  N10  1  0.27591300  0.22408700  0.77591300  1
  N  N11  1  0.72408700  0.72408700  0.72408700  1
  N  N12  1  0.77591300  0.22408700  0.72408700  1
  N  N13  1  0.22408700  0.72408700  0.77591300  1
  N  N14  1  0.72408700  0.77591300  0.22408700  1
  N  N15  1  0.27591300  0.27591300  0.27591300  1
  O  O16  1  0.11150700  0.72181800  0.22090300  1
  O  O17  1  0.88849300  0.22181800  0.27909700  1
  O  O18  1  0.38849300  0.27818200  0.72090300  1
  O  O19  1  0.61150700  0.77818200  0.77909700  1
  O  O20  1  0.22090300  0.11150700  0.72181800  1
  O  O21  1  0.27909700  0.88849300  0.22181800  1
  O  O22  1  0.72090300  0.38849300  0.27818200  1
  O  O23  1  0.77909700  0.61150700  0.77818200  1
  O  O24  1  0.72181800  0.22090300  0.11150700  1
  O  O25  1  0.22181800  0.27909700  0.88849300  1
  O  O26  1  0.27818200  0.72090300  0.38849300  1
  O  O27  1  0.77818200  0.77909700  0.61150700  1
  O  O28  1  0.88849300  0.27818200  0.77909700  1
  O  O29  1  0.11150700  0.77818200  0.72090300  1
  O  O30  1  0.61150700  0.72181800  0.27909700  1
  O  O31  1  0.38849300  0.22181800  0.22090300  1
  O  O32  1  0.77909700  0.88849300  0.27818200  1
  O  O33  1  0.72090300  0.11150700  0.77818200  1
  O  O34  1  0.27909700  0.61150700  0.72181800  1
  O  O35  1  0.22090300  0.38849300  0.22181800  1
  O  O36  1  0.27818200  0.77909700  0.88849300  1
  O  O37  1  0.77818200  0.72090300  0.11150700  1
  O  O38  1  0.72181800  0.27909700  0.61150700  1
  O  O39  1  0.22181800  0.22090300  0.38849300  1
