# generated using pymatgen
data_Ba20Zn5Hg99
_symmetry_space_group_name_H-M   'P 1'
_cell_length_a   17.10467403
_cell_length_b   17.10467403
_cell_length_c   17.10467403
_cell_angle_alpha   60.00000000
_cell_angle_beta   60.00000000
_cell_angle_gamma   60.00000000
_symmetry_Int_Tables_number   1
_chemical_formula_structural   Ba20Zn5Hg99
_chemical_formula_sum   'Ba20 Zn5 Hg99'
_cell_volume   3538.58317975
_cell_formula_units_Z   1
loop_
 _symmetry_equiv_pos_site_id
 _symmetry_equiv_pos_as_xyz
  1  'x, y, z'
loop_
 _atom_site_type_symbol
 _atom_site_label
 _atom_site_symmetry_multiplicity
 _atom_site_fract_x
 _atom_site_fract_y
 _atom_site_fract_z
 _atom_site_occupancy
  Ba  Ba0  1  0.59661800  0.59661800  0.21014500  1
  Ba  Ba1  1  0.59661800  0.21014500  0.59661800  1
  Ba  Ba2  1  0.21014500  0.59661800  0.59661800  1
  Ba  Ba3  1  0.59661800  0.59661800  0.59661800  1
  Ba  Ba4  1  0.84382900  0.84382900  0.46851200  1
  Ba  Ba5  1  0.84382900  0.46851200  0.84382900  1
  Ba  Ba6  1  0.46851200  0.84382900  0.84382900  1
  Ba  Ba7  1  0.84382900  0.84382900  0.84382900  1
  Ba  Ba8  1  0.18515000  0.18515000  0.81485000  1
  Ba  Ba9  1  0.81485000  0.18515000  0.81485000  1
  Ba  Ba10  1  0.18515000  0.81485000  0.81485000  1
  Ba  Ba11  1  0.81485000  0.81485000  0.18515000  1
  Ba  Ba12  1  0.18515000  0.81485000  0.18515000  1
  Ba  Ba13  1  0.81485000  0.18515000  0.18515000  1
  Ba  Ba14  1  0.05137800  0.05137800  0.44862200  1
  Ba  Ba15  1  0.44862200  0.05137800  0.44862200  1
  Ba  Ba16  1  0.05137800  0.44862200  0.44862200  1
  Ba  Ba17  1  0.44862200  0.44862200  0.05137800  1
  Ba  Ba18  1  0.05137800  0.44862200  0.05137800  1
  Ba  Ba19  1  0.44862200  0.05137800  0.05137800  1
  Zn  Zn20  1  0.00000000  0.00000000  0.00000000  1
  Zn  Zn21  1  0.13085000  0.13085000  0.60744900  1
  Zn  Zn22  1  0.13085000  0.60744900  0.13085000  1
  Zn  Zn23  1  0.60744900  0.13085000  0.13085000  1
  Zn  Zn24  1  0.13085000  0.13085000  0.13085000  1
  Hg  Hg25  1  0.41764700  0.82625500  0.10834700  1
  Hg  Hg26  1  0.64775100  0.41764800  0.10834700  1
  Hg  Hg27  1  0.82625500  0.64775100  0.10834700  1
  Hg  Hg28  1  0.64775100  0.82625500  0.10834700  1
  Hg  Hg29  1  0.82625500  0.41764800  0.10834700  1
  Hg  Hg30  1  0.41764700  0.64775100  0.10834700  1
  Hg  Hg31  1  0.64775100  0.10834700  0.82625500  1
  Hg  Hg32  1  0.82625500  0.10834700  0.41764700  1
  Hg  Hg33  1  0.41764800  0.10834700  0.64775100  1
  Hg  Hg34  1  0.41764800  0.10834700  0.82625500  1
  Hg  Hg35  1  0.64775100  0.10834700  0.41764700  1
  Hg  Hg36  1  0.82625500  0.10834700  0.64775100  1
  Hg  Hg37  1  0.10834700  0.64775100  0.41764800  1
  Hg  Hg38  1  0.10834700  0.82625500  0.64775100  1
  Hg  Hg39  1  0.10834700  0.41764800  0.82625500  1
  Hg  Hg40  1  0.10834700  0.41764800  0.64775100  1
  Hg  Hg41  1  0.10834700  0.64775100  0.82625500  1
  Hg  Hg42  1  0.10834700  0.82625500  0.41764700  1
  Hg  Hg43  1  0.82625500  0.41764800  0.64775100  1
  Hg  Hg44  1  0.41764700  0.64775100  0.82625500  1
  Hg  Hg45  1  0.64775100  0.82625500  0.41764700  1
  Hg  Hg46  1  0.82625500  0.64775100  0.41764700  1
  Hg  Hg47  1  0.41764800  0.82625500  0.64775100  1
  Hg  Hg48  1  0.64775100  0.41764700  0.82625500  1
  Hg  Hg49  1  0.61770900  0.79561600  0.96896600  1
  Hg  Hg50  1  0.61770900  0.61770900  0.96896600  1
  Hg  Hg51  1  0.79561600  0.61770900  0.96896600  1
  Hg  Hg52  1  0.61770900  0.96896600  0.79561600  1
  Hg  Hg53  1  0.79561600  0.96896600  0.61770900  1
  Hg  Hg54  1  0.61770900  0.96896600  0.61770900  1
  Hg  Hg55  1  0.96896600  0.61770900  0.61770900  1
  Hg  Hg56  1  0.96896600  0.79561600  0.61770900  1
  Hg  Hg57  1  0.96896600  0.61770900  0.79561600  1
  Hg  Hg58  1  0.79561600  0.61770900  0.61770900  1
  Hg  Hg59  1  0.61770900  0.61770900  0.79561600  1
  Hg  Hg60  1  0.61770900  0.79561600  0.61770900  1
  Hg  Hg61  1  0.99913300  0.29501700  0.70671600  1
  Hg  Hg62  1  0.99913300  0.99913300  0.70671600  1
  Hg  Hg63  1  0.29501700  0.99913300  0.70671600  1
  Hg  Hg64  1  0.99913300  0.70671600  0.29501700  1
  Hg  Hg65  1  0.29501700  0.70671600  0.99913300  1
  Hg  Hg66  1  0.99913300  0.70671600  0.99913300  1
  Hg  Hg67  1  0.70671600  0.99913300  0.99913300  1
  Hg  Hg68  1  0.70671600  0.29501700  0.99913300  1
  Hg  Hg69  1  0.70671600  0.99913300  0.29501700  1
  Hg  Hg70  1  0.29501700  0.99913300  0.99913300  1
  Hg  Hg71  1  0.99913300  0.99913300  0.29501700  1
  Hg  Hg72  1  0.99913300  0.29501700  0.99913300  1
  Hg  Hg73  1  0.45292400  0.82719600  0.26695600  1
  Hg  Hg74  1  0.45292400  0.45292400  0.26695600  1
  Hg  Hg75  1  0.82719600  0.45292400  0.26695600  1
  Hg  Hg76  1  0.45292400  0.26695600  0.82719600  1
  Hg  Hg77  1  0.82719600  0.26695600  0.45292400  1
  Hg  Hg78  1  0.45292400  0.26695600  0.45292400  1
  Hg  Hg79  1  0.26695600  0.45292400  0.45292400  1
  Hg  Hg80  1  0.26695600  0.82719600  0.45292400  1
  Hg  Hg81  1  0.26695600  0.45292400  0.82719600  1
  Hg  Hg82  1  0.82719600  0.45292400  0.45292400  1
  Hg  Hg83  1  0.45292400  0.45292400  0.82719600  1
  Hg  Hg84  1  0.45292400  0.82719600  0.45292400  1
  Hg  Hg85  1  0.20123500  0.20123500  0.39629500  1
  Hg  Hg86  1  0.20123500  0.39629500  0.20123500  1
  Hg  Hg87  1  0.39629500  0.20123500  0.20123500  1
  Hg  Hg88  1  0.20123500  0.20123500  0.20123500  1
  Hg  Hg89  1  0.32656100  0.32656100  0.02031700  1
  Hg  Hg90  1  0.32656100  0.02031700  0.32656100  1
  Hg  Hg91  1  0.02031700  0.32656100  0.32656100  1
  Hg  Hg92  1  0.32656100  0.32656100  0.32656100  1
  Hg  Hg93  1  0.45384900  0.45384900  0.63845400  1
  Hg  Hg94  1  0.45384900  0.63845400  0.45384900  1
  Hg  Hg95  1  0.63845400  0.45384900  0.45384900  1
  Hg  Hg96  1  0.45384900  0.45384900  0.45384900  1
  Hg  Hg97  1  0.06413600  0.06413600  0.80759300  1
  Hg  Hg98  1  0.06413600  0.80759300  0.06413600  1
  Hg  Hg99  1  0.80759300  0.06413600  0.06413600  1
  Hg  Hg100  1  0.06413600  0.06413600  0.06413600  1
  Hg  Hg101  1  0.92877900  0.92877900  0.21366400  1
  Hg  Hg102  1  0.92877900  0.21366400  0.92877900  1
  Hg  Hg103  1  0.21366400  0.92877900  0.92877900  1
  Hg  Hg104  1  0.92877900  0.92877900  0.92877900  1
  Hg  Hg105  1  0.23645200  0.96642600  0.56067000  1
  Hg  Hg106  1  0.23645200  0.23645200  0.56067000  1
  Hg  Hg107  1  0.96642600  0.23645200  0.56067000  1
  Hg  Hg108  1  0.23645200  0.56067000  0.96642600  1
  Hg  Hg109  1  0.96642600  0.56067000  0.23645200  1
  Hg  Hg110  1  0.23645200  0.56067000  0.23645200  1
  Hg  Hg111  1  0.56067000  0.23645200  0.23645200  1
  Hg  Hg112  1  0.56067000  0.96642600  0.23645200  1
  Hg  Hg113  1  0.56067000  0.23645200  0.96642600  1
  Hg  Hg114  1  0.96642600  0.23645200  0.23645200  1
  Hg  Hg115  1  0.23645200  0.23645200  0.96642600  1
  Hg  Hg116  1  0.23645200  0.96642600  0.23645200  1
  Hg  Hg117  1  0.32663000  0.32663000  0.67337000  1
  Hg  Hg118  1  0.67337000  0.32663000  0.67337000  1
  Hg  Hg119  1  0.32663000  0.67337000  0.67337000  1
  Hg  Hg120  1  0.67337000  0.67337000  0.32663000  1
  Hg  Hg121  1  0.32663000  0.67337000  0.32663000  1
  Hg  Hg122  1  0.67337000  0.32663000  0.32663000  1
  Hg  Hg123  1  0.75000000  0.75000000  0.75000000  1
