# generated using pymatgen
data_Pr(MnSn)6
_symmetry_space_group_name_H-M   'P 1'
_cell_length_a   15.25962563
_cell_length_b   15.25962563
_cell_length_c   15.25962563
_cell_angle_alpha   159.18285619
_cell_angle_beta   145.06622065
_cell_angle_gamma   41.01534915
_symmetry_Int_Tables_number   1
_chemical_formula_structural   Pr(MnSn)6
_chemical_formula_sum   'Pr3 Mn18 Sn18'
_cell_volume   721.90434246
_cell_formula_units_Z   3
loop_
 _symmetry_equiv_pos_site_id
 _symmetry_equiv_pos_as_xyz
  1  'x, y, z'
loop_
 _atom_site_type_symbol
 _atom_site_label
 _atom_site_symmetry_multiplicity
 _atom_site_fract_x
 _atom_site_fract_y
 _atom_site_fract_z
 _atom_site_occupancy
  Pr  Pr0  1  0.16912600  0.66912600  0.50000000  1
  Pr  Pr1  1  0.83087400  0.33087400  0.50000000  1
  Pr  Pr2  1  0.00000000  0.00000000  0.00000000  1
  Mn  Mn3  1  0.75122400  0.50000000  0.25122400  1
  Mn  Mn4  1  0.24877600  0.50000000  0.74877600  1
  Mn  Mn5  1  0.00000000  0.50000000  0.00000000  1
  Mn  Mn6  1  0.50000000  0.50000000  0.50000000  1
  Mn  Mn7  1  0.50000000  0.00000000  0.00000000  1
  Mn  Mn8  1  0.00000000  0.00000000  0.50000000  1
  Mn  Mn9  1  0.08356100  0.83355200  0.25000900  1
  Mn  Mn10  1  0.41645700  0.16644800  0.25000900  1
  Mn  Mn11  1  0.58354300  0.83355200  0.74999100  1
  Mn  Mn12  1  0.91643900  0.16644800  0.74999100  1
  Mn  Mn13  1  0.83456700  0.33338000  0.00109000  1
  Mn  Mn14  1  0.66771100  0.66662000  0.50118700  1
  Mn  Mn15  1  0.33228900  0.83347600  0.99891000  1
  Mn  Mn16  1  0.16543300  0.16652400  0.49881300  1
  Mn  Mn17  1  0.16543300  0.66662000  0.99891000  1
  Mn  Mn18  1  0.33228900  0.33338000  0.49881300  1
  Mn  Mn19  1  0.66771100  0.16652400  0.00109000  1
  Mn  Mn20  1  0.83456700  0.83347600  0.50118700  1
  Sn  Sn21  1  0.05628200  0.55628200  0.50000000  1
  Sn  Sn22  1  0.94371800  0.44371800  0.50000000  1
  Sn  Sn23  1  0.55542900  0.55542900  0.00000000  1
  Sn  Sn24  1  0.44457100  0.44457100  0.00000000  1
  Sn  Sn25  1  0.11219100  0.11219100  0.00000000  1
  Sn  Sn26  1  0.88780900  0.88780900  0.00000000  1
  Sn  Sn27  1  0.60997700  0.10997700  0.50000000  1
  Sn  Sn28  1  0.39002300  0.89002300  0.50000000  1
  Sn  Sn29  1  0.22447500  0.22447500  0.00000000  1
  Sn  Sn30  1  0.77552500  0.77552500  0.00000000  1
  Sn  Sn31  1  0.71901900  0.21901900  0.50000000  1
  Sn  Sn32  1  0.28098100  0.78098100  0.50000000  1
  Sn  Sn33  1  0.66464800  0.00000000  0.66464800  1
  Sn  Sn34  1  0.33535200  0.00000000  0.33535200  1
  Sn  Sn35  1  0.83044300  0.66612500  0.16431800  1
  Sn  Sn36  1  0.49819300  0.33387500  0.16431800  1
  Sn  Sn37  1  0.50180700  0.66612500  0.83568200  1
  Sn  Sn38  1  0.16955700  0.33387500  0.83568200  1
