# generated using pymatgen
data_AgAsS16N16(O4F3)2
_symmetry_space_group_name_H-M   'P 1'
_cell_length_a   11.80276200
_cell_length_b   12.39979125
_cell_length_c   12.98527745
_cell_angle_alpha   113.43978171
_cell_angle_beta   96.70017819
_cell_angle_gamma   88.60876766
_symmetry_Int_Tables_number   1
_chemical_formula_structural   AgAsS16N16(O4F3)2
_chemical_formula_sum   'Ag2 As2 S32 N32 O16 F12'
_cell_volume   1731.17433960
_cell_formula_units_Z   2
loop_
 _symmetry_equiv_pos_site_id
 _symmetry_equiv_pos_as_xyz
  1  'x, y, z'
loop_
 _atom_site_type_symbol
 _atom_site_label
 _atom_site_symmetry_multiplicity
 _atom_site_fract_x
 _atom_site_fract_y
 _atom_site_fract_z
 _atom_site_occupancy
  Ag  Ag0  1  0.17584500  0.62650100  0.62970100  1
  Ag  Ag1  1  0.82415500  0.37349900  0.37029900  1
  As  As2  1  0.80520000  0.37087000  0.87856400  1
  As  As3  1  0.19480000  0.62913000  0.12143600  1
  S  S4  1  0.32626900  0.46871000  0.38823700  1
  S  S5  1  0.67373100  0.53129000  0.61176300  1
  S  S6  1  0.30203500  0.28962600  0.14623000  1
  S  S7  1  0.69796500  0.71037400  0.85377000  1
  S  S8  1  0.04766500  0.31287600  0.14751600  1
  S  S9  1  0.95233500  0.68712400  0.85248400  1
  S  S10  1  0.12271400  0.85446100  0.51084300  1
  S  S11  1  0.87728600  0.14553900  0.48915700  1
  S  S12  1  0.42994300  0.85832100  0.38736800  1
  S  S13  1  0.57005700  0.14167900  0.61263200  1
  S  S14  1  0.23660800  0.02722900  0.44056800  1
  S  S15  1  0.76339200  0.97277100  0.55943200  1
  S  S16  1  0.34019000  0.41415600  0.69992100  1
  S  S17  1  0.65981000  0.58584400  0.30007900  1
  S  S18  1  0.41604000  0.36273100  0.89179500  1
  S  S19  1  0.58396000  0.63726900  0.10820500  1
  S  S20  1  0.21092900  0.19876300  0.79242900  1
  S  S21  1  0.78907100  0.80123700  0.20757100  1
  S  S22  1  0.37297100  0.75696900  0.87835400  1
  S  S23  1  0.62702900  0.24303100  0.12164600  1
  S  S24  1  0.42468300  0.94805700  0.11338400  1
  S  S25  1  0.57531700  0.05194300  0.88661600  1
  S  S26  1  0.17006300  0.97689500  0.11018900  1
  S  S27  1  0.82993700  0.02310500  0.88981100  1
  S  S28  1  0.12031800  0.34542300  0.37744700  1
  S  S29  1  0.87968200  0.65457700  0.62255300  1
  S  S30  1  0.35891200  0.82859400  0.57699500  1
  S  S31  1  0.64108800  0.17140600  0.42300500  1
  S  S32  1  0.10509700  0.38802100  0.72279600  1
  S  S33  1  0.89490300  0.61197900  0.27720400  1
  S  S34  1  0.19451500  0.91809200  0.87747400  1
  S  S35  1  0.80548500  0.08190800  0.12252600  1
  N  N36  1  0.20493400  0.46272500  0.42979700  1
  N  N37  1  0.79506600  0.53727500  0.57020300  1
  N  N38  1  0.34936600  0.38056700  0.26867000  1
  N  N39  1  0.65063400  0.61943300  0.73133000  1
  N  N40  1  0.16766800  0.27464900  0.10878900  1
  N  N41  1  0.83233200  0.72535100  0.89121100  1
  N  N42  1  0.03354100  0.36439800  0.27811300  1
  N  N43  1  0.96645900  0.63560200  0.72188700  1
  N  N44  1  0.22493400  0.78042000  0.53815100  1
  N  N45  1  0.77506600  0.21958000  0.46184900  1
  N  N46  1  0.14818100  0.96012400  0.47965300  1
  N  N47  1  0.85181900  0.03987600  0.52034700  1
  N  N48  1  0.35331300  0.96702300  0.40088200  1
  N  N49  1  0.64668700  0.03297700  0.59911800  1
  N  N50  1  0.41253000  0.78312100  0.45735700  1
  N  N51  1  0.58747000  0.21687900  0.54264300  1
  N  N52  1  0.21073900  0.46444700  0.72116300  1
  N  N53  1  0.78926100  0.53555300  0.27883700  1
  N  N54  1  0.12637400  0.27375100  0.74412300  1
  N  N55  1  0.87362600  0.72624900  0.25587700  1
  N  N56  1  0.33190400  0.25520500  0.85736500  1
  N  N57  1  0.66809600  0.74479500  0.14263500  1
  N  N58  1  0.40310800  0.44713300  0.82754200  1
  N  N59  1  0.59689200  0.55286700  0.17245800  1
  N  N60  1  0.24940200  0.78572100  0.83429200  1
  N  N61  1  0.75059800  0.21427900  0.16570800  1
  N  N62  1  0.43492500  0.84293500  0.99386900  1
  N  N63  1  0.56507500  0.15706500  0.00613100  1
  N  N64  1  0.30130400  0.98997200  0.14882700  1
  N  N65  1  0.69869600  0.01002800  0.85117300  1
  N  N66  1  0.12489900  0.92269100  0.98049900  1
  N  N67  1  0.87510100  0.07730900  0.01950100  1
  O  O68  1  0.04889500  0.35632600  0.46413500  1
  O  O69  1  0.95110500  0.64367400  0.53586500  1
  O  O70  1  0.18533500  0.24012500  0.33072900  1
  O  O71  1  0.81466500  0.75987500  0.66927100  1
  O  O72  1  0.41044400  0.76043900  0.63685000  1
  O  O73  1  0.58955600  0.23956100  0.36315000  1
  O  O74  1  0.36401100  0.95560000  0.63231900  1
  O  O75  1  0.63598900  0.04440000  0.36768100  1
  O  O76  1  0.39179300  0.48894900  0.65615400  1
  O  O77  1  0.60820700  0.51105100  0.34384600  1
  O  O78  1  0.33549700  0.28832000  0.63602400  1
  O  O79  1  0.66450300  0.71168000  0.36397600  1
  O  O80  1  0.10990600  0.91500700  0.78701400  1
  O  O81  1  0.89009400  0.08499300  0.21298600  1
  O  O82  1  0.28434400  0.00768700  0.91856000  1
  O  O83  1  0.71565600  0.99231300  0.08144000  1
  F  F84  1  0.80173300  0.50502400  0.99877500  1
  F  F85  1  0.19826700  0.49497600  0.00122500  1
  F  F86  1  0.94761500  0.34983300  0.92434400  1
  F  F87  1  0.05238500  0.65016700  0.07565600  1
  F  F88  1  0.80793000  0.23685400  0.75704000  1
  F  F89  1  0.19207000  0.76314600  0.24296000  1
  F  F90  1  0.66158800  0.39137900  0.83289400  1
  F  F91  1  0.33841200  0.60862100  0.16710600  1
  F  F92  1  0.85243300  0.44777700  0.80046200  1
  F  F93  1  0.14756700  0.55222300  0.19953800  1
  F  F94  1  0.75551000  0.29167200  0.95352500  1
  F  F95  1  0.24449000  0.70832800  0.04647500  1
