# generated using pymatgen
data_U(MoO5)12
_symmetry_space_group_name_H-M   'P 1'
_cell_length_a   10.64207469
_cell_length_b   10.64207469
_cell_length_c   10.64207417
_cell_angle_alpha   78.43507146
_cell_angle_beta   78.43507146
_cell_angle_gamma   78.43507449
_symmetry_Int_Tables_number   1
_chemical_formula_structural   U(MoO5)12
_chemical_formula_sum   'U1 Mo12 O60'
_cell_volume   1140.56881537
_cell_formula_units_Z   1
loop_
 _symmetry_equiv_pos_site_id
 _symmetry_equiv_pos_as_xyz
  1  'x, y, z'
loop_
 _atom_site_type_symbol
 _atom_site_label
 _atom_site_symmetry_multiplicity
 _atom_site_fract_x
 _atom_site_fract_y
 _atom_site_fract_z
 _atom_site_occupancy
  U  U0  1  0.00000000  0.00000000  0.00000000  1
  Mo  Mo1  1  0.14835900  0.66733800  0.06088100  1
  Mo  Mo2  1  0.66733800  0.06088100  0.14835900  1
  Mo  Mo3  1  0.06088100  0.14835900  0.66733800  1
  Mo  Mo4  1  0.85164100  0.33266200  0.93911900  1
  Mo  Mo5  1  0.33266200  0.93911900  0.85164100  1
  Mo  Mo6  1  0.93911900  0.85164100  0.33266200  1
  Mo  Mo7  1  0.83411200  0.72436300  0.05490500  1
  Mo  Mo8  1  0.72436300  0.05490500  0.83411200  1
  Mo  Mo9  1  0.05490500  0.83411200  0.72436300  1
  Mo  Mo10  1  0.16588800  0.27563700  0.94509500  1
  Mo  Mo11  1  0.27563700  0.94509500  0.16588800  1
  Mo  Mo12  1  0.94509500  0.16588800  0.27563700  1
  O  O13  1  0.79016400  0.67438100  0.92770700  1
  O  O14  1  0.67438100  0.92770700  0.79016400  1
  O  O15  1  0.92770700  0.79016400  0.67438100  1
  O  O16  1  0.20983600  0.32561900  0.07229300  1
  O  O17  1  0.32561900  0.07229300  0.20983600  1
  O  O18  1  0.07229300  0.20983600  0.32561900  1
  O  O19  1  0.71612000  0.68331000  0.18603400  1
  O  O20  1  0.68331000  0.18603400  0.71612000  1
  O  O21  1  0.18603400  0.71612000  0.68331000  1
  O  O22  1  0.28388000  0.31669000  0.81396600  1
  O  O23  1  0.31669000  0.81396600  0.28388000  1
  O  O24  1  0.81396600  0.28388000  0.31669000  1
  O  O25  1  0.01686100  0.79161400  0.91670500  1
  O  O26  1  0.79161400  0.91670500  0.01686100  1
  O  O27  1  0.91670500  0.01686100  0.79161400  1
  O  O28  1  0.98313900  0.20838600  0.08329500  1
  O  O29  1  0.20838600  0.08329500  0.98313900  1
  O  O30  1  0.08329500  0.98313900  0.20838600  1
  O  O31  1  0.98662000  0.58345700  0.09611200  1
  O  O32  1  0.58345700  0.09611200  0.98662000  1
  O  O33  1  0.09611200  0.98662000  0.58345700  1
  O  O34  1  0.01338000  0.41654300  0.90388800  1
  O  O35  1  0.41654300  0.90388800  0.01338000  1
  O  O36  1  0.90388800  0.01338000  0.41654300  1
  O  O37  1  0.97236200  0.80540500  0.15376000  1
  O  O38  1  0.80540500  0.15376000  0.97236200  1
  O  O39  1  0.15376000  0.97236200  0.80540500  1
  O  O40  1  0.02763800  0.19459500  0.84624000  1
  O  O41  1  0.19459500  0.84624000  0.02763800  1
  O  O42  1  0.84624000  0.02763800  0.19459500  1
  O  O43  1  0.24606100  0.59507400  0.93680700  1
  O  O44  1  0.59507400  0.93680700  0.24606100  1
  O  O45  1  0.93680700  0.24606100  0.59507400  1
  O  O46  1  0.75393900  0.40492600  0.06319300  1
  O  O47  1  0.40492600  0.06319300  0.75393900  1
  O  O48  1  0.06319300  0.75393900  0.40492600  1
  O  O49  1  0.21825500  0.59842700  0.19671100  1
  O  O50  1  0.59842700  0.19671100  0.21825500  1
  O  O51  1  0.19671100  0.21825500  0.59842700  1
  O  O52  1  0.78174500  0.40157300  0.80328900  1
  O  O53  1  0.40157300  0.80328900  0.78174500  1
  O  O54  1  0.80328900  0.78174500  0.40157300  1
  O  O55  1  0.04224800  0.52484000  0.72260200  1
  O  O56  1  0.52484000  0.72260200  0.04224800  1
  O  O57  1  0.72260200  0.04224800  0.52484000  1
  O  O58  1  0.95775200  0.47516000  0.27739800  1
  O  O59  1  0.47516000  0.27739800  0.95775200  1
  O  O60  1  0.27739800  0.95775200  0.47516000  1
  O  O61  1  0.35667800  0.26372600  0.38127800  1
  O  O62  1  0.26372600  0.38127800  0.35667800  1
  O  O63  1  0.38127800  0.35667800  0.26372600  1
  O  O64  1  0.64332200  0.73627400  0.61872200  1
  O  O65  1  0.73627400  0.61872200  0.64332200  1
  O  O66  1  0.61872200  0.64332200  0.73627400  1
  O  O67  1  0.52202100  0.60674800  0.40960200  1
  O  O68  1  0.60674800  0.40960200  0.52202100  1
  O  O69  1  0.40960200  0.52202100  0.60674800  1
  O  O70  1  0.47797900  0.39325200  0.59039800  1
  O  O71  1  0.39325200  0.59039800  0.47797900  1
  O  O72  1  0.59039800  0.47797900  0.39325200  1
