# generated using pymatgen
data_Np3SeO13
_symmetry_space_group_name_H-M   'P 1'
_cell_length_a   6.65988724
_cell_length_b   11.71901908
_cell_length_c   15.96661500
_cell_angle_alpha   90.00000000
_cell_angle_beta   90.00000000
_cell_angle_gamma   107.91447327
_symmetry_Int_Tables_number   1
_chemical_formula_structural   Np3SeO13
_chemical_formula_sum   'Np12 Se4 O52'
_cell_volume   1185.73440327
_cell_formula_units_Z   4
loop_
 _symmetry_equiv_pos_site_id
 _symmetry_equiv_pos_as_xyz
  1  'x, y, z'
loop_
 _atom_site_type_symbol
 _atom_site_label
 _atom_site_symmetry_multiplicity
 _atom_site_fract_x
 _atom_site_fract_y
 _atom_site_fract_z
 _atom_site_occupancy
  Np  Np0  1  0.01075100  0.25106800  0.31930500  1
  Np  Np1  1  0.98924900  0.24893200  0.81930500  1
  Np  Np2  1  0.98924900  0.74893200  0.68069500  1
  Np  Np3  1  0.01075100  0.75106800  0.18069500  1
  Np  Np4  1  0.83094500  0.22244800  0.56428700  1
  Np  Np5  1  0.16905500  0.27755200  0.06428700  1
  Np  Np6  1  0.16905500  0.77755200  0.43571300  1
  Np  Np7  1  0.83094500  0.72244800  0.93571300  1
  Np  Np8  1  0.72195500  0.44802900  0.13148600  1
  Np  Np9  1  0.27804500  0.05197100  0.63148600  1
  Np  Np10  1  0.27804500  0.55197100  0.86851400  1
  Np  Np11  1  0.72195500  0.94802900  0.36851400  1
  Se  Se12  1  0.71789200  0.45228500  0.78969500  1
  Se  Se13  1  0.28210800  0.04771500  0.28969500  1
  Se  Se14  1  0.28210800  0.54771500  0.21030500  1
  Se  Se15  1  0.71789200  0.95228500  0.71030500  1
  O  O16  1  0.95013300  0.38620300  0.56469000  1
  O  O17  1  0.04986700  0.11379700  0.06469000  1
  O  O18  1  0.04986700  0.61379700  0.43531000  1
  O  O19  1  0.95013300  0.88620300  0.93531000  1
  O  O20  1  0.92647900  0.43800800  0.85508700  1
  O  O21  1  0.07352100  0.06199200  0.35508700  1
  O  O22  1  0.07352100  0.56199200  0.14491300  1
  O  O23  1  0.92647900  0.93800800  0.64491300  1
  O  O24  1  0.92792100  0.32702200  0.06618000  1
  O  O25  1  0.07207900  0.17297800  0.56618000  1
  O  O26  1  0.07207900  0.67297800  0.93382000  1
  O  O27  1  0.92792100  0.82702200  0.43382000  1
  O  O28  1  0.88409300  0.26654800  0.71110100  1
  O  O29  1  0.11590700  0.23345200  0.21110100  1
  O  O30  1  0.11590700  0.73345200  0.28889900  1
  O  O31  1  0.88409300  0.76654800  0.78889900  1
  O  O32  1  0.87927900  0.77402400  0.08040200  1
  O  O33  1  0.12072100  0.72597600  0.58040200  1
  O  O34  1  0.12072100  0.22597600  0.91959800  1
  O  O35  1  0.87927900  0.27402400  0.41959800  1
  O  O36  1  0.85501500  0.03857500  0.78635700  1
  O  O37  1  0.14498500  0.46142500  0.28635700  1
  O  O38  1  0.14498500  0.96142500  0.21364300  1
  O  O39  1  0.85501500  0.53857500  0.71364300  1
  O  O40  1  0.72649600  0.35754100  0.22241200  1
  O  O41  1  0.27350400  0.14245900  0.72241200  1
  O  O42  1  0.27350400  0.64245900  0.77758800  1
  O  O43  1  0.72649600  0.85754100  0.27758800  1
  O  O44  1  0.72509700  0.19719300  0.86753000  1
  O  O45  1  0.27490300  0.30280700  0.36753000  1
  O  O46  1  0.27490300  0.80280700  0.13247000  1
  O  O47  1  0.72509700  0.69719300  0.63247000  1
  O  O48  1  0.64037400  0.05381500  0.64297000  1
  O  O49  1  0.35962600  0.44618500  0.14297000  1
  O  O50  1  0.35962600  0.94618500  0.35703000  1
  O  O51  1  0.64037400  0.55381500  0.85703000  1
  O  O52  1  0.55138700  0.22393100  0.56402100  1
  O  O53  1  0.44861300  0.27607000  0.06402100  1
  O  O54  1  0.44861300  0.77606900  0.43597900  1
  O  O55  1  0.55138700  0.72393100  0.93597900  1
  O  O56  1  0.27490600  0.46599300  0.96386100  1
  O  O57  1  0.72509400  0.03400700  0.46386100  1
  O  O58  1  0.72509400  0.53400700  0.03613900  1
  O  O59  1  0.27490600  0.96599300  0.53613900  1
  O  O60  1  0.25957100  0.38964300  0.79724300  1
  O  O61  1  0.74042900  0.11035700  0.29724300  1
  O  O62  1  0.74042900  0.61035700  0.20275700  1
  O  O63  1  0.25957100  0.88964300  0.70275700  1
  O  O64  1  0.41329700  0.45379100  0.60104500  1
  O  O65  1  0.58670300  0.04620900  0.10104500  1
  O  O66  1  0.58670300  0.54620900  0.39895500  1
  O  O67  1  0.41329700  0.95379100  0.89895500  1
