# generated using pymatgen
data_CuH12Pt(CN2)4
_symmetry_space_group_name_H-M   'P 1'
_cell_length_a   14.98424000
_cell_length_b   7.72991700
_cell_length_c   10.80932700
_cell_angle_alpha   90.00000000
_cell_angle_beta   90.00000000
_cell_angle_gamma   90.00000000
_symmetry_Int_Tables_number   1
_chemical_formula_structural   CuH12Pt(CN2)4
_chemical_formula_sum   'Cu4 H48 Pt4 C16 N32'
_cell_volume   1252.01117808
_cell_formula_units_Z   4
loop_
 _symmetry_equiv_pos_site_id
 _symmetry_equiv_pos_as_xyz
  1  'x, y, z'
loop_
 _atom_site_type_symbol
 _atom_site_label
 _atom_site_symmetry_multiplicity
 _atom_site_fract_x
 _atom_site_fract_y
 _atom_site_fract_z
 _atom_site_occupancy
  Cu  Cu0  1  0.20047600  0.25000000  0.63043700  1
  Cu  Cu1  1  0.70047600  0.25000000  0.86956300  1
  Cu  Cu2  1  0.79952400  0.75000000  0.36956300  1
  Cu  Cu3  1  0.29952400  0.75000000  0.13043700  1
  H  H4  1  0.08892000  0.10850600  0.48015500  1
  H  H5  1  0.58892000  0.39149400  0.01984500  1
  H  H6  1  0.91108000  0.60850600  0.51984500  1
  H  H7  1  0.41108000  0.89149400  0.98015500  1
  H  H8  1  0.91108000  0.89149400  0.51984500  1
  H  H9  1  0.41108000  0.60850600  0.98015500  1
  H  H10  1  0.08892000  0.39149400  0.48015500  1
  H  H11  1  0.58892000  0.10850600  0.01984500  1
  H  H12  1  0.15937700  0.95982300  0.53435600  1
  H  H13  1  0.65937700  0.54017700  0.96564400  1
  H  H14  1  0.84062300  0.45982300  0.46564400  1
  H  H15  1  0.34062300  0.04017700  0.03435600  1
  H  H16  1  0.84062300  0.04017700  0.46564400  1
  H  H17  1  0.34062300  0.45982300  0.03435600  1
  H  H18  1  0.15937700  0.54017700  0.53435600  1
  H  H19  1  0.65937700  0.95982300  0.96564400  1
  H  H20  1  0.07386600  0.02717900  0.62117900  1
  H  H21  1  0.57386600  0.47282100  0.87882100  1
  H  H22  1  0.92613400  0.52717900  0.37882100  1
  H  H23  1  0.42613400  0.97282100  0.12117900  1
  H  H24  1  0.92613400  0.97282100  0.37882100  1
  H  H25  1  0.42613400  0.52717900  0.12117900  1
  H  H26  1  0.07386600  0.47282100  0.62117900  1
  H  H27  1  0.57386600  0.02717900  0.87882100  1
  H  H28  1  0.24046200  0.04970200  0.81333900  1
  H  H29  1  0.74046200  0.45029800  0.68666100  1
  H  H30  1  0.75953800  0.54970200  0.18666100  1
  H  H31  1  0.25953800  0.95029800  0.31333900  1
  H  H32  1  0.75953800  0.95029800  0.18666100  1
  H  H33  1  0.25953800  0.54970200  0.31333900  1
  H  H34  1  0.24046200  0.45029800  0.81333900  1
  H  H35  1  0.74046200  0.04970200  0.68666100  1
  H  H36  1  0.26454100  0.95030600  0.68075000  1
  H  H37  1  0.76454100  0.54969400  0.81925000  1
  H  H38  1  0.73545900  0.45030600  0.31925000  1
  H  H39  1  0.23545900  0.04969400  0.18075000  1
  H  H40  1  0.73545900  0.04969400  0.31925000  1
  H  H41  1  0.23545900  0.45030600  0.18075000  1
  H  H42  1  0.26454100  0.54969400  0.68075000  1
  H  H43  1  0.76454100  0.95030600  0.81925000  1
  H  H44  1  0.33323000  0.09834900  0.73663400  1
  H  H45  1  0.83323000  0.40165100  0.76336600  1
  H  H46  1  0.66677000  0.59834900  0.26336600  1
  H  H47  1  0.16677000  0.90165100  0.23663400  1
  H  H48  1  0.66677000  0.90165100  0.26336600  1
  H  H49  1  0.16677000  0.59834900  0.23663400  1
  H  H50  1  0.33323000  0.40165100  0.73663400  1
  H  H51  1  0.83323000  0.09834900  0.76336600  1
  Pt  Pt52  1  0.51011500  0.25000000  0.47617000  1
  Pt  Pt53  1  0.01011500  0.25000000  0.02383000  1
  Pt  Pt54  1  0.48988500  0.75000000  0.52383000  1
  Pt  Pt55  1  0.98988500  0.75000000  0.97617000  1
  C  C56  1  0.37751400  0.25000000  0.45853900  1
  C  C57  1  0.87751400  0.25000000  0.04146100  1
  C  C58  1  0.62248600  0.75000000  0.54146100  1
  C  C59  1  0.12248600  0.75000000  0.95853900  1
  C  C60  1  0.52420300  0.25000000  0.29216900  1
  C  C61  1  0.02420300  0.25000000  0.20783100  1
  C  C62  1  0.47579700  0.75000000  0.70783100  1
  C  C63  1  0.97579700  0.75000000  0.79216900  1
  C  C64  1  0.64244700  0.25000000  0.49393400  1
  C  C65  1  0.14244700  0.25000000  0.00606600  1
  C  C66  1  0.35755300  0.75000000  0.50606600  1
  C  C67  1  0.85755300  0.75000000  0.99393400  1
  C  C68  1  0.48922000  0.25000000  0.65863300  1
  C  C69  1  0.98922000  0.25000000  0.84136700  1
  C  C70  1  0.51078000  0.75000000  0.34136700  1
  C  C71  1  0.01078000  0.75000000  0.15863300  1
  N  N72  1  0.29901600  0.25000000  0.45610800  1
  N  N73  1  0.79901600  0.25000000  0.04389200  1
  N  N74  1  0.70098400  0.75000000  0.54389200  1
  N  N75  1  0.20098400  0.75000000  0.95610800  1
  N  N76  1  0.53225800  0.25000000  0.18401900  1
  N  N77  1  0.03225800  0.25000000  0.31598100  1
  N  N78  1  0.46774200  0.75000000  0.81598100  1
  N  N79  1  0.96774200  0.75000000  0.68401900  1
  N  N80  1  0.72101300  0.25000000  0.49761100  1
  N  N81  1  0.22101300  0.25000000  0.00238900  1
  N  N82  1  0.27898700  0.75000000  0.50238900  1
  N  N83  1  0.77898700  0.75000000  0.99761100  1
  N  N84  1  0.46939000  0.25000000  0.76388500  1
  N  N85  1  0.96939000  0.25000000  0.73611500  1
  N  N86  1  0.53061000  0.75000000  0.23611500  1
  N  N87  1  0.03061000  0.75000000  0.26388500  1
  N  N88  1  0.12107400  0.06477100  0.55805100  1
  N  N89  1  0.62107400  0.43522900  0.94194900  1
  N  N90  1  0.87892600  0.56477100  0.44194900  1
  N  N91  1  0.37892600  0.93522900  0.05805100  1
  N  N92  1  0.87892600  0.93522900  0.44194900  1
  N  N93  1  0.37892600  0.56477100  0.05805100  1
  N  N94  1  0.12107400  0.43522900  0.55805100  1
  N  N95  1  0.62107400  0.06477100  0.94194900  1
  N  N96  1  0.26718100  0.06602700  0.72685900  1
  N  N97  1  0.76718100  0.43397300  0.77314100  1
  N  N98  1  0.73281900  0.56602700  0.27314100  1
  N  N99  1  0.23281900  0.93397300  0.22685900  1
  N  N100  1  0.73281900  0.93397300  0.27314100  1
  N  N101  1  0.23281900  0.56602700  0.22685900  1
  N  N102  1  0.26718100  0.43397300  0.72685900  1
  N  N103  1  0.76718100  0.06602700  0.77314100  1
