# generated using pymatgen
data_Pr16(Mo3O8)7
_symmetry_space_group_name_H-M   'P 1'
_cell_length_a   13.75363914
_cell_length_b   13.78143887
_cell_length_c   13.80232908
_cell_angle_alpha   90.00000000
_cell_angle_beta   101.10478714
_cell_angle_gamma   90.00000000
_symmetry_Int_Tables_number   1
_chemical_formula_structural   Pr16(Mo3O8)7
_chemical_formula_sum   'Pr32 Mo42 O112'
_cell_volume   2567.17809110
_cell_formula_units_Z   2
loop_
 _symmetry_equiv_pos_site_id
 _symmetry_equiv_pos_as_xyz
  1  'x, y, z'
loop_
 _atom_site_type_symbol
 _atom_site_label
 _atom_site_symmetry_multiplicity
 _atom_site_fract_x
 _atom_site_fract_y
 _atom_site_fract_z
 _atom_site_occupancy
  Pr  Pr0  1  0.22917599  0.62001235  0.63059017  1
  Pr  Pr1  1  0.27082401  0.12001235  0.36940983  1
  Pr  Pr2  1  0.77082401  0.37998765  0.36940983  1
  Pr  Pr3  1  0.72917599  0.87998765  0.63059017  1
  Pr  Pr4  1  0.22784306  0.80227778  0.86736041  1
  Pr  Pr5  1  0.27215694  0.30227778  0.13263959  1
  Pr  Pr6  1  0.77215694  0.19772222  0.13263959  1
  Pr  Pr7  1  0.72784306  0.69772222  0.86736041  1
  Pr  Pr8  1  0.43090112  0.81211272  0.68392453  1
  Pr  Pr9  1  0.06909888  0.31211272  0.31607547  1
  Pr  Pr10  1  0.56909888  0.18788728  0.31607547  1
  Pr  Pr11  1  0.93090112  0.68788728  0.68392453  1
  Pr  Pr12  1  0.45343600  0.61248902  0.89377070  1
  Pr  Pr13  1  0.04656400  0.11248902  0.10622930  1
  Pr  Pr14  1  0.54656400  0.38751098  0.10622930  1
  Pr  Pr15  1  0.95343600  0.88751098  0.89377070  1
  Pr  Pr16  1  0.85497434  0.66498496  0.35084491  1
  Pr  Pr17  1  0.64502566  0.16498496  0.64915509  1
  Pr  Pr18  1  0.14502566  0.33501504  0.64915509  1
  Pr  Pr19  1  0.35497434  0.83501504  0.35084491  1
  Pr  Pr20  1  0.37242155  0.58658881  0.14885906  1
  Pr  Pr21  1  0.12757845  0.08658881  0.85114094  1
  Pr  Pr22  1  0.62757845  0.41341119  0.85114094  1
  Pr  Pr23  1  0.87242155  0.91341119  0.14885906  1
  Pr  Pr24  1  0.36335746  0.33067816  0.87302677  1
  Pr  Pr25  1  0.13664254  0.83067816  0.12697323  1
  Pr  Pr26  1  0.63664254  0.66932184  0.12697323  1
  Pr  Pr27  1  0.86335746  0.16932184  0.87302677  1
  Pr  Pr28  1  0.14031837  0.62769456  0.30902924  1
  Pr  Pr29  1  0.35968163  0.12769456  0.69097076  1
  Pr  Pr30  1  0.85968163  0.37230544  0.69097076  1
  Pr  Pr31  1  0.64031837  0.87230544  0.30902924  1
  Mo  Mo32  1  0.27067109  0.41966219  0.47320585  1
  Mo  Mo33  1  0.22932891  0.91966219  0.52679415  1
  Mo  Mo34  1  0.72932891  0.58033781  0.52679415  1
  Mo  Mo35  1  0.77067109  0.08033781  0.47320585  1
  Mo  Mo36  1  0.42649400  0.27637446  0.51962364  1
  Mo  Mo37  1  0.07350600  0.77637446  0.48037636  1
  Mo  Mo38  1  0.57350600  0.72362554  0.48037636  1
  Mo  Mo39  1  0.92649400  0.22362554  0.51962364  1
  Mo  Mo40  1  0.43073010  0.43934321  0.65252020  1
  Mo  Mo41  1  0.06926990  0.93934321  0.34747980  1
  Mo  Mo42  1  0.56926990  0.56065679  0.34747980  1
  Mo  Mo43  1  0.93073010  0.06065679  0.65252020  1
  Mo  Mo44  1  0.41564498  0.40239690  0.34803664  1
  Mo  Mo45  1  0.08435502  0.90239690  0.65196336  1
  Mo  Mo46  1  0.58435502  0.59760310  0.65196336  1
  Mo  Mo47  1  0.91564498  0.09760310  0.34803664  1
  Mo  Mo48  1  0.41615083  0.57308895  0.47883656  1
  Mo  Mo49  1  0.08384917  0.07308895  0.52116344  1
  Mo  Mo50  1  0.58384917  0.42691105  0.52116344  1
  Mo  Mo51  1  0.91615083  0.92691105  0.47883656  1
  Mo  Mo52  1  0.22765785  0.49680845  0.95478979  1
  Mo  Mo53  1  0.27234215  0.99680845  0.04521021  1
  Mo  Mo54  1  0.77234215  0.50319155  0.04521021  1
  Mo  Mo55  1  0.72765785  0.00319155  0.95478979  1
  Mo  Mo56  1  0.07847147  0.50948941  0.79131584  1
  Mo  Mo57  1  0.42152853  0.00948941  0.20868416  1
  Mo  Mo58  1  0.92152853  0.49051059  0.20868416  1
  Mo  Mo59  1  0.57847147  0.99051059  0.79131584  1
  Mo  Mo60  1  0.06541248  0.34600254  0.92561889  1
  Mo  Mo61  1  0.43458752  0.84600254  0.07438111  1
  Mo  Mo62  1  0.93458752  0.65399746  0.07438111  1
  Mo  Mo63  1  0.56541248  0.15399746  0.92561889  1
  Mo  Mo64  1  0.08187013  0.64481990  0.95207793  1
  Mo  Mo65  1  0.41812987  0.14481990  0.04792207  1
  Mo  Mo66  1  0.91812987  0.35518010  0.04792207  1
  Mo  Mo67  1  0.58187013  0.85518010  0.95207793  1
  Mo  Mo68  1  0.92058414  0.51061890  0.90905239  1
  Mo  Mo69  1  0.57941586  0.01061890  0.09094761  1
  Mo  Mo70  1  0.07941586  0.48938110  0.09094761  1
  Mo  Mo71  1  0.42058414  0.98938110  0.90905239  1
  Mo  Mo72  1  0.00000000  0.50000000  0.50000000  1
  Mo  Mo73  1  0.50000000  -0.00000000  0.50000000  1
  O  O74  1  0.26829764  0.39783577  0.32921956  1
  O  O75  1  0.23170236  0.89783577  0.67078044  1
  O  O76  1  0.73170236  0.60216423  0.67078044  1
  O  O77  1  0.76829764  0.10216423  0.32921956  1
  O  O78  1  0.27688966  0.44026809  0.62053435  1
  O  O79  1  0.22311034  0.94026809  0.37946565  1
  O  O80  1  0.72311034  0.55973191  0.37946565  1
  O  O81  1  0.77688966  0.05973191  0.62053435  1
  O  O82  1  0.26080051  0.56842144  0.45931067  1
  O  O83  1  0.23919949  0.06842144  0.54068933  1
  O  O84  1  0.73919949  0.43157856  0.54068933  1
  O  O85  1  0.76080051  0.93157856  0.45931067  1
  O  O86  1  0.27449137  0.26845249  0.48496935  1
  O  O87  1  0.22550863  0.76845249  0.51503065  1
  O  O88  1  0.72550863  0.73154751  0.51503065  1
  O  O89  1  0.77449137  0.23154751  0.48496935  1
  O  O90  1  0.11240268  0.41409755  0.46221951  1
  O  O91  1  0.38759732  0.91409755  0.53778049  1
  O  O92  1  0.88759732  0.58590245  0.53778049  1
  O  O93  1  0.61240268  0.08590245  0.46221951  1
  O  O94  1  0.41754849  0.25341034  0.36913029  1
  O  O95  1  0.08245151  0.75341034  0.63086971  1
  O  O96  1  0.58245151  0.74658966  0.63086971  1
  O  O97  1  0.91754849  0.24658966  0.36913029  1
  O  O98  1  0.42912658  0.28633284  0.66508334  1
  O  O99  1  0.07087342  0.78633284  0.33491666  1
  O  O100  1  0.57087342  0.71366716  0.33491666  1
  O  O101  1  0.92912658  0.21366716  0.66508334  1
  O  O102  1  0.57361987  0.27837153  0.52998197  1
  O  O103  1  0.92638013  0.77837153  0.47001803  1
  O  O104  1  0.42638013  0.72162847  0.47001803  1
  O  O105  1  0.07361987  0.22162847  0.52998197  1
  O  O106  1  0.44117380  0.12426599  0.54771624  1
  O  O107  1  0.05882620  0.62426599  0.45228376  1
  O  O108  1  0.55882620  0.87573401  0.45228376  1
  O  O109  1  0.94117380  0.37573401  0.54771624  1
  O  O110  1  0.42609989  0.59743146  0.63406954  1
  O  O111  1  0.07390011  0.09743146  0.36593046  1
  O  O112  1  0.57390011  0.40256854  0.36593046  1
  O  O113  1  0.92609989  0.90256854  0.63406954  1
  O  O114  1  0.59131591  0.44663265  0.67515944  1
  O  O115  1  0.90868409  0.94663265  0.32484056  1
  O  O116  1  0.40868409  0.55336735  0.32484056  1
  O  O117  1  0.09131591  0.05336735  0.67515944  1
  O  O118  1  0.45432837  0.45293058  0.80464700  1
  O  O119  1  0.04567163  0.95293058  0.19535300  1
  O  O120  1  0.54567163  0.54706942  0.19535300  1
  O  O121  1  0.95432837  0.04706942  0.80464700  1
  O  O122  1  0.41536091  0.39348552  0.20339766  1
  O  O123  1  0.08463909  0.89348552  0.79660234  1
  O  O124  1  0.58463909  0.60651448  0.79660234  1
  O  O125  1  0.91536091  0.10651448  0.20339766  1
  O  O126  1  0.23702736  0.64149869  0.97185118  1
  O  O127  1  0.26297264  0.14149869  0.02814882  1
  O  O128  1  0.76297264  0.35850131  0.02814882  1
  O  O129  1  0.73702736  0.85850131  0.97185118  1
  O  O130  1  0.21821076  0.34520361  0.95534467  1
  O  O131  1  0.28178924  0.84520361  0.04465533  1
  O  O132  1  0.78178924  0.65479639  0.04465533  1
  O  O133  1  0.71821076  0.15479639  0.95534467  1
  O  O134  1  0.23231381  0.47857263  0.10571331  1
  O  O135  1  0.26768619  0.97857263  0.89428669  1
  O  O136  1  0.76768619  0.52142737  0.89428669  1
  O  O137  1  0.73231381  0.02142737  0.10571331  1
  O  O138  1  0.23624504  0.48565349  0.81389372  1
  O  O139  1  0.26375496  0.98565349  0.18610628  1
  O  O140  1  0.76375496  0.51434651  0.18610628  1
  O  O141  1  0.73624504  0.01434651  0.81389372  1
  O  O142  1  0.38663405  0.49526842  0.99270331  1
  O  O143  1  0.11336595  0.99526842  0.00729669  1
  O  O144  1  0.61336595  0.50473158  0.00729669  1
  O  O145  1  0.88663405  0.00473158  0.99270331  1
  O  O146  1  0.08354994  0.66196733  0.80555476  1
  O  O147  1  0.41645006  0.16196733  0.19444524  1
  O  O148  1  0.91645006  0.33803267  0.19444524  1
  O  O149  1  0.58354994  0.83803267  0.80555476  1
  O  O150  1  0.05257186  0.35908038  0.77470634  1
  O  O151  1  0.44742814  0.85908038  0.22529366  1
  O  O152  1  0.94742814  0.64091962  0.22529366  1
  O  O153  1  0.55257186  0.14091962  0.77470634  1
  O  O154  1  0.92122519  0.52706065  0.75631349  1
  O  O155  1  0.57877481  0.02706065  0.24368651  1
  O  O156  1  0.07877481  0.47293935  0.24368651  1
  O  O157  1  0.42122519  0.97293935  0.75631349  1
  O  O158  1  0.08969467  0.51772534  0.64110053  1
  O  O159  1  0.41030533  0.01772534  0.35889947  1
  O  O160  1  0.91030533  0.48227466  0.35889947  1
  O  O161  1  0.58969467  0.98227466  0.64110053  1
  O  O162  1  0.07649501  0.33438835  0.08208151  1
  O  O163  1  0.42350499  0.83438835  0.91791849  1
  O  O164  1  0.92350499  0.66561165  0.91791849  1
  O  O165  1  0.57649501  0.16561165  0.08208151  1
  O  O166  1  0.90611939  0.35269253  0.88951225  1
  O  O167  1  0.59388061  0.85269253  0.11048775  1
  O  O168  1  0.09388061  0.64730747  0.11048775  1
  O  O169  1  0.40611939  0.14730747  0.88951225  1
  O  O170  1  0.04667258  0.19699546  0.93091282  1
  O  O171  1  0.45332742  0.69699546  0.06908718  1
  O  O172  1  0.95332742  0.80300454  0.06908718  1
  O  O173  1  0.54667258  0.30300454  0.93091282  1
  O  O174  1  0.09565282  0.79104926  0.95940337  1
  O  O175  1  0.40434718  0.29104926  0.04059663  1
  O  O176  1  0.90434718  0.20895074  0.04059663  1
  O  O177  1  0.59565282  0.70895074  0.95940337  1
  O  O178  1  0.74783813  0.26976923  0.75055003  1
  O  O179  1  0.75216187  0.76976923  0.24944997  1
  O  O180  1  0.25216187  0.73023077  0.24944997  1
  O  O181  1  0.24783813  0.23023077  0.75055003  1
  O  O182  1  0.82680520  0.79217442  0.76128621  1
  O  O183  1  0.67319480  0.29217442  0.23871379  1
  O  O184  1  0.17319480  0.20782558  0.23871379  1
  O  O185  1  0.32680520  0.70782558  0.76128621  1
