# generated using pymatgen
data_NdBMoO6
_symmetry_space_group_name_H-M   'P 1'
_cell_length_a   4.17410400
_cell_length_b   10.30134800
_cell_length_c   12.03834956
_cell_angle_alpha   63.19101727
_cell_angle_beta   90.00000000
_cell_angle_gamma   90.00000000
_symmetry_Int_Tables_number   1
_chemical_formula_structural   NdBMoO6
_chemical_formula_sum   'Nd4 B4 Mo4 O24'
_cell_volume   461.99774550
_cell_formula_units_Z   4
loop_
 _symmetry_equiv_pos_site_id
 _symmetry_equiv_pos_as_xyz
  1  'x, y, z'
loop_
 _atom_site_type_symbol
 _atom_site_label
 _atom_site_symmetry_multiplicity
 _atom_site_fract_x
 _atom_site_fract_y
 _atom_site_fract_z
 _atom_site_occupancy
  Nd  Nd0  1  0.70604400  0.80519700  0.02975800  1
  Nd  Nd1  1  0.20604400  0.19480300  0.47024200  1
  Nd  Nd2  1  0.29395600  0.19480300  0.97024200  1
  Nd  Nd3  1  0.79395600  0.80519700  0.52975800  1
  B  B4  1  0.82974600  0.00448000  0.19061300  1
  B  B5  1  0.32974600  0.99552000  0.30938700  1
  B  B6  1  0.17025400  0.99552000  0.80938700  1
  B  B7  1  0.67025400  0.00448000  0.69061300  1
  Mo  Mo8  1  0.79905500  0.35468400  0.18266600  1
  Mo  Mo9  1  0.29905500  0.64531600  0.31733400  1
  Mo  Mo10  1  0.20094500  0.64531600  0.81733400  1
  Mo  Mo11  1  0.70094500  0.35468400  0.68266600  1
  O  O12  1  0.15650800  0.03159900  0.19912200  1
  O  O13  1  0.65650800  0.96840100  0.30087800  1
  O  O14  1  0.84349200  0.96840100  0.80087800  1
  O  O15  1  0.34349200  0.03159900  0.69912200  1
  O  O16  1  0.72555900  0.00142700  0.08645600  1
  O  O17  1  0.22555900  0.99857300  0.41354400  1
  O  O18  1  0.27444100  0.99857300  0.91354400  1
  O  O19  1  0.77444100  0.00142700  0.58645600  1
  O  O20  1  0.22464300  0.33795400  0.19944200  1
  O  O21  1  0.72464300  0.66204600  0.30055800  1
  O  O22  1  0.77535700  0.66204600  0.80055800  1
  O  O23  1  0.27535700  0.33795400  0.69944200  1
  O  O24  1  0.21427900  0.74146500  0.14770100  1
  O  O25  1  0.71427900  0.25853500  0.35229900  1
  O  O26  1  0.78572100  0.25853500  0.85229900  1
  O  O27  1  0.28572100  0.74146500  0.64770100  1
  O  O28  1  0.72733900  0.54566800  0.10397200  1
  O  O29  1  0.22733900  0.45433200  0.39602800  1
  O  O30  1  0.27266100  0.45433200  0.89602800  1
  O  O31  1  0.77266100  0.54566800  0.60397200  1
  O  O32  1  0.71637800  0.25925100  0.09065900  1
  O  O33  1  0.21637800  0.74074900  0.40934100  1
  O  O34  1  0.28362200  0.74074900  0.90934100  1
  O  O35  1  0.78362200  0.25925100  0.59065900  1
