# generated using pymatgen
data_Mg14CoNiO16
_symmetry_space_group_name_H-M   'P 1'
_cell_length_a   8.52219500
_cell_length_b   8.51743400
_cell_length_c   4.23618800
_cell_angle_alpha   90.00000000
_cell_angle_beta   90.00000000
_cell_angle_gamma   90.00000000
_symmetry_Int_Tables_number   1
_chemical_formula_structural   Mg14CoNiO16
_chemical_formula_sum   'Mg14 Co1 Ni1 O16'
_cell_volume   307.49316728
_cell_formula_units_Z   1
loop_
 _symmetry_equiv_pos_site_id
 _symmetry_equiv_pos_as_xyz
  1  'x, y, z'
loop_
 _atom_site_type_symbol
 _atom_site_label
 _atom_site_symmetry_multiplicity
 _atom_site_fract_x
 _atom_site_fract_y
 _atom_site_fract_z
 _atom_site_occupancy
  Mg  Mg0  1  0.50000000  0.00000000  0.00000000  1
  Mg  Mg1  1  0.50000000  0.50000000  0.00000000  1
  Mg  Mg2  1  0.00000000  0.25128800  0.50000000  1
  Mg  Mg3  1  0.00000000  0.74871200  0.50000000  1
  Mg  Mg4  1  0.50000000  0.25022600  0.50000000  1
  Mg  Mg5  1  0.50000000  0.74977400  0.50000000  1
  Mg  Mg6  1  0.25035800  0.00000000  0.50000000  1
  Mg  Mg7  1  0.24903800  0.50000000  0.50000000  1
  Mg  Mg8  1  0.74964200  0.00000000  0.50000000  1
  Mg  Mg9  1  0.75096200  0.50000000  0.50000000  1
  Mg  Mg10  1  0.24867800  0.24976900  0.00000000  1
  Mg  Mg11  1  0.24867800  0.75023100  0.00000000  1
  Mg  Mg12  1  0.75132200  0.24976900  0.00000000  1
  Mg  Mg13  1  0.75132200  0.75023100  0.00000000  1
  Co  Co14  1  0.00000000  0.00000000  0.00000000  1
  Ni  Ni15  1  0.00000000  0.50000000  0.00000000  1
  O  O16  1  0.25289500  0.00000000  0.00000000  1
  O  O17  1  0.25071900  0.50000000  0.00000000  1
  O  O18  1  0.74710500  0.00000000  0.00000000  1
  O  O19  1  0.74928100  0.50000000  0.00000000  1
  O  O20  1  0.24878800  0.24960300  0.50000000  1
  O  O21  1  0.24878800  0.75039700  0.50000000  1
  O  O22  1  0.75121200  0.24960300  0.50000000  1
  O  O23  1  0.75121200  0.75039700  0.50000000  1
  O  O24  1  0.00000000  0.00000000  0.50000000  1
  O  O25  1  0.00000000  0.50000000  0.50000000  1
  O  O26  1  0.50000000  0.00000000  0.50000000  1
  O  O27  1  0.50000000  0.50000000  0.50000000  1
  O  O28  1  0.00000000  0.25265500  0.00000000  1
  O  O29  1  0.00000000  0.74734500  0.00000000  1
  O  O30  1  0.50000000  0.25032900  0.00000000  1
  O  O31  1  0.50000000  0.74967100  0.00000000  1
