# generated using pymatgen
data_Co2As2O9
_symmetry_space_group_name_H-M   'P 1'
_cell_length_a   14.51688800
_cell_length_b   6.44689900
_cell_length_c   9.53763812
_cell_angle_alpha   51.26000198
_cell_angle_beta   90.00000000
_cell_angle_gamma   90.00000000
_symmetry_Int_Tables_number   1
_chemical_formula_structural   Co2As2O9
_chemical_formula_sum   'Co8 As8 O36'
_cell_volume   696.23579642
_cell_formula_units_Z   4
loop_
 _symmetry_equiv_pos_site_id
 _symmetry_equiv_pos_as_xyz
  1  'x, y, z'
loop_
 _atom_site_type_symbol
 _atom_site_label
 _atom_site_symmetry_multiplicity
 _atom_site_fract_x
 _atom_site_fract_y
 _atom_site_fract_z
 _atom_site_occupancy
  Co  Co0  1  0.75417500  0.67435000  0.86713800  1
  Co  Co1  1  0.74582500  0.67435000  0.36713800  1
  Co  Co2  1  0.24582500  0.32565000  0.13286200  1
  Co  Co3  1  0.25417500  0.32565000  0.63286200  1
  Co  Co4  1  0.89350900  0.17969500  0.58609700  1
  Co  Co5  1  0.60649100  0.17969500  0.08609700  1
  Co  Co6  1  0.10649100  0.82030500  0.41390300  1
  Co  Co7  1  0.39350900  0.82030500  0.91390300  1
  As  As8  1  0.80791100  0.10425400  0.95217700  1
  As  As9  1  0.69208900  0.10425400  0.45217700  1
  As  As10  1  0.19208900  0.89574600  0.04782300  1
  As  As11  1  0.30791100  0.89574600  0.54782300  1
  As  As12  1  0.92218200  0.59920600  0.66054500  1
  As  As13  1  0.57781800  0.59920600  0.16054500  1
  As  As14  1  0.07781800  0.40079400  0.33945500  1
  As  As15  1  0.42218200  0.40079400  0.83945500  1
  O  O16  1  0.78900100  0.03114500  0.80756700  1
  O  O17  1  0.71099900  0.03114500  0.30756700  1
  O  O18  1  0.21099900  0.96885500  0.19243300  1
  O  O19  1  0.28900100  0.96885500  0.69243300  1
  O  O20  1  0.83168900  0.85024500  0.16996200  1
  O  O21  1  0.66831100  0.85024500  0.66996200  1
  O  O22  1  0.16831100  0.14975500  0.83003800  1
  O  O23  1  0.33168900  0.14975500  0.33003800  1
  O  O24  1  0.72426500  0.32763600  0.91152300  1
  O  O25  1  0.77573500  0.32763600  0.41152300  1
  O  O26  1  0.27573500  0.67236400  0.08847700  1
  O  O27  1  0.22426500  0.67236400  0.58847700  1
  O  O28  1  0.91360700  0.29043900  0.88050400  1
  O  O29  1  0.58639300  0.29043900  0.38050400  1
  O  O30  1  0.08639300  0.70956100  0.11949600  1
  O  O31  1  0.41360700  0.70956100  0.61949600  1
  O  O32  1  0.03473200  0.68378000  0.62963400  1
  O  O33  1  0.46526800  0.68378000  0.12963400  1
  O  O34  1  0.96526800  0.31622000  0.37036600  1
  O  O35  1  0.53473200  0.31622000  0.87036600  1
  O  O36  1  0.87337400  0.53731400  0.52491800  1
  O  O37  1  0.62662600  0.53731400  0.02491800  1
  O  O38  1  0.12662600  0.46268600  0.47508200  1
  O  O39  1  0.37337400  0.46268600  0.97508200  1
  O  O40  1  0.85221400  0.82279800  0.65285000  1
  O  O41  1  0.64778600  0.82279800  0.15285000  1
  O  O42  1  0.14778600  0.17720200  0.34715000  1
  O  O43  1  0.35221400  0.17720200  0.84715000  1
  O  O44  1  0.82438000  0.52141500  0.03493100  1
  O  O45  1  0.67562000  0.52141500  0.53493100  1
  O  O46  1  0.17562000  0.47858500  0.96506900  1
  O  O47  1  0.32438000  0.47858500  0.46506900  1
  O  O48  1  0.98239000  0.05092600  0.73779500  1
  O  O49  1  0.51761000  0.05092600  0.23779500  1
  O  O50  1  0.01761000  0.94907400  0.26220500  1
  O  O51  1  0.48239000  0.94907400  0.76220500  1
