# generated using pymatgen
data_Nd6ZnFe13
_symmetry_space_group_name_H-M   'P 1'
_cell_length_a   8.04725500
_cell_length_b   8.04725500
_cell_length_c   12.73482059
_cell_angle_alpha   108.41846053
_cell_angle_beta   108.41846053
_cell_angle_gamma   90.00000000
_symmetry_Int_Tables_number   1
_chemical_formula_structural   Nd6ZnFe13
_chemical_formula_sum   'Nd12 Zn2 Fe26'
_cell_volume   737.78025722
_cell_formula_units_Z   2
loop_
 _symmetry_equiv_pos_site_id
 _symmetry_equiv_pos_as_xyz
  1  'x, y, z'
loop_
 _atom_site_type_symbol
 _atom_site_label
 _atom_site_symmetry_multiplicity
 _atom_site_fract_x
 _atom_site_fract_y
 _atom_site_fract_z
 _atom_site_occupancy
  Nd  Nd0  1  0.97516300  0.47516300  0.62376400  1
  Nd  Nd1  1  0.64860100  0.14860100  0.62376400  1
  Nd  Nd2  1  0.14860100  0.97516300  0.62376400  1
  Nd  Nd3  1  0.47516300  0.64860100  0.62376400  1
  Nd  Nd4  1  0.02483700  0.52483700  0.37623600  1
  Nd  Nd5  1  0.35139900  0.85139900  0.37623600  1
  Nd  Nd6  1  0.85139900  0.02483700  0.37623600  1
  Nd  Nd7  1  0.52483700  0.35139900  0.37623600  1
  Nd  Nd8  1  0.60776800  0.60776800  0.21553600  1
  Nd  Nd9  1  0.10776800  0.10776800  0.21553600  1
  Nd  Nd10  1  0.39223200  0.39223200  0.78446400  1
  Nd  Nd11  1  0.89223200  0.89223200  0.78446400  1
  Zn  Zn12  1  0.25000000  0.25000000  0.50000000  1
  Zn  Zn13  1  0.75000000  0.75000000  0.50000000  1
  Fe  Fe14  1  0.11812300  0.61812300  0.87988700  1
  Fe  Fe15  1  0.76176400  0.26176400  0.87988700  1
  Fe  Fe16  1  0.26176400  0.11812300  0.87988700  1
  Fe  Fe17  1  0.61812300  0.76176400  0.87988700  1
  Fe  Fe18  1  0.88187700  0.38187700  0.12011300  1
  Fe  Fe19  1  0.23823600  0.73823600  0.12011300  1
  Fe  Fe20  1  0.73823600  0.88187700  0.12011300  1
  Fe  Fe21  1  0.38187700  0.23823600  0.12011300  1
  Fe  Fe22  1  0.71006400  0.56672100  0.00000000  1
  Fe  Fe23  1  0.28993600  0.43327900  0.00000000  1
  Fe  Fe24  1  0.78993600  0.06672100  0.00000000  1
  Fe  Fe25  1  0.21006400  0.93327900  0.00000000  1
  Fe  Fe26  1  0.56672100  0.28993600  0.00000000  1
  Fe  Fe27  1  0.43327900  0.71006400  0.00000000  1
  Fe  Fe28  1  0.06672100  0.21006400  0.00000000  1
  Fe  Fe29  1  0.93327900  0.78993600  0.00000000  1
  Fe  Fe30  1  0.28991700  0.78991700  0.80736400  1
  Fe  Fe31  1  0.51744700  0.01744700  0.80736400  1
  Fe  Fe32  1  0.01744700  0.28991700  0.80736400  1
  Fe  Fe33  1  0.78991700  0.51744700  0.80736400  1
  Fe  Fe34  1  0.71008300  0.21008300  0.19263600  1
  Fe  Fe35  1  0.48255300  0.98255300  0.19263600  1
  Fe  Fe36  1  0.98255300  0.71008300  0.19263600  1
  Fe  Fe37  1  0.21008300  0.48255300  0.19263600  1
  Fe  Fe38  1  0.00000000  0.50000000  0.00000000  1
  Fe  Fe39  1  0.50000000  0.00000000  0.00000000  1
