# generated using pymatgen
data_Mg(BH4)2
_symmetry_space_group_name_H-M   'P 1'
_cell_length_a   8.25306410
_cell_length_b   8.25306410
_cell_length_c   8.25306410
_cell_angle_alpha   124.12521509
_cell_angle_beta   124.12521509
_cell_angle_gamma   82.99206992
_symmetry_Int_Tables_number   1
_chemical_formula_structural   Mg(BH4)2
_chemical_formula_sum   'Mg4 B8 H32'
_cell_volume   369.67457134
_cell_formula_units_Z   4
loop_
 _symmetry_equiv_pos_site_id
 _symmetry_equiv_pos_as_xyz
  1  'x, y, z'
loop_
 _atom_site_type_symbol
 _atom_site_label
 _atom_site_symmetry_multiplicity
 _atom_site_fract_x
 _atom_site_fract_y
 _atom_site_fract_z
 _atom_site_occupancy
  Mg  Mg0  1  0.25000000  0.25000000  0.00000000  1
  Mg  Mg1  1  0.75000000  0.75000000  0.00000000  1
  Mg  Mg2  1  0.50000000  0.00000000  0.50000000  1
  Mg  Mg3  1  0.00000000  0.50000000  0.50000000  1
  B  B4  1  0.59206800  0.37500000  0.71706800  1
  B  B5  1  0.09206800  0.37500000  0.21706800  1
  B  B6  1  0.65793200  0.87500000  0.28293200  1
  B  B7  1  0.15793200  0.87500000  0.78293200  1
  B  B8  1  0.62500000  0.34206800  0.21706800  1
  B  B9  1  0.62500000  0.84206800  0.71706800  1
  B  B10  1  0.12500000  0.40793200  0.78293200  1
  B  B11  1  0.12500000  0.90793200  0.28293200  1
  H  H12  1  0.60624700  0.29698600  0.81346000  1
  H  H13  1  0.10624700  0.29278700  0.30926100  1
  H  H14  1  0.26647400  0.45721300  0.31346000  1
  H  H15  1  0.76647400  0.45301400  0.80926100  1
  H  H16  1  0.48352600  0.79278700  0.18654000  1
  H  H17  1  0.98352600  0.79698600  0.69073900  1
  H  H18  1  0.14375300  0.95301400  0.68654000  1
  H  H19  1  0.64375300  0.95721300  0.19073900  1
  H  H20  1  0.70301400  0.51647400  0.30926100  1
  H  H21  1  0.70721300  0.01647400  0.81346000  1
  H  H22  1  0.54278700  0.85624700  0.80926100  1
  H  H23  1  0.54698600  0.35624700  0.31346000  1
  H  H24  1  0.20721300  0.39375300  0.69073900  1
  H  H25  1  0.20301400  0.89375300  0.18654000  1
  H  H26  1  0.04698600  0.73352600  0.19073900  1
  H  H27  1  0.04278700  0.23352600  0.68654000  1
  H  H28  1  0.49250400  0.49575500  0.75015600  1
  H  H29  1  0.99250400  0.24234800  0.99674900  1
  H  H30  1  0.00440000  0.50765200  0.25015600  1
  H  H31  1  0.50440000  0.25424500  0.49674900  1
  H  H32  1  0.74560000  0.74234800  0.24984400  1
  H  H33  1  0.24560000  0.99575500  0.00325100  1
  H  H34  1  0.25749600  0.75424500  0.74984400  1
  H  H35  1  0.75749600  0.00765200  0.50325100  1
  H  H36  1  0.50424500  0.25440000  0.99674900  1
  H  H37  1  0.75765200  0.75440000  0.75015600  1
  H  H38  1  0.49234800  0.74250400  0.49674900  1
  H  H39  1  0.74575500  0.24250400  0.25015600  1
  H  H40  1  0.25765200  0.50749600  0.00325100  1
  H  H41  1  0.00424500  0.00749600  0.24984400  1
  H  H42  1  0.24575500  0.99560000  0.50325100  1
  H  H43  1  0.99234800  0.49560000  0.74984400  1
