# generated using pymatgen
data_KCr3BiO12
_symmetry_space_group_name_H-M   'P 1'
_cell_length_a   6.96734400
_cell_length_b   7.30427109
_cell_length_c   11.06888158
_cell_angle_alpha   97.80034892
_cell_angle_beta   91.94069432
_cell_angle_gamma   96.03751961
_symmetry_Int_Tables_number   1
_chemical_formula_structural   KCr3BiO12
_chemical_formula_sum   'K2 Cr6 Bi2 O24'
_cell_volume   554.33969864
_cell_formula_units_Z   2
loop_
 _symmetry_equiv_pos_site_id
 _symmetry_equiv_pos_as_xyz
  1  'x, y, z'
loop_
 _atom_site_type_symbol
 _atom_site_label
 _atom_site_symmetry_multiplicity
 _atom_site_fract_x
 _atom_site_fract_y
 _atom_site_fract_z
 _atom_site_occupancy
  K  K0  1  0.14358600  0.00818700  0.67748600  1
  K  K1  1  0.85641400  0.99181300  0.32251400  1
  Cr  Cr2  1  0.84094400  0.75840500  0.96178400  1
  Cr  Cr3  1  0.15905600  0.24159500  0.03821600  1
  Cr  Cr4  1  0.63714700  0.47344100  0.25443400  1
  Cr  Cr5  1  0.36285300  0.52655900  0.74556600  1
  Cr  Cr6  1  0.39496800  0.18160300  0.38639400  1
  Cr  Cr7  1  0.60503200  0.81839700  0.61360600  1
  Bi  Bi8  1  0.35433700  0.78097600  0.08028500  1
  Bi  Bi9  1  0.64566300  0.21902400  0.91971500  1
  O  O10  1  0.93096600  0.79546500  0.83404900  1
  O  O11  1  0.06903400  0.20453500  0.16595100  1
  O  O12  1  0.32128400  0.08594200  0.00055300  1
  O  O13  1  0.67871600  0.91405800  0.99944700  1
  O  O14  1  0.02479400  0.78701900  0.07120500  1
  O  O15  1  0.97520600  0.21298100  0.92879500  1
  O  O16  1  0.27598900  0.45561900  0.05213200  1
  O  O17  1  0.72401100  0.54438100  0.94786800  1
  O  O18  1  0.61247200  0.67789500  0.20896100  1
  O  O19  1  0.38752800  0.32210500  0.79103900  1
  O  O20  1  0.82143100  0.49256500  0.34783100  1
  O  O21  1  0.17856900  0.50743500  0.65216900  1
  O  O22  1  0.33262600  0.68797200  0.86169800  1
  O  O23  1  0.66737400  0.31202800  0.13830200  1
  O  O24  1  0.57521400  0.60203600  0.67118800  1
  O  O25  1  0.42478600  0.39796400  0.32881200  1
  O  O26  1  0.59467400  0.99143900  0.73141600  1
  O  O27  1  0.40532600  0.00856100  0.26858400  1
  O  O28  1  0.80630400  0.84318700  0.54500500  1
  O  O29  1  0.19369600  0.15681300  0.45499500  1
  O  O30  1  0.42203600  0.81760100  0.52032300  1
  O  O31  1  0.57796400  0.18239900  0.47967700  1
  O  O32  1  0.19058000  0.75555200  0.26857600  1
  O  O33  1  0.80942000  0.24444800  0.73142400  1
