# generated using pymatgen
data_MgFe(SiO3)2
_symmetry_space_group_name_H-M   'P 1'
_cell_length_a   5.29134600
_cell_length_b   9.09353400
_cell_length_c   18.63024700
_cell_angle_alpha   90.00000000
_cell_angle_beta   90.00000000
_cell_angle_gamma   90.00000000
_symmetry_Int_Tables_number   1
_chemical_formula_structural   MgFe(SiO3)2
_chemical_formula_sum   'Mg8 Fe8 Si16 O48'
_cell_volume   896.43224243
_cell_formula_units_Z   8
loop_
 _symmetry_equiv_pos_site_id
 _symmetry_equiv_pos_as_xyz
  1  'x, y, z'
loop_
 _atom_site_type_symbol
 _atom_site_label
 _atom_site_symmetry_multiplicity
 _atom_site_fract_x
 _atom_site_fract_y
 _atom_site_fract_z
 _atom_site_occupancy
  Mg  Mg0  1  0.85985100  0.50745800  0.87432000  1
  Mg  Mg1  1  0.14014900  0.99254200  0.37432000  1
  Mg  Mg2  1  0.64014900  0.00745800  0.12568000  1
  Mg  Mg3  1  0.35985100  0.49254200  0.62568000  1
  Mg  Mg4  1  0.14014900  0.49254200  0.12568000  1
  Mg  Mg5  1  0.85985100  0.00745800  0.62568000  1
  Mg  Mg6  1  0.35985100  0.99254200  0.87432000  1
  Mg  Mg7  1  0.64014900  0.50745800  0.37432000  1
  Fe  Fe8  1  0.36390000  0.34731800  0.87698300  1
  Fe  Fe9  1  0.63610000  0.15268200  0.37698300  1
  Fe  Fe10  1  0.13610000  0.84731800  0.12301700  1
  Fe  Fe11  1  0.86390000  0.65268200  0.62301700  1
  Fe  Fe12  1  0.63610000  0.65268200  0.12301700  1
  Fe  Fe13  1  0.36390000  0.84731800  0.62301700  1
  Fe  Fe14  1  0.86390000  0.15268200  0.87698300  1
  Fe  Fe15  1  0.13610000  0.34731800  0.37698300  1
  Si  Si16  1  0.27620900  0.66473300  0.97416600  1
  Si  Si17  1  0.72379100  0.83526700  0.47416600  1
  Si  Si18  1  0.22379100  0.16473300  0.02583400  1
  Si  Si19  1  0.77620900  0.33526700  0.52583400  1
  Si  Si20  1  0.72379100  0.33526700  0.02583400  1
  Si  Si21  1  0.27620900  0.16473300  0.52583400  1
  Si  Si22  1  0.77620900  0.83526700  0.97416600  1
  Si  Si23  1  0.22379100  0.66473300  0.47416600  1
  Si  Si24  1  0.54866000  0.66074100  0.77358900  1
  Si  Si25  1  0.45134000  0.83925900  0.27358900  1
  Si  Si26  1  0.95134000  0.16074100  0.22641100  1
  Si  Si27  1  0.04866000  0.33925900  0.72641100  1
  Si  Si28  1  0.45134000  0.33925900  0.22641100  1
  Si  Si29  1  0.54866000  0.16074100  0.72641100  1
  Si  Si30  1  0.04866000  0.83925900  0.77358900  1
  Si  Si31  1  0.95134000  0.66074100  0.27358900  1
  O  O32  1  0.28062300  0.65956800  0.06225700  1
  O  O33  1  0.71937700  0.84043200  0.56225700  1
  O  O34  1  0.21937700  0.15956800  0.93774300  1
  O  O35  1  0.78062300  0.34043200  0.43774300  1
  O  O36  1  0.71937700  0.34043200  0.93774300  1
  O  O37  1  0.28062300  0.15956800  0.43774300  1
  O  O38  1  0.78062300  0.84043200  0.06225700  1
  O  O39  1  0.21937700  0.65956800  0.56225700  1
  O  O40  1  0.53911400  0.50442300  0.81399500  1
  O  O41  1  0.46088600  0.99557700  0.31399500  1
  O  O42  1  0.96088600  0.00442300  0.18600500  1
  O  O43  1  0.03911400  0.49557700  0.68600500  1
  O  O44  1  0.46088600  0.49557700  0.18600500  1
  O  O45  1  0.53911400  0.00442300  0.68600500  1
  O  O46  1  0.03911400  0.99557700  0.81399500  1
  O  O47  1  0.96088600  0.50442300  0.31399500  1
  O  O48  1  0.07597100  0.80011400  0.94944500  1
  O  O49  1  0.92402900  0.69988600  0.44944500  1
  O  O50  1  0.42402900  0.30011400  0.05055500  1
  O  O51  1  0.57597100  0.19988600  0.55055500  1
  O  O52  1  0.92402900  0.19988600  0.05055500  1
  O  O53  1  0.07597100  0.30011400  0.55055500  1
  O  O54  1  0.57597100  0.69988600  0.94944500  1
  O  O55  1  0.42402900  0.80011400  0.44944500  1
  O  O56  1  0.52772500  0.65575500  0.68646900  1
  O  O57  1  0.47227500  0.84424500  0.18646900  1
  O  O58  1  0.97227500  0.15575500  0.31353100  1
  O  O59  1  0.02772500  0.34424500  0.81353100  1
  O  O60  1  0.47227500  0.34424500  0.31353100  1
  O  O61  1  0.52772500  0.15575500  0.81353100  1
  O  O62  1  0.02772500  0.84424500  0.68646900  1
  O  O63  1  0.97227500  0.65575500  0.18646900  1
  O  O64  1  0.17580300  0.52159300  0.93205100  1
  O  O65  1  0.82419700  0.97840700  0.43205100  1
  O  O66  1  0.32419700  0.02159300  0.06794900  1
  O  O67  1  0.67580300  0.47840700  0.56794900  1
  O  O68  1  0.82419700  0.47840700  0.06794900  1
  O  O69  1  0.17580300  0.02159300  0.56794900  1
  O  O70  1  0.67580300  0.97840700  0.93205100  1
  O  O71  1  0.32419700  0.52159300  0.43205100  1
  O  O72  1  0.33291000  0.78051800  0.80293700  1
  O  O73  1  0.66709000  0.71948200  0.30293700  1
  O  O74  1  0.16709000  0.28051800  0.19706300  1
  O  O75  1  0.83291000  0.21948200  0.69706300  1
  O  O76  1  0.66709000  0.21948200  0.19706300  1
  O  O77  1  0.33291000  0.28051800  0.69706300  1
  O  O78  1  0.83291000  0.71948200  0.80293700  1
  O  O79  1  0.16709000  0.78051800  0.30293700  1
