# generated using pymatgen
data_Ba2P4H6O13
_symmetry_space_group_name_H-M   'P 1'
_cell_length_a   11.51532200
_cell_length_b   8.99636300
_cell_length_c   17.82403564
_cell_angle_alpha   90.00000000
_cell_angle_beta   127.88498858
_cell_angle_gamma   90.00000000
_symmetry_Int_Tables_number   1
_chemical_formula_structural   Ba2P4H6O13
_chemical_formula_sum   'Ba8 P16 H24 O52'
_cell_volume   1457.34017744
_cell_formula_units_Z   4
loop_
 _symmetry_equiv_pos_site_id
 _symmetry_equiv_pos_as_xyz
  1  'x, y, z'
loop_
 _atom_site_type_symbol
 _atom_site_label
 _atom_site_symmetry_multiplicity
 _atom_site_fract_x
 _atom_site_fract_y
 _atom_site_fract_z
 _atom_site_occupancy
  Ba  Ba0  1  0.70090800  0.03194900  0.48609500  1
  Ba  Ba1  1  0.70090800  0.46805100  0.98609500  1
  Ba  Ba2  1  0.29909200  0.96805100  0.51390500  1
  Ba  Ba3  1  0.29909200  0.53194900  0.01390500  1
  Ba  Ba4  1  0.73914200  0.50490300  0.47721000  1
  Ba  Ba5  1  0.73914200  0.99509700  0.97721000  1
  Ba  Ba6  1  0.26085800  0.49509700  0.52279000  1
  Ba  Ba7  1  0.26085800  0.00490300  0.02279000  1
  P  P8  1  0.98630300  0.63923500  0.73027300  1
  P  P9  1  0.98630300  0.86076500  0.23027300  1
  P  P10  1  0.01369700  0.36076500  0.26972700  1
  P  P11  1  0.01369700  0.13923500  0.76972700  1
  P  P12  1  0.57485300  0.78156800  0.24836300  1
  P  P13  1  0.57485300  0.71843200  0.74836300  1
  P  P14  1  0.42514700  0.21843200  0.75163700  1
  P  P15  1  0.42514700  0.28156800  0.25163700  1
  P  P16  1  0.95691000  0.22933200  0.43519400  1
  P  P17  1  0.95691000  0.27066800  0.93519400  1
  P  P18  1  0.04309000  0.77066800  0.56480600  1
  P  P19  1  0.04309000  0.72933200  0.06480600  1
  P  P20  1  0.39044200  0.68896900  0.39143000  1
  P  P21  1  0.39044200  0.81103100  0.89143000  1
  P  P22  1  0.60955800  0.31103100  0.60857000  1
  P  P23  1  0.60955800  0.18896900  0.10857000  1
  H  H24  1  0.68424500  0.82117800  0.62015400  1
  H  H25  1  0.68424500  0.67882200  0.12015400  1
  H  H26  1  0.31575500  0.17882200  0.37984600  1
  H  H27  1  0.31575500  0.32117800  0.87984600  1
  H  H28  1  0.72771000  0.96473400  0.68076700  1
  H  H29  1  0.72771000  0.53526600  0.18076700  1
  H  H30  1  0.27229000  0.03526600  0.31923300  1
  H  H31  1  0.27229000  0.46473400  0.81923300  1
  H  H32  1  0.03885200  0.78522600  0.76049500  1
  H  H33  1  0.03885200  0.71477400  0.26049500  1
  H  H34  1  0.96114800  0.21477400  0.23950500  1
  H  H35  1  0.96114800  0.28522600  0.73950500  1
  H  H36  1  0.68928800  0.80354100  0.24186300  1
  H  H37  1  0.68928800  0.69645900  0.74186300  1
  H  H38  1  0.31071200  0.19645900  0.75813700  1
  H  H39  1  0.31071200  0.30354100  0.25813700  1
  H  H40  1  0.86639300  0.12954000  0.35924800  1
  H  H41  1  0.86639300  0.37046000  0.85924800  1
  H  H42  1  0.13360700  0.87046000  0.64075200  1
  H  H43  1  0.13360700  0.62954000  0.14075200  1
  H  H44  1  0.30220200  0.74956100  0.29927200  1
  H  H45  1  0.30220200  0.75043900  0.79927200  1
  H  H46  1  0.69779800  0.25043900  0.70072800  1
  H  H47  1  0.69779800  0.24956100  0.20072800  1
  O  O48  1  0.64982000  0.92235500  0.61805300  1
  O  O49  1  0.64982000  0.57764500  0.11805300  1
  O  O50  1  0.35018000  0.07764500  0.38194700  1
  O  O51  1  0.35018000  0.42235500  0.88194700  1
  O  O52  1  0.04124700  0.54015000  0.81412100  1
  O  O53  1  0.04124700  0.95985000  0.31412100  1
  O  O54  1  0.95875300  0.45985000  0.18587900  1
  O  O55  1  0.95875300  0.04015000  0.68587900  1
  O  O56  1  0.09427500  0.56855100  0.70464200  1
  O  O57  1  0.09427500  0.93144900  0.20464200  1
  O  O58  1  0.90572500  0.43144900  0.29535800  1
  O  O59  1  0.90572500  0.06855100  0.79535800  1
  O  O60  1  0.82730900  0.64333900  0.64329500  1
  O  O61  1  0.82730900  0.85666100  0.14329500  1
  O  O62  1  0.17269100  0.35666100  0.35670500  1
  O  O63  1  0.17269100  0.14333900  0.85670500  1
  O  O64  1  0.58207600  0.90900400  0.30935100  1
  O  O65  1  0.58207600  0.59099600  0.80935100  1
  O  O66  1  0.41792400  0.09099600  0.69064900  1
  O  O67  1  0.41792400  0.40900400  0.19064900  1
  O  O68  1  0.61304100  0.64371500  0.31104100  1
  O  O69  1  0.61304100  0.85628500  0.81104100  1
  O  O70  1  0.38695900  0.35628500  0.68895900  1
  O  O71  1  0.38695900  0.14371500  0.18895900  1
  O  O72  1  0.42932200  0.76935800  0.14914700  1
  O  O73  1  0.42932200  0.73064200  0.64914700  1
  O  O74  1  0.57067800  0.23064200  0.85085300  1
  O  O75  1  0.57067800  0.26935800  0.35085300  1
  O  O76  1  0.92003400  0.39807500  0.38610300  1
  O  O77  1  0.92003400  0.10192500  0.88610300  1
  O  O78  1  0.07996600  0.60192500  0.61389700  1
  O  O79  1  0.07996600  0.89807500  0.11389700  1
  O  O80  1  0.90185400  0.25072000  0.49271000  1
  O  O81  1  0.90185400  0.24928000  0.99271000  1
  O  O82  1  0.09814600  0.74928000  0.50729000  1
  O  O83  1  0.09814600  0.75072000  0.00729000  1
  O  O84  1  0.11674300  0.19302000  0.48556700  1
  O  O85  1  0.11674300  0.30698000  0.98556700  1
  O  O86  1  0.88325700  0.80698000  0.51443300  1
  O  O87  1  0.88325700  0.69302000  0.01443300  1
  O  O88  1  0.30854100  0.70803900  0.43272800  1
  O  O89  1  0.30854100  0.79196100  0.93272800  1
  O  O90  1  0.69145900  0.29196100  0.56727200  1
  O  O91  1  0.69145900  0.20803900  0.06727200  1
  O  O92  1  0.42956900  0.52724800  0.38600300  1
  O  O93  1  0.42956900  0.97275200  0.88600300  1
  O  O94  1  0.57043100  0.47275200  0.61399700  1
  O  O95  1  0.57043100  0.02724800  0.11399700  1
  O  O96  1  0.54198700  0.76566200  0.44986400  1
  O  O97  1  0.54198700  0.73433800  0.94986400  1
  O  O98  1  0.45801300  0.23433800  0.55013600  1
  O  O99  1  0.45801300  0.26566200  0.05013600  1
