# generated using pymatgen
data_Cs2Mo3P5O19
_symmetry_space_group_name_H-M   'P 1'
_cell_length_a   6.59654284
_cell_length_b   9.97118380
_cell_length_c   14.78462100
_cell_angle_alpha   90.00000000
_cell_angle_beta   90.00000000
_cell_angle_gamma   105.80913294
_symmetry_Int_Tables_number   1
_chemical_formula_structural   Cs2Mo3P5O19
_chemical_formula_sum   'Cs4 Mo6 P10 O38'
_cell_volume   935.67964992
_cell_formula_units_Z   2
loop_
 _symmetry_equiv_pos_site_id
 _symmetry_equiv_pos_as_xyz
  1  'x, y, z'
loop_
 _atom_site_type_symbol
 _atom_site_label
 _atom_site_symmetry_multiplicity
 _atom_site_fract_x
 _atom_site_fract_y
 _atom_site_fract_z
 _atom_site_occupancy
  Cs  Cs0  1  0.00000000  0.50000000  0.50000000  1
  Cs  Cs1  1  0.00000000  0.50000000  0.00000000  1
  Cs  Cs2  1  0.04457500  0.86272800  0.25000000  1
  Cs  Cs3  1  0.95542500  0.13727200  0.75000000  1
  Mo  Mo4  1  0.37876800  0.53405800  0.25000000  1
  Mo  Mo5  1  0.62123200  0.46594200  0.75000000  1
  Mo  Mo6  1  0.71790900  0.14462700  0.37403000  1
  Mo  Mo7  1  0.28209100  0.85537300  0.87403000  1
  Mo  Mo8  1  0.28209100  0.85537300  0.62597000  1
  Mo  Mo9  1  0.71790900  0.14462700  0.12597000  1
  P  P10  1  0.83731400  0.44556700  0.25000000  1
  P  P11  1  0.16268600  0.55443300  0.75000000  1
  P  P12  1  0.26793200  0.23691300  0.39771900  1
  P  P13  1  0.73206800  0.76308700  0.89771900  1
  P  P14  1  0.73206800  0.76308700  0.60228100  1
  P  P15  1  0.26793200  0.23691300  0.10228100  1
  P  P16  1  0.49038200  0.21040900  0.56596800  1
  P  P17  1  0.50961800  0.78959100  0.06596800  1
  P  P18  1  0.50961800  0.78959100  0.43403200  1
  P  P19  1  0.49038200  0.21040900  0.93403200  1
  O  O20  1  0.69999100  0.54738500  0.25000000  1
  O  O21  1  0.30000900  0.45261500  0.75000000  1
  O  O22  1  0.79640300  0.35439000  0.33727000  1
  O  O23  1  0.20359700  0.64561000  0.83727000  1
  O  O24  1  0.20359700  0.64561000  0.66273000  1
  O  O25  1  0.79640300  0.35439000  0.16273000  1
  O  O26  1  0.06311100  0.54257600  0.25000000  1
  O  O27  1  0.93688900  0.45742400  0.75000000  1
  O  O28  1  0.30454200  0.37673000  0.35192000  1
  O  O29  1  0.69545800  0.62327000  0.85192000  1
  O  O30  1  0.69545800  0.62327000  0.64808000  1
  O  O31  1  0.30454200  0.37673000  0.14808000  1
  O  O32  1  0.39549100  0.13934500  0.36271800  1
  O  O33  1  0.60450900  0.86065500  0.86271800  1
  O  O34  1  0.60450900  0.86065500  0.63728200  1
  O  O35  1  0.39549100  0.13934500  0.13728200  1
  O  O36  1  0.03473300  0.15539900  0.40305100  1
  O  O37  1  0.96526700  0.84460100  0.90305100  1
  O  O38  1  0.96526700  0.84460100  0.59694900  1
  O  O39  1  0.03473300  0.15539900  0.09694900  1
  O  O40  1  0.34360500  0.27841700  0.50221000  1
  O  O41  1  0.65639500  0.72158300  0.00221000  1
  O  O42  1  0.65639500  0.72158300  0.49779000  1
  O  O43  1  0.34360500  0.27841700  0.99779000  1
  O  O44  1  0.68192200  0.20154400  0.50787000  1
  O  O45  1  0.31807800  0.79845600  0.00787000  1
  O  O46  1  0.31807800  0.79845600  0.49213000  1
  O  O47  1  0.68192200  0.20154400  0.99213000  1
  O  O48  1  0.56072300  0.30903000  0.64414100  1
  O  O49  1  0.43927700  0.69097000  0.14414100  1
  O  O50  1  0.43927700  0.69097000  0.35585900  1
  O  O51  1  0.56072300  0.30903000  0.85585900  1
  O  O52  1  0.35300200  0.06760100  0.59417600  1
  O  O53  1  0.64699800  0.93239900  0.09417600  1
  O  O54  1  0.64699800  0.93239900  0.40582400  1
  O  O55  1  0.35300200  0.06760100  0.90582400  1
  O  O56  1  0.73582400  0.10627900  0.25000000  1
  O  O57  1  0.26417600  0.89372100  0.75000000  1
