# generated using pymatgen
data_ZrH12N5F4
_symmetry_space_group_name_H-M   'P 1'
_cell_length_a   9.16279300
_cell_length_b   9.16279300
_cell_length_c   10.85002500
_cell_angle_alpha   90.00000000
_cell_angle_beta   90.00000000
_cell_angle_gamma   90.00000000
_symmetry_Int_Tables_number   1
_chemical_formula_structural   ZrH12N5F4
_chemical_formula_sum   'Zr4 H48 N20 F16'
_cell_volume   910.93311375
_cell_formula_units_Z   4
loop_
 _symmetry_equiv_pos_site_id
 _symmetry_equiv_pos_as_xyz
  1  'x, y, z'
loop_
 _atom_site_type_symbol
 _atom_site_label
 _atom_site_symmetry_multiplicity
 _atom_site_fract_x
 _atom_site_fract_y
 _atom_site_fract_z
 _atom_site_occupancy
  Zr  Zr0  1  0.00000000  0.00000000  0.25000000  1
  Zr  Zr1  1  0.00000000  0.00000000  0.75000000  1
  Zr  Zr2  1  0.50000000  0.50000000  0.75000000  1
  Zr  Zr3  1  0.50000000  0.50000000  0.25000000  1
  H  H4  1  0.76792000  0.79908400  0.35285300  1
  H  H5  1  0.23208000  0.79908400  0.85285300  1
  H  H6  1  0.76792000  0.20091600  0.85285300  1
  H  H7  1  0.23208000  0.20091600  0.35285300  1
  H  H8  1  0.29908400  0.26792000  0.85285300  1
  H  H9  1  0.70091600  0.26792000  0.35285300  1
  H  H10  1  0.29908400  0.73208000  0.35285300  1
  H  H11  1  0.70091600  0.73208000  0.85285300  1
  H  H12  1  0.73208000  0.70091600  0.64714700  1
  H  H13  1  0.26792000  0.70091600  0.14714700  1
  H  H14  1  0.73208000  0.29908400  0.14714700  1
  H  H15  1  0.26792000  0.29908400  0.64714700  1
  H  H16  1  0.20091600  0.23208000  0.14714700  1
  H  H17  1  0.79908400  0.23208000  0.64714700  1
  H  H18  1  0.20091600  0.76792000  0.64714700  1
  H  H19  1  0.79908400  0.76792000  0.14714700  1
  H  H20  1  0.69807200  0.96253500  0.32404500  1
  H  H21  1  0.30192800  0.96253500  0.82404500  1
  H  H22  1  0.69807200  0.03746500  0.82404500  1
  H  H23  1  0.30192800  0.03746500  0.32404500  1
  H  H24  1  0.46253500  0.19807200  0.82404500  1
  H  H25  1  0.53746500  0.19807200  0.32404500  1
  H  H26  1  0.46253500  0.80192800  0.32404500  1
  H  H27  1  0.53746500  0.80192800  0.82404500  1
  H  H28  1  0.80192800  0.53746500  0.67595500  1
  H  H29  1  0.19807200  0.53746500  0.17595500  1
  H  H30  1  0.80192800  0.46253500  0.17595500  1
  H  H31  1  0.19807200  0.46253500  0.67595500  1
  H  H32  1  0.03746500  0.30192800  0.17595500  1
  H  H33  1  0.96253500  0.30192800  0.67595500  1
  H  H34  1  0.03746500  0.69807200  0.67595500  1
  H  H35  1  0.96253500  0.69807200  0.17595500  1
  H  H36  1  0.79851900  0.93469400  0.45035400  1
  H  H37  1  0.20148100  0.93469400  0.95035400  1
  H  H38  1  0.79851900  0.06530600  0.95035400  1
  H  H39  1  0.20148100  0.06530600  0.45035400  1
  H  H40  1  0.43469400  0.29851900  0.95035400  1
  H  H41  1  0.56530600  0.29851900  0.45035400  1
  H  H42  1  0.43469400  0.70148100  0.45035400  1
  H  H43  1  0.56530600  0.70148100  0.95035400  1
  H  H44  1  0.70148100  0.56530600  0.54964600  1
  H  H45  1  0.29851900  0.56530600  0.04964600  1
  H  H46  1  0.70148100  0.43469400  0.04964600  1
  H  H47  1  0.29851900  0.43469400  0.54964600  1
  H  H48  1  0.06530600  0.20148100  0.04964600  1
  H  H49  1  0.93469400  0.20148100  0.54964600  1
  H  H50  1  0.06530600  0.79851900  0.54964600  1
  H  H51  1  0.93469400  0.79851900  0.04964600  1
  N  N52  1  0.78663700  0.90910100  0.35867700  1
  N  N53  1  0.21336300  0.90910100  0.85867700  1
  N  N54  1  0.78663700  0.09089900  0.85867700  1
  N  N55  1  0.21336300  0.09089900  0.35867700  1
  N  N56  1  0.40910100  0.28663700  0.85867700  1
  N  N57  1  0.59089900  0.28663700  0.35867700  1
  N  N58  1  0.40910100  0.71336300  0.35867700  1
  N  N59  1  0.59089900  0.71336300  0.85867700  1
  N  N60  1  0.71336300  0.59089900  0.64132300  1
  N  N61  1  0.28663700  0.59089900  0.14132300  1
  N  N62  1  0.71336300  0.40910100  0.14132300  1
  N  N63  1  0.28663700  0.40910100  0.64132300  1
  N  N64  1  0.09089900  0.21336300  0.14132300  1
  N  N65  1  0.90910100  0.21336300  0.64132300  1
  N  N66  1  0.09089900  0.78663700  0.64132300  1
  N  N67  1  0.90910100  0.78663700  0.14132300  1
  N  N68  1  0.00000000  0.50000000  0.33458700  1
  N  N69  1  0.00000000  0.50000000  0.83458700  1
  N  N70  1  0.50000000  0.00000000  0.66541300  1
  N  N71  1  0.50000000  0.00000000  0.16541300  1
  F  F72  1  0.92872500  0.16482500  0.36670300  1
  F  F73  1  0.07127500  0.16482500  0.86670300  1
  F  F74  1  0.92872500  0.83517500  0.86670300  1
  F  F75  1  0.07127500  0.83517500  0.36670300  1
  F  F76  1  0.66482500  0.42872500  0.86670300  1
  F  F77  1  0.33517500  0.42872500  0.36670300  1
  F  F78  1  0.66482500  0.57127500  0.36670300  1
  F  F79  1  0.33517500  0.57127500  0.86670300  1
  F  F80  1  0.57127500  0.33517500  0.63329700  1
  F  F81  1  0.42872500  0.33517500  0.13329700  1
  F  F82  1  0.57127500  0.66482500  0.13329700  1
  F  F83  1  0.42872500  0.66482500  0.63329700  1
  F  F84  1  0.83517500  0.07127500  0.13329700  1
  F  F85  1  0.16482500  0.07127500  0.63329700  1
  F  F86  1  0.83517500  0.92872500  0.63329700  1
  F  F87  1  0.16482500  0.92872500  0.13329700  1
