# generated using pymatgen
data_PuB7IO14
_symmetry_space_group_name_H-M   'P 1'
_cell_length_a   16.96406800
_cell_length_b   8.18097700
_cell_length_c   12.73098343
_cell_angle_alpha   50.90600926
_cell_angle_beta   90.00000000
_cell_angle_gamma   90.00000000
_symmetry_Int_Tables_number   1
_chemical_formula_structural   PuB7IO14
_chemical_formula_sum   'Pu4 B28 I4 O56'
_cell_volume   1371.26640040
_cell_formula_units_Z   4
loop_
 _symmetry_equiv_pos_site_id
 _symmetry_equiv_pos_as_xyz
  1  'x, y, z'
loop_
 _atom_site_type_symbol
 _atom_site_label
 _atom_site_symmetry_multiplicity
 _atom_site_fract_x
 _atom_site_fract_y
 _atom_site_fract_z
 _atom_site_occupancy
  Pu  Pu0  1  0.83909700  0.50596800  0.71274500  1
  Pu  Pu1  1  0.66090300  0.50596800  0.21274500  1
  Pu  Pu2  1  0.16090300  0.49403200  0.28725500  1
  Pu  Pu3  1  0.33909700  0.49403200  0.78725500  1
  B  B4  1  0.91838200  0.14758000  0.20139300  1
  B  B5  1  0.58161800  0.14758000  0.70139300  1
  B  B6  1  0.08161800  0.85242000  0.79860700  1
  B  B7  1  0.41838200  0.85242000  0.29860700  1
  B  B8  1  0.80649400  0.96011700  0.34834700  1
  B  B9  1  0.69350600  0.96011700  0.84834700  1
  B  B10  1  0.19350600  0.03988300  0.65165300  1
  B  B11  1  0.30649400  0.03988300  0.15165300  1
  B  B12  1  0.79146900  0.86798700  0.73114200  1
  B  B13  1  0.70853100  0.86798700  0.23114200  1
  B  B14  1  0.20853100  0.13201300  0.26885800  1
  B  B15  1  0.29146900  0.13201300  0.76885800  1
  B  B16  1  0.78836900  0.22413100  0.09047500  1
  B  B17  1  0.71163100  0.22413100  0.59047500  1
  B  B18  1  0.21163100  0.77586900  0.90952500  1
  B  B19  1  0.28836900  0.77586900  0.40952500  1
  B  B20  1  0.75992500  0.58907000  0.45848700  1
  B  B21  1  0.74007500  0.58907000  0.95848700  1
  B  B22  1  0.24007500  0.41093000  0.54151300  1
  B  B23  1  0.25992500  0.41093000  0.04151300  1
  B  B24  1  0.93121200  0.78368300  0.78347700  1
  B  B25  1  0.56878800  0.78368300  0.28347600  1
  B  B26  1  0.06878800  0.21631700  0.21652300  1
  B  B27  1  0.43121200  0.21631700  0.71652300  1
  B  B28  1  0.73320700  0.07094400  0.98350900  1
  B  B29  1  0.76679300  0.07094400  0.48350900  1
  B  B30  1  0.26679300  0.92905600  0.01649100  1
  B  B31  1  0.23320700  0.92905600  0.51649100  1
  I  I32  1  0.61081300  0.61021200  0.71251400  1
  I  I33  1  0.88918700  0.61021200  0.21251400  1
  I  I34  1  0.38918700  0.38978800  0.28748600  1
  I  I35  1  0.11081300  0.38978800  0.78748600  1
  O  O36  1  0.86778500  0.90118200  0.76527500  1
  O  O37  1  0.63221500  0.90118200  0.26527500  1
  O  O38  1  0.13221500  0.09881800  0.23472500  1
  O  O39  1  0.36778500  0.09881800  0.73472500  1
  O  O40  1  0.78415800  0.74212800  0.46546900  1
  O  O41  1  0.71584200  0.74212800  0.96546900  1
  O  O42  1  0.21584200  0.25787200  0.53453100  1
  O  O43  1  0.28415800  0.25787200  0.03453100  1
  O  O44  1  0.76921800  0.22719400  0.97695700  1
  O  O45  1  0.73078200  0.22719400  0.47695700  1
  O  O46  1  0.23078200  0.77280600  0.02304300  1
  O  O47  1  0.26921800  0.77280600  0.52304300  1
  O  O48  1  0.73267200  0.01129000  0.72092600  1
  O  O49  1  0.76732800  0.01129000  0.22092600  1
  O  O50  1  0.26732800  0.98871000  0.27907400  1
  O  O51  1  0.23267200  0.98871000  0.77907400  1
  O  O52  1  0.79479800  0.88973400  0.60673800  1
  O  O53  1  0.70520200  0.88973400  0.10673800  1
  O  O54  1  0.20520200  0.11026600  0.39326200  1
  O  O55  1  0.29479800  0.11026600  0.89326200  1
  O  O56  1  0.99735400  0.19389000  0.18211600  1
  O  O57  1  0.50264600  0.19389000  0.68211600  1
  O  O58  1  0.00264600  0.80611000  0.81788400  1
  O  O59  1  0.49735400  0.80611000  0.31788400  1
  O  O60  1  0.87019500  0.26683500  0.09049100  1
  O  O61  1  0.62980500  0.26683500  0.59049100  1
  O  O62  1  0.12980500  0.73316500  0.90950900  1
  O  O63  1  0.37019500  0.73316500  0.40950900  1
  O  O64  1  0.89013700  0.98499000  0.32719400  1
  O  O65  1  0.60986300  0.98499000  0.82719400  1
  O  O66  1  0.10986300  0.01501000  0.67280600  1
  O  O67  1  0.39013700  0.01501000  0.17280600  1
  O  O68  1  0.76151200  0.38883400  0.57777500  1
  O  O69  1  0.73848800  0.38883400  0.07777500  1
  O  O70  1  0.23848800  0.61116600  0.42222500  1
  O  O71  1  0.26151200  0.61116600  0.92222500  1
  O  O72  1  0.91710300  0.62577800  0.77182800  1
  O  O73  1  0.58289700  0.62577800  0.27182800  1
  O  O74  1  0.08289700  0.37422200  0.22817200  1
  O  O75  1  0.41710300  0.37422200  0.72817200  1
  O  O76  1  0.76432800  0.64651200  0.83531600  1
  O  O77  1  0.73567200  0.64651200  0.33531600  1
  O  O78  1  0.23567200  0.35348800  0.16468400  1
  O  O79  1  0.26432800  0.35348800  0.66468400  1
  O  O80  1  0.88644900  0.24940500  0.82575900  1
  O  O81  1  0.61355100  0.24940500  0.32575900  1
  O  O82  1  0.11355100  0.75059500  0.17424100  1
  O  O83  1  0.38644900  0.75059500  0.67424100  1
  O  O84  1  0.72672600  0.10510800  0.86552800  1
  O  O85  1  0.77327400  0.10510800  0.36552800  1
  O  O86  1  0.27327400  0.89489200  0.13447200  1
  O  O87  1  0.22672600  0.89489200  0.63447200  1
  O  O88  1  0.91483000  0.57902100  0.58789800  1
  O  O89  1  0.58517000  0.57902100  0.08789800  1
  O  O90  1  0.08517000  0.42097900  0.41210200  1
  O  O91  1  0.41483000  0.42097900  0.91210200  1
