# generated using pymatgen
data_Mg3B11O24
_symmetry_space_group_name_H-M   'P 1'
_cell_length_a   9.22654100
_cell_length_b   10.74372300
_cell_length_c   16.55632400
_cell_angle_alpha   90.00000000
_cell_angle_beta   90.00000000
_cell_angle_gamma   90.00000000
_symmetry_Int_Tables_number   1
_chemical_formula_structural   Mg3B11O24
_chemical_formula_sum   'Mg12 B44 O96'
_cell_volume   1641.18536413
_cell_formula_units_Z   4
loop_
 _symmetry_equiv_pos_site_id
 _symmetry_equiv_pos_as_xyz
  1  'x, y, z'
loop_
 _atom_site_type_symbol
 _atom_site_label
 _atom_site_symmetry_multiplicity
 _atom_site_fract_x
 _atom_site_fract_y
 _atom_site_fract_z
 _atom_site_occupancy
  Mg  Mg0  1  0.56228500  0.75000000  0.00000000  1
  Mg  Mg1  1  0.93771500  0.25000000  0.50000000  1
  Mg  Mg2  1  0.43771500  0.25000000  0.00000000  1
  Mg  Mg3  1  0.06228500  0.75000000  0.50000000  1
  Mg  Mg4  1  0.94050300  0.91327400  0.16770600  1
  Mg  Mg5  1  0.55949700  0.41327400  0.33229400  1
  Mg  Mg6  1  0.55949700  0.08672600  0.66770600  1
  Mg  Mg7  1  0.94050300  0.58672600  0.83229400  1
  Mg  Mg8  1  0.05949700  0.08672600  0.83229400  1
  Mg  Mg9  1  0.44050300  0.58672600  0.66770600  1
  Mg  Mg10  1  0.44050300  0.91327400  0.33229400  1
  Mg  Mg11  1  0.05949700  0.41327400  0.16770600  1
  B  B12  1  0.86019500  0.75000000  0.00000000  1
  B  B13  1  0.63980500  0.25000000  0.50000000  1
  B  B14  1  0.13980500  0.25000000  0.00000000  1
  B  B15  1  0.36019500  0.75000000  0.50000000  1
  B  B16  1  0.81387600  0.56935600  0.08695100  1
  B  B17  1  0.68612400  0.06935600  0.41304900  1
  B  B18  1  0.68612400  0.43064400  0.58695100  1
  B  B19  1  0.81387600  0.93064400  0.91304900  1
  B  B20  1  0.18612400  0.43064400  0.91304900  1
  B  B21  1  0.31387600  0.93064400  0.58695100  1
  B  B22  1  0.31387600  0.56935600  0.41304900  1
  B  B23  1  0.18612400  0.06935600  0.08695100  1
  B  B24  1  0.04270700  0.69879400  0.10415900  1
  B  B25  1  0.45729300  0.19879400  0.39584100  1
  B  B26  1  0.45729300  0.30120600  0.60415900  1
  B  B27  1  0.04270700  0.80120600  0.89584100  1
  B  B28  1  0.95729300  0.30120600  0.89584100  1
  B  B29  1  0.54270700  0.80120600  0.60415900  1
  B  B30  1  0.54270700  0.69879400  0.39584100  1
  B  B31  1  0.95729300  0.19879400  0.10415900  1
  B  B32  1  0.29898900  0.62189400  0.10220300  1
  B  B33  1  0.20101100  0.12189400  0.39779700  1
  B  B34  1  0.20101100  0.37810600  0.60220300  1
  B  B35  1  0.29898900  0.87810600  0.89779700  1
  B  B36  1  0.70101100  0.37810600  0.89779700  1
  B  B37  1  0.79898900  0.87810600  0.60220300  1
  B  B38  1  0.79898900  0.62189400  0.39779700  1
  B  B39  1  0.70101100  0.12189400  0.10220300  1
  B  B40  1  0.22198500  0.76183000  0.21084000  1
  B  B41  1  0.27801500  0.26183000  0.28916000  1
  B  B42  1  0.27801500  0.23817000  0.71084000  1
  B  B43  1  0.22198500  0.73817000  0.78916000  1
  B  B44  1  0.77801500  0.23817000  0.78916000  1
  B  B45  1  0.72198500  0.73817000  0.71084000  1
  B  B46  1  0.72198500  0.76183000  0.28916000  1
  B  B47  1  0.77801500  0.26183000  0.21084000  1
  B  B48  1  0.64334100  0.90814700  0.17641300  1
  B  B49  1  0.85665900  0.40814700  0.32358700  1
  B  B50  1  0.85665900  0.09185300  0.67641300  1
  B  B51  1  0.64334100  0.59185300  0.82358700  1
  B  B52  1  0.35665900  0.09185300  0.82358700  1
  B  B53  1  0.14334100  0.59185300  0.67641300  1
  B  B54  1  0.14334100  0.90814700  0.32358700  1
  B  B55  1  0.35665900  0.40814700  0.17641300  1
  O  O56  1  0.95035700  0.79216700  0.06720100  1
  O  O57  1  0.54964300  0.29216700  0.43279900  1
  O  O58  1  0.54964300  0.20783300  0.56720100  1
  O  O59  1  0.95035700  0.70783300  0.93279900  1
  O  O60  1  0.04964300  0.20783300  0.93279900  1
  O  O61  1  0.45035700  0.70783300  0.56720100  1
  O  O62  1  0.45035700  0.79216700  0.43279900  1
  O  O63  1  0.04964300  0.29216700  0.06720100  1
  O  O64  1  0.75979000  0.65093400  0.03032900  1
  O  O65  1  0.74021000  0.15093400  0.46967100  1
  O  O66  1  0.74021000  0.34906600  0.53032900  1
  O  O67  1  0.75979000  0.84906600  0.96967100  1
  O  O68  1  0.24021000  0.34906600  0.96967100  1
  O  O69  1  0.25979000  0.84906600  0.53032900  1
  O  O70  1  0.25979000  0.65093400  0.46967100  1
  O  O71  1  0.24021000  0.15093400  0.03032900  1
  O  O72  1  0.73685800  0.47934300  0.12489500  1
  O  O73  1  0.76314200  0.97934300  0.37510500  1
  O  O74  1  0.76314200  0.52065700  0.62489500  1
  O  O75  1  0.73685800  0.02065700  0.87510500  1
  O  O76  1  0.26314200  0.52065700  0.87510500  1
  O  O77  1  0.23685800  0.02065700  0.62489500  1
  O  O78  1  0.23685800  0.47934300  0.37510500  1
  O  O79  1  0.26314200  0.97934300  0.12489500  1
  O  O80  1  0.95865700  0.57564300  0.11441100  1
  O  O81  1  0.54134300  0.07564300  0.38558900  1
  O  O82  1  0.54134300  0.42435700  0.61441100  1
  O  O83  1  0.95865700  0.92435700  0.88558900  1
  O  O84  1  0.04134300  0.42435700  0.88558900  1
  O  O85  1  0.45865700  0.92435700  0.61441100  1
  O  O86  1  0.45865700  0.57564300  0.38558900  1
  O  O87  1  0.04134300  0.07564300  0.11441100  1
  O  O88  1  0.08061100  0.75465700  0.18271700  1
  O  O89  1  0.41938900  0.25465700  0.31728300  1
  O  O90  1  0.41938900  0.24534300  0.68271700  1
  O  O91  1  0.08061100  0.74534300  0.81728300  1
  O  O92  1  0.91938900  0.24534300  0.81728300  1
  O  O93  1  0.58061100  0.74534300  0.68271700  1
  O  O94  1  0.58061100  0.75465700  0.31728300  1
  O  O95  1  0.91938900  0.25465700  0.18271700  1
  O  O96  1  0.16819500  0.65994100  0.05706800  1
  O  O97  1  0.33180500  0.15994100  0.44293200  1
  O  O98  1  0.33180500  0.34005900  0.55706800  1
  O  O99  1  0.16819500  0.84005900  0.94293200  1
  O  O100  1  0.83180500  0.34005900  0.94293200  1
  O  O101  1  0.66819500  0.84005900  0.55706800  1
  O  O102  1  0.66819500  0.65994100  0.44293200  1
  O  O103  1  0.83180500  0.15994100  0.05706800  1
  O  O104  1  0.41819000  0.62701700  0.04613400  1
  O  O105  1  0.08181000  0.12701700  0.45386600  1
  O  O106  1  0.08181000  0.37298300  0.54613400  1
  O  O107  1  0.41819000  0.87298300  0.95386600  1
  O  O108  1  0.58181000  0.37298300  0.95386600  1
  O  O109  1  0.91819000  0.87298300  0.54613400  1
  O  O110  1  0.91819000  0.62701700  0.45386600  1
  O  O111  1  0.58181000  0.12701700  0.04613400  1
  O  O112  1  0.26106200  0.49522000  0.13235900  1
  O  O113  1  0.23893800  0.99522000  0.36764100  1
  O  O114  1  0.23893800  0.50478000  0.63235900  1
  O  O115  1  0.26106200  0.00478000  0.86764100  1
  O  O116  1  0.73893800  0.50478000  0.86764100  1
  O  O117  1  0.76106200  0.00478000  0.63235900  1
  O  O118  1  0.76106200  0.49522000  0.36764100  1
  O  O119  1  0.73893800  0.99522000  0.13235900  1
  O  O120  1  0.33067100  0.69807400  0.17370000  1
  O  O121  1  0.16932900  0.19807400  0.32630000  1
  O  O122  1  0.16932900  0.30192600  0.67370000  1
  O  O123  1  0.33067100  0.80192600  0.82630000  1
  O  O124  1  0.66932900  0.30192600  0.82630000  1
  O  O125  1  0.83067100  0.80192600  0.67370000  1
  O  O126  1  0.83067100  0.69807400  0.32630000  1
  O  O127  1  0.66932900  0.19807400  0.17370000  1
  O  O128  1  0.25175100  0.82966800  0.27976200  1
  O  O129  1  0.24824900  0.32966800  0.22023800  1
  O  O130  1  0.24824900  0.17033200  0.77976200  1
  O  O131  1  0.25175100  0.67033200  0.72023800  1
  O  O132  1  0.74824900  0.17033200  0.72023800  1
  O  O133  1  0.75175100  0.67033200  0.77976200  1
  O  O134  1  0.75175100  0.82966800  0.22023800  1
  O  O135  1  0.74824900  0.32966800  0.27976200  1
  O  O136  1  0.03371000  0.96298200  0.27528800  1
  O  O137  1  0.46629000  0.46298200  0.22471200  1
  O  O138  1  0.46629000  0.03701800  0.77528800  1
  O  O139  1  0.03371000  0.53701800  0.72471200  1
  O  O140  1  0.96629000  0.03701800  0.72471200  1
  O  O141  1  0.53371000  0.53701800  0.77528800  1
  O  O142  1  0.53371000  0.96298200  0.22471200  1
  O  O143  1  0.96629000  0.46298200  0.27528800  1
  O  O144  1  0.06695000  0.84382000  0.38699300  1
  O  O145  1  0.43305000  0.34382000  0.11300700  1
  O  O146  1  0.43305000  0.15618000  0.88699300  1
  O  O147  1  0.06695000  0.65618000  0.61300700  1
  O  O148  1  0.93305000  0.15618000  0.61300700  1
  O  O149  1  0.56695000  0.65618000  0.88699300  1
  O  O150  1  0.56695000  0.84382000  0.11300700  1
  O  O151  1  0.93305000  0.34382000  0.38699300  1
