# generated using pymatgen
data_RbSc(PO4)2
_symmetry_space_group_name_H-M   'P 1'
_cell_length_a   9.16710400
_cell_length_b   5.40120000
_cell_length_c   15.39408772
_cell_angle_alpha   86.54765613
_cell_angle_beta   90.00000000
_cell_angle_gamma   90.00000000
_symmetry_Int_Tables_number   1
_chemical_formula_structural   RbSc(PO4)2
_chemical_formula_sum   'Rb4 Sc4 P8 O32'
_cell_volume   760.82979893
_cell_formula_units_Z   4
loop_
 _symmetry_equiv_pos_site_id
 _symmetry_equiv_pos_as_xyz
  1  'x, y, z'
loop_
 _atom_site_type_symbol
 _atom_site_label
 _atom_site_symmetry_multiplicity
 _atom_site_fract_x
 _atom_site_fract_y
 _atom_site_fract_z
 _atom_site_occupancy
  Rb  Rb0  1  0.01853100  0.73489500  0.61208500  1
  Rb  Rb1  1  0.51853100  0.26510500  0.88791500  1
  Rb  Rb2  1  0.98146900  0.26510500  0.38791500  1
  Rb  Rb3  1  0.48146900  0.73489500  0.11208500  1
  Sc  Sc4  1  0.54219500  0.73930200  0.65295900  1
  Sc  Sc5  1  0.04219500  0.26069800  0.84704100  1
  Sc  Sc6  1  0.45780500  0.26069800  0.34704100  1
  Sc  Sc7  1  0.95780500  0.73930200  0.15295900  1
  P  P8  1  0.33634800  0.26611900  0.56558400  1
  P  P9  1  0.83634800  0.73388100  0.93441600  1
  P  P10  1  0.66365200  0.73388100  0.43441600  1
  P  P11  1  0.16365200  0.26611900  0.06558400  1
  P  P12  1  0.26344600  0.77844300  0.81583000  1
  P  P13  1  0.76344600  0.22155700  0.68417000  1
  P  P14  1  0.73655400  0.22155700  0.18417000  1
  P  P15  1  0.23655400  0.77844300  0.31583000  1
  O  O16  1  0.43502400  0.05939000  0.60572300  1
  O  O17  1  0.93502400  0.94061000  0.89427700  1
  O  O18  1  0.56497600  0.94061000  0.39427700  1
  O  O19  1  0.06497600  0.05939000  0.10572300  1
  O  O20  1  0.34215800  0.26554500  0.46516500  1
  O  O21  1  0.84215800  0.73445500  0.03483500  1
  O  O22  1  0.65784200  0.73445500  0.53483500  1
  O  O23  1  0.15784200  0.26554500  0.96516500  1
  O  O24  1  0.38531400  0.52354500  0.59310500  1
  O  O25  1  0.88531400  0.47645500  0.90689500  1
  O  O26  1  0.61468600  0.47645500  0.40689500  1
  O  O27  1  0.11468600  0.52354500  0.09310500  1
  O  O28  1  0.67660200  0.77957600  0.90684600  1
  O  O29  1  0.17660200  0.22042400  0.59315400  1
  O  O30  1  0.32339800  0.22042400  0.09315400  1
  O  O31  1  0.82339800  0.77957600  0.40684600  1
  O  O32  1  0.40075300  0.72816700  0.76042700  1
  O  O33  1  0.90075300  0.27183300  0.73957300  1
  O  O34  1  0.59924700  0.27183300  0.23957300  1
  O  O35  1  0.09924700  0.72816700  0.26042700  1
  O  O36  1  0.14748800  0.58231600  0.79760500  1
  O  O37  1  0.64748800  0.41768400  0.70239500  1
  O  O38  1  0.85251200  0.41768400  0.20239500  1
  O  O39  1  0.35251200  0.58231600  0.29760500  1
  O  O40  1  0.20377200  0.04158000  0.79421200  1
  O  O41  1  0.70377200  0.95842000  0.70578800  1
  O  O42  1  0.79622800  0.95842000  0.20578800  1
  O  O43  1  0.29622800  0.04158000  0.29421200  1
  O  O44  1  0.32602700  0.75649600  0.90958800  1
  O  O45  1  0.82602700  0.24350400  0.59041200  1
  O  O46  1  0.67397300  0.24350400  0.09041200  1
  O  O47  1  0.17397300  0.75649600  0.40958800  1
