# generated using pymatgen
data_SbN2Cl3F2
_symmetry_space_group_name_H-M   'P 1'
_cell_length_a   7.95677300
_cell_length_b   16.09442000
_cell_length_c   17.89760441
_cell_angle_alpha   58.02660688
_cell_angle_beta   90.00000000
_cell_angle_gamma   90.00000000
_symmetry_Int_Tables_number   1
_chemical_formula_structural   SbN2Cl3F2
_chemical_formula_sum   'Sb8 N16 Cl24 F16'
_cell_volume   1944.25687503
_cell_formula_units_Z   8
loop_
 _symmetry_equiv_pos_site_id
 _symmetry_equiv_pos_as_xyz
  1  'x, y, z'
loop_
 _atom_site_type_symbol
 _atom_site_label
 _atom_site_symmetry_multiplicity
 _atom_site_fract_x
 _atom_site_fract_y
 _atom_site_fract_z
 _atom_site_occupancy
  Sb  Sb0  1  0.85753600  0.54003800  0.13325800  1
  Sb  Sb1  1  0.35753600  0.45996200  0.36674200  1
  Sb  Sb2  1  0.14246400  0.45996200  0.86674200  1
  Sb  Sb3  1  0.64246400  0.54003800  0.63325800  1
  Sb  Sb4  1  0.84777500  0.97374900  0.16443100  1
  Sb  Sb5  1  0.34777500  0.02625100  0.33556900  1
  Sb  Sb6  1  0.15222500  0.02625100  0.83556900  1
  Sb  Sb7  1  0.65222500  0.97374900  0.66443100  1
  N  N8  1  0.73179300  0.64886500  0.36888100  1
  N  N9  1  0.23179300  0.35113500  0.13111900  1
  N  N10  1  0.26820700  0.35113500  0.63111900  1
  N  N11  1  0.76820700  0.64886500  0.86888100  1
  N  N12  1  0.78026000  0.20440100  0.28740500  1
  N  N13  1  0.28026000  0.79559900  0.21259500  1
  N  N14  1  0.21974000  0.79559900  0.71259500  1
  N  N15  1  0.71974000  0.20440100  0.78740500  1
  N  N16  1  0.81244100  0.30858500  0.49207200  1
  N  N17  1  0.31244100  0.69141500  0.00792800  1
  N  N18  1  0.18755900  0.69141500  0.50792800  1
  N  N19  1  0.68755900  0.30858500  0.99207200  1
  N  N20  1  0.74613200  0.86117300  0.00979800  1
  N  N21  1  0.24613200  0.13882700  0.49020200  1
  N  N22  1  0.25386800  0.13882700  0.99020200  1
  N  N23  1  0.75386800  0.86117300  0.50979800  1
  Cl  Cl24  1  0.95078700  0.40859200  0.27166300  1
  Cl  Cl25  1  0.45078700  0.59140800  0.22833700  1
  Cl  Cl26  1  0.04921300  0.59140800  0.72833700  1
  Cl  Cl27  1  0.54921300  0.40859200  0.77166300  1
  Cl  Cl28  1  0.94119600  0.65091400  0.17212100  1
  Cl  Cl29  1  0.44119600  0.34908600  0.32787900  1
  Cl  Cl30  1  0.05880400  0.34908600  0.82787900  1
  Cl  Cl31  1  0.55880400  0.65091400  0.67212100  1
  Cl  Cl32  1  0.67340200  0.43592600  0.12090400  1
  Cl  Cl33  1  0.17340200  0.56407400  0.37909600  1
  Cl  Cl34  1  0.32659800  0.56407400  0.87909600  1
  Cl  Cl35  1  0.82659800  0.43592600  0.62090400  1
  Cl  Cl36  1  0.93005900  0.11371200  0.16578600  1
  Cl  Cl37  1  0.43005900  0.88628800  0.33421400  1
  Cl  Cl38  1  0.06994100  0.88628800  0.83421400  1
  Cl  Cl39  1  0.56994100  0.11371200  0.66578600  1
  Cl  Cl40  1  0.82262400  0.06886500  0.54241200  1
  Cl  Cl41  1  0.32262400  0.93113500  0.95758800  1
  Cl  Cl42  1  0.17737600  0.93113500  0.45758800  1
  Cl  Cl43  1  0.67737600  0.06886500  0.04241200  1
  Cl  Cl44  1  0.92610800  0.87520400  0.31230500  1
  Cl  Cl45  1  0.42610800  0.12479600  0.18769500  1
  Cl  Cl46  1  0.07389200  0.12479600  0.68769500  1
  Cl  Cl47  1  0.57389200  0.87520400  0.81230500  1
  F  F48  1  0.53737900  0.45161500  0.43924900  1
  F  F49  1  0.03737900  0.54838500  0.06075100  1
  F  F50  1  0.46262100  0.54838500  0.56075100  1
  F  F51  1  0.96262100  0.45161500  0.93924900  1
  F  F52  1  0.72240000  0.64507200  0.04512300  1
  F  F53  1  0.22240000  0.35492800  0.45487700  1
  F  F54  1  0.27760000  0.35492800  0.95487700  1
  F  F55  1  0.77760000  0.64507200  0.54512300  1
  F  F56  1  0.53506300  0.04562900  0.38933200  1
  F  F57  1  0.03506300  0.95437100  0.11066800  1
  F  F58  1  0.46493700  0.95437100  0.61066800  1
  F  F59  1  0.96493700  0.04562900  0.88933200  1
  F  F60  1  0.71357700  0.86420900  0.18535300  1
  F  F61  1  0.21357700  0.13579100  0.31464700  1
  F  F62  1  0.28642300  0.13579100  0.81464700  1
  F  F63  1  0.78642300  0.86420900  0.68535300  1
