# generated using pymatgen
data_Pr6ZnFe13
_symmetry_space_group_name_H-M   'P 1'
_cell_length_a   8.09714900
_cell_length_b   8.09714900
_cell_length_c   12.91748298
_cell_angle_alpha   108.26535180
_cell_angle_beta   108.26535180
_cell_angle_gamma   90.00000000
_symmetry_Int_Tables_number   1
_chemical_formula_structural   Pr6ZnFe13
_chemical_formula_sum   'Pr12 Zn2 Fe26'
_cell_volume   759.18106521
_cell_formula_units_Z   2
loop_
 _symmetry_equiv_pos_site_id
 _symmetry_equiv_pos_as_xyz
  1  'x, y, z'
loop_
 _atom_site_type_symbol
 _atom_site_label
 _atom_site_symmetry_multiplicity
 _atom_site_fract_x
 _atom_site_fract_y
 _atom_site_fract_z
 _atom_site_occupancy
  Pr  Pr0  1  0.97636000  0.47636000  0.62487900  1
  Pr  Pr1  1  0.64852000  0.14852000  0.62487900  1
  Pr  Pr2  1  0.14852000  0.97636000  0.62487900  1
  Pr  Pr3  1  0.47636000  0.64852000  0.62487900  1
  Pr  Pr4  1  0.02364000  0.52364000  0.37512100  1
  Pr  Pr5  1  0.35148000  0.85148000  0.37512100  1
  Pr  Pr6  1  0.85148000  0.02364000  0.37512100  1
  Pr  Pr7  1  0.52364000  0.35148000  0.37512100  1
  Pr  Pr8  1  0.60711900  0.60711900  0.21423800  1
  Pr  Pr9  1  0.10711900  0.10711900  0.21423800  1
  Pr  Pr10  1  0.39288100  0.39288100  0.78576200  1
  Pr  Pr11  1  0.89288100  0.89288100  0.78576200  1
  Zn  Zn12  1  0.25000000  0.25000000  0.50000000  1
  Zn  Zn13  1  0.75000000  0.75000000  0.50000000  1
  Fe  Fe14  1  0.11932100  0.61932100  0.88167800  1
  Fe  Fe15  1  0.76235700  0.26235700  0.88167800  1
  Fe  Fe16  1  0.26235700  0.11932100  0.88167800  1
  Fe  Fe17  1  0.61932100  0.76235700  0.88167800  1
  Fe  Fe18  1  0.88067900  0.38067900  0.11832200  1
  Fe  Fe19  1  0.23764300  0.73764300  0.11832200  1
  Fe  Fe20  1  0.73764300  0.88067900  0.11832200  1
  Fe  Fe21  1  0.38067900  0.23764300  0.11832200  1
  Fe  Fe22  1  0.71032400  0.56645000  0.00000000  1
  Fe  Fe23  1  0.28967600  0.43355000  0.00000000  1
  Fe  Fe24  1  0.78967600  0.06645000  0.00000000  1
  Fe  Fe25  1  0.21032400  0.93355000  0.00000000  1
  Fe  Fe26  1  0.56645000  0.28967600  0.00000000  1
  Fe  Fe27  1  0.43355000  0.71032400  0.00000000  1
  Fe  Fe28  1  0.06645000  0.21032400  0.00000000  1
  Fe  Fe29  1  0.93355000  0.78967600  0.00000000  1
  Fe  Fe30  1  0.29200400  0.79200400  0.81087100  1
  Fe  Fe31  1  0.51886700  0.01886700  0.81087100  1
  Fe  Fe32  1  0.01886700  0.29200400  0.81087100  1
  Fe  Fe33  1  0.79200400  0.51886700  0.81087100  1
  Fe  Fe34  1  0.70799600  0.20799600  0.18912900  1
  Fe  Fe35  1  0.48113300  0.98113300  0.18912900  1
  Fe  Fe36  1  0.98113300  0.70799600  0.18912900  1
  Fe  Fe37  1  0.20799600  0.48113300  0.18912900  1
  Fe  Fe38  1  0.00000000  0.50000000  0.00000000  1
  Fe  Fe39  1  0.50000000  0.00000000  0.00000000  1
