# generated using pymatgen
data_Pr6Fe13Sn
_symmetry_space_group_name_H-M   'P 1'
_cell_length_a   13.17316724
_cell_length_b   13.17316724
_cell_length_c   13.17316724
_cell_angle_alpha   144.30086168
_cell_angle_beta   144.30086168
_cell_angle_gamma   51.37763533
_symmetry_Int_Tables_number   1
_chemical_formula_structural   Pr6Fe13Sn
_chemical_formula_sum   'Pr12 Fe26 Sn2'
_cell_volume   774.19057328
_cell_formula_units_Z   2
loop_
 _symmetry_equiv_pos_site_id
 _symmetry_equiv_pos_as_xyz
  1  'x, y, z'
loop_
 _atom_site_type_symbol
 _atom_site_label
 _atom_site_symmetry_multiplicity
 _atom_site_fract_x
 _atom_site_fract_y
 _atom_site_fract_z
 _atom_site_occupancy
  Pr  Pr0  1  0.60440600  0.60440600  0.00000000  1
  Pr  Pr1  1  0.10440600  0.10440600  0.00000000  1
  Pr  Pr2  1  0.39559400  0.39559400  0.00000000  1
  Pr  Pr3  1  0.89559400  0.89559400  0.00000000  1
  Pr  Pr4  1  0.47848400  0.97848400  0.82689300  1
  Pr  Pr5  1  0.15159100  0.65159100  0.17310700  1
  Pr  Pr6  1  0.97848400  0.15159100  0.50000000  1
  Pr  Pr7  1  0.65159100  0.47848400  0.50000000  1
  Pr  Pr8  1  0.52151600  0.02151600  0.17310700  1
  Pr  Pr9  1  0.84840900  0.34840900  0.82689300  1
  Pr  Pr10  1  0.02151600  0.84840900  0.50000000  1
  Pr  Pr11  1  0.34840900  0.52151600  0.50000000  1
  Fe  Fe12  1  0.50000000  0.00000000  0.50000000  1
  Fe  Fe13  1  0.00000000  0.50000000  0.50000000  1
  Fe  Fe14  1  0.56669200  0.71019200  0.27688400  1
  Fe  Fe15  1  0.43330800  0.28980800  0.72311600  1
  Fe  Fe16  1  0.06669200  0.78980800  0.85650000  1
  Fe  Fe17  1  0.93330800  0.21019200  0.14350000  1
  Fe  Fe18  1  0.28980800  0.56669200  0.85650000  1
  Fe  Fe19  1  0.71019200  0.43330800  0.14350000  1
  Fe  Fe20  1  0.21019200  0.06669200  0.27688400  1
  Fe  Fe21  1  0.78980800  0.93330800  0.72311600  1
  Fe  Fe22  1  0.62079200  0.12079200  0.85722700  1
  Fe  Fe23  1  0.26356500  0.76356500  0.14277300  1
  Fe  Fe24  1  0.12079200  0.26356500  0.50000000  1
  Fe  Fe25  1  0.76356500  0.62079200  0.50000000  1
  Fe  Fe26  1  0.37920800  0.87920800  0.14277300  1
  Fe  Fe27  1  0.73643500  0.23643500  0.85722700  1
  Fe  Fe28  1  0.87920800  0.73643500  0.50000000  1
  Fe  Fe29  1  0.23643500  0.37920800  0.50000000  1
  Fe  Fe30  1  0.79509800  0.29509800  0.27486900  1
  Fe  Fe31  1  0.02022900  0.52022900  0.72513100  1
  Fe  Fe32  1  0.29509800  0.02022900  0.50000000  1
  Fe  Fe33  1  0.52022900  0.79509800  0.50000000  1
  Fe  Fe34  1  0.20490200  0.70490200  0.72513100  1
  Fe  Fe35  1  0.97977100  0.47977100  0.27486900  1
  Fe  Fe36  1  0.70490200  0.97977100  0.50000000  1
  Fe  Fe37  1  0.47977100  0.20490200  0.50000000  1
  Sn  Sn38  1  0.25000000  0.25000000  0.00000000  1
  Sn  Sn39  1  0.75000000  0.75000000  0.00000000  1
