# generated using pymatgen
data_BiXeF7
_symmetry_space_group_name_H-M   'P 1'
_cell_length_a   10.42309600
_cell_length_b   5.55048300
_cell_length_c   12.98087662
_cell_angle_alpha   87.55870103
_cell_angle_beta   90.00000000
_cell_angle_gamma   90.00000000
_symmetry_Int_Tables_number   1
_chemical_formula_structural   BiXeF7
_chemical_formula_sum   'Bi4 Xe4 F28'
_cell_volume   750.30386934
_cell_formula_units_Z   4
loop_
 _symmetry_equiv_pos_site_id
 _symmetry_equiv_pos_as_xyz
  1  'x, y, z'
loop_
 _atom_site_type_symbol
 _atom_site_label
 _atom_site_symmetry_multiplicity
 _atom_site_fract_x
 _atom_site_fract_y
 _atom_site_fract_z
 _atom_site_occupancy
  Bi  Bi0  1  0.01633800  0.60895400  0.71929900  1
  Bi  Bi1  1  0.51633800  0.39104600  0.78070100  1
  Bi  Bi2  1  0.98366200  0.39104600  0.28070100  1
  Bi  Bi3  1  0.48366200  0.60895400  0.21929900  1
  Xe  Xe4  1  0.73946700  0.99965200  0.52708400  1
  Xe  Xe5  1  0.23946700  0.00034800  0.97291600  1
  Xe  Xe6  1  0.26053300  0.00034800  0.47291600  1
  Xe  Xe7  1  0.76053300  0.99965200  0.02708400  1
  F  F8  1  0.90424700  0.79242200  0.59289400  1
  F  F9  1  0.40424700  0.20757800  0.90710600  1
  F  F10  1  0.09575300  0.20757800  0.40710600  1
  F  F11  1  0.59575300  0.79242200  0.09289400  1
  F  F12  1  0.12067800  0.91884000  0.71930400  1
  F  F13  1  0.62067800  0.08116000  0.78069600  1
  F  F14  1  0.87932200  0.08116000  0.28069600  1
  F  F15  1  0.37932200  0.91884000  0.21930400  1
  F  F16  1  0.59672600  0.19463300  0.46190400  1
  F  F17  1  0.09672600  0.80536700  0.03809600  1
  F  F18  1  0.40327400  0.80536700  0.53809600  1
  F  F19  1  0.90327400  0.19463300  0.96190400  1
  F  F20  1  0.12841500  0.49999300  0.60225500  1
  F  F21  1  0.62841500  0.50000700  0.89774500  1
  F  F22  1  0.87158500  0.50000700  0.39774500  1
  F  F23  1  0.37158500  0.49999300  0.10225500  1
  F  F24  1  0.12369300  0.45488800  0.83445000  1
  F  F25  1  0.62369300  0.54511200  0.66555000  1
  F  F26  1  0.87630700  0.54511200  0.16555000  1
  F  F27  1  0.37630700  0.45488800  0.33445000  1
  F  F28  1  0.88902500  0.75210800  0.81804900  1
  F  F29  1  0.38902500  0.24789200  0.68195100  1
  F  F30  1  0.11097500  0.24789200  0.18195100  1
  F  F31  1  0.61097500  0.75210800  0.31804900  1
  F  F32  1  0.90192100  0.31959000  0.70000400  1
  F  F33  1  0.40192100  0.68041000  0.79999600  1
  F  F34  1  0.09807900  0.68041000  0.29999600  1
  F  F35  1  0.59807900  0.31959000  0.20000400  1
