# generated using pymatgen
data_Ca2Al4Si4H10O21
_symmetry_space_group_name_H-M   'P 1'
_cell_length_a   11.73915901
_cell_length_b   11.73915901
_cell_length_c   9.41330489
_cell_angle_alpha   88.62759026
_cell_angle_beta   88.62759026
_cell_angle_gamma   44.52430792
_symmetry_Int_Tables_number   1
_chemical_formula_structural   Ca2Al4Si4H10O21
_chemical_formula_sum   'Ca4 Al8 Si8 H20 O42'
_cell_volume   909.32645314
_cell_formula_units_Z   2
loop_
 _symmetry_equiv_pos_site_id
 _symmetry_equiv_pos_as_xyz
  1  'x, y, z'
loop_
 _atom_site_type_symbol
 _atom_site_label
 _atom_site_symmetry_multiplicity
 _atom_site_fract_x
 _atom_site_fract_y
 _atom_site_fract_z
 _atom_site_occupancy
  Ca  Ca0  1  0.84371600  0.44553200  0.04489700  1
  Ca  Ca1  1  0.55446800  0.15628400  0.45510300  1
  Ca  Ca2  1  0.15628400  0.55446800  0.95510300  1
  Ca  Ca3  1  0.44553200  0.84371600  0.54489700  1
  Al  Al4  1  0.96738300  0.80002200  0.60095900  1
  Al  Al5  1  0.19997800  0.03261700  0.89904100  1
  Al  Al6  1  0.03261700  0.19997800  0.39904100  1
  Al  Al7  1  0.80002200  0.96738300  0.10095900  1
  Al  Al8  1  0.11720400  0.48275400  0.28594100  1
  Al  Al9  1  0.51724600  0.88279600  0.21405900  1
  Al  Al10  1  0.88279600  0.51724600  0.71405900  1
  Al  Al11  1  0.48275400  0.11720300  0.78594100  1
  Si  Si12  1  0.11484900  0.75032800  0.29007200  1
  Si  Si13  1  0.24967200  0.88515100  0.20992800  1
  Si  Si14  1  0.88515100  0.24967200  0.70992800  1
  Si  Si15  1  0.75032800  0.11484900  0.79007200  1
  Si  Si16  1  0.76969700  0.74992800  0.46117500  1
  Si  Si17  1  0.25007200  0.23030300  0.03882500  1
  Si  Si18  1  0.23030300  0.25007200  0.53882500  1
  Si  Si19  1  0.74992800  0.76969700  0.96117500  1
  H  H20  1  0.93504100  0.15760000  0.14940200  1
  H  H21  1  0.84240000  0.06495900  0.35059800  1
  H  H22  1  0.06495900  0.84240000  0.85059800  1
  H  H23  1  0.15760000  0.93504100  0.64940200  1
  H  H24  1  0.81640400  0.19708300  0.03016300  1
  H  H25  1  0.80291700  0.18359600  0.46983700  1
  H  H26  1  0.18359600  0.80291700  0.96983700  1
  H  H27  1  0.19708300  0.81640400  0.53016300  1
  H  H28  1  0.89682600  0.46740600  0.32795800  1
  H  H29  1  0.53259400  0.10317400  0.17204200  1
  H  H30  1  0.10317400  0.53259400  0.67204200  1
  H  H31  1  0.46740600  0.89682600  0.82795800  1
  H  H32  1  0.42098900  0.47900600  0.09534700  1
  H  H33  1  0.52099400  0.57901100  0.40465300  1
  H  H34  1  0.57901100  0.52099400  0.90465300  1
  H  H35  1  0.47900600  0.42098900  0.59534700  1
  H  H36  1  0.53273700  0.31324300  0.01575400  1
  H  H37  1  0.68675700  0.46726300  0.48424600  1
  H  H38  1  0.46726300  0.68675700  0.98424600  1
  H  H39  1  0.31324300  0.53273700  0.51575400  1
  O  O40  1  0.94631300  0.91407200  0.21768500  1
  O  O41  1  0.08592800  0.05368700  0.28231500  1
  O  O42  1  0.05368700  0.08592800  0.78231500  1
  O  O43  1  0.91407200  0.94631300  0.71768500  1
  O  O44  1  0.10106800  0.75558500  0.46427300  1
  O  O45  1  0.24441500  0.89893200  0.03572700  1
  O  O46  1  0.89893200  0.24441500  0.53572700  1
  O  O47  1  0.75558500  0.10106800  0.96427300  1
  O  O48  1  0.16586400  0.58929000  0.23058600  1
  O  O49  1  0.41071000  0.83413600  0.26941400  1
  O  O50  1  0.83413600  0.41071000  0.76941400  1
  O  O51  1  0.58929000  0.16586400  0.73058600  1
  O  O52  1  0.86211700  0.79303500  0.02313600  1
  O  O53  1  0.20696500  0.13788300  0.47686400  1
  O  O54  1  0.13788300  0.20696500  0.97686400  1
  O  O55  1  0.79303500  0.86211700  0.52313600  1
  O  O56  1  0.25796300  0.32601000  0.40939400  1
  O  O57  1  0.67399000  0.74203700  0.09060600  1
  O  O58  1  0.74203700  0.67399000  0.59060600  1
  O  O59  1  0.32601000  0.25796300  0.90939400  1
  O  O60  1  0.92170000  0.60747400  0.35951600  1
  O  O61  1  0.39252600  0.07830000  0.14048400  1
  O  O62  1  0.07830000  0.39252600  0.64048400  1
  O  O63  1  0.60747400  0.92170000  0.85951600  1
  O  O64  1  0.12944900  0.40467100  0.12165700  1
  O  O65  1  0.59532900  0.87055100  0.37834300  1
  O  O66  1  0.87055100  0.59532900  0.87834300  1
  O  O67  1  0.40467100  0.12944900  0.62165700  1
  O  O68  1  0.26146400  0.73853600  0.25000000  1
  O  O69  1  0.73853600  0.26146400  0.75000000  1
  O  O70  1  0.91608700  0.37752000  0.28994600  1
  O  O71  1  0.62248000  0.08391300  0.21005400  1
  O  O72  1  0.08391300  0.62248000  0.71005400  1
  O  O73  1  0.37752000  0.91608700  0.78994600  1
  O  O74  1  0.42575600  0.42704500  0.01312400  1
  O  O75  1  0.57295500  0.57424400  0.48687600  1
  O  O76  1  0.57424400  0.57295500  0.98687600  1
  O  O77  1  0.42704500  0.42575600  0.51312400  1
  O  O78  1  0.85374300  0.23965200  0.07763100  1
  O  O79  1  0.76034800  0.14625700  0.42236900  1
  O  O80  1  0.14625700  0.76034800  0.92236900  1
  O  O81  1  0.23965200  0.85374300  0.57763100  1
