# generated using pymatgen
data_AlTeH6C2Cl3
_symmetry_space_group_name_H-M   'P 1'
_cell_length_a   6.64709200
_cell_length_b   11.05095000
_cell_length_c   14.00993400
_cell_angle_alpha   90.00000000
_cell_angle_beta   90.00000000
_cell_angle_gamma   90.00000000
_symmetry_Int_Tables_number   1
_chemical_formula_structural   AlTeH6C2Cl3
_chemical_formula_sum   'Al4 Te4 H24 C8 Cl12'
_cell_volume   1029.12325740
_cell_formula_units_Z   4
loop_
 _symmetry_equiv_pos_site_id
 _symmetry_equiv_pos_as_xyz
  1  'x, y, z'
loop_
 _atom_site_type_symbol
 _atom_site_label
 _atom_site_symmetry_multiplicity
 _atom_site_fract_x
 _atom_site_fract_y
 _atom_site_fract_z
 _atom_site_occupancy
  Al  Al0  1  0.54659600  0.25000000  0.56051700  1
  Al  Al1  1  0.45340400  0.75000000  0.43948300  1
  Al  Al2  1  0.54659600  0.75000000  0.93948300  1
  Al  Al3  1  0.45340400  0.25000000  0.06051700  1
  Te  Te4  1  0.63779900  0.25000000  0.36941400  1
  Te  Te5  1  0.36220100  0.75000000  0.63058600  1
  Te  Te6  1  0.63779900  0.75000000  0.13058600  1
  Te  Te7  1  0.36220100  0.25000000  0.86941400  1
  H  H8  1  0.95884200  0.38587700  0.42525000  1
  H  H9  1  0.04115800  0.88587700  0.57475000  1
  H  H10  1  0.95884200  0.61412300  0.07475000  1
  H  H11  1  0.04115800  0.11412300  0.92525000  1
  H  H12  1  0.04115800  0.61412300  0.57475000  1
  H  H13  1  0.95884200  0.11412300  0.42525000  1
  H  H14  1  0.04115800  0.38587700  0.92525000  1
  H  H15  1  0.95884200  0.88587700  0.07475000  1
  H  H16  1  0.77406600  0.47850500  0.36527500  1
  H  H17  1  0.22593400  0.97850500  0.63472500  1
  H  H18  1  0.77406600  0.52149500  0.13472500  1
  H  H19  1  0.22593400  0.02149500  0.86527500  1
  H  H20  1  0.22593400  0.52149500  0.63472500  1
  H  H21  1  0.77406600  0.02149500  0.36527500  1
  H  H22  1  0.22593400  0.47850500  0.86527500  1
  H  H23  1  0.77406600  0.97850500  0.13472500  1
  H  H24  1  0.93793700  0.38124800  0.29676400  1
  H  H25  1  0.06206300  0.88124800  0.70323600  1
  H  H26  1  0.93793700  0.61875200  0.20323600  1
  H  H27  1  0.06206300  0.11875200  0.79676400  1
  H  H28  1  0.06206300  0.61875200  0.70323600  1
  H  H29  1  0.93793700  0.11875200  0.29676400  1
  H  H30  1  0.06206300  0.38124800  0.79676400  1
  H  H31  1  0.93793700  0.88124800  0.20323600  1
  C  C32  1  0.85725100  0.39285700  0.36432300  1
  C  C33  1  0.14274900  0.89285700  0.63567700  1
  C  C34  1  0.85725100  0.60714300  0.13567700  1
  C  C35  1  0.14274900  0.10714300  0.86432300  1
  C  C36  1  0.14274900  0.60714300  0.63567700  1
  C  C37  1  0.85725100  0.10714300  0.36432300  1
  C  C38  1  0.14274900  0.39285700  0.86432300  1
  C  C39  1  0.85725100  0.89285700  0.13567700  1
  Cl  Cl40  1  0.22431800  0.25000000  0.57250400  1
  Cl  Cl41  1  0.77568200  0.75000000  0.42749600  1
  Cl  Cl42  1  0.22431800  0.75000000  0.92749600  1
  Cl  Cl43  1  0.77568200  0.25000000  0.07250400  1
  Cl  Cl44  1  0.66936700  0.08683900  0.61870000  1
  Cl  Cl45  1  0.33063300  0.58683900  0.38130000  1
  Cl  Cl46  1  0.66936700  0.91316100  0.88130000  1
  Cl  Cl47  1  0.33063300  0.41316100  0.11870000  1
  Cl  Cl48  1  0.33063300  0.91316100  0.38130000  1
  Cl  Cl49  1  0.66936700  0.41316100  0.61870000  1
  Cl  Cl50  1  0.33063300  0.08683900  0.11870000  1
  Cl  Cl51  1  0.66936700  0.58683900  0.88130000  1
