# generated using pymatgen
data_CdH12C4I2(NO)4
_symmetry_space_group_name_H-M   'P 1'
_cell_length_a   7.98244665
_cell_length_b   7.98244665
_cell_length_c   14.70014395
_cell_angle_alpha   99.19169349
_cell_angle_beta   99.19169349
_cell_angle_gamma   114.30952845
_symmetry_Int_Tables_number   1
_chemical_formula_structural   CdH12C4I2(NO)4
_chemical_formula_sum   'Cd2 H24 C8 I4 N8 O8'
_cell_volume   815.77174398
_cell_formula_units_Z   2
loop_
 _symmetry_equiv_pos_site_id
 _symmetry_equiv_pos_as_xyz
  1  'x, y, z'
loop_
 _atom_site_type_symbol
 _atom_site_label
 _atom_site_symmetry_multiplicity
 _atom_site_fract_x
 _atom_site_fract_y
 _atom_site_fract_z
 _atom_site_occupancy
  Cd  Cd0  1  0.80670800  0.30670800  0.50000000  1
  Cd  Cd1  1  0.55670800  0.55670800  0.00000000  1
  H  H2  1  0.48249000  0.99601100  0.73521100  1
  H  H3  1  0.26080000  0.74727800  0.26478900  1
  H  H4  1  0.24601100  0.23249000  0.23521100  1
  H  H5  1  0.99727800  0.01080000  0.76478900  1
  H  H6  1  0.70226800  0.06279000  0.81087100  1
  H  H7  1  0.25191900  0.89139700  0.18912900  1
  H  H8  1  0.31279000  0.45226800  0.31087100  1
  H  H9  1  0.14139700  0.00191900  0.68912900  1
  H  H10  1  0.38626500  0.62804500  0.51524900  1
  H  H11  1  0.11279600  0.87101600  0.48475100  1
  H  H12  1  0.87804500  0.13626500  0.01524900  1
  H  H13  1  0.12101600  0.86279600  0.98475100  1
  H  H14  1  0.53251400  0.80034800  0.46464500  1
  H  H15  1  0.33570300  0.06786900  0.53535500  1
  H  H16  1  0.05034800  0.28251400  0.96464500  1
  H  H17  1  0.31786900  0.08570300  0.03535500  1
  H  H18  1  0.86817200  0.21132100  0.70808100  1
  H  H19  1  0.50323900  0.16009100  0.29191900  1
  H  H20  1  0.46132100  0.61817200  0.20808100  1
  H  H21  1  0.41009100  0.25323900  0.79191900  1
  H  H22  1  0.73518200  0.66515100  0.45317200  1
  H  H23  1  0.21197900  0.28201000  0.54682800  1
  H  H24  1  0.91515100  0.48518200  0.95317200  1
  H  H25  1  0.53201000  0.96197900  0.04682800  1
  C  C26  1  0.71153900  0.14652600  0.68609100  1
  C  C27  1  0.46043500  0.02544800  0.31390900  1
  C  C28  1  0.39652600  0.46153900  0.18609100  1
  C  C29  1  0.27544800  0.21043500  0.81390900  1
  C  C30  1  0.61256100  0.59234600  0.48212300  1
  C  C31  1  0.11022300  0.13043900  0.51787700  1
  C  C32  1  0.84234600  0.36256100  0.98212300  1
  C  C33  1  0.38043900  0.86022300  0.01787700  1
  I  I34  1  0.11460800  0.58309200  0.65373100  1
  I  I35  1  0.92936100  0.46087700  0.34626900  1
  I  I36  1  0.83309200  0.86460800  0.15373100  1
  I  I37  1  0.71087700  0.67936100  0.84626900  1
  N  N38  1  0.62615600  0.07172400  0.75103000  1
  N  N39  1  0.32069400  0.87512700  0.24897000  1
  N  N40  1  0.32172400  0.37615600  0.25103000  1
  N  N41  1  0.12512700  0.07069400  0.74897000  1
  N  N42  1  0.49807700  0.67614900  0.48483200  1
  N  N43  1  0.19131700  0.01324500  0.51516800  1
  N  N44  1  0.92614900  0.24807700  0.98483200  1
  N  N45  1  0.26324500  0.94131700  0.01516800  1
  O  O46  1  0.62618100  0.14675400  0.60718900  1
  O  O47  1  0.53956500  0.01899200  0.39281100  1
  O  O48  1  0.39675400  0.37618100  0.10718900  1
  O  O49  1  0.26899200  0.28956500  0.89281100  1
  O  O50  1  0.58411000  0.44225800  0.50717000  1
  O  O51  1  0.93508800  0.07693900  0.49283000  1
  O  O52  1  0.69225800  0.33411000  0.00717000  1
  O  O53  1  0.32693900  0.68508800  0.99283000  1
