# generated using pymatgen
data_Si(PbO2)2
_symmetry_space_group_name_H-M   'P 1'
_cell_length_a   7.30053001
_cell_length_b   7.30053001
_cell_length_c   19.77426803
_cell_angle_alpha   83.81169678
_cell_angle_beta   83.81169678
_cell_angle_gamma   64.50874575
_symmetry_Int_Tables_number   1
_chemical_formula_structural   Si(PbO2)2
_chemical_formula_sum   'Si8 Pb16 O32'
_cell_volume   943.56530231
_cell_formula_units_Z   8
loop_
 _symmetry_equiv_pos_site_id
 _symmetry_equiv_pos_as_xyz
  1  'x, y, z'
loop_
 _atom_site_type_symbol
 _atom_site_label
 _atom_site_symmetry_multiplicity
 _atom_site_fract_x
 _atom_site_fract_y
 _atom_site_fract_z
 _atom_site_occupancy
  Si  Si0  1  0.04338700  0.96525600  0.41893800  1
  Si  Si1  1  0.03474400  0.95661300  0.58106200  1
  Si  Si2  1  0.46703100  0.54113900  0.41880600  1
  Si  Si3  1  0.45886100  0.53296900  0.58119400  1
  Si  Si4  1  0.29422600  0.71368200  0.91884300  1
  Si  Si5  1  0.28631800  0.70577400  0.08115700  1
  Si  Si6  1  0.71629500  0.29063100  0.91879100  1
  Si  Si7  1  0.70936900  0.28370500  0.08120900  1
  Pb  Pb8  1  0.76999400  0.76407000  0.09136300  1
  Pb  Pb9  1  0.23593000  0.23000600  0.90863700  1
  Pb  Pb10  1  0.22909300  0.23156600  0.09107500  1
  Pb  Pb11  1  0.76843400  0.77090700  0.90892500  1
  Pb  Pb12  1  0.88056700  0.87607100  0.24763100  1
  Pb  Pb13  1  0.12392900  0.11943300  0.75236900  1
  Pb  Pb14  1  0.38389800  0.36726400  0.25025400  1
  Pb  Pb15  1  0.63273600  0.61610200  0.74974600  1
  Pb  Pb16  1  0.98573800  0.47798800  0.59151100  1
  Pb  Pb17  1  0.52201200  0.01426200  0.40848900  1
  Pb  Pb18  1  0.51300400  0.00951900  0.59146900  1
  Pb  Pb19  1  0.99048100  0.48699600  0.40853100  1
  Pb  Pb20  1  0.13356200  0.62129900  0.75334100  1
  Pb  Pb21  1  0.37870100  0.86643800  0.24665900  1
  Pb  Pb22  1  0.63059900  0.12189200  0.74517900  1
  Pb  Pb23  1  0.87810800  0.36940100  0.25482100  1
  O  O24  1  0.04660000  0.53636200  0.29524800  1
  O  O25  1  0.46363800  0.95340000  0.70475200  1
  O  O26  1  0.53829700  0.03106300  0.29460700  1
  O  O27  1  0.96893700  0.46170300  0.70539300  1
  O  O28  1  0.08603300  0.14859600  0.37587700  1
  O  O29  1  0.85140400  0.91396700  0.62412300  1
  O  O30  1  0.65027100  0.58409000  0.37578200  1
  O  O31  1  0.41591000  0.34972900  0.62421800  1
  O  O32  1  0.87150200  0.91532500  0.38826700  1
  O  O33  1  0.08467500  0.12849800  0.61173300  1
  O  O34  1  0.41615600  0.36920500  0.38818600  1
  O  O35  1  0.63079500  0.58384400  0.61181400  1
  O  O36  1  0.25557900  0.75348500  0.41545200  1
  O  O37  1  0.24651500  0.74442100  0.58454800  1
  O  O38  1  0.98329000  0.01671000  0.50000000  1
  O  O39  1  0.51798900  0.48201100  0.50000000  1
  O  O40  1  0.29130000  0.28419600  0.79550000  1
  O  O41  1  0.71580400  0.70870000  0.20450000  1
  O  O42  1  0.79135100  0.78272700  0.79485200  1
  O  O43  1  0.21727300  0.20864900  0.20514800  1
  O  O44  1  0.33725900  0.89667400  0.87581400  1
  O  O45  1  0.10332600  0.66274100  0.12418600  1
  O  O46  1  0.89909100  0.33350900  0.87528700  1
  O  O47  1  0.66649100  0.10090900  0.12471300  1
  O  O48  1  0.12262700  0.66363400  0.88777400  1
  O  O49  1  0.33636600  0.87737300  0.11222600  1
  O  O50  1  0.66356100  0.11971400  0.88898500  1
  O  O51  1  0.88028600  0.33643900  0.11101500  1
  O  O52  1  0.50793700  0.50521600  0.91503200  1
  O  O53  1  0.49478400  0.49206300  0.08496800  1
  O  O54  1  0.23445800  0.76554200  0.00000000  1
  O  O55  1  0.76747700  0.23252300  0.00000000  1
