# generated using pymatgen
data_KPH3O4
_symmetry_space_group_name_H-M   'P 1'
_cell_length_a   9.03976500
_cell_length_b   6.81473700
_cell_length_c   14.47789166
_cell_angle_alpha   80.46703719
_cell_angle_beta   90.00000000
_cell_angle_gamma   90.00000000
_symmetry_Int_Tables_number   1
_chemical_formula_structural   KPH3O4
_chemical_formula_sum   'K8 P8 H24 O32'
_cell_volume   879.57397513
_cell_formula_units_Z   8
loop_
 _symmetry_equiv_pos_site_id
 _symmetry_equiv_pos_as_xyz
  1  'x, y, z'
loop_
 _atom_site_type_symbol
 _atom_site_label
 _atom_site_symmetry_multiplicity
 _atom_site_fract_x
 _atom_site_fract_y
 _atom_site_fract_z
 _atom_site_occupancy
  K  K0  1  0.61980200  0.58681900  0.32186800  1
  K  K1  1  0.11980200  0.91318100  0.67813200  1
  K  K2  1  0.38019800  0.41318100  0.67813200  1
  K  K3  1  0.88019800  0.08681900  0.32186800  1
  K  K4  1  0.33776100  0.88274400  0.12745100  1
  K  K5  1  0.83776100  0.61725600  0.87254900  1
  K  K6  1  0.66223900  0.11725600  0.87254900  1
  K  K7  1  0.16223900  0.38274400  0.12745100  1
  P  P8  1  0.55251300  0.85150100  0.51290900  1
  P  P9  1  0.05251300  0.64849900  0.48709100  1
  P  P10  1  0.44748700  0.14849900  0.48709100  1
  P  P11  1  0.94748700  0.35150100  0.51290900  1
  P  P12  1  0.56665700  0.43093500  0.06077100  1
  P  P13  1  0.06665700  0.06906500  0.93922900  1
  P  P14  1  0.43334300  0.56906500  0.93922900  1
  P  P15  1  0.93334300  0.93093500  0.06077100  1
  H  H16  1  0.34068500  0.69162600  0.48998100  1
  H  H17  1  0.84068500  0.80837400  0.51001900  1
  H  H18  1  0.65931500  0.30837400  0.51001900  1
  H  H19  1  0.15931500  0.19162600  0.48998100  1
  H  H20  1  0.67683600  0.71200000  0.08092500  1
  H  H21  1  0.17683600  0.78800000  0.91907500  1
  H  H22  1  0.32316400  0.28800000  0.91907500  1
  H  H23  1  0.82316400  0.21200000  0.08092500  1
  H  H24  1  0.56576100  0.10319200  0.20153000  1
  H  H25  1  0.06576100  0.39680800  0.79847000  1
  H  H26  1  0.43423900  0.89680800  0.79847000  1
  H  H27  1  0.93423900  0.60319200  0.20153000  1
  H  H28  1  0.54716700  0.04735000  0.30819800  1
  H  H29  1  0.04716700  0.45265000  0.69180200  1
  H  H30  1  0.45283300  0.95265000  0.69180200  1
  H  H31  1  0.95283300  0.54735000  0.30819800  1
  H  H32  1  0.33239400  0.43396300  0.31525800  1
  H  H33  1  0.83239400  0.06603700  0.68474200  1
  H  H34  1  0.66760600  0.56603700  0.68474200  1
  H  H35  1  0.16760600  0.93396300  0.31525800  1
  H  H36  1  0.21632100  0.60422500  0.31465500  1
  H  H37  1  0.71632100  0.89577500  0.68534500  1
  H  H38  1  0.78367900  0.39577500  0.68534500  1
  H  H39  1  0.28367900  0.10422500  0.31465500  1
  O  O40  1  0.70010500  0.86186800  0.46077400  1
  O  O41  1  0.20010500  0.63813200  0.53922600  1
  O  O42  1  0.29989500  0.13813200  0.53922600  1
  O  O43  1  0.79989500  0.36186800  0.46077400  1
  O  O44  1  0.55908100  0.77891700  0.61886800  1
  O  O45  1  0.05908100  0.72108300  0.38113200  1
  O  O46  1  0.44091900  0.22108300  0.38113200  1
  O  O47  1  0.94091900  0.27891700  0.61886800  1
  O  O48  1  0.44561500  0.72129100  0.46036700  1
  O  O49  1  0.94561500  0.77870900  0.53963300  1
  O  O50  1  0.55438500  0.27870900  0.53963300  1
  O  O51  1  0.05438500  0.22129100  0.46036700  1
  O  O52  1  0.47302400  0.27840400  0.12295700  1
  O  O53  1  0.97302400  0.22159600  0.87704300  1
  O  O54  1  0.52697600  0.72159600  0.87704300  1
  O  O55  1  0.02697600  0.77840400  0.12295700  1
  O  O56  1  0.71107300  0.35682700  0.02314700  1
  O  O57  1  0.21107300  0.14317300  0.97685300  1
  O  O58  1  0.28892700  0.64317300  0.97685300  1
  O  O59  1  0.78892700  0.85682700  0.02314700  1
  O  O60  1  0.59825200  0.61605900  0.11491700  1
  O  O61  1  0.09825200  0.88394100  0.88508300  1
  O  O62  1  0.40174800  0.38394100  0.88508300  1
  O  O63  1  0.90174800  0.11605900  0.11491700  1
  O  O64  1  0.59763900  0.00077100  0.25541000  1
  O  O65  1  0.09763900  0.49922900  0.74459000  1
  O  O66  1  0.40236100  0.99922900  0.74459000  1
  O  O67  1  0.90236100  0.50077100  0.25541000  1
  O  O68  1  0.29051200  0.55199400  0.27497200  1
  O  O69  1  0.79051200  0.94800600  0.72502800  1
  O  O70  1  0.70948800  0.44800600  0.72502800  1
  O  O71  1  0.20948800  0.05199400  0.27497200  1
