# generated using pymatgen
data_Ba2Y3Si2O8F5
_symmetry_space_group_name_H-M   'P 1'
_cell_length_a   5.15796700
_cell_length_b   8.99257000
_cell_length_c   12.80228700
_cell_angle_alpha   90.00000000
_cell_angle_beta   90.00000000
_cell_angle_gamma   90.00000000
_symmetry_Int_Tables_number   1
_chemical_formula_structural   Ba2Y3Si2O8F5
_chemical_formula_sum   'Ba4 Y6 Si4 O16 F10'
_cell_volume   593.81333389
_cell_formula_units_Z   2
loop_
 _symmetry_equiv_pos_site_id
 _symmetry_equiv_pos_as_xyz
  1  'x, y, z'
loop_
 _atom_site_type_symbol
 _atom_site_label
 _atom_site_symmetry_multiplicity
 _atom_site_fract_x
 _atom_site_fract_y
 _atom_site_fract_z
 _atom_site_occupancy
  Ba  Ba0  1  0.14126300  0.35207800  0.20784000  1
  Ba  Ba1  1  0.14126300  0.64792200  0.79216000  1
  Ba  Ba2  1  0.14126300  0.14792200  0.70784000  1
  Ba  Ba3  1  0.14126300  0.85207800  0.29216000  1
  Y  Y4  1  0.12930600  0.50000000  0.50000000  1
  Y  Y5  1  0.12930600  0.00000000  0.00000000  1
  Y  Y6  1  0.69161300  0.32302600  0.93959400  1
  Y  Y7  1  0.69161300  0.67697400  0.06040600  1
  Y  Y8  1  0.69161300  0.17697400  0.43959400  1
  Y  Y9  1  0.69161300  0.82302600  0.56040600  1
  Si  Si10  1  0.69599200  0.42631700  0.65732900  1
  Si  Si11  1  0.69599200  0.57368300  0.34267100  1
  Si  Si12  1  0.69599200  0.07368300  0.15732900  1
  Si  Si13  1  0.69599200  0.92631700  0.84267100  1
  O  O14  1  0.38204300  0.42201200  0.64253400  1
  O  O15  1  0.38204300  0.57798800  0.35746600  1
  O  O16  1  0.38204300  0.07798800  0.14253400  1
  O  O17  1  0.38204300  0.92201200  0.85746600  1
  O  O18  1  0.85280700  0.18583500  0.07478100  1
  O  O19  1  0.85280700  0.81416500  0.92521900  1
  O  O20  1  0.85280700  0.31416500  0.57478100  1
  O  O21  1  0.85280700  0.68583500  0.42521900  1
  O  O22  1  0.82046200  0.09037300  0.87392500  1
  O  O23  1  0.82046200  0.90962700  0.12607500  1
  O  O24  1  0.82046200  0.40962700  0.37392500  1
  O  O25  1  0.82046200  0.59037300  0.62607500  1
  O  O26  1  0.79850400  0.38019700  0.77437200  1
  O  O27  1  0.79850400  0.61980300  0.22562800  1
  O  O28  1  0.79850400  0.11980300  0.27437200  1
  O  O29  1  0.79850400  0.88019700  0.72562800  1
  F  F30  1  0.97667100  0.50000000  0.00000000  1
  F  F31  1  0.97667100  0.00000000  0.50000000  1
  F  F32  1  0.52368300  0.43755000  0.08959500  1
  F  F33  1  0.52368300  0.56245000  0.91040500  1
  F  F34  1  0.52368300  0.06245000  0.58959500  1
  F  F35  1  0.52368300  0.93755000  0.41040500  1
  F  F36  1  0.29469500  0.22861900  0.92405200  1
  F  F37  1  0.29469500  0.77138100  0.07594800  1
  F  F38  1  0.29469500  0.27138100  0.42405200  1
  F  F39  1  0.29469500  0.72861900  0.57594800  1
