# generated using pymatgen
data_YMg14NbO16
_symmetry_space_group_name_H-M   'P 1'
_cell_length_a   4.41198300
_cell_length_b   8.70259700
_cell_length_c   8.78044300
_cell_angle_alpha   90.00000000
_cell_angle_beta   90.00000000
_cell_angle_gamma   90.00000000
_symmetry_Int_Tables_number   1
_chemical_formula_structural   YMg14NbO16
_chemical_formula_sum   'Y1 Mg14 Nb1 O16'
_cell_volume   337.13134327
_cell_formula_units_Z   1
loop_
 _symmetry_equiv_pos_site_id
 _symmetry_equiv_pos_as_xyz
  1  'x, y, z'
loop_
 _atom_site_type_symbol
 _atom_site_label
 _atom_site_symmetry_multiplicity
 _atom_site_fract_x
 _atom_site_fract_y
 _atom_site_fract_z
 _atom_site_occupancy
  Y  Y0  1  0.00000000  0.00000000  0.00000000  1
  Mg  Mg1  1  0.00000000  0.50000000  0.00000000  1
  Mg  Mg2  1  0.00000000  0.50000000  0.50000000  1
  Mg  Mg3  1  0.50000000  0.00000000  0.26041700  1
  Mg  Mg4  1  0.50000000  0.00000000  0.73958300  1
  Mg  Mg5  1  0.50000000  0.50000000  0.25213100  1
  Mg  Mg6  1  0.50000000  0.50000000  0.74786900  1
  Mg  Mg7  1  0.50000000  0.26229300  0.00000000  1
  Mg  Mg8  1  0.50000000  0.25411100  0.50000000  1
  Mg  Mg9  1  0.50000000  0.73770700  0.00000000  1
  Mg  Mg10  1  0.50000000  0.74588900  0.50000000  1
  Mg  Mg11  1  0.00000000  0.25827000  0.25604800  1
  Mg  Mg12  1  0.00000000  0.25827000  0.74395200  1
  Mg  Mg13  1  0.00000000  0.74173000  0.25604800  1
  Mg  Mg14  1  0.00000000  0.74173000  0.74395200  1
  Nb  Nb15  1  0.00000000  0.00000000  0.50000000  1
  O  O16  1  0.00000000  0.26123800  0.00000000  1
  O  O17  1  0.00000000  0.26499800  0.50000000  1
  O  O18  1  0.00000000  0.73876200  0.00000000  1
  O  O19  1  0.00000000  0.73500200  0.50000000  1
  O  O20  1  0.50000000  0.24995500  0.24880100  1
  O  O21  1  0.50000000  0.24995500  0.75119900  1
  O  O22  1  0.50000000  0.75004500  0.24880100  1
  O  O23  1  0.50000000  0.75004500  0.75119900  1
  O  O24  1  0.50000000  0.00000000  0.00000000  1
  O  O25  1  0.50000000  0.00000000  0.50000000  1
  O  O26  1  0.50000000  0.50000000  0.00000000  1
  O  O27  1  0.50000000  0.50000000  0.50000000  1
  O  O28  1  0.00000000  0.00000000  0.24772700  1
  O  O29  1  0.00000000  0.00000000  0.75227300  1
  O  O30  1  0.00000000  0.50000000  0.24905000  1
  O  O31  1  0.00000000  0.50000000  0.75095000  1
