# generated using pymatgen
data_Bi2O3
_symmetry_space_group_name_H-M   'P 1'
_cell_length_a   7.38006900
_cell_length_b   9.43773700
_cell_length_c   10.32733927
_cell_angle_alpha   76.67909789
_cell_angle_beta   90.00000000
_cell_angle_gamma   90.00000000
_symmetry_Int_Tables_number   1
_chemical_formula_structural   Bi2O3
_chemical_formula_sum   'Bi16 O24'
_cell_volume   699.95791120
_cell_formula_units_Z   8
loop_
 _symmetry_equiv_pos_site_id
 _symmetry_equiv_pos_as_xyz
  1  'x, y, z'
loop_
 _atom_site_type_symbol
 _atom_site_label
 _atom_site_symmetry_multiplicity
 _atom_site_fract_x
 _atom_site_fract_y
 _atom_site_fract_z
 _atom_site_occupancy
  Bi  Bi0  1  0.90156100  0.71565700  0.92811800  1
  Bi  Bi1  1  0.40156100  0.28434300  0.57188200  1
  Bi  Bi2  1  0.09843900  0.28434300  0.07188200  1
  Bi  Bi3  1  0.59843900  0.71565700  0.42811800  1
  Bi  Bi4  1  0.40471500  0.08043100  0.32123500  1
  Bi  Bi5  1  0.90471500  0.91956900  0.17876500  1
  Bi  Bi6  1  0.59528500  0.91956900  0.67876500  1
  Bi  Bi7  1  0.09528500  0.08043100  0.82123500  1
  Bi  Bi8  1  0.12258100  0.57445000  0.33684600  1
  Bi  Bi9  1  0.62258100  0.42555000  0.16315400  1
  Bi  Bi10  1  0.87741900  0.42555000  0.66315400  1
  Bi  Bi11  1  0.37741900  0.57445000  0.83684600  1
  Bi  Bi12  1  0.37886600  0.78725800  0.06832400  1
  Bi  Bi13  1  0.87886600  0.21274200  0.43167600  1
  Bi  Bi14  1  0.62113400  0.21274200  0.93167600  1
  Bi  Bi15  1  0.12113400  0.78725800  0.56832400  1
  O  O16  1  0.36602600  0.56383900  0.17888200  1
  O  O17  1  0.86602600  0.43616100  0.32111800  1
  O  O18  1  0.63397400  0.43616100  0.82111800  1
  O  O19  1  0.13397400  0.56383900  0.67888200  1
  O  O20  1  0.34627100  0.07372400  0.53193800  1
  O  O21  1  0.84627100  0.92627600  0.96806200  1
  O  O22  1  0.65372900  0.92627600  0.46806200  1
  O  O23  1  0.15372900  0.07372400  0.03193800  1
  O  O24  1  0.94995800  0.27522300  0.84566500  1
  O  O25  1  0.44995800  0.72477700  0.65433500  1
  O  O26  1  0.05004200  0.72477700  0.15433500  1
  O  O27  1  0.55004200  0.27522300  0.34566500  1
  O  O28  1  0.19750100  0.77419500  0.88698000  1
  O  O29  1  0.69750100  0.22580500  0.61302000  1
  O  O30  1  0.80249900  0.22580500  0.11302000  1
  O  O31  1  0.30249900  0.77419500  0.38698000  1
  O  O32  1  0.93615700  0.71585000  0.42713800  1
  O  O33  1  0.43615700  0.28415000  0.07286200  1
  O  O34  1  0.06384300  0.28415000  0.57286200  1
  O  O35  1  0.56384300  0.71585000  0.92713800  1
  O  O36  1  0.86193800  0.81230200  0.71785700  1
  O  O37  1  0.36193800  0.18769800  0.78214300  1
  O  O38  1  0.13806200  0.18769800  0.28214300  1
  O  O39  1  0.63806200  0.81230200  0.21785700  1
