# generated using pymatgen
data_MnCu2P2O9
_symmetry_space_group_name_H-M   'P 1'
_cell_length_a   5.46102100
_cell_length_b   6.11542200
_cell_length_c   20.68776101
_cell_angle_alpha   90.00000000
_cell_angle_beta   101.36848333
_cell_angle_gamma   90.00000000
_symmetry_Int_Tables_number   1
_chemical_formula_structural   MnCu2P2O9
_chemical_formula_sum   'Mn4 Cu8 P8 O36'
_cell_volume   677.34214893
_cell_formula_units_Z   4
loop_
 _symmetry_equiv_pos_site_id
 _symmetry_equiv_pos_as_xyz
  1  'x, y, z'
loop_
 _atom_site_type_symbol
 _atom_site_label
 _atom_site_symmetry_multiplicity
 _atom_site_fract_x
 _atom_site_fract_y
 _atom_site_fract_z
 _atom_site_occupancy
  Mn  Mn0  1  0.35945000  0.93110700  0.85590700  1
  Mn  Mn1  1  0.35945000  0.56889300  0.35590700  1
  Mn  Mn2  1  0.64055000  0.06889300  0.14409300  1
  Mn  Mn3  1  0.64055000  0.43110700  0.64409300  1
  Cu  Cu4  1  0.72231600  0.25589000  0.92875900  1
  Cu  Cu5  1  0.72231600  0.24411000  0.42875900  1
  Cu  Cu6  1  0.27768400  0.74411000  0.07124100  1
  Cu  Cu7  1  0.27768400  0.75589000  0.57124100  1
  Cu  Cu8  1  0.76711800  0.57575800  0.80810900  1
  Cu  Cu9  1  0.76711800  0.92424200  0.30810900  1
  Cu  Cu10  1  0.23288200  0.42424200  0.19189100  1
  Cu  Cu11  1  0.23288200  0.07575800  0.69189100  1
  P  P12  1  0.18293100  0.58714600  0.73034900  1
  P  P13  1  0.18293100  0.91285400  0.23034900  1
  P  P14  1  0.81706900  0.41285400  0.26965100  1
  P  P15  1  0.81706900  0.08714600  0.76965100  1
  P  P16  1  0.90033700  0.76303000  0.94568300  1
  P  P17  1  0.90033700  0.73697000  0.44568300  1
  P  P18  1  0.09966300  0.23697000  0.05431700  1
  P  P19  1  0.09966300  0.26303000  0.55431700  1
  O  O20  1  0.29685100  0.63570500  0.80311900  1
  O  O21  1  0.29685100  0.86429500  0.30311900  1
  O  O22  1  0.70314900  0.36429500  0.19688100  1
  O  O23  1  0.70314900  0.13570500  0.69688100  1
  O  O24  1  0.30828100  0.38640300  0.70396100  1
  O  O25  1  0.30828100  0.11359700  0.20396100  1
  O  O26  1  0.69171900  0.61359700  0.29603900  1
  O  O27  1  0.69171900  0.88640300  0.79603900  1
  O  O28  1  0.21334600  0.76999700  0.68112900  1
  O  O29  1  0.21334600  0.73000300  0.18112900  1
  O  O30  1  0.78665400  0.23000300  0.31887100  1
  O  O31  1  0.78665400  0.26999700  0.81887100  1
  O  O32  1  0.89420800  0.54470700  0.72511800  1
  O  O33  1  0.89420800  0.95529300  0.22511800  1
  O  O34  1  0.10579200  0.45529300  0.27488200  1
  O  O35  1  0.10579200  0.04470700  0.77488200  1
  O  O36  1  0.95430300  0.71949900  0.02056400  1
  O  O37  1  0.95430300  0.78050100  0.52056400  1
  O  O38  1  0.04569700  0.28050100  0.97943600  1
  O  O39  1  0.04569700  0.21949900  0.47943600  1
  O  O40  1  0.74140300  0.56877600  0.90652800  1
  O  O41  1  0.74140300  0.93122400  0.40652800  1
  O  O42  1  0.25859700  0.43122400  0.09347200  1
  O  O43  1  0.25859700  0.06877600  0.59347200  1
  O  O44  1  0.12972000  0.81704000  0.91841800  1
  O  O45  1  0.12972000  0.68296000  0.41841800  1
  O  O46  1  0.87028000  0.18296000  0.08158200  1
  O  O47  1  0.87028000  0.31704000  0.58158200  1
  O  O48  1  0.68750100  0.94535300  0.93288000  1
  O  O49  1  0.68750100  0.55464700  0.43288000  1
  O  O50  1  0.31249900  0.05464700  0.06712000  1
  O  O51  1  0.31249900  0.44535300  0.56712000  1
  O  O52  1  0.59805000  0.71914700  0.61460100  1
  O  O53  1  0.59805000  0.78085300  0.11460100  1
  O  O54  1  0.40195000  0.28085300  0.38539900  1
  O  O55  1  0.40195000  0.21914700  0.88539900  1
