# generated using pymatgen
data_Sm6Al43Mo4
_symmetry_space_group_name_H-M   'P 1'
_cell_length_a   11.07514978
_cell_length_b   11.07514978
_cell_length_c   17.74584700
_cell_angle_alpha   90.00000000
_cell_angle_beta   90.00000000
_cell_angle_gamma   119.99999870
_symmetry_Int_Tables_number   1
_chemical_formula_structural   Sm6Al43Mo4
_chemical_formula_sum   'Sm12 Al86 Mo8'
_cell_volume   1885.06611599
_cell_formula_units_Z   2
loop_
 _symmetry_equiv_pos_site_id
 _symmetry_equiv_pos_as_xyz
  1  'x, y, z'
loop_
 _atom_site_type_symbol
 _atom_site_label
 _atom_site_symmetry_multiplicity
 _atom_site_fract_x
 _atom_site_fract_y
 _atom_site_fract_z
 _atom_site_occupancy
  Sm  Sm0  1  0.46996500  0.46996500  0.90477700  1
  Sm  Sm1  1  0.53003500  0.00000000  0.90477700  1
  Sm  Sm2  1  0.00000000  0.53003500  0.90477700  1
  Sm  Sm3  1  0.53003500  0.53003500  0.09522300  1
  Sm  Sm4  1  0.46996500  0.00000000  0.09522300  1
  Sm  Sm5  1  0.00000000  0.46996500  0.09522300  1
  Sm  Sm6  1  0.53003500  0.53003500  0.40477700  1
  Sm  Sm7  1  0.46996500  0.00000000  0.40477700  1
  Sm  Sm8  1  0.00000000  0.46996500  0.40477700  1
  Sm  Sm9  1  0.46996500  0.46996500  0.59522300  1
  Sm  Sm10  1  0.53003500  0.00000000  0.59522300  1
  Sm  Sm11  1  0.00000000  0.53003500  0.59522300  1
  Al  Al12  1  0.84176500  0.23507300  0.83541900  1
  Al  Al13  1  0.76492700  0.60669200  0.83541900  1
  Al  Al14  1  0.39330800  0.15823500  0.83541900  1
  Al  Al15  1  0.23507300  0.84176500  0.83541900  1
  Al  Al16  1  0.60669200  0.76492700  0.83541900  1
  Al  Al17  1  0.15823500  0.39330800  0.83541900  1
  Al  Al18  1  0.15823500  0.76492700  0.16458100  1
  Al  Al19  1  0.23507300  0.39330800  0.16458100  1
  Al  Al20  1  0.60669200  0.84176500  0.16458100  1
  Al  Al21  1  0.76492700  0.15823500  0.16458100  1
  Al  Al22  1  0.39330800  0.23507300  0.16458100  1
  Al  Al23  1  0.84176500  0.60669200  0.16458100  1
  Al  Al24  1  0.15823500  0.76492700  0.33541900  1
  Al  Al25  1  0.23507300  0.39330800  0.33541900  1
  Al  Al26  1  0.60669200  0.84176500  0.33541900  1
  Al  Al27  1  0.76492700  0.15823500  0.33541900  1
  Al  Al28  1  0.39330800  0.23507300  0.33541900  1
  Al  Al29  1  0.84176500  0.60669200  0.33541900  1
  Al  Al30  1  0.84176500  0.23507300  0.66458100  1
  Al  Al31  1  0.76492700  0.60669200  0.66458100  1
  Al  Al32  1  0.39330800  0.15823500  0.66458100  1
  Al  Al33  1  0.23507300  0.84176500  0.66458100  1
  Al  Al34  1  0.60669200  0.76492700  0.66458100  1
  Al  Al35  1  0.15823500  0.39330800  0.66458100  1
  Al  Al36  1  0.84262500  0.84262500  0.38435300  1
  Al  Al37  1  0.15737500  0.00000000  0.38435300  1
  Al  Al38  1  0.00000000  0.15737500  0.38435300  1
  Al  Al39  1  0.15737500  0.15737500  0.61564700  1
  Al  Al40  1  0.84262500  0.00000000  0.61564700  1
  Al  Al41  1  0.00000000  0.84262500  0.61564700  1
  Al  Al42  1  0.15737500  0.15737500  0.88435300  1
  Al  Al43  1  0.84262500  0.00000000  0.88435300  1
  Al  Al44  1  0.00000000  0.84262500  0.88435300  1
  Al  Al45  1  0.84262500  0.84262500  0.11564700  1
  Al  Al46  1  0.15737500  0.00000000  0.11564700  1
  Al  Al47  1  0.00000000  0.15737500  0.11564700  1
  Al  Al48  1  0.74837700  0.74837700  0.96880600  1
  Al  Al49  1  0.25162300  0.00000000  0.96880600  1
  Al  Al50  1  0.00000000  0.25162300  0.96880600  1
  Al  Al51  1  0.25162300  0.25162300  0.03119400  1
  Al  Al52  1  0.74837700  0.00000000  0.03119400  1
  Al  Al53  1  0.00000000  0.74837700  0.03119400  1
  Al  Al54  1  0.25162300  0.25162300  0.46880600  1
  Al  Al55  1  0.74837700  0.00000000  0.46880600  1
  Al  Al56  1  0.00000000  0.74837700  0.46880600  1
  Al  Al57  1  0.74837700  0.74837700  0.53119400  1
  Al  Al58  1  0.25162300  0.00000000  0.53119400  1
  Al  Al59  1  0.00000000  0.25162300  0.53119400  1
  Al  Al60  1  0.85227400  0.44850800  0.75000000  1
  Al  Al61  1  0.55149200  0.40376700  0.75000000  1
  Al  Al62  1  0.59623300  0.14772600  0.75000000  1
  Al  Al63  1  0.44850800  0.85227400  0.75000000  1
  Al  Al64  1  0.40376700  0.55149200  0.75000000  1
  Al  Al65  1  0.14772600  0.59623300  0.75000000  1
  Al  Al66  1  0.14772600  0.55149200  0.25000000  1
  Al  Al67  1  0.44850800  0.59623300  0.25000000  1
  Al  Al68  1  0.40376700  0.85227400  0.25000000  1
  Al  Al69  1  0.55149200  0.14772600  0.25000000  1
  Al  Al70  1  0.59623300  0.44850800  0.25000000  1
  Al  Al71  1  0.85227400  0.40376700  0.25000000  1
  Al  Al72  1  0.75296500  0.24703500  0.00000000  1
  Al  Al73  1  0.75296500  0.50593100  0.00000000  1
  Al  Al74  1  0.49406900  0.24703500  0.00000000  1
  Al  Al75  1  0.24703500  0.75296500  0.00000000  1
  Al  Al76  1  0.50593100  0.75296500  0.00000000  1
  Al  Al77  1  0.24703500  0.49406900  0.00000000  1
  Al  Al78  1  0.24703500  0.75296500  0.50000000  1
  Al  Al79  1  0.24703500  0.49406900  0.50000000  1
  Al  Al80  1  0.50593100  0.75296500  0.50000000  1
  Al  Al81  1  0.75296500  0.24703500  0.50000000  1
  Al  Al82  1  0.49406900  0.24703500  0.50000000  1
  Al  Al83  1  0.75296500  0.50593100  0.50000000  1
  Al  Al84  1  0.66666700  0.33333300  0.87305700  1
  Al  Al85  1  0.33333300  0.66666700  0.87305700  1
  Al  Al86  1  0.33333300  0.66666700  0.12694300  1
  Al  Al87  1  0.66666700  0.33333300  0.12694300  1
  Al  Al88  1  0.33333300  0.66666700  0.37305700  1
  Al  Al89  1  0.66666700  0.33333300  0.37305700  1
  Al  Al90  1  0.66666700  0.33333300  0.62694300  1
  Al  Al91  1  0.33333300  0.66666700  0.62694300  1
  Al  Al92  1  0.85393300  0.85393300  0.75000000  1
  Al  Al93  1  0.14606700  0.00000000  0.75000000  1
  Al  Al94  1  0.00000000  0.14606700  0.75000000  1
  Al  Al95  1  0.14606700  0.14606700  0.25000000  1
  Al  Al96  1  0.85393300  0.00000000  0.25000000  1
  Al  Al97  1  0.00000000  0.85393300  0.25000000  1
  Mo  Mo98  1  0.26933000  0.26933000  0.75000000  1
  Mo  Mo99  1  0.73067000  0.00000000  0.75000000  1
  Mo  Mo100  1  0.00000000  0.73067000  0.75000000  1
  Mo  Mo101  1  0.73067000  0.73067000  0.25000000  1
  Mo  Mo102  1  0.26933000  0.00000000  0.25000000  1
  Mo  Mo103  1  0.00000000  0.26933000  0.25000000  1
  Mo  Mo104  1  0.00000000  0.00000000  0.00000000  1
  Mo  Mo105  1  0.00000000  0.00000000  0.50000000  1
