# generated using pymatgen
data_Pb2C(SO3)2
_symmetry_space_group_name_H-M   'P 1'
_cell_length_a   4.67669100
_cell_length_b   8.90765800
_cell_length_c   16.58272800
_cell_angle_alpha   90.00000000
_cell_angle_beta   90.00000000
_cell_angle_gamma   90.00000000
_symmetry_Int_Tables_number   1
_chemical_formula_structural   Pb2C(SO3)2
_chemical_formula_sum   'Pb8 C4 S8 O24'
_cell_volume   690.80931913
_cell_formula_units_Z   4
loop_
 _symmetry_equiv_pos_site_id
 _symmetry_equiv_pos_as_xyz
  1  'x, y, z'
loop_
 _atom_site_type_symbol
 _atom_site_label
 _atom_site_symmetry_multiplicity
 _atom_site_fract_x
 _atom_site_fract_y
 _atom_site_fract_z
 _atom_site_occupancy
  Pb  Pb0  1  0.41453600  0.98595900  0.13653800  1
  Pb  Pb1  1  0.08546400  0.51404100  0.63653800  1
  Pb  Pb2  1  0.58546400  0.48595900  0.86346200  1
  Pb  Pb3  1  0.91453600  0.01404100  0.36346200  1
  Pb  Pb4  1  0.58546400  0.01404100  0.86346200  1
  Pb  Pb5  1  0.91453600  0.48595900  0.36346200  1
  Pb  Pb6  1  0.41453600  0.51404100  0.13653800  1
  Pb  Pb7  1  0.08546400  0.98595900  0.63653800  1
  C  C8  1  0.62135200  0.75000000  0.71227600  1
  C  C9  1  0.87864800  0.75000000  0.21227600  1
  C  C10  1  0.37864800  0.25000000  0.28772400  1
  C  C11  1  0.12135200  0.25000000  0.78772400  1
  S  S12  1  0.92468700  0.75000000  0.00299500  1
  S  S13  1  0.57531300  0.75000000  0.50299500  1
  S  S14  1  0.07531300  0.25000000  0.99700500  1
  S  S15  1  0.42468700  0.25000000  0.49700500  1
  S  S16  1  0.06986400  0.75000000  0.88668900  1
  S  S17  1  0.43013600  0.75000000  0.38668900  1
  S  S18  1  0.93013600  0.25000000  0.11331100  1
  S  S19  1  0.56986400  0.25000000  0.61331100  1
  O  O20  1  0.16976100  0.75000000  0.06073000  1
  O  O21  1  0.33023900  0.75000000  0.56073000  1
  O  O22  1  0.83023900  0.25000000  0.93927000  1
  O  O23  1  0.66976100  0.25000000  0.43927000  1
  O  O24  1  0.50246800  0.12174000  0.27510600  1
  O  O25  1  0.99753200  0.37826000  0.77510600  1
  O  O26  1  0.49753200  0.62174000  0.72489400  1
  O  O27  1  0.00246800  0.87826000  0.22489400  1
  O  O28  1  0.49753200  0.87826000  0.72489400  1
  O  O29  1  0.00246800  0.62174000  0.22489400  1
  O  O30  1  0.50246800  0.37826000  0.27510600  1
  O  O31  1  0.99753200  0.12174000  0.77510600  1
  O  O32  1  0.75197500  0.61138500  0.01341800  1
  O  O33  1  0.74802500  0.88861500  0.51341800  1
  O  O34  1  0.24802500  0.11138500  0.98658200  1
  O  O35  1  0.25197500  0.38861500  0.48658200  1
  O  O36  1  0.24802500  0.38861500  0.98658200  1
  O  O37  1  0.25197500  0.11138500  0.48658200  1
  O  O38  1  0.75197500  0.88861500  0.01341800  1
  O  O39  1  0.74802500  0.61138500  0.51341800  1
  O  O40  1  0.61369500  0.75000000  0.18669700  1
  O  O41  1  0.88630500  0.75000000  0.68669700  1
  O  O42  1  0.38630500  0.25000000  0.81330300  1
  O  O43  1  0.11369500  0.25000000  0.31330300  1
