# generated using pymatgen
data_BaSm2Ti3O10
_symmetry_space_group_name_H-M   'P 1'
_cell_length_a   14.41278764
_cell_length_b   14.41278764
_cell_length_c   7.65882600
_cell_angle_alpha   90.00000000
_cell_angle_beta   90.00000000
_cell_angle_gamma   164.42889508
_symmetry_Int_Tables_number   1
_chemical_formula_structural   BaSm2Ti3O10
_chemical_formula_sum   'Ba2 Sm4 Ti6 O20'
_cell_volume   427.06677130
_cell_formula_units_Z   2
loop_
 _symmetry_equiv_pos_site_id
 _symmetry_equiv_pos_as_xyz
  1  'x, y, z'
loop_
 _atom_site_type_symbol
 _atom_site_label
 _atom_site_symmetry_multiplicity
 _atom_site_fract_x
 _atom_site_fract_y
 _atom_site_fract_z
 _atom_site_occupancy
  Ba  Ba0  1  0.74124100  0.25875900  0.75000000  1
  Ba  Ba1  1  0.25875900  0.74124100  0.25000000  1
  Sm  Sm2  1  0.42047300  0.57952700  0.75000000  1
  Sm  Sm3  1  0.57952700  0.42047300  0.25000000  1
  Sm  Sm4  1  0.57239400  0.42760600  0.75000000  1
  Sm  Sm5  1  0.42760600  0.57239400  0.25000000  1
  Ti  Ti6  1  0.00000000  0.00000000  0.00000000  1
  Ti  Ti7  1  0.00000000  0.00000000  0.50000000  1
  Ti  Ti8  1  0.85564700  0.14435300  0.00389000  1
  Ti  Ti9  1  0.14435300  0.85564700  0.99611000  1
  Ti  Ti10  1  0.85564700  0.14435300  0.49611000  1
  Ti  Ti11  1  0.14435300  0.85564700  0.50389000  1
  O  O12  1  0.50000000  0.50000000  0.00000000  1
  O  O13  1  0.50000000  0.50000000  0.50000000  1
  O  O14  1  0.01895200  0.98104800  0.75000000  1
  O  O15  1  0.98104800  0.01895200  0.25000000  1
  O  O16  1  0.12089800  0.87910200  0.75000000  1
  O  O17  1  0.87910200  0.12089800  0.25000000  1
  O  O18  1  0.85487400  0.14512600  0.75000000  1
  O  O19  1  0.14512600  0.85487400  0.25000000  1
  O  O20  1  0.93428100  0.06571900  0.93998000  1
  O  O21  1  0.06571900  0.93428100  0.06002000  1
  O  O22  1  0.93428100  0.06571900  0.56002000  1
  O  O23  1  0.06571900  0.93428100  0.43998000  1
  O  O24  1  0.79447300  0.20552700  0.04406700  1
  O  O25  1  0.20552700  0.79447300  0.95593300  1
  O  O26  1  0.79447300  0.20552700  0.45593300  1
  O  O27  1  0.20552700  0.79447300  0.54406700  1
  O  O28  1  0.37186500  0.62813500  0.00734100  1
  O  O29  1  0.62813500  0.37186500  0.99265900  1
  O  O30  1  0.37186500  0.62813500  0.49265900  1
  O  O31  1  0.62813500  0.37186500  0.50734100  1
