# generated using pymatgen
data_Ba4Sm3Cl16
_symmetry_space_group_name_H-M   'P 1'
_cell_length_a   11.37634034
_cell_length_b   11.37634034
_cell_length_c   11.37634060
_cell_angle_alpha   72.21302675
_cell_angle_beta   72.21302675
_cell_angle_gamma   72.21302444
_symmetry_Int_Tables_number   1
_chemical_formula_structural   Ba4Sm3Cl16
_chemical_formula_sum   'Ba8 Sm6 Cl32'
_cell_volume   1297.88223555
_cell_formula_units_Z   2
loop_
 _symmetry_equiv_pos_site_id
 _symmetry_equiv_pos_as_xyz
  1  'x, y, z'
loop_
 _atom_site_type_symbol
 _atom_site_label
 _atom_site_symmetry_multiplicity
 _atom_site_fract_x
 _atom_site_fract_y
 _atom_site_fract_z
 _atom_site_occupancy
  Ba  Ba0  1  0.26607700  0.26607700  0.26607700  1
  Ba  Ba1  1  0.73392300  0.73392300  0.73392300  1
  Ba  Ba2  1  0.87086200  0.07601500  0.32255100  1
  Ba  Ba3  1  0.07601500  0.32255100  0.87086200  1
  Ba  Ba4  1  0.32255100  0.87086200  0.07601500  1
  Ba  Ba5  1  0.12913800  0.92398500  0.67744900  1
  Ba  Ba6  1  0.92398500  0.67744900  0.12913800  1
  Ba  Ba7  1  0.67744900  0.12913800  0.92398500  1
  Sm  Sm8  1  0.15568900  0.61920700  0.46251000  1
  Sm  Sm9  1  0.61920700  0.46251000  0.15568900  1
  Sm  Sm10  1  0.46251000  0.15568900  0.61920700  1
  Sm  Sm11  1  0.84431100  0.38079300  0.53749000  1
  Sm  Sm12  1  0.38079300  0.53749000  0.84431100  1
  Sm  Sm13  1  0.53749000  0.84431100  0.38079300  1
  Cl  Cl14  1  0.06644200  0.80235600  0.24895200  1
  Cl  Cl15  1  0.80235600  0.24895200  0.06644200  1
  Cl  Cl16  1  0.24895200  0.06644200  0.80235600  1
  Cl  Cl17  1  0.93355800  0.19764400  0.75104800  1
  Cl  Cl18  1  0.19764400  0.75104800  0.93355800  1
  Cl  Cl19  1  0.75104800  0.93355800  0.19764400  1
  Cl  Cl20  1  0.12817600  0.12817600  0.12817600  1
  Cl  Cl21  1  0.87182400  0.87182400  0.87182400  1
  Cl  Cl22  1  0.97141500  0.83419600  0.54769900  1
  Cl  Cl23  1  0.83419600  0.54769900  0.97141500  1
  Cl  Cl24  1  0.54769900  0.97141500  0.83419600  1
  Cl  Cl25  1  0.02858500  0.16580400  0.45230100  1
  Cl  Cl26  1  0.16580400  0.45230100  0.02858500  1
  Cl  Cl27  1  0.45230100  0.02858500  0.16580400  1
  Cl  Cl28  1  0.29328600  0.81177500  0.39749300  1
  Cl  Cl29  1  0.81177500  0.39749300  0.29328600  1
  Cl  Cl30  1  0.39749300  0.29328600  0.81177500  1
  Cl  Cl31  1  0.70671400  0.18822500  0.60250700  1
  Cl  Cl32  1  0.18822500  0.60250700  0.70671400  1
  Cl  Cl33  1  0.60250700  0.70671400  0.18822500  1
  Cl  Cl34  1  0.04869400  0.48646000  0.35377200  1
  Cl  Cl35  1  0.48646000  0.35377200  0.04869400  1
  Cl  Cl36  1  0.35377200  0.04869400  0.48646000  1
  Cl  Cl37  1  0.95130600  0.51354000  0.64622800  1
  Cl  Cl38  1  0.51354000  0.64622800  0.95130600  1
  Cl  Cl39  1  0.64622800  0.95130600  0.51354000  1
  Cl  Cl40  1  0.34965800  0.55530200  0.25529000  1
  Cl  Cl41  1  0.55530200  0.25529000  0.34965800  1
  Cl  Cl42  1  0.25529000  0.34965800  0.55530200  1
  Cl  Cl43  1  0.65034200  0.44469800  0.74471000  1
  Cl  Cl44  1  0.44469800  0.74471000  0.65034200  1
  Cl  Cl45  1  0.74471000  0.65034200  0.44469800  1
