# generated using pymatgen
data_K4Ga8P8O32F
_symmetry_space_group_name_H-M   'P 1'
_cell_length_a   13.49119000
_cell_length_b   13.49119000
_cell_length_c   8.83107200
_cell_angle_alpha   90.00000000
_cell_angle_beta   90.00000000
_cell_angle_gamma   90.00000000
_symmetry_Int_Tables_number   1
_chemical_formula_structural   K4Ga8P8O32F
_chemical_formula_sum   'K8 Ga16 P16 O64 F2'
_cell_volume   1607.36291034
_cell_formula_units_Z   2
loop_
 _symmetry_equiv_pos_site_id
 _symmetry_equiv_pos_as_xyz
  1  'x, y, z'
loop_
 _atom_site_type_symbol
 _atom_site_label
 _atom_site_symmetry_multiplicity
 _atom_site_fract_x
 _atom_site_fract_y
 _atom_site_fract_z
 _atom_site_occupancy
  K  K0  1  0.33276200  0.74545400  0.99362300  1
  K  K1  1  0.66723800  0.25454600  0.99362300  1
  K  K2  1  0.75454600  0.83276200  0.49362300  1
  K  K3  1  0.24545400  0.16723800  0.49362300  1
  K  K4  1  0.16723800  0.75454600  0.50637700  1
  K  K5  1  0.83276200  0.24545400  0.50637700  1
  K  K6  1  0.74545400  0.66723800  0.00637700  1
  K  K7  1  0.25454600  0.33276200  0.00637700  1
  Ga  Ga8  1  0.11870500  0.56764000  0.15964400  1
  Ga  Ga9  1  0.88129500  0.43236000  0.15964400  1
  Ga  Ga10  1  0.93236000  0.61870500  0.65964400  1
  Ga  Ga11  1  0.06764000  0.38129500  0.65964400  1
  Ga  Ga12  1  0.38129500  0.93236000  0.34035600  1
  Ga  Ga13  1  0.61870500  0.06764000  0.34035600  1
  Ga  Ga14  1  0.56764000  0.88129500  0.84035600  1
  Ga  Ga15  1  0.43236000  0.11870500  0.84035600  1
  Ga  Ga16  1  0.05699100  0.13518900  0.15456700  1
  Ga  Ga17  1  0.94300900  0.86481100  0.15456700  1
  Ga  Ga18  1  0.36481100  0.55699100  0.65456700  1
  Ga  Ga19  1  0.63518900  0.44300900  0.65456700  1
  Ga  Ga20  1  0.44300900  0.36481100  0.34543300  1
  Ga  Ga21  1  0.55699100  0.63518900  0.34543300  1
  Ga  Ga22  1  0.13518900  0.94300900  0.84543300  1
  Ga  Ga23  1  0.86481100  0.05699100  0.84543300  1
  P  P24  1  0.07338000  0.35596800  0.30330900  1
  P  P25  1  0.92662000  0.64403200  0.30330900  1
  P  P26  1  0.14403200  0.57338000  0.80330900  1
  P  P27  1  0.85596800  0.42662000  0.80330900  1
  P  P28  1  0.42662000  0.14403200  0.19669100  1
  P  P29  1  0.57338000  0.85596800  0.19669100  1
  P  P30  1  0.35596800  0.92662000  0.69669100  1
  P  P31  1  0.64403200  0.07338000  0.69669100  1
  P  P32  1  0.83517300  0.06895500  0.20329700  1
  P  P33  1  0.16482700  0.93104500  0.20329700  1
  P  P34  1  0.43104500  0.33517300  0.70329700  1
  P  P35  1  0.56895500  0.66482700  0.70329700  1
  P  P36  1  0.66482700  0.43104500  0.29670300  1
  P  P37  1  0.33517300  0.56895500  0.29670300  1
  P  P38  1  0.06895500  0.16482700  0.79670300  1
  P  P39  1  0.93104500  0.83517300  0.79670300  1
  O  O40  1  0.11317000  0.42635300  0.17595800  1
  O  O41  1  0.88683000  0.57364700  0.17595800  1
  O  O42  1  0.07364700  0.61317000  0.67595800  1
  O  O43  1  0.92635300  0.38683000  0.67595800  1
  O  O44  1  0.38683000  0.07364700  0.32404200  1
  O  O45  1  0.61317000  0.92635300  0.32404200  1
  O  O46  1  0.42635300  0.88683000  0.82404200  1
  O  O47  1  0.57364700  0.11317000  0.82404200  1
  O  O48  1  0.11359500  0.39369200  0.45794000  1
  O  O49  1  0.88640500  0.60630800  0.45794000  1
  O  O50  1  0.10630800  0.61359500  0.95794000  1
  O  O51  1  0.89369200  0.38640500  0.95794000  1
  O  O52  1  0.38640500  0.10630800  0.04206000  1
  O  O53  1  0.61359500  0.89369200  0.04206000  1
  O  O54  1  0.39369200  0.88640500  0.54206000  1
  O  O55  1  0.60630800  0.11359500  0.54206000  1
  O  O56  1  0.95722100  0.35930700  0.30286300  1
  O  O57  1  0.04277900  0.64069300  0.30286300  1
  O  O58  1  0.14069300  0.45722100  0.80286300  1
  O  O59  1  0.85930700  0.54277900  0.80286300  1
  O  O60  1  0.54277900  0.14069300  0.19713700  1
  O  O61  1  0.45722100  0.85930700  0.19713700  1
  O  O62  1  0.35930700  0.04277900  0.69713700  1
  O  O63  1  0.64069300  0.95722100  0.69713700  1
  O  O64  1  0.11038000  0.24913300  0.27258200  1
  O  O65  1  0.88962000  0.75086700  0.27258200  1
  O  O66  1  0.25086700  0.61038000  0.77258200  1
  O  O67  1  0.74913300  0.38962000  0.77258200  1
  O  O68  1  0.38962000  0.25086700  0.22741800  1
  O  O69  1  0.61038000  0.74913300  0.22741800  1
  O  O70  1  0.24913300  0.88962000  0.72741800  1
  O  O71  1  0.75086700  0.11038000  0.72741800  1
  O  O72  1  0.92893500  0.12902000  0.24921600  1
  O  O73  1  0.07106500  0.87098000  0.24921600  1
  O  O74  1  0.37098000  0.42893500  0.74921600  1
  O  O75  1  0.62902000  0.57106500  0.74921600  1
  O  O76  1  0.57106500  0.37098000  0.25078400  1
  O  O77  1  0.42893500  0.62902000  0.25078400  1
  O  O78  1  0.12902000  0.07106500  0.75078400  1
  O  O79  1  0.87098000  0.92893500  0.75078400  1
  O  O80  1  0.80449000  0.09005500  0.03629300  1
  O  O81  1  0.19551000  0.90994500  0.03629300  1
  O  O82  1  0.40994500  0.30449000  0.53629300  1
  O  O83  1  0.59005500  0.69551000  0.53629300  1
  O  O84  1  0.69551000  0.40994500  0.46370700  1
  O  O85  1  0.30449000  0.59005500  0.46370700  1
  O  O86  1  0.09005500  0.19551000  0.96370700  1
  O  O87  1  0.90994500  0.80449000  0.96370700  1
  O  O88  1  0.75043500  0.11009700  0.30594000  1
  O  O89  1  0.24956500  0.88990300  0.30594000  1
  O  O90  1  0.38990300  0.25043500  0.80594000  1
  O  O91  1  0.61009700  0.74956500  0.80594000  1
  O  O92  1  0.74956500  0.38990300  0.19406000  1
  O  O93  1  0.25043500  0.61009700  0.19406000  1
  O  O94  1  0.11009700  0.24956500  0.69406000  1
  O  O95  1  0.88990300  0.75043500  0.69406000  1
  O  O96  1  0.84797900  0.95637400  0.23636800  1
  O  O97  1  0.15202100  0.04362600  0.23636800  1
  O  O98  1  0.54362600  0.34797900  0.73636800  1
  O  O99  1  0.45637400  0.65202100  0.73636800  1
  O  O100  1  0.65202100  0.54362600  0.26363200  1
  O  O101  1  0.34797900  0.45637400  0.26363200  1
  O  O102  1  0.95637400  0.15202100  0.76363200  1
  O  O103  1  0.04362600  0.84797900  0.76363200  1
  F  F104  1  0.00000000  0.00000000  0.00000000  1
  F  F105  1  0.50000000  0.50000000  0.50000000  1
