# generated using pymatgen
data_Mn3BPO10
_symmetry_space_group_name_H-M   'P 1'
_cell_length_a   6.30433700
_cell_length_b   7.47493900
_cell_length_c   14.57454700
_cell_angle_alpha   90.00000000
_cell_angle_beta   90.00000000
_cell_angle_gamma   90.00000000
_symmetry_Int_Tables_number   1
_chemical_formula_structural   Mn3BPO10
_chemical_formula_sum   'Mn12 B4 P4 O40'
_cell_volume   686.81874308
_cell_formula_units_Z   4
loop_
 _symmetry_equiv_pos_site_id
 _symmetry_equiv_pos_as_xyz
  1  'x, y, z'
loop_
 _atom_site_type_symbol
 _atom_site_label
 _atom_site_symmetry_multiplicity
 _atom_site_fract_x
 _atom_site_fract_y
 _atom_site_fract_z
 _atom_site_occupancy
  Mn  Mn0  1  0.25000000  0.22153500  0.97466800  1
  Mn  Mn1  1  0.25000000  0.27846500  0.47466800  1
  Mn  Mn2  1  0.75000000  0.77846500  0.02533200  1
  Mn  Mn3  1  0.75000000  0.72153500  0.52533200  1
  Mn  Mn4  1  0.50555100  0.14846200  0.14426800  1
  Mn  Mn5  1  0.99444900  0.35153800  0.64426800  1
  Mn  Mn6  1  0.00555100  0.85153800  0.85573200  1
  Mn  Mn7  1  0.49444900  0.64846200  0.35573200  1
  Mn  Mn8  1  0.49444900  0.85153800  0.85573200  1
  Mn  Mn9  1  0.00555100  0.64846200  0.35573200  1
  Mn  Mn10  1  0.99444900  0.14846200  0.14426800  1
  Mn  Mn11  1  0.50555100  0.35153800  0.64426800  1
  B  B12  1  0.25000000  0.49023400  0.81553700  1
  B  B13  1  0.25000000  0.00976600  0.31553700  1
  B  B14  1  0.75000000  0.50976600  0.18446300  1
  B  B15  1  0.75000000  0.99023400  0.68446300  1
  P  P16  1  0.25000000  0.78533800  0.05541900  1
  P  P17  1  0.25000000  0.71466200  0.55541900  1
  P  P18  1  0.75000000  0.21466200  0.94458100  1
  P  P19  1  0.75000000  0.28533800  0.44458100  1
  O  O20  1  0.25000000  0.01710000  0.88093600  1
  O  O21  1  0.25000000  0.48290000  0.38093600  1
  O  O22  1  0.75000000  0.98290000  0.11906400  1
  O  O23  1  0.75000000  0.51710000  0.61906400  1
  O  O24  1  0.25000000  0.29284600  0.12426200  1
  O  O25  1  0.25000000  0.20715400  0.62426200  1
  O  O26  1  0.75000000  0.70715400  0.87573800  1
  O  O27  1  0.75000000  0.79284600  0.37573800  1
  O  O28  1  0.25000000  0.43286600  0.90962100  1
  O  O29  1  0.25000000  0.06713400  0.40962100  1
  O  O30  1  0.75000000  0.56713400  0.09037900  1
  O  O31  1  0.75000000  0.93286600  0.59037900  1
  O  O32  1  0.25000000  0.68948700  0.81941100  1
  O  O33  1  0.25000000  0.81051300  0.31941100  1
  O  O34  1  0.75000000  0.31051300  0.18058900  1
  O  O35  1  0.75000000  0.18948700  0.68058900  1
  O  O36  1  0.07482600  0.41364300  0.76234800  1
  O  O37  1  0.42517400  0.08635700  0.26234800  1
  O  O38  1  0.57482600  0.58635700  0.23765200  1
  O  O39  1  0.92517400  0.91364300  0.73765200  1
  O  O40  1  0.92517400  0.58635700  0.23765200  1
  O  O41  1  0.57482600  0.91364300  0.73765200  1
  O  O42  1  0.42517400  0.41364300  0.76234800  1
  O  O43  1  0.07482600  0.08635700  0.26234800  1
  O  O44  1  0.05063400  0.77091900  0.99029800  1
  O  O45  1  0.44936600  0.72908100  0.49029800  1
  O  O46  1  0.55063400  0.22908100  0.00970200  1
  O  O47  1  0.94936600  0.27091900  0.50970200  1
  O  O48  1  0.94936600  0.22908100  0.00970200  1
  O  O49  1  0.55063400  0.27091900  0.50970200  1
  O  O50  1  0.44936600  0.77091900  0.99029800  1
  O  O51  1  0.05063400  0.72908100  0.49029800  1
  O  O52  1  0.25000000  0.99074400  0.08374200  1
  O  O53  1  0.25000000  0.50925600  0.58374200  1
  O  O54  1  0.75000000  0.00925600  0.91625800  1
  O  O55  1  0.75000000  0.49074400  0.41625800  1
  O  O56  1  0.25000000  0.65983900  0.13340600  1
  O  O57  1  0.25000000  0.84016100  0.63340600  1
  O  O58  1  0.75000000  0.34016100  0.86659400  1
  O  O59  1  0.75000000  0.15983900  0.36659400  1
