# generated using pymatgen
data_B
_symmetry_space_group_name_H-M   'P 1'
_cell_length_a   7.29292500
_cell_length_b   7.29292500
_cell_length_c   7.29292500
_cell_angle_alpha   90.00000000
_cell_angle_beta   90.00000000
_cell_angle_gamma   90.00000000
_symmetry_Int_Tables_number   1
_chemical_formula_structural   B
_chemical_formula_sum   B48
_cell_volume   387.88701561
_cell_formula_units_Z   48
loop_
 _symmetry_equiv_pos_site_id
 _symmetry_equiv_pos_as_xyz
  1  'x, y, z'
loop_
 _atom_site_type_symbol
 _atom_site_label
 _atom_site_symmetry_multiplicity
 _atom_site_fract_x
 _atom_site_fract_y
 _atom_site_fract_z
 _atom_site_occupancy
  B  B0  1  0.00001100  0.85920100  0.64129600  1
  B  B1  1  0.35870400  0.00001100  0.14079900  1
  B  B2  1  0.85920100  0.35870400  0.99998900  1
  B  B3  1  0.00001100  0.14079900  0.35870400  1
  B  B4  1  0.35870400  0.99998900  0.85920100  1
  B  B5  1  0.85920100  0.64129600  0.00001100  1
  B  B6  1  0.99998900  0.85920100  0.35870400  1
  B  B7  1  0.64129600  0.00001100  0.85920100  1
  B  B8  1  0.14079900  0.35870400  0.00001100  1
  B  B9  1  0.99998900  0.14079900  0.64129600  1
  B  B10  1  0.64129600  0.99998900  0.14079900  1
  B  B11  1  0.14079900  0.64129600  0.99998900  1
  B  B12  1  0.30214500  0.50006000  0.62378000  1
  B  B13  1  0.37622000  0.30214500  0.49994000  1
  B  B14  1  0.50006000  0.37622000  0.69785500  1
  B  B15  1  0.30214500  0.49994000  0.37622000  1
  B  B16  1  0.37622000  0.69785500  0.50006000  1
  B  B17  1  0.50006000  0.62378000  0.30214500  1
  B  B18  1  0.69785500  0.50006000  0.37622000  1
  B  B19  1  0.62378000  0.30214500  0.50006000  1
  B  B20  1  0.49994000  0.37622000  0.30214500  1
  B  B21  1  0.69785500  0.49994000  0.62378000  1
  B  B22  1  0.62378000  0.69785500  0.49994000  1
  B  B23  1  0.49994000  0.62378000  0.69785500  1
  B  B24  1  0.49986500  0.21825900  0.13122800  1
  B  B25  1  0.86877200  0.49986500  0.78174100  1
  B  B26  1  0.21825900  0.86877200  0.50013500  1
  B  B27  1  0.49986500  0.78174100  0.86877200  1
  B  B28  1  0.86877200  0.50013500  0.21825900  1
  B  B29  1  0.21825900  0.13122800  0.49986500  1
  B  B30  1  0.50013500  0.21825900  0.86877200  1
  B  B31  1  0.13122800  0.49986500  0.21825900  1
  B  B32  1  0.78174100  0.86877200  0.49986500  1
  B  B33  1  0.50013500  0.78174100  0.13122800  1
  B  B34  1  0.13122800  0.50013500  0.78174100  1
  B  B35  1  0.78174100  0.13122800  0.50013500  1
  B  B36  1  0.19384000  0.99976600  0.30649600  1
  B  B37  1  0.69350400  0.19384000  0.00023400  1
  B  B38  1  0.99976600  0.69350400  0.80616000  1
  B  B39  1  0.19384000  0.00023400  0.69350400  1
  B  B40  1  0.69350400  0.80616000  0.99976600  1
  B  B41  1  0.99976600  0.30649600  0.19384000  1
  B  B42  1  0.80616000  0.99976600  0.69350400  1
  B  B43  1  0.30649600  0.19384000  0.99976600  1
  B  B44  1  0.00023400  0.69350400  0.19384000  1
  B  B45  1  0.80616000  0.00023400  0.30649600  1
  B  B46  1  0.30649600  0.80616000  0.00023400  1
  B  B47  1  0.00023400  0.30649600  0.80616000  1
