# generated using pymatgen
data_BaYMg14O16
_symmetry_space_group_name_H-M   'P 1'
_cell_length_a   8.89775200
_cell_length_b   8.89775200
_cell_length_c   4.57660100
_cell_angle_alpha   90.00000000
_cell_angle_beta   90.00000000
_cell_angle_gamma   90.00000000
_symmetry_Int_Tables_number   1
_chemical_formula_structural   BaYMg14O16
_chemical_formula_sum   'Ba1 Y1 Mg14 O16'
_cell_volume   362.32945839
_cell_formula_units_Z   1
loop_
 _symmetry_equiv_pos_site_id
 _symmetry_equiv_pos_as_xyz
  1  'x, y, z'
loop_
 _atom_site_type_symbol
 _atom_site_label
 _atom_site_symmetry_multiplicity
 _atom_site_fract_x
 _atom_site_fract_y
 _atom_site_fract_z
 _atom_site_occupancy
  Ba  Ba0  1  0.50000000  0.50000000  0.00000000  1
  Y  Y1  1  0.00000000  0.00000000  0.00000000  1
  Mg  Mg2  1  0.50000000  0.00000000  0.00000000  1
  Mg  Mg3  1  0.00000000  0.50000000  0.00000000  1
  Mg  Mg4  1  0.26101900  0.00000000  0.50000000  1
  Mg  Mg5  1  0.73898100  0.00000000  0.50000000  1
  Mg  Mg6  1  0.23810400  0.50000000  0.50000000  1
  Mg  Mg7  1  0.76189600  0.50000000  0.50000000  1
  Mg  Mg8  1  0.00000000  0.26101900  0.50000000  1
  Mg  Mg9  1  0.50000000  0.23810400  0.50000000  1
  Mg  Mg10  1  0.00000000  0.73898100  0.50000000  1
  Mg  Mg11  1  0.50000000  0.76189600  0.50000000  1
  Mg  Mg12  1  0.24950500  0.24950500  0.00000000  1
  Mg  Mg13  1  0.75049500  0.24950500  0.00000000  1
  Mg  Mg14  1  0.24950500  0.75049500  0.00000000  1
  Mg  Mg15  1  0.75049500  0.75049500  0.00000000  1
  O  O16  1  0.00000000  0.25304700  0.00000000  1
  O  O17  1  0.50000000  0.22009500  0.00000000  1
  O  O18  1  0.00000000  0.74695300  0.00000000  1
  O  O19  1  0.50000000  0.77990500  0.00000000  1
  O  O20  1  0.25073600  0.25073600  0.50000000  1
  O  O21  1  0.74926400  0.25073600  0.50000000  1
  O  O22  1  0.25073600  0.74926400  0.50000000  1
  O  O23  1  0.74926400  0.74926400  0.50000000  1
  O  O24  1  0.00000000  0.00000000  0.50000000  1
  O  O25  1  0.50000000  0.00000000  0.50000000  1
  O  O26  1  0.00000000  0.50000000  0.50000000  1
  O  O27  1  0.50000000  0.50000000  0.50000000  1
  O  O28  1  0.25304700  0.00000000  0.00000000  1
  O  O29  1  0.74695300  0.00000000  0.00000000  1
  O  O30  1  0.22009500  0.50000000  0.00000000  1
  O  O31  1  0.77990500  0.50000000  0.00000000  1
