# generated using pymatgen
data_MnH(CO)5
_symmetry_space_group_name_H-M   'P 1'
_cell_length_a   6.46030300
_cell_length_b   7.04854075
_cell_length_c   20.01361615
_cell_angle_alpha   91.46392066
_cell_angle_beta   90.00000000
_cell_angle_gamma   117.27568756
_symmetry_Int_Tables_number   1
_chemical_formula_structural   MnH(CO)5
_chemical_formula_sum   'Mn4 H4 C20 O20'
_cell_volume   809.66989143
_cell_formula_units_Z   4
loop_
 _symmetry_equiv_pos_site_id
 _symmetry_equiv_pos_as_xyz
  1  'x, y, z'
loop_
 _atom_site_type_symbol
 _atom_site_label
 _atom_site_symmetry_multiplicity
 _atom_site_fract_x
 _atom_site_fract_y
 _atom_site_fract_z
 _atom_site_occupancy
  Mn  Mn0  1  0.17965800  0.84452300  0.87468500  1
  Mn  Mn1  1  0.33513500  0.15547700  0.62531500  1
  Mn  Mn2  1  0.82034200  0.15547700  0.12531500  1
  Mn  Mn3  1  0.66486500  0.84452300  0.37468500  1
  H  H4  1  0.12167600  0.92431200  0.80709200  1
  H  H5  1  0.19736300  0.07568800  0.69290800  1
  H  H6  1  0.87832400  0.07568800  0.19290800  1
  H  H7  1  0.80263700  0.92431200  0.30709200  1
  C  C8  1  0.25154600  0.75468000  0.95298800  1
  C  C9  1  0.49686600  0.24532000  0.54701200  1
  C  C10  1  0.74845400  0.24532000  0.04701200  1
  C  C11  1  0.50313400  0.75468000  0.45298800  1
  C  C12  1  0.16330700  0.08019200  0.91201000  1
  C  C13  1  0.08311500  0.91980800  0.58799000  1
  C  C14  1  0.83669300  0.91980800  0.08799000  1
  C  C15  1  0.91688500  0.08019200  0.41201000  1
  C  C16  1  0.17882300  0.62857700  0.81934500  1
  C  C17  1  0.55024600  0.37142300  0.68065500  1
  C  C18  1  0.82117700  0.37142300  0.18065500  1
  C  C19  1  0.44975400  0.62857700  0.31934500  1
  C  C20  1  0.48127300  0.01844200  0.84855600  1
  C  C21  1  0.46283100  0.98155800  0.65144400  1
  C  C22  1  0.51872700  0.98155800  0.15144400  1
  C  C23  1  0.53716900  0.01844200  0.34855600  1
  C  C24  1  0.85933700  0.69510500  0.87964200  1
  C  C25  1  0.16423200  0.30489500  0.62035800  1
  C  C26  1  0.14066300  0.30489500  0.12035800  1
  C  C27  1  0.83576800  0.69510500  0.37964200  1
  O  O28  1  0.30043800  0.70405500  0.00284600  1
  O  O29  1  0.59638200  0.29594500  0.49715400  1
  O  O30  1  0.69956200  0.29594500  0.99715400  1
  O  O31  1  0.40361800  0.70405500  0.50284600  1
  O  O32  1  0.14762600  0.22797200  0.93247400  1
  O  O33  1  0.91965400  0.77202800  0.56752600  1
  O  O34  1  0.85237400  0.77202800  0.06752600  1
  O  O35  1  0.08034600  0.22797200  0.43247400  1
  O  O36  1  0.17881400  0.49909800  0.78282500  1
  O  O37  1  0.67971600  0.50090200  0.71717500  1
  O  O38  1  0.82118600  0.50090200  0.21717500  1
  O  O39  1  0.32028400  0.49909800  0.28282500  1
  O  O40  1  0.66564700  0.12912000  0.82937100  1
  O  O41  1  0.53652700  0.87088000  0.67062900  1
  O  O42  1  0.33435300  0.87088000  0.17062900  1
  O  O43  1  0.46347300  0.12912000  0.32937100  1
  O  O44  1  0.65814000  0.60766500  0.88085200  1
  O  O45  1  0.05047500  0.39233500  0.61914800  1
  O  O46  1  0.34186000  0.39233500  0.11914800  1
  O  O47  1  0.94952500  0.60766500  0.38085200  1
