# generated using pymatgen
data_YMg14BiO16
_symmetry_space_group_name_H-M   'P 1'
_cell_length_a   4.42777100
_cell_length_b   8.87534200
_cell_length_c   9.09807400
_cell_angle_alpha   90.00000000
_cell_angle_beta   90.00000000
_cell_angle_gamma   90.00000000
_symmetry_Int_Tables_number   1
_chemical_formula_structural   YMg14BiO16
_chemical_formula_sum   'Y1 Mg14 Bi1 O16'
_cell_volume   357.53594758
_cell_formula_units_Z   1
loop_
 _symmetry_equiv_pos_site_id
 _symmetry_equiv_pos_as_xyz
  1  'x, y, z'
loop_
 _atom_site_type_symbol
 _atom_site_label
 _atom_site_symmetry_multiplicity
 _atom_site_fract_x
 _atom_site_fract_y
 _atom_site_fract_z
 _atom_site_occupancy
  Y  Y0  1  0.00000000  0.00000000  0.00000000  1
  Mg  Mg1  1  0.00000000  0.00000000  0.50000000  1
  Mg  Mg2  1  0.00000000  0.50000000  0.50000000  1
  Mg  Mg3  1  0.50000000  0.74881600  0.00000000  1
  Mg  Mg4  1  0.50000000  0.25118400  0.00000000  1
  Mg  Mg5  1  0.50000000  0.74901200  0.50000000  1
  Mg  Mg6  1  0.50000000  0.25098800  0.50000000  1
  Mg  Mg7  1  0.50000000  0.00000000  0.73270400  1
  Mg  Mg8  1  0.50000000  0.50000000  0.73212200  1
  Mg  Mg9  1  0.50000000  0.00000000  0.26729600  1
  Mg  Mg10  1  0.50000000  0.50000000  0.26787800  1
  Mg  Mg11  1  0.00000000  0.74496400  0.73286100  1
  Mg  Mg12  1  0.00000000  0.25503600  0.73286100  1
  Mg  Mg13  1  0.00000000  0.74496400  0.26713900  1
  Mg  Mg14  1  0.00000000  0.25503600  0.26713900  1
  Bi  Bi15  1  0.00000000  0.50000000  0.00000000  1
  O  O16  1  0.00000000  0.00000000  0.74147800  1
  O  O17  1  0.00000000  0.50000000  0.71135000  1
  O  O18  1  0.00000000  0.00000000  0.25852200  1
  O  O19  1  0.00000000  0.50000000  0.28865000  1
  O  O20  1  0.50000000  0.75075300  0.75089800  1
  O  O21  1  0.50000000  0.24924700  0.75089800  1
  O  O22  1  0.50000000  0.75075300  0.24910200  1
  O  O23  1  0.50000000  0.24924700  0.24910200  1
  O  O24  1  0.50000000  0.00000000  0.00000000  1
  O  O25  1  0.50000000  0.50000000  0.00000000  1
  O  O26  1  0.50000000  0.00000000  0.50000000  1
  O  O27  1  0.50000000  0.50000000  0.50000000  1
  O  O28  1  0.00000000  0.76011900  0.00000000  1
  O  O29  1  0.00000000  0.23988100  0.00000000  1
  O  O30  1  0.00000000  0.75935400  0.50000000  1
  O  O31  1  0.00000000  0.24064600  0.50000000  1
