# generated using pymatgen
data_HgH6C4(N2O)2
_symmetry_space_group_name_H-M   'P 1'
_cell_length_a   5.30908346
_cell_length_b   7.01221969
_cell_length_c   11.02721200
_cell_angle_alpha   90.00000000
_cell_angle_beta   90.00000000
_cell_angle_gamma   100.79809982
_symmetry_Int_Tables_number   1
_chemical_formula_structural   HgH6C4(N2O)2
_chemical_formula_sum   'Hg2 H12 C8 N8 O4'
_cell_volume   403.25712087
_cell_formula_units_Z   2
loop_
 _symmetry_equiv_pos_site_id
 _symmetry_equiv_pos_as_xyz
  1  'x, y, z'
loop_
 _atom_site_type_symbol
 _atom_site_label
 _atom_site_symmetry_multiplicity
 _atom_site_fract_x
 _atom_site_fract_y
 _atom_site_fract_z
 _atom_site_occupancy
  Hg  Hg0  1  0.50000000  0.00000000  0.00000000  1
  Hg  Hg1  1  0.00000000  0.50000000  0.50000000  1
  H  H2  1  0.96864700  0.32521800  0.94989900  1
  H  H3  1  0.53135300  0.17478200  0.44989900  1
  H  H4  1  0.03135300  0.67478200  0.05010100  1
  H  H5  1  0.46864700  0.82521800  0.55010100  1
  H  H6  1  0.20973300  0.44748500  0.11394700  1
  H  H7  1  0.29026700  0.05251500  0.61394700  1
  H  H8  1  0.79026700  0.55251600  0.88605300  1
  H  H9  1  0.70973300  0.94748400  0.38605300  1
  H  H10  1  0.52878700  0.44597200  0.23596900  1
  H  H11  1  0.97121300  0.05402800  0.73596900  1
  H  H12  1  0.47121300  0.55402800  0.76403100  1
  H  H13  1  0.02878700  0.94597200  0.26403100  1
  C  C14  1  0.24334000  0.32196700  0.06073400  1
  C  C15  1  0.25666000  0.17803300  0.56073400  1
  C  C16  1  0.75666000  0.67803300  0.93926600  1
  C  C17  1  0.74334000  0.82196700  0.43926600  1
  C  C18  1  0.59121900  0.31662900  0.19687000  1
  C  C19  1  0.90878100  0.18337100  0.69687000  1
  C  C20  1  0.40878100  0.68337100  0.80313000  1
  C  C21  1  0.09121900  0.81662900  0.30313000  1
  N  N22  1  0.44610700  0.24057200  0.09999700  1
  N  N23  1  0.05389300  0.25942800  0.59999700  1
  N  N24  1  0.55389300  0.75942800  0.90000300  1
  N  N25  1  0.94610700  0.74057200  0.40000300  1
  N  N26  1  0.11141700  0.24968800  0.96841800  1
  N  N27  1  0.38858300  0.25031200  0.46841800  1
  N  N28  1  0.88858300  0.75031200  0.03158200  1
  N  N29  1  0.61141700  0.74968800  0.53158200  1
  O  O30  1  0.77426200  0.25017300  0.23807300  1
  O  O31  1  0.72573800  0.24982700  0.73807300  1
  O  O32  1  0.22573800  0.74982700  0.76192700  1
  O  O33  1  0.27426200  0.75017300  0.26192700  1
