# generated using pymatgen
data_H6C(SN)2
_symmetry_space_group_name_H-M   'P 1'
_cell_length_a   5.69441600
_cell_length_b   8.36879400
_cell_length_c   10.84966400
_cell_angle_alpha   90.00000000
_cell_angle_beta   90.00000000
_cell_angle_gamma   90.00000000
_symmetry_Int_Tables_number   1
_chemical_formula_structural   H6C(SN)2
_chemical_formula_sum   'H24 C4 S8 N8'
_cell_volume   517.04501762
_cell_formula_units_Z   4
loop_
 _symmetry_equiv_pos_site_id
 _symmetry_equiv_pos_as_xyz
  1  'x, y, z'
loop_
 _atom_site_type_symbol
 _atom_site_label
 _atom_site_symmetry_multiplicity
 _atom_site_fract_x
 _atom_site_fract_y
 _atom_site_fract_z
 _atom_site_occupancy
  H  H0  1  0.35717600  0.26637200  0.75175600  1
  H  H1  1  0.64282400  0.73362800  0.25175600  1
  H  H2  1  0.35717600  0.23362800  0.25175600  1
  H  H3  1  0.64282400  0.76637200  0.75175600  1
  H  H4  1  0.55926700  0.30113900  0.86978900  1
  H  H5  1  0.44073300  0.69886100  0.36978900  1
  H  H6  1  0.55926700  0.19886100  0.36978900  1
  H  H7  1  0.44073300  0.80113900  0.86978900  1
  H  H8  1  0.11648900  0.80403600  0.52303000  1
  H  H9  1  0.88351100  0.19596400  0.02303000  1
  H  H10  1  0.11648900  0.69596400  0.02303000  1
  H  H11  1  0.88351100  0.30403600  0.52303000  1
  H  H12  1  0.81702100  0.79493300  0.51739700  1
  H  H13  1  0.18297900  0.20506700  0.01739700  1
  H  H14  1  0.81702100  0.70506700  0.01739700  1
  H  H15  1  0.18297900  0.29493300  0.51739700  1
  H  H16  1  0.96784900  0.64770800  0.58876300  1
  H  H17  1  0.03215100  0.35229200  0.08876300  1
  H  H18  1  0.96784900  0.85229200  0.08876300  1
  H  H19  1  0.03215100  0.14770800  0.58876300  1
  H  H20  1  0.98656100  0.66376800  0.43236200  1
  H  H21  1  0.01343900  0.33623200  0.93236200  1
  H  H22  1  0.98656100  0.83623200  0.93236200  1
  H  H23  1  0.01343900  0.16376800  0.43236200  1
  C  C24  1  0.63372400  0.41307600  0.70539600  1
  C  C25  1  0.36627600  0.58692400  0.20539600  1
  C  C26  1  0.63372400  0.08692400  0.20539600  1
  C  C27  1  0.36627600  0.91307600  0.70539600  1
  S  S28  1  0.53790100  0.44235900  0.55689000  1
  S  S29  1  0.46209900  0.55764100  0.05689000  1
  S  S30  1  0.53790100  0.05764100  0.05689000  1
  S  S31  1  0.46209900  0.94235900  0.55689000  1
  S  S32  1  0.89091600  0.49595100  0.75925900  1
  S  S33  1  0.10908400  0.50404900  0.25925900  1
  S  S34  1  0.89091600  0.00404900  0.25925900  1
  S  S35  1  0.10908400  0.99595100  0.75925900  1
  N  N36  1  0.50731000  0.32079800  0.78112700  1
  N  N37  1  0.49269000  0.67920200  0.28112700  1
  N  N38  1  0.50731000  0.17920200  0.28112700  1
  N  N39  1  0.49269000  0.82079800  0.78112700  1
  N  N40  1  0.97186500  0.72797000  0.51440000  1
  N  N41  1  0.02813500  0.27203000  0.01440000  1
  N  N42  1  0.97186500  0.77203000  0.01440000  1
  N  N43  1  0.02813500  0.22797000  0.51440000  1
