# generated using pymatgen
data_Al2GeO6
_symmetry_space_group_name_H-M   'P 1'
_cell_length_a   4.72579200
_cell_length_b   8.70781000
_cell_length_c   9.37170000
_cell_angle_alpha   90.00000000
_cell_angle_beta   90.00000000
_cell_angle_gamma   90.00000000
_symmetry_Int_Tables_number   1
_chemical_formula_structural   Al2GeO6
_chemical_formula_sum   'Al8 Ge4 O24'
_cell_volume   385.65762730
_cell_formula_units_Z   4
loop_
 _symmetry_equiv_pos_site_id
 _symmetry_equiv_pos_as_xyz
  1  'x, y, z'
loop_
 _atom_site_type_symbol
 _atom_site_label
 _atom_site_symmetry_multiplicity
 _atom_site_fract_x
 _atom_site_fract_y
 _atom_site_fract_z
 _atom_site_occupancy
  Al  Al0  1  0.09726100  0.58101100  0.12793200  1
  Al  Al1  1  0.40273900  0.91898900  0.62793200  1
  Al  Al2  1  0.90273900  0.08101100  0.87206800  1
  Al  Al3  1  0.59726100  0.41898900  0.37206800  1
  Al  Al4  1  0.90273900  0.41898900  0.87206800  1
  Al  Al5  1  0.59726100  0.08101100  0.37206800  1
  Al  Al6  1  0.09726100  0.91898900  0.12793200  1
  Al  Al7  1  0.40273900  0.58101100  0.62793200  1
  Ge  Ge8  1  0.59843200  0.75000000  0.93656600  1
  Ge  Ge9  1  0.90156800  0.75000000  0.43656600  1
  Ge  Ge10  1  0.40156800  0.25000000  0.06343400  1
  Ge  Ge11  1  0.09843200  0.25000000  0.56343400  1
  O  O12  1  0.27611100  0.75000000  0.03439100  1
  O  O13  1  0.22388900  0.75000000  0.53439100  1
  O  O14  1  0.72388900  0.25000000  0.96560900  1
  O  O15  1  0.77611100  0.25000000  0.46560900  1
  O  O16  1  0.95937900  0.75000000  0.24794500  1
  O  O17  1  0.54062100  0.75000000  0.74794500  1
  O  O18  1  0.04062100  0.25000000  0.75205500  1
  O  O19  1  0.45937900  0.25000000  0.25205500  1
  O  O20  1  0.79335300  0.58560200  0.99057500  1
  O  O21  1  0.70664700  0.91439800  0.49057500  1
  O  O22  1  0.20664700  0.08560200  0.00942500  1
  O  O23  1  0.29335300  0.41439800  0.50942500  1
  O  O24  1  0.20664700  0.41439800  0.00942500  1
  O  O25  1  0.29335300  0.08560200  0.50942500  1
  O  O26  1  0.79335300  0.91439800  0.99057500  1
  O  O27  1  0.70664700  0.58560200  0.49057500  1
  O  O28  1  0.38934400  0.54580200  0.25467400  1
  O  O29  1  0.11065600  0.95419800  0.75467400  1
  O  O30  1  0.61065600  0.04580200  0.74532600  1
  O  O31  1  0.88934400  0.45419800  0.24532600  1
  O  O32  1  0.61065600  0.45419800  0.74532600  1
  O  O33  1  0.88934400  0.04580200  0.24532600  1
  O  O34  1  0.38934400  0.95419800  0.25467400  1
  O  O35  1  0.11065600  0.54580200  0.75467400  1
