# generated using pymatgen
data_Ca3GeH12S2O17
_symmetry_space_group_name_H-M   'P 1'
_cell_length_a   8.66260015
_cell_length_b   8.66255887
_cell_length_c   10.96081600
_cell_angle_alpha   90.00000000
_cell_angle_beta   90.00000000
_cell_angle_gamma   119.99910267
_symmetry_Int_Tables_number   1
_chemical_formula_structural   Ca3GeH12S2O17
_chemical_formula_sum   'Ca6 Ge2 H24 S4 O34'
_cell_volume   712.31471055
_cell_formula_units_Z   2
loop_
 _symmetry_equiv_pos_site_id
 _symmetry_equiv_pos_as_xyz
  1  'x, y, z'
loop_
 _atom_site_type_symbol
 _atom_site_label
 _atom_site_symmetry_multiplicity
 _atom_site_fract_x
 _atom_site_fract_y
 _atom_site_fract_z
 _atom_site_occupancy
  Ca  Ca0  1  0.69641000  0.84820900  0.75000000  1
  Ca  Ca1  1  0.15178900  0.30358800  0.75000000  1
  Ca  Ca2  1  0.15178000  0.84821100  0.75000000  1
  Ca  Ca3  1  0.30359000  0.15179100  0.25000000  1
  Ca  Ca4  1  0.84821100  0.69641200  0.25000000  1
  Ca  Ca5  1  0.84822000  0.15178900  0.25000000  1
  Ge  Ge6  1  0.00000000  0.00000000  0.50000000  1
  Ge  Ge7  1  0.00000000  0.00000000  0.00000000  1
  H  H8  1  0.84590400  0.69181500  0.55944400  1
  H  H9  1  0.84590600  0.15410700  0.55945200  1
  H  H10  1  0.30818700  0.15409200  0.55945400  1
  H  H11  1  0.15409600  0.30818500  0.44055600  1
  H  H12  1  0.15409400  0.84589300  0.44054800  1
  H  H13  1  0.69181300  0.84590800  0.44054600  1
  H  H14  1  0.15409600  0.30818500  0.05944400  1
  H  H15  1  0.15409400  0.84589300  0.05945200  1
  H  H16  1  0.69181300  0.84590800  0.05945400  1
  H  H17  1  0.84590400  0.69181500  0.94055600  1
  H  H18  1  0.84590600  0.15410700  0.94054800  1
  H  H19  1  0.30818700  0.15409200  0.94054600  1
  H  H20  1  0.44885700  0.55113700  0.18098700  1
  H  H21  1  0.10227500  0.55114200  0.18098500  1
  H  H22  1  0.44885000  0.89772000  0.18098500  1
  H  H23  1  0.55114300  0.44886300  0.81901300  1
  H  H24  1  0.89772500  0.44885800  0.81901500  1
  H  H25  1  0.55115000  0.10228000  0.81901500  1
  H  H26  1  0.55114300  0.44886300  0.68098700  1
  H  H27  1  0.89772500  0.44885800  0.68098500  1
  H  H28  1  0.55115000  0.10228000  0.68098500  1
  H  H29  1  0.44885700  0.55113700  0.31901300  1
  H  H30  1  0.10227500  0.55114200  0.31901500  1
  H  H31  1  0.44885000  0.89772000  0.31901500  1
  S  S32  1  0.66667500  0.33332800  0.02685800  1
  S  S33  1  0.33332500  0.66667200  0.97314200  1
  S  S34  1  0.33332500  0.66667200  0.52685800  1
  S  S35  1  0.66667500  0.33332800  0.47314200  1
  O  O36  1  0.66667000  0.33334600  0.60946000  1
  O  O37  1  0.33333000  0.66665400  0.39054000  1
  O  O38  1  0.33333000  0.66665400  0.10946000  1
  O  O39  1  0.66667000  0.33334600  0.89054000  1
  O  O40  1  0.52132100  0.76064900  0.56965300  1
  O  O41  1  0.23934600  0.47867100  0.56966200  1
  O  O42  1  0.23935100  0.76064600  0.56965700  1
  O  O43  1  0.47867900  0.23935100  0.43034700  1
  O  O44  1  0.76065400  0.52132900  0.43033800  1
  O  O45  1  0.76064900  0.23935400  0.43034300  1
  O  O46  1  0.47867900  0.23935100  0.06965300  1
  O  O47  1  0.76065400  0.52132900  0.06966200  1
  O  O48  1  0.76064900  0.23935400  0.06965700  1
  O  O49  1  0.52132100  0.76064900  0.93034700  1
  O  O50  1  0.23934600  0.47867100  0.93033800  1
  O  O51  1  0.23935100  0.76064600  0.93034300  1
  O  O52  1  0.89988700  0.79979200  0.61030500  1
  O  O53  1  0.89990400  0.10009800  0.61031100  1
  O  O54  1  0.20019800  0.10010000  0.61030700  1
  O  O55  1  0.10011300  0.20020800  0.38969500  1
  O  O56  1  0.10009600  0.89990200  0.38968900  1
  O  O57  1  0.79980200  0.89990000  0.38969300  1
  O  O58  1  0.10011300  0.20020800  0.11030500  1
  O  O59  1  0.10009600  0.89990200  0.11031100  1
  O  O60  1  0.79980200  0.89990000  0.11030700  1
  O  O61  1  0.89988700  0.79979200  0.88969500  1
  O  O62  1  0.89990400  0.10009800  0.88968900  1
  O  O63  1  0.20019800  0.10010000  0.88969300  1
  O  O64  1  0.49084600  0.50914700  0.25000000  1
  O  O65  1  0.01829700  0.50915600  0.25000000  1
  O  O66  1  0.49083300  0.98170100  0.25000000  1
  O  O67  1  0.50915400  0.49085300  0.75000000  1
  O  O68  1  0.98170300  0.49084400  0.75000000  1
  O  O69  1  0.50916700  0.01829900  0.75000000  1
