# generated using pymatgen
data_SrRe3S4O11
_symmetry_space_group_name_H-M   'P 1'
_cell_length_a   8.59497600
_cell_length_b   9.05188858
_cell_length_c   11.28774527
_cell_angle_alpha   79.76389547
_cell_angle_beta   73.31460126
_cell_angle_gamma   68.32876933
_symmetry_Int_Tables_number   1
_chemical_formula_structural   SrRe3S4O11
_chemical_formula_sum   'Sr2 Re6 S8 O22'
_cell_volume   779.22203161
_cell_formula_units_Z   2
loop_
 _symmetry_equiv_pos_site_id
 _symmetry_equiv_pos_as_xyz
  1  'x, y, z'
loop_
 _atom_site_type_symbol
 _atom_site_label
 _atom_site_symmetry_multiplicity
 _atom_site_fract_x
 _atom_site_fract_y
 _atom_site_fract_z
 _atom_site_occupancy
  Sr  Sr0  1  0.64752100  0.12307000  0.07561000  1
  Sr  Sr1  1  0.35247900  0.87693000  0.92439000  1
  Re  Re2  1  0.44523700  0.31630100  0.38915500  1
  Re  Re3  1  0.55476300  0.68369900  0.61084500  1
  Re  Re4  1  0.40168600  0.36182900  0.70315600  1
  Re  Re5  1  0.59831400  0.63817100  0.29684400  1
  Re  Re6  1  0.19879400  0.68581600  0.51508900  1
  Re  Re7  1  0.80120600  0.31418400  0.48491100  1
  S  S8  1  0.59068200  0.18275400  0.54984000  1
  S  S9  1  0.40931800  0.81724600  0.45016000  1
  S  S10  1  0.28664500  0.64393200  0.70479700  1
  S  S11  1  0.71335500  0.35606800  0.29520300  1
  S  S12  1  0.33641000  0.58890800  0.31367800  1
  S  S13  1  0.66359000  0.41109200  0.68632200  1
  S  S14  1  0.21609700  0.41405800  0.56736900  1
  S  S15  1  0.78390300  0.58594200  0.43263100  1
  O  O16  1  0.42710600  0.18769000  0.30205800  1
  O  O17  1  0.57289400  0.81231000  0.69794200  1
  O  O18  1  0.32933200  0.26917300  0.84207600  1
  O  O19  1  0.67066800  0.73082700  0.15792400  1
  O  O20  1  0.99040300  0.80858500  0.52820000  1
  O  O21  1  0.00959700  0.19141500  0.47180000  1
  O  O22  1  0.51961100  0.43691500  0.03969000  1
  O  O23  1  0.48038900  0.56308500  0.96031000  1
  O  O24  1  0.55984800  0.99741100  0.94311400  1
  O  O25  1  0.44015200  0.00258900  0.05688600  1
  O  O26  1  0.94656600  0.14971300  0.97575200  1
  O  O27  1  0.05343400  0.85028700  0.02424800  1
  O  O28  1  0.93330300  0.91721000  0.96472100  1
  O  O29  1  0.06669700  0.08279000  0.03527900  1
  O  O30  1  0.81418300  0.97448500  0.28249700  1
  O  O31  1  0.18581700  0.02551500  0.71750300  1
  O  O32  1  0.03941700  0.01731400  0.72617500  1
  O  O33  1  0.96058300  0.98268600  0.27382500  1
  O  O34  1  0.87304300  0.65863500  0.84298800  1
  O  O35  1  0.12695700  0.34136500  0.15701200  1
  O  O36  1  0.93094300  0.51651000  0.87937300  1
  O  O37  1  0.06905700  0.48349000  0.12062700  1
