# generated using pymatgen
data_ZnH8SO8
_symmetry_space_group_name_H-M   'P 1'
_cell_length_a   6.13267861
_cell_length_b   7.86475842
_cell_length_c   13.74456200
_cell_angle_alpha   90.00000000
_cell_angle_beta   90.00000000
_cell_angle_gamma   88.72975096
_symmetry_Int_Tables_number   1
_chemical_formula_structural   ZnH8SO8
_chemical_formula_sum   'Zn4 H32 S4 O32'
_cell_volume   662.76529491
_cell_formula_units_Z   4
loop_
 _symmetry_equiv_pos_site_id
 _symmetry_equiv_pos_as_xyz
  1  'x, y, z'
loop_
 _atom_site_type_symbol
 _atom_site_label
 _atom_site_symmetry_multiplicity
 _atom_site_fract_x
 _atom_site_fract_y
 _atom_site_fract_z
 _atom_site_occupancy
  Zn  Zn0  1  0.92690800  0.77688200  0.09987700  1
  Zn  Zn1  1  0.42690800  0.27688200  0.40012300  1
  Zn  Zn2  1  0.07309200  0.22311800  0.90012300  1
  Zn  Zn3  1  0.57309200  0.72311800  0.59987700  1
  H  H4  1  0.69165700  0.72676600  0.26370700  1
  H  H5  1  0.19165700  0.22676600  0.23629300  1
  H  H6  1  0.30834300  0.27323400  0.73629300  1
  H  H7  1  0.80834300  0.77323400  0.76370700  1
  H  H8  1  0.92623700  0.78176300  0.30603300  1
  H  H9  1  0.42623700  0.28176300  0.19396700  1
  H  H10  1  0.07376300  0.21823700  0.69396700  1
  H  H11  1  0.57376300  0.71823700  0.80603300  1
  H  H12  1  0.30534200  0.88182300  0.18635400  1
  H  H13  1  0.80534200  0.38182300  0.31364600  1
  H  H14  1  0.69465800  0.11817700  0.81364600  1
  H  H15  1  0.19465800  0.61817700  0.68635400  1
  H  H16  1  0.23052700  0.02608900  0.10744900  1
  H  H17  1  0.73052700  0.52608900  0.39255100  1
  H  H18  1  0.76947300  0.97391100  0.89255100  1
  H  H19  1  0.26947300  0.47391100  0.60744900  1
  H  H20  1  0.54487500  0.68143400  0.02119500  1
  H  H21  1  0.04487500  0.18143400  0.47880500  1
  H  H22  1  0.45512500  0.31856600  0.97880500  1
  H  H23  1  0.95512500  0.81856600  0.52119500  1
  H  H24  1  0.64370200  0.52130300  0.07950000  1
  H  H25  1  0.14370200  0.02130300  0.42050000  1
  H  H26  1  0.35629800  0.47869700  0.92050000  1
  H  H27  1  0.85629800  0.97869700  0.57950000  1
  H  H28  1  0.20414700  0.55740300  0.18513100  1
  H  H29  1  0.70414700  0.05740300  0.31486900  1
  H  H30  1  0.79585300  0.44259700  0.81486900  1
  H  H31  1  0.29585300  0.94259700  0.68513100  1
  H  H32  1  0.08056900  0.44437500  0.10435100  1
  H  H33  1  0.58056900  0.94437500  0.39564900  1
  H  H34  1  0.91943100  0.55562500  0.89564900  1
  H  H35  1  0.41943100  0.05562500  0.60435100  1
  S  S36  1  0.80697700  0.18104700  0.11158300  1
  S  S37  1  0.30697700  0.68104700  0.38841700  1
  S  S38  1  0.19302300  0.81895300  0.88841700  1
  S  S39  1  0.69302300  0.31895300  0.61158300  1
  O  O40  1  0.75341100  0.00771900  0.07793400  1
  O  O41  1  0.25341100  0.50771900  0.42206600  1
  O  O42  1  0.24658900  0.99228100  0.92206600  1
  O  O43  1  0.74658900  0.49228100  0.57793400  1
  O  O44  1  0.00312400  0.24390500  0.05608900  1
  O  O45  1  0.50312400  0.74390500  0.44391100  1
  O  O46  1  0.99687600  0.75609500  0.94391100  1
  O  O47  1  0.49687600  0.25609500  0.55608900  1
  O  O48  1  0.86292200  0.18757800  0.21655600  1
  O  O49  1  0.36292200  0.68757800  0.28344400  1
  O  O50  1  0.13707800  0.81242200  0.78344400  1
  O  O51  1  0.63707800  0.31242200  0.71655600  1
  O  O52  1  0.61209100  0.29624500  0.09216100  1
  O  O53  1  0.11209100  0.79624500  0.40783900  1
  O  O54  1  0.38790900  0.70375500  0.90783900  1
  O  O55  1  0.88790900  0.20375500  0.59216100  1
  O  O56  1  0.82717900  0.78634200  0.24921800  1
  O  O57  1  0.32717900  0.28634200  0.25078200  1
  O  O58  1  0.17282100  0.21365800  0.75078200  1
  O  O59  1  0.67282100  0.71365800  0.74921800  1
  O  O60  1  0.20645600  0.91255900  0.13290800  1
  O  O61  1  0.70645600  0.41255900  0.36709200  1
  O  O62  1  0.79354400  0.08744100  0.86709200  1
  O  O63  1  0.29354400  0.58744100  0.63290800  1
  O  O64  1  0.64364300  0.64723900  0.07474100  1
  O  O65  1  0.14364300  0.14723900  0.42525900  1
  O  O66  1  0.35635700  0.35276100  0.92525900  1
  O  O67  1  0.85635700  0.85276100  0.57474100  1
  O  O68  1  0.11823100  0.56104300  0.12472900  1
  O  O69  1  0.61823100  0.06104300  0.37527100  1
  O  O70  1  0.88176900  0.43895700  0.87527100  1
  O  O71  1  0.38176900  0.93895700  0.62472900  1
