# generated using pymatgen
data_AgH10Rh(N3O5)2
_symmetry_space_group_name_H-M   'P 1'
_cell_length_a   7.51444919
_cell_length_b   12.37235600
_cell_length_c   12.92874127
_cell_angle_alpha   90.00000000
_cell_angle_beta   94.29338870
_cell_angle_gamma   90.00000000
_symmetry_Int_Tables_number   1
_chemical_formula_structural   AgH10Rh(N3O5)2
_chemical_formula_sum   'Ag4 H40 Rh4 N24 O40'
_cell_volume   1198.63061130
_cell_formula_units_Z   4
loop_
 _symmetry_equiv_pos_site_id
 _symmetry_equiv_pos_as_xyz
  1  'x, y, z'
loop_
 _atom_site_type_symbol
 _atom_site_label
 _atom_site_symmetry_multiplicity
 _atom_site_fract_x
 _atom_site_fract_y
 _atom_site_fract_z
 _atom_site_occupancy
  Ag  Ag0  1  0.28689100  0.59623900  0.26783400  1
  Ag  Ag1  1  0.71310900  0.09623900  0.23216600  1
  Ag  Ag2  1  0.71310900  0.40376100  0.73216600  1
  Ag  Ag3  1  0.28689100  0.90376100  0.76783400  1
  H  H4  1  0.05205100  0.64970900  0.50984400  1
  H  H5  1  0.94794900  0.14970900  0.99015600  1
  H  H6  1  0.94794900  0.35029100  0.49015600  1
  H  H7  1  0.05205100  0.85029100  0.00984400  1
  H  H8  1  0.90384700  0.63484500  0.40714800  1
  H  H9  1  0.09615300  0.13484500  0.09285200  1
  H  H10  1  0.09615300  0.36515500  0.59285200  1
  H  H11  1  0.90384700  0.86515500  0.90714800  1
  H  H12  1  0.02425300  0.74724400  0.41909100  1
  H  H13  1  0.97574700  0.24724400  0.08090900  1
  H  H14  1  0.97574700  0.25275600  0.58090900  1
  H  H15  1  0.02425300  0.75275600  0.91909100  1
  H  H16  1  0.88987000  0.90821400  0.42106100  1
  H  H17  1  0.11013000  0.40821400  0.07893900  1
  H  H18  1  0.11013000  0.09178600  0.57893900  1
  H  H19  1  0.88987000  0.59178600  0.92106100  1
  H  H20  1  0.67415800  0.89391100  0.38709100  1
  H  H21  1  0.32584200  0.39391100  0.11290900  1
  H  H22  1  0.32584200  0.10608900  0.61290900  1
  H  H23  1  0.67415800  0.60608900  0.88709100  1
  H  H24  1  0.73677100  0.95937000  0.49564200  1
  H  H25  1  0.26322900  0.45937000  0.00435800  1
  H  H26  1  0.26322900  0.04063000  0.50435800  1
  H  H27  1  0.73677100  0.54063000  0.99564200  1
  H  H28  1  0.31077100  0.65088900  0.64006100  1
  H  H29  1  0.68922900  0.15088900  0.85993900  1
  H  H30  1  0.68922900  0.34911100  0.35993900  1
  H  H31  1  0.31077100  0.84911100  0.14006100  1
  H  H32  1  0.26741500  0.52983700  0.61619700  1
  H  H33  1  0.73258500  0.02983700  0.88380300  1
  H  H34  1  0.73258500  0.47016300  0.38380300  1
  H  H35  1  0.26741500  0.97016300  0.11619700  1
  H  H36  1  0.14601400  0.90526700  0.27866800  1
  H  H37  1  0.85398600  0.40526700  0.22133200  1
  H  H38  1  0.85398600  0.09473300  0.72133200  1
  H  H39  1  0.14601400  0.59473300  0.77866800  1
  H  H40  1  0.23817400  0.88129000  0.38741900  1
  H  H41  1  0.76182600  0.38129000  0.11258100  1
  H  H42  1  0.76182600  0.11871000  0.61258100  1
  H  H43  1  0.23817400  0.61871000  0.88741900  1
  Rh  Rh44  1  0.75762900  0.75558500  0.54173600  1
  Rh  Rh45  1  0.24237100  0.25558500  0.95826400  1
  Rh  Rh46  1  0.24237100  0.24441500  0.45826400  1
  Rh  Rh47  1  0.75762900  0.74441500  0.04173600  1
  N  N48  1  0.95780800  0.82451700  0.63951800  1
  N  N49  1  0.04219200  0.32451700  0.86048200  1
  N  N50  1  0.04219200  0.17548300  0.36048200  1
  N  N51  1  0.95780800  0.67548300  0.13951800  1
  N  N52  1  0.56312300  0.83000500  0.62121300  1
  N  N53  1  0.43687700  0.33000500  0.87878700  1
  N  N54  1  0.43687700  0.16999500  0.37878700  1
  N  N55  1  0.56312300  0.66999500  0.12121300  1
  N  N56  1  0.56437800  0.69252400  0.43497200  1
  N  N57  1  0.43562200  0.19252400  0.06502800  1
  N  N58  1  0.43562200  0.30747600  0.56502800  1
  N  N59  1  0.56437800  0.80747600  0.93497200  1
  N  N60  1  0.75519100  0.61297500  0.62603200  1
  N  N61  1  0.24480900  0.11297500  0.87396800  1
  N  N62  1  0.24480900  0.38702500  0.37396800  1
  N  N63  1  0.75519100  0.88702500  0.12603200  1
  N  N64  1  0.96040000  0.68903900  0.45941300  1
  N  N65  1  0.03960000  0.18903900  0.04058700  1
  N  N66  1  0.03960000  0.31096100  0.54058700  1
  N  N67  1  0.96040000  0.81096100  0.95941300  1
  N  N68  1  0.76661000  0.89572200  0.44949500  1
  N  N69  1  0.23339000  0.39572200  0.05050500  1
  N  N70  1  0.23339000  0.10427800  0.55050500  1
  N  N71  1  0.76661000  0.60427800  0.94949500  1
  O  O72  1  0.08783400  0.86581200  0.59859200  1
  O  O73  1  0.91216600  0.36581200  0.90140800  1
  O  O74  1  0.91216600  0.13418800  0.40140800  1
  O  O75  1  0.08783400  0.63418800  0.09859200  1
  O  O76  1  0.95315700  0.82476000  0.73552600  1
  O  O77  1  0.04684300  0.32476000  0.76447400  1
  O  O78  1  0.04684300  0.17524000  0.26447400  1
  O  O79  1  0.95315700  0.67524000  0.23552600  1
  O  O80  1  0.55813500  0.93073300  0.62516500  1
  O  O81  1  0.44186500  0.43073300  0.87483500  1
  O  O82  1  0.44186500  0.06926700  0.37483500  1
  O  O83  1  0.55813500  0.56926700  0.12516500  1
  O  O84  1  0.45064000  0.77608400  0.66680900  1
  O  O85  1  0.54936000  0.27608400  0.83319100  1
  O  O86  1  0.54936000  0.22391600  0.33319100  1
  O  O87  1  0.45064000  0.72391600  0.16680900  1
  O  O88  1  0.59337000  0.60879500  0.38410600  1
  O  O89  1  0.40663000  0.10879500  0.11589400  1
  O  O90  1  0.40663000  0.39120500  0.61589400  1
  O  O91  1  0.59337000  0.89120500  0.88410600  1
  O  O92  1  0.41890700  0.74100400  0.41804100  1
  O  O93  1  0.58109300  0.24100400  0.08195900  1
  O  O94  1  0.58109300  0.25899600  0.58195900  1
  O  O95  1  0.41890700  0.75899600  0.91804100  1
  O  O96  1  0.78831300  0.52607700  0.58126600  1
  O  O97  1  0.21168700  0.02607700  0.91873400  1
  O  O98  1  0.21168700  0.47392300  0.41873400  1
  O  O99  1  0.78831300  0.97392300  0.08126600  1
  O  O100  1  0.71872300  0.61080700  0.71858400  1
  O  O101  1  0.28127700  0.11080700  0.78141600  1
  O  O102  1  0.28127700  0.38919300  0.28141600  1
  O  O103  1  0.71872300  0.88919300  0.21858400  1
  O  O104  1  0.21314800  0.59761700  0.63756000  1
  O  O105  1  0.78685200  0.09761700  0.86244000  1
  O  O106  1  0.78685200  0.40238300  0.36244000  1
  O  O107  1  0.21314800  0.90238300  0.13756000  1
  O  O108  1  0.12157100  0.89668300  0.35241400  1
  O  O109  1  0.87842900  0.39668300  0.14758600  1
  O  O110  1  0.87842900  0.10331700  0.64758600  1
  O  O111  1  0.12157100  0.60331700  0.85241400  1
