# generated using pymatgen
data_GdH2I3O10
_symmetry_space_group_name_H-M   'P 1'
_cell_length_a   6.69213800
_cell_length_b   7.39127300
_cell_length_c   10.11497222
_cell_angle_alpha   70.11354593
_cell_angle_beta   90.00000000
_cell_angle_gamma   90.00000000
_symmetry_Int_Tables_number   1
_chemical_formula_structural   GdH2I3O10
_chemical_formula_sum   'Gd2 H4 I6 O20'
_cell_volume   470.48624693
_cell_formula_units_Z   2
loop_
 _symmetry_equiv_pos_site_id
 _symmetry_equiv_pos_as_xyz
  1  'x, y, z'
loop_
 _atom_site_type_symbol
 _atom_site_label
 _atom_site_symmetry_multiplicity
 _atom_site_fract_x
 _atom_site_fract_y
 _atom_site_fract_z
 _atom_site_occupancy
  Gd  Gd0  1  0.65514100  0.26069200  0.30923200  1
  Gd  Gd1  1  0.15514100  0.73930800  0.69076800  1
  H  H2  1  0.97010200  0.28928000  0.91691900  1
  H  H3  1  0.47010200  0.71072000  0.08308100  1
  H  H4  1  0.87266000  0.09802800  0.01801700  1
  H  H5  1  0.37266000  0.90197200  0.98198300  1
  I  I6  1  0.63417700  0.66160400  0.46491700  1
  I  I7  1  0.13417700  0.33839600  0.53508300  1
  I  I8  1  0.49652100  0.35975500  0.91306200  1
  I  I9  1  0.99652100  0.64024500  0.08693800  1
  I  I10  1  0.18326300  0.02555400  0.28006300  1
  I  I11  1  0.68326300  0.97444600  0.71993700  1
  O  O12  1  0.52274300  0.53775600  0.35284400  1
  O  O13  1  0.02274300  0.46224400  0.64715600  1
  O  O14  1  0.43995300  0.59029500  0.60230500  1
  O  O15  1  0.93995300  0.40970500  0.39769500  1
  O  O16  1  0.56154400  0.90891600  0.36285100  1
  O  O17  1  0.06154400  0.09108400  0.63714900  1
  O  O18  1  0.48261200  0.23677600  0.10430900  1
  O  O19  1  0.98261200  0.76322400  0.89569100  1
  O  O20  1  0.44129600  0.16048200  0.85216400  1
  O  O21  1  0.94129600  0.83951800  0.14783600  1
  O  O22  1  0.30194500  0.19961600  0.35232400  1
  O  O23  1  0.80194500  0.80038400  0.64767600  1
  O  O24  1  0.61133500  0.16150300  0.55673300  1
  O  O25  1  0.11133500  0.83849700  0.44326700  1
  O  O26  1  0.74334600  0.53284100  0.10520500  1
  O  O27  1  0.24334600  0.46715900  0.89479500  1
  O  O28  1  0.94804200  0.15744800  0.23165000  1
  O  O29  1  0.44804200  0.84255200  0.76835000  1
  O  O30  1  0.85155900  0.20735400  0.93044200  1
  O  O31  1  0.35155900  0.79264600  0.06955800  1
