# generated using pymatgen
data_Fe2Co(AsO7)2
_symmetry_space_group_name_H-M   'P 1'
_cell_length_a   9.69123600
_cell_length_b   5.59689700
_cell_length_c   9.66148315
_cell_angle_alpha   83.75307522
_cell_angle_beta   90.00000000
_cell_angle_gamma   90.00000000
_symmetry_Int_Tables_number   1
_chemical_formula_structural   Fe2Co(AsO7)2
_chemical_formula_sum   'Fe4 Co2 As4 O28'
_cell_volume   520.93535817
_cell_formula_units_Z   2
loop_
 _symmetry_equiv_pos_site_id
 _symmetry_equiv_pos_as_xyz
  1  'x, y, z'
loop_
 _atom_site_type_symbol
 _atom_site_label
 _atom_site_symmetry_multiplicity
 _atom_site_fract_x
 _atom_site_fract_y
 _atom_site_fract_z
 _atom_site_occupancy
  Fe  Fe0  1  0.64540300  0.15303500  0.45022300  1
  Fe  Fe1  1  0.14540300  0.34696500  0.54977700  1
  Fe  Fe2  1  0.35459700  0.84696500  0.54977700  1
  Fe  Fe3  1  0.85459700  0.65303500  0.45022300  1
  Co  Co4  1  0.50000000  0.50000000  0.00000000  1
  Co  Co5  1  0.00000000  0.00000000  0.00000000  1
  As  As6  1  0.93087700  0.16308300  0.29144700  1
  As  As7  1  0.43087700  0.33691700  0.70855300  1
  As  As8  1  0.06912300  0.83691700  0.70855300  1
  As  As9  1  0.56912300  0.66308300  0.29144700  1
  O  O10  1  0.99312700  0.38737900  0.38678600  1
  O  O11  1  0.49312700  0.11262100  0.61321400  1
  O  O12  1  0.00687300  0.61262100  0.61321400  1
  O  O13  1  0.50687300  0.88737900  0.38678600  1
  O  O14  1  0.98509400  0.87733400  0.35024500  1
  O  O15  1  0.48509400  0.62266600  0.64975500  1
  O  O16  1  0.01490600  0.12266600  0.64975500  1
  O  O17  1  0.51490600  0.37733400  0.35024500  1
  O  O18  1  0.00443200  0.22881300  0.12668200  1
  O  O19  1  0.50443200  0.27118700  0.87331800  1
  O  O20  1  0.99556800  0.77118700  0.87331800  1
  O  O21  1  0.49556800  0.72881300  0.12668200  1
  O  O22  1  0.75485500  0.18586200  0.27407300  1
  O  O23  1  0.25485500  0.31413800  0.72592700  1
  O  O24  1  0.24514500  0.81413800  0.72592700  1
  O  O25  1  0.74514500  0.68586200  0.27407300  1
  O  O26  1  0.73712800  0.41979900  0.52696500  1
  O  O27  1  0.23712800  0.08020100  0.47303500  1
  O  O28  1  0.26287200  0.58020100  0.47303500  1
  O  O29  1  0.76287200  0.91979900  0.52696500  1
  O  O30  1  0.35326200  0.33505700  0.10114000  1
  O  O31  1  0.85326200  0.16494300  0.89886000  1
  O  O32  1  0.64673800  0.66494300  0.89886000  1
  O  O33  1  0.14673800  0.83505700  0.10114000  1
  O  O34  1  0.69711200  0.51356700  0.99734900  1
  O  O35  1  0.19711200  0.98643300  0.00265100  1
  O  O36  1  0.30288800  0.48643300  0.00265100  1
  O  O37  1  0.80288800  0.01356700  0.99734900  1
