# generated using pymatgen
data_AlSiPH9C3NCl6
_symmetry_space_group_name_H-M   'P 1'
_cell_length_a   13.32152214
_cell_length_b   16.19709961
_cell_length_c   16.88920803
_cell_angle_alpha   115.84309872
_cell_angle_beta   90.00000000
_cell_angle_gamma   90.00000000
_symmetry_Int_Tables_number   1
_chemical_formula_structural   AlSiPH9C3NCl6
_chemical_formula_sum   'Al8 Si8 P8 H72 C24 N8 Cl48'
_cell_volume   3279.73396933
_cell_formula_units_Z   8
loop_
 _symmetry_equiv_pos_site_id
 _symmetry_equiv_pos_as_xyz
  1  'x, y, z'
loop_
 _atom_site_type_symbol
 _atom_site_label
 _atom_site_symmetry_multiplicity
 _atom_site_fract_x
 _atom_site_fract_y
 _atom_site_fract_z
 _atom_site_occupancy
  Al  Al0  1  0.41022387  0.37645519  0.11433452  1
  Al  Al1  1  0.91022387  0.62354481  0.38566548  1
  Al  Al2  1  0.58977613  0.62354481  0.88566548  1
  Al  Al3  1  0.08977613  0.37645519  0.61433452  1
  Al  Al4  1  0.40681485  0.86194696  0.62637327  1
  Al  Al5  1  0.90681485  0.13805304  0.87362673  1
  Al  Al6  1  0.59318515  0.13805304  0.37362673  1
  Al  Al7  1  0.09318515  0.86194696  0.12637327  1
  Si  Si8  1  0.34198464  0.15760118  0.02106766  1
  Si  Si9  1  0.84198464  0.84239882  0.47893234  1
  Si  Si10  1  0.65801536  0.84239882  0.97893234  1
  Si  Si11  1  0.15801536  0.15760118  0.52106766  1
  Si  Si12  1  0.34433807  0.78047873  0.41558357  1
  Si  Si13  1  0.84433807  0.21952127  0.08441643  1
  Si  Si14  1  0.65566193  0.21952127  0.58441643  1
  Si  Si15  1  0.15566193  0.78047873  0.91558357  1
  P  P16  1  0.43809844  0.25018078  0.91954586  1
  P  P17  1  0.93809844  0.74981922  0.58045414  1
  P  P18  1  0.56190156  0.74981922  0.08045414  1
  P  P19  1  0.06190156  0.25018078  0.41954586  1
  P  P20  1  0.43804859  0.66336381  0.49267777  1
  P  P21  1  0.93804859  0.33663619  0.00732223  1
  P  P22  1  0.56195141  0.33663619  0.50732223  1
  P  P23  1  0.06195141  0.66336381  0.99267777  1
  H  H24  1  0.28790885  0.00501827  0.91928341  1
  H  H25  1  0.78790885  0.99498173  0.58071659  1
  H  H26  1  0.71209115  0.99498173  0.08071659  1
  H  H27  1  0.21209115  0.00501827  0.41928341  1
  H  H28  1  0.30962075  0.06738127  0.85779208  1
  H  H29  1  0.80962075  0.93261873  0.64220792  1
  H  H30  1  0.69037925  0.93261873  0.14220792  1
  H  H31  1  0.19037925  0.06738127  0.35779208  1
  H  H32  1  0.41278764  0.02076710  0.89248751  1
  H  H33  1  0.91278764  0.97923290  0.60751249  1
  H  H34  1  0.58721236  0.97923290  0.10751249  1
  H  H35  1  0.08721236  0.02076710  0.39248751  1
  H  H36  1  0.20541482  0.25019851  0.12308275  1
  H  H37  1  0.70541482  0.74980149  0.37691725  1
  H  H38  1  0.79458518  0.74980149  0.87691725  1
  H  H39  1  0.29458518  0.25019851  0.62308275  1
  H  H40  1  0.17126077  0.21456533  0.01029340  1
  H  H41  1  0.67126077  0.78543467  0.48970660  1
  H  H42  1  0.82873923  0.78543467  0.98970660  1
  H  H43  1  0.32873923  0.21456533  0.51029340  1
  H  H44  1  0.16908389  0.13439465  0.05572971  1
  H  H45  1  0.66908389  0.86560535  0.44427029  1
  H  H46  1  0.83091611  0.86560535  0.94427029  1
  H  H47  1  0.33091611  0.13439465  0.55572971  1
  H  H48  1  0.42708799  0.18995917  0.16389970  1
  H  H49  1  0.92708799  0.81004083  0.33610030  1
  H  H50  1  0.57291201  0.81004083  0.83610030  1
  H  H51  1  0.07291201  0.18995917  0.66389970  1
  H  H52  1  0.37339766  0.07852781  0.11299961  1
  H  H53  1  0.87339766  0.92147219  0.38700039  1
  H  H54  1  0.62660234  0.92147219  0.88700039  1
  H  H55  1  0.12660234  0.07852781  0.61299961  1
  H  H56  1  0.48925761  0.10089141  0.07318235  1
  H  H57  1  0.98925761  0.89910859  0.42681765  1
  H  H58  1  0.51074239  0.89910859  0.92681765  1
  H  H59  1  0.01074239  0.10089141  0.57318235  1
  H  H60  1  0.31721063  0.61330195  0.31342794  1
  H  H61  1  0.81721063  0.38669805  0.18657206  1
  H  H62  1  0.68278937  0.38669805  0.68657206  1
  H  H63  1  0.18278937  0.61330195  0.81342794  1
  H  H64  1  0.30602116  0.68685897  0.26180208  1
  H  H65  1  0.80602116  0.31314103  0.23819792  1
  H  H66  1  0.69397884  0.31314103  0.73819792  1
  H  H67  1  0.19397884  0.68685897  0.76180208  1
  H  H68  1  0.42718344  0.65640689  0.28374098  1
  H  H69  1  0.92718344  0.34359311  0.21625902  1
  H  H70  1  0.57281656  0.34359311  0.71625902  1
  H  H71  1  0.07281656  0.65640689  0.78374098  1
  H  H72  1  0.49031216  0.85241498  0.37796345  1
  H  H73  1  0.99031216  0.14758502  0.12203655  1
  H  H74  1  0.50968784  0.14758502  0.62203655  1
  H  H75  1  0.00968784  0.85241498  0.87796345  1
  H  H76  1  0.37355495  0.89046128  0.35497741  1
  H  H77  1  0.87355495  0.10953872  0.14502259  1
  H  H78  1  0.62644505  0.10953872  0.64502259  1
  H  H79  1  0.12644505  0.89046128  0.85497741  1
  H  H80  1  0.41887492  0.93696414  0.46520466  1
  H  H81  1  0.91887492  0.06303586  0.03479534  1
  H  H82  1  0.58112508  0.06303586  0.53479534  1
  H  H83  1  0.08112508  0.93696414  0.96520466  1
  H  H84  1  0.20095866  0.87424634  0.50558853  1
  H  H85  1  0.70095866  0.12575366  0.99441147  1
  H  H86  1  0.79904134  0.12575366  0.49441147  1
  H  H87  1  0.29904134  0.87424634  0.00558853  1
  H  H88  1  0.16861894  0.80908339  0.39221034  1
  H  H89  1  0.66861894  0.19091661  0.10778966  1
  H  H90  1  0.83138106  0.19091661  0.60778966  1
  H  H91  1  0.33138106  0.80908339  0.89221034  1
  H  H92  1  0.17559296  0.75392600  0.46256035  1
  H  H93  1  0.67559296  0.24607400  0.03743965  1
  H  H94  1  0.82440704  0.24607400  0.53743965  1
  H  H95  1  0.32440704  0.75392600  0.96256035  1
  C  C96  1  0.33941383  0.05441537  0.91200745  1
  C  C97  1  0.83941383  0.94558463  0.58799255  1
  C  C98  1  0.66058617  0.94558463  0.08799255  1
  C  C99  1  0.16058617  0.05441537  0.41200745  1
  C  C100  1  0.20980745  0.19393076  0.05643975  1
  C  C101  1  0.70980745  0.80606924  0.44356025  1
  C  C102  1  0.79019255  0.80606924  0.94356025  1
  C  C103  1  0.29019255  0.19393076  0.55643975  1
  C  C104  1  0.41559587  0.13012918  0.10040995  1
  C  C105  1  0.91559587  0.86987082  0.39959005  1
  C  C106  1  0.58440413  0.86987082  0.89959005  1
  C  C107  1  0.08440413  0.13012918  0.60040995  1
  C  C108  1  0.35067567  0.67362749  0.30994009  1
  C  C109  1  0.85067567  0.32637251  0.19005991  1
  C  C110  1  0.64932433  0.32637251  0.69005991  1
  C  C111  1  0.14932433  0.67362749  0.80994009  1
  C  C112  1  0.41398017  0.87404068  0.40320635  1
  C  C113  1  0.91398017  0.12595932  0.09679365  1
  C  C114  1  0.58601983  0.12595932  0.59679365  1
  C  C115  1  0.08601983  0.87404068  0.90320635  1
  C  C116  1  0.20983239  0.80759413  0.44807549  1
  C  C117  1  0.70983239  0.19240587  0.05192451  1
  C  C118  1  0.79016761  0.19240587  0.55192451  1
  C  C119  1  0.29016761  0.80759413  0.94807549  1
  N  N120  1  0.40769131  0.25538407  0.01222539  1
  N  N121  1  0.90769131  0.74461593  0.48777461  1
  N  N122  1  0.59230869  0.74461593  0.98777461  1
  N  N123  1  0.09230869  0.25538407  0.51222539  1
  N  N124  1  0.40770365  0.76292960  0.50591436  1
  N  N125  1  0.90770365  0.23707040  0.99408564  1
  N  N126  1  0.59229635  0.23707040  0.49408564  1
  N  N127  1  0.09229635  0.76292960  0.00591436  1
  Cl  Cl128  1  0.55903681  0.43155538  0.14724608  1
  Cl  Cl129  1  0.05903681  0.56844462  0.35275392  1
  Cl  Cl130  1  0.44096319  0.56844462  0.85275392  1
  Cl  Cl131  1  0.94096319  0.43155538  0.64724608  1
  Cl  Cl132  1  0.34982701  0.36739940  0.22821856  1
  Cl  Cl133  1  0.84982701  0.63260060  0.27178144  1
  Cl  Cl134  1  0.65017299  0.63260060  0.77178144  1
  Cl  Cl135  1  0.15017299  0.36739940  0.72821856  1
  Cl  Cl136  1  0.31481285  0.46359484  0.08082308  1
  Cl  Cl137  1  0.81481285  0.53640516  0.41917692  1
  Cl  Cl138  1  0.68518715  0.53640516  0.91917692  1
  Cl  Cl139  1  0.18518715  0.46359484  0.58082308  1
  Cl  Cl140  1  0.51489696  0.35825791  0.92620755  1
  Cl  Cl141  1  0.01489696  0.64174209  0.57379245  1
  Cl  Cl142  1  0.48510304  0.64174209  0.07379245  1
  Cl  Cl143  1  0.98510304  0.35825791  0.42620755  1
  Cl  Cl144  1  0.32146691  0.24104178  0.84077024  1
  Cl  Cl145  1  0.82146691  0.75895822  0.65922976  1
  Cl  Cl146  1  0.67853309  0.75895822  0.15922976  1
  Cl  Cl147  1  0.17853309  0.24104178  0.34077024  1
  Cl  Cl148  1  0.52553853  0.14439272  0.84563853  1
  Cl  Cl149  1  0.02553853  0.85560728  0.65436147  1
  Cl  Cl150  1  0.47446147  0.85560728  0.15436147  1
  Cl  Cl151  1  0.97446147  0.14439272  0.34563853  1
  Cl  Cl152  1  0.33759586  0.98361255  0.63064022  1
  Cl  Cl153  1  0.83759586  0.01638745  0.86935978  1
  Cl  Cl154  1  0.66240414  0.01638745  0.36935978  1
  Cl  Cl155  1  0.16240414  0.98361255  0.13064022  1
  Cl  Cl156  1  0.55727283  0.89653515  0.67506526  1
  Cl  Cl157  1  0.05727283  0.10346485  0.82493474  1
  Cl  Cl158  1  0.44272717  0.10346485  0.32493474  1
  Cl  Cl159  1  0.94272717  0.89653515  0.17506526  1
  Cl  Cl160  1  0.31702166  0.81533730  0.70474768  1
  Cl  Cl161  1  0.81702166  0.18466270  0.79525232  1
  Cl  Cl162  1  0.68297834  0.18466270  0.29525232  1
  Cl  Cl163  1  0.18297834  0.81533730  0.20474768  1
  Cl  Cl164  1  0.53102821  0.59469819  0.39258306  1
  Cl  Cl165  1  0.03102821  0.40530181  0.10741694  1
  Cl  Cl166  1  0.46897179  0.40530181  0.60741694  1
  Cl  Cl167  1  0.96897179  0.59469819  0.89258306  1
  Cl  Cl168  1  0.32173106  0.57796176  0.47194538  1
  Cl  Cl169  1  0.82173106  0.42203824  0.02805462  1
  Cl  Cl170  1  0.67826894  0.42203824  0.52805462  1
  Cl  Cl171  1  0.17826894  0.57796176  0.97194538  1
  Cl  Cl172  1  0.50983647  0.66094137  0.59510660  1
  Cl  Cl173  1  0.00983647  0.33905863  0.90489340  1
  Cl  Cl174  1  0.49016353  0.33905863  0.40489340  1
  Cl  Cl175  1  0.99016353  0.66094137  0.09510660  1
