# generated using pymatgen
data_Dy2Al5Fe12
_symmetry_space_group_name_H-M   'P 1'
_cell_length_a   8.59319100
_cell_length_b   8.59319100
_cell_length_c   8.37436500
_cell_angle_alpha   90.00000000
_cell_angle_beta   90.00000000
_cell_angle_gamma   120.00000774
_symmetry_Int_Tables_number   1
_chemical_formula_structural   Dy2Al5Fe12
_chemical_formula_sum   'Dy4 Al10 Fe24'
_cell_volume   535.53938318
_cell_formula_units_Z   2
loop_
 _symmetry_equiv_pos_site_id
 _symmetry_equiv_pos_as_xyz
  1  'x, y, z'
loop_
 _atom_site_type_symbol
 _atom_site_label
 _atom_site_symmetry_multiplicity
 _atom_site_fract_x
 _atom_site_fract_y
 _atom_site_fract_z
 _atom_site_occupancy
  Dy  Dy0  1  0.00000000  0.00000000  0.25000000  1
  Dy  Dy1  1  0.00000000  0.00000000  0.75000000  1
  Dy  Dy2  1  0.33333300  0.66666700  0.75000000  1
  Dy  Dy3  1  0.66666700  0.33333300  0.25000000  1
  Al  Al4  1  0.33333300  0.66666700  0.39682300  1
  Al  Al5  1  0.66666700  0.33333300  0.60317700  1
  Al  Al6  1  0.66666700  0.33333300  0.89682300  1
  Al  Al7  1  0.33333300  0.66666700  0.10317700  1
  Al  Al8  1  0.50000000  0.50000000  0.50000000  1
  Al  Al9  1  0.50000000  0.00000000  0.50000000  1
  Al  Al10  1  0.00000000  0.50000000  0.50000000  1
  Al  Al11  1  0.50000000  0.50000000  0.00000000  1
  Al  Al12  1  0.50000000  0.00000000  0.00000000  1
  Al  Al13  1  0.00000000  0.50000000  0.00000000  1
  Fe  Fe14  1  0.32339500  0.34737700  0.25000000  1
  Fe  Fe15  1  0.65262300  0.97601800  0.25000000  1
  Fe  Fe16  1  0.02398200  0.67660500  0.25000000  1
  Fe  Fe17  1  0.65262300  0.67660500  0.25000000  1
  Fe  Fe18  1  0.02398200  0.34737700  0.25000000  1
  Fe  Fe19  1  0.32339500  0.97601800  0.25000000  1
  Fe  Fe20  1  0.67660500  0.65262300  0.75000000  1
  Fe  Fe21  1  0.34737700  0.02398200  0.75000000  1
  Fe  Fe22  1  0.97601800  0.32339500  0.75000000  1
  Fe  Fe23  1  0.34737700  0.32339500  0.75000000  1
  Fe  Fe24  1  0.97601800  0.65262300  0.75000000  1
  Fe  Fe25  1  0.67660500  0.02398200  0.75000000  1
  Fe  Fe26  1  0.16435900  0.83564100  0.51271200  1
  Fe  Fe27  1  0.16435900  0.32871900  0.51271200  1
  Fe  Fe28  1  0.67128100  0.83564100  0.51271200  1
  Fe  Fe29  1  0.83564100  0.16435900  0.48728800  1
  Fe  Fe30  1  0.83564100  0.67128100  0.48728800  1
  Fe  Fe31  1  0.32871900  0.16435900  0.48728800  1
  Fe  Fe32  1  0.83564100  0.16435900  0.01271200  1
  Fe  Fe33  1  0.83564100  0.67128100  0.01271200  1
  Fe  Fe34  1  0.32871900  0.16435900  0.01271200  1
  Fe  Fe35  1  0.16435900  0.83564100  0.98728800  1
  Fe  Fe36  1  0.16435900  0.32871900  0.98728800  1
  Fe  Fe37  1  0.67128100  0.83564100  0.98728800  1
