# generated using pymatgen
data_Tb3Ni19B10
_symmetry_space_group_name_H-M   'P 1'
_cell_length_a   7.89328525
_cell_length_b   7.89328525
_cell_length_c   5.78733382
_cell_angle_alpha   88.89949824
_cell_angle_beta   88.89949824
_cell_angle_gamma   67.14541253
_symmetry_Int_Tables_number   1
_chemical_formula_structural   Tb3Ni19B10
_chemical_formula_sum   'Tb3 Ni19 B10'
_cell_volume   332.17810653
_cell_formula_units_Z   1
loop_
 _symmetry_equiv_pos_site_id
 _symmetry_equiv_pos_as_xyz
  1  'x, y, z'
loop_
 _atom_site_type_symbol
 _atom_site_label
 _atom_site_symmetry_multiplicity
 _atom_site_fract_x
 _atom_site_fract_y
 _atom_site_fract_z
 _atom_site_occupancy
  Tb  Tb0  1  0.00000000  0.00000000  0.00000000  1
  Tb  Tb1  1  0.62553000  0.62553000  0.61496900  1
  Tb  Tb2  1  0.37447000  0.37447000  0.38503100  1
  Ni  Ni3  1  0.00000000  0.00000000  0.50000000  1
  Ni  Ni4  1  0.62219500  0.62219500  0.12701200  1
  Ni  Ni5  1  0.37780500  0.37780500  0.87298800  1
  Ni  Ni6  1  0.16267400  0.16267400  0.29689500  1
  Ni  Ni7  1  0.83732600  0.83732600  0.70310500  1
  Ni  Ni8  1  0.18209200  0.18209200  0.72910000  1
  Ni  Ni9  1  0.81790800  0.81790800  0.27090000  1
  Ni  Ni10  1  0.48272800  0.95532500  0.30199400  1
  Ni  Ni11  1  0.95532500  0.48272800  0.30199400  1
  Ni  Ni12  1  0.51727200  0.04467500  0.69800600  1
  Ni  Ni13  1  0.04467500  0.51727200  0.69800600  1
  Ni  Ni14  1  0.12201100  0.62289000  0.07306500  1
  Ni  Ni15  1  0.62289000  0.12201100  0.07306500  1
  Ni  Ni16  1  0.87798900  0.37711000  0.92693500  1
  Ni  Ni17  1  0.37711000  0.87798900  0.92693500  1
  Ni  Ni18  1  0.77034000  0.28921000  0.30186200  1
  Ni  Ni19  1  0.28921000  0.77034000  0.30186200  1
  Ni  Ni20  1  0.22966000  0.71079000  0.69813800  1
  Ni  Ni21  1  0.71079000  0.22966000  0.69813800  1
  B  B22  1  0.38403300  0.61596700  0.00000000  1
  B  B23  1  0.61596700  0.38403300  0.00000000  1
  B  B24  1  0.65073700  0.85762800  0.97529500  1
  B  B25  1  0.85762800  0.65073700  0.97529500  1
  B  B26  1  0.34926300  0.14237200  0.02470500  1
  B  B27  1  0.14237200  0.34926300  0.02470500  1
  B  B28  1  0.93564400  0.30020800  0.56930500  1
  B  B29  1  0.30020800  0.93564400  0.56930500  1
  B  B30  1  0.06435600  0.69979200  0.43069500  1
  B  B31  1  0.69979200  0.06435600  0.43069500  1
