# generated using pymatgen
data_Mn2(SeO4)3
_symmetry_space_group_name_H-M   'P 1'
_cell_length_a   10.09705400
_cell_length_b   7.66569000
_cell_length_c   13.66033132
_cell_angle_alpha   88.44659066
_cell_angle_beta   90.00000000
_cell_angle_gamma   90.00000000
_symmetry_Int_Tables_number   1
_chemical_formula_structural   Mn2(SeO4)3
_chemical_formula_sum   'Mn8 Se12 O48'
_cell_volume   1056.93316833
_cell_formula_units_Z   4
loop_
 _symmetry_equiv_pos_site_id
 _symmetry_equiv_pos_as_xyz
  1  'x, y, z'
loop_
 _atom_site_type_symbol
 _atom_site_label
 _atom_site_symmetry_multiplicity
 _atom_site_fract_x
 _atom_site_fract_y
 _atom_site_fract_z
 _atom_site_occupancy
  Mn  Mn0  1  0.00000000  0.00000000  0.00000000  1
  Mn  Mn1  1  0.50000000  0.00000000  0.50000000  1
  Mn  Mn2  1  0.00000000  0.00000000  0.50000000  1
  Mn  Mn3  1  0.50000000  0.00000000  0.00000000  1
  Mn  Mn4  1  0.26432400  0.46392000  0.77317700  1
  Mn  Mn5  1  0.76432400  0.53608000  0.72682300  1
  Mn  Mn6  1  0.73567600  0.53608000  0.22682300  1
  Mn  Mn7  1  0.23567600  0.46392000  0.27317700  1
  Se  Se8  1  0.54033300  0.35488700  0.86645700  1
  Se  Se9  1  0.04033300  0.64511300  0.63354300  1
  Se  Se10  1  0.45966700  0.64511300  0.13354300  1
  Se  Se11  1  0.95966700  0.35488700  0.36645700  1
  Se  Se12  1  0.99496300  0.34139400  0.85691300  1
  Se  Se13  1  0.49496300  0.65860600  0.64308700  1
  Se  Se14  1  0.00503700  0.65860600  0.14308700  1
  Se  Se15  1  0.50503700  0.34139400  0.35691300  1
  Se  Se16  1  0.74955000  0.82432300  0.88856000  1
  Se  Se17  1  0.24955000  0.17567700  0.61144000  1
  Se  Se18  1  0.25045000  0.17567700  0.11144000  1
  Se  Se19  1  0.75045000  0.82432300  0.38856000  1
  O  O20  1  0.88834800  0.70897600  0.68268500  1
  O  O21  1  0.38834800  0.29102400  0.81731500  1
  O  O22  1  0.11165200  0.29102400  0.31731500  1
  O  O23  1  0.61165200  0.70897600  0.18268500  1
  O  O24  1  0.13034500  0.63599500  0.74250800  1
  O  O25  1  0.63034500  0.36400500  0.75749200  1
  O  O26  1  0.86965500  0.36400500  0.25749200  1
  O  O27  1  0.36965500  0.63599500  0.24250800  1
  O  O28  1  0.09336700  0.85106300  0.59460500  1
  O  O29  1  0.59336700  0.14893700  0.90539500  1
  O  O30  1  0.90663300  0.14893700  0.40539500  1
  O  O31  1  0.40663300  0.85106300  0.09460500  1
  O  O32  1  0.90181900  0.36694000  0.75085800  1
  O  O33  1  0.40181900  0.63306000  0.74914200  1
  O  O34  1  0.09818100  0.63306000  0.24914200  1
  O  O35  1  0.59818100  0.36694000  0.25085800  1
  O  O36  1  0.13754800  0.27695500  0.79849500  1
  O  O37  1  0.63754800  0.72304500  0.70150500  1
  O  O38  1  0.86245200  0.72304500  0.20150500  1
  O  O39  1  0.36245200  0.27695500  0.29849500  1
  O  O40  1  0.93431400  0.12959800  0.88955900  1
  O  O41  1  0.43431400  0.87040200  0.61044100  1
  O  O42  1  0.06568600  0.87040200  0.11044100  1
  O  O43  1  0.56568600  0.12959800  0.38955900  1
  O  O44  1  0.10719100  0.19856600  0.54011300  1
  O  O45  1  0.60719100  0.80143400  0.95988700  1
  O  O46  1  0.89280900  0.80143400  0.45988700  1
  O  O47  1  0.39280900  0.19856600  0.04011300  1
  O  O48  1  0.26863100  0.39498800  0.63536400  1
  O  O49  1  0.76863100  0.60501200  0.86463600  1
  O  O50  1  0.73136900  0.60501200  0.36463600  1
  O  O51  1  0.23136900  0.39498800  0.13536400  1
  O  O52  1  0.87322900  0.82163500  0.97978800  1
  O  O53  1  0.37322900  0.17836500  0.52021200  1
  O  O54  1  0.12677100  0.17836500  0.02021200  1
  O  O55  1  0.62677100  0.82163500  0.47978800  1
  O  O56  1  0.87045300  0.05161000  0.59387700  1
  O  O57  1  0.37045300  0.94839000  0.90612300  1
  O  O58  1  0.12954700  0.94839000  0.40612300  1
  O  O59  1  0.62954700  0.05161000  0.09387700  1
  O  O60  1  0.25731300  0.53364500  0.90219000  1
  O  O61  1  0.75731300  0.46635500  0.59781000  1
  O  O62  1  0.74268700  0.46635500  0.09781000  1
  O  O63  1  0.24268700  0.53364500  0.40219000  1
  O  O64  1  0.63310000  0.13781000  0.56518100  1
  O  O65  1  0.13310000  0.86219000  0.93481900  1
  O  O66  1  0.36690000  0.86219000  0.43481900  1
  O  O67  1  0.86690000  0.13781000  0.06518100  1
