# generated using pymatgen
data_CuSn3H27C9NCl
_symmetry_space_group_name_H-M   'P 1'
_cell_length_a   16.32404852
_cell_length_b   16.32404852
_cell_length_c   16.32404852
_cell_angle_alpha   90.00000000
_cell_angle_beta   90.00000000
_cell_angle_gamma   90.00000000
_symmetry_Int_Tables_number   1
_chemical_formula_structural   CuSn3H27C9NCl
_chemical_formula_sum   'Cu8 Sn24 H216 C72 N8 Cl8'
_cell_volume   4349.94364815
_cell_formula_units_Z   8
loop_
 _symmetry_equiv_pos_site_id
 _symmetry_equiv_pos_as_xyz
  1  'x, y, z'
loop_
 _atom_site_type_symbol
 _atom_site_label
 _atom_site_symmetry_multiplicity
 _atom_site_fract_x
 _atom_site_fract_y
 _atom_site_fract_z
 _atom_site_occupancy
  Cu  Cu0  1  0.23117915  0.73117915  0.76882085  1
  Cu  Cu1  1  0.73117915  0.76882085  0.23117915  1
  Cu  Cu2  1  0.76882085  0.23117915  0.73117915  1
  Cu  Cu3  1  0.26882085  0.26882085  0.26882085  1
  Cu  Cu4  1  0.72990626  0.72990626  0.72990626  1
  Cu  Cu5  1  0.27009374  0.22990626  0.77009374  1
  Cu  Cu6  1  0.22990626  0.77009374  0.27009374  1
  Cu  Cu7  1  0.77009374  0.27009374  0.22990626  1
  Sn  Sn8  1  0.16891771  0.54473807  0.77746251  1
  Sn  Sn9  1  0.22253749  0.66891771  0.95526193  1
  Sn  Sn10  1  0.04473807  0.72253749  0.83108229  1
  Sn  Sn11  1  0.66891771  0.95526193  0.22253749  1
  Sn  Sn12  1  0.72253749  0.83108229  0.04473807  1
  Sn  Sn13  1  0.54473807  0.77746251  0.16891771  1
  Sn  Sn14  1  0.83108229  0.04473807  0.72253749  1
  Sn  Sn15  1  0.77746251  0.16891771  0.54473807  1
  Sn  Sn16  1  0.95526193  0.22253749  0.66891771  1
  Sn  Sn17  1  0.33108229  0.45526193  0.27746251  1
  Sn  Sn18  1  0.27746251  0.33108229  0.45526193  1
  Sn  Sn19  1  0.45526193  0.27746251  0.33108229  1
  Sn  Sn20  1  0.54217093  0.71862980  0.67109454  1
  Sn  Sn21  1  0.32890546  0.04217093  0.78137020  1
  Sn  Sn22  1  0.21862980  0.82890546  0.45782907  1
  Sn  Sn23  1  0.04217093  0.78137020  0.32890546  1
  Sn  Sn24  1  0.82890546  0.45782907  0.21862980  1
  Sn  Sn25  1  0.71862980  0.67109454  0.54217093  1
  Sn  Sn26  1  0.45782907  0.21862980  0.82890546  1
  Sn  Sn27  1  0.67109454  0.54217093  0.71862980  1
  Sn  Sn28  1  0.78137020  0.32890546  0.04217093  1
  Sn  Sn29  1  0.95782907  0.28137020  0.17109454  1
  Sn  Sn30  1  0.17109454  0.95782907  0.28137020  1
  Sn  Sn31  1  0.28137020  0.17109454  0.95782907  1
  H  H32  1  0.17035761  0.39865320  0.85916901  1
  H  H33  1  0.14083099  0.67035761  0.10134680  1
  H  H34  1  0.89865320  0.64083099  0.82964239  1
  H  H35  1  0.67035761  0.10134680  0.14083099  1
  H  H36  1  0.64083099  0.82964239  0.89865320  1
  H  H37  1  0.39865320  0.85916901  0.17035761  1
  H  H38  1  0.82964239  0.89865320  0.64083099  1
  H  H39  1  0.85916901  0.17035761  0.39865320  1
  H  H40  1  0.10134680  0.14083099  0.67035761  1
  H  H41  1  0.32964239  0.60134680  0.35916901  1
  H  H42  1  0.35916901  0.32964239  0.60134680  1
  H  H43  1  0.60134680  0.35916901  0.32964239  1
  H  H44  1  0.07393051  0.44688022  0.87592590  1
  H  H45  1  0.12407410  0.57393051  0.05311978  1
  H  H46  1  0.94688022  0.62407410  0.92606949  1
  H  H47  1  0.57393051  0.05311978  0.12407410  1
  H  H48  1  0.62407410  0.92606949  0.94688022  1
  H  H49  1  0.44688022  0.87592590  0.07393051  1
  H  H50  1  0.92606949  0.94688022  0.62407410  1
  H  H51  1  0.87592590  0.07393051  0.44688022  1
  H  H52  1  0.05311978  0.12407410  0.57393051  1
  H  H53  1  0.42606949  0.55311978  0.37592590  1
  H  H54  1  0.37592590  0.42606949  0.55311978  1
  H  H55  1  0.55311978  0.37592590  0.42606949  1
  H  H56  1  0.16115828  0.47924536  0.93304261  1
  H  H57  1  0.06695739  0.66115828  0.02075464  1
  H  H58  1  0.97924536  0.56695739  0.83884172  1
  H  H59  1  0.66115828  0.02075464  0.06695739  1
  H  H60  1  0.56695739  0.83884172  0.97924536  1
  H  H61  1  0.47924536  0.93304261  0.16115828  1
  H  H62  1  0.83884172  0.97924536  0.56695739  1
  H  H63  1  0.93304261  0.16115828  0.47924536  1
  H  H64  1  0.02075464  0.06695739  0.66115828  1
  H  H65  1  0.33884172  0.52075464  0.43304261  1
  H  H66  1  0.43304261  0.33884172  0.52075464  1
  H  H67  1  0.52075464  0.43304261  0.33884172  1
  H  H68  1  0.29530687  0.46724381  0.70083571  1
  H  H69  1  0.29916429  0.79530687  0.03275619  1
  H  H70  1  0.96724381  0.79916429  0.70469313  1
  H  H71  1  0.79530687  0.03275619  0.29916429  1
  H  H72  1  0.79916429  0.70469313  0.96724381  1
  H  H73  1  0.46724381  0.70083571  0.29530687  1
  H  H74  1  0.70469313  0.96724381  0.79916429  1
  H  H75  1  0.70083571  0.29530687  0.46724381  1
  H  H76  1  0.03275619  0.29916429  0.79530687  1
  H  H77  1  0.20469313  0.53275619  0.20083571  1
  H  H78  1  0.20083571  0.20469313  0.53275619  1
  H  H79  1  0.53275619  0.20083571  0.20469313  1
  H  H80  1  0.33683707  0.53989281  0.77200366  1
  H  H81  1  0.22799634  0.83683707  0.96010719  1
  H  H82  1  0.03989281  0.72799634  0.66316293  1
  H  H83  1  0.83683707  0.96010719  0.22799634  1
  H  H84  1  0.72799634  0.66316293  0.03989281  1
  H  H85  1  0.53989281  0.77200366  0.33683707  1
  H  H86  1  0.66316293  0.03989281  0.72799634  1
  H  H87  1  0.77200366  0.33683707  0.53989281  1
  H  H88  1  0.96010719  0.22799634  0.83683707  1
  H  H89  1  0.16316293  0.46010719  0.27200366  1
  H  H90  1  0.27200366  0.16316293  0.46010719  1
  H  H91  1  0.46010719  0.27200366  0.16316293  1
  H  H92  1  0.29777045  0.57424342  0.67567197  1
  H  H93  1  0.32432803  0.79777045  0.92575658  1
  H  H94  1  0.07424342  0.82432803  0.70222955  1
  H  H95  1  0.79777045  0.92575658  0.32432803  1
  H  H96  1  0.82432803  0.70222955  0.07424342  1
  H  H97  1  0.57424342  0.67567197  0.29777045  1
  H  H98  1  0.70222955  0.07424342  0.82432803  1
  H  H99  1  0.67567197  0.29777045  0.57424342  1
  H  H100  1  0.92575658  0.32432803  0.79777045  1
  H  H101  1  0.20222955  0.42575658  0.17567197  1
  H  H102  1  0.17567197  0.20222955  0.42575658  1
  H  H103  1  0.42575658  0.17567197  0.20222955  1
  H  H104  1  0.07920999  0.47810058  0.65374500  1
  H  H105  1  0.34625500  0.57920999  0.02189942  1
  H  H106  1  0.97810058  0.84625500  0.92079001  1
  H  H107  1  0.57920999  0.02189942  0.34625500  1
  H  H108  1  0.84625500  0.92079001  0.97810058  1
  H  H109  1  0.47810058  0.65374500  0.07920999  1
  H  H110  1  0.92079001  0.97810058  0.84625500  1
  H  H111  1  0.65374500  0.07920999  0.47810058  1
  H  H112  1  0.02189942  0.34625500  0.57920999  1
  H  H113  1  0.42079001  0.52189942  0.15374500  1
  H  H114  1  0.15374500  0.42079001  0.52189942  1
  H  H115  1  0.52189942  0.15374500  0.42079001  1
  H  H116  1  0.09262082  0.58446680  0.63262545  1
  H  H117  1  0.36737455  0.59262082  0.91553320  1
  H  H118  1  0.08446680  0.86737455  0.90737918  1
  H  H119  1  0.59262082  0.91553320  0.36737455  1
  H  H120  1  0.86737455  0.90737918  0.08446680  1
  H  H121  1  0.58446680  0.63262545  0.09262082  1
  H  H122  1  0.90737918  0.08446680  0.86737455  1
  H  H123  1  0.63262545  0.09262082  0.58446680  1
  H  H124  1  0.91553320  0.36737455  0.59262082  1
  H  H125  1  0.40737918  0.41553320  0.13262545  1
  H  H126  1  0.13262545  0.40737918  0.41553320  1
  H  H127  1  0.41553320  0.13262545  0.40737918  1
  H  H128  1  0.01634288  0.55147511  0.70416868  1
  H  H129  1  0.29583132  0.51634288  0.94852489  1
  H  H130  1  0.05147511  0.79583132  0.98365712  1
  H  H131  1  0.51634288  0.94852489  0.29583132  1
  H  H132  1  0.79583132  0.98365712  0.05147511  1
  H  H133  1  0.55147511  0.70416868  0.01634288  1
  H  H134  1  0.98365712  0.05147511  0.79583132  1
  H  H135  1  0.70416868  0.01634288  0.55147511  1
  H  H136  1  0.94852489  0.29583132  0.51634288  1
  H  H137  1  0.48365712  0.44852489  0.20416868  1
  H  H138  1  0.20416868  0.48365712  0.44852489  1
  H  H139  1  0.44852489  0.20416868  0.48365712  1
  H  H140  1  0.54838636  0.86783792  0.59311917  1
  H  H141  1  0.40688083  0.04838636  0.63216208  1
  H  H142  1  0.36783792  0.90688083  0.45161364  1
  H  H143  1  0.04838636  0.63216208  0.40688083  1
  H  H144  1  0.90688083  0.45161364  0.36783792  1
  H  H145  1  0.86783792  0.59311917  0.54838636  1
  H  H146  1  0.45161364  0.36783792  0.90688083  1
  H  H147  1  0.59311917  0.54838636  0.86783792  1
  H  H148  1  0.63216208  0.40688083  0.04838636  1
  H  H149  1  0.95161364  0.13216208  0.09311917  1
  H  H150  1  0.09311917  0.95161364  0.13216208  1
  H  H151  1  0.13216208  0.09311917  0.95161364  1
  H  H152  1  0.61205794  0.87060587  0.68240246  1
  H  H153  1  0.31759754  0.11205794  0.62939413  1
  H  H154  1  0.37060587  0.81759754  0.38794206  1
  H  H155  1  0.11205794  0.62939413  0.31759754  1
  H  H156  1  0.81759754  0.38794206  0.37060587  1
  H  H157  1  0.87060587  0.68240246  0.61205794  1
  H  H158  1  0.38794206  0.37060587  0.81759754  1
  H  H159  1  0.68240246  0.61205794  0.87060587  1
  H  H160  1  0.62939413  0.31759754  0.11205794  1
  H  H161  1  0.88794206  0.12939413  0.18240246  1
  H  H162  1  0.18240246  0.88794206  0.12939413  1
  H  H163  1  0.12939413  0.18240246  0.88794206  1
  H  H164  1  0.50320816  0.87950474  0.69202063  1
  H  H165  1  0.30797937  0.00320816  0.62049526  1
  H  H166  1  0.37950474  0.80797937  0.49679184  1
  H  H167  1  0.00320816  0.62049526  0.30797937  1
  H  H168  1  0.80797937  0.49679184  0.37950474  1
  H  H169  1  0.87950474  0.69202063  0.50320816  1
  H  H170  1  0.49679184  0.37950474  0.80797937  1
  H  H171  1  0.69202063  0.50320816  0.87950474  1
  H  H172  1  0.62049526  0.30797937  0.00320816  1
  H  H173  1  0.99679184  0.12049526  0.19202063  1
  H  H174  1  0.19202063  0.99679184  0.12049526  1
  H  H175  1  0.12049526  0.19202063  0.99679184  1
  H  H176  1  0.42857669  0.71265877  0.79177076  1
  H  H177  1  0.20822924  0.92857669  0.78734123  1
  H  H178  1  0.21265877  0.70822924  0.57142331  1
  H  H179  1  0.92857669  0.78734123  0.20822924  1
  H  H180  1  0.70822924  0.57142331  0.21265877  1
  H  H181  1  0.71265877  0.79177076  0.42857669  1
  H  H182  1  0.57142331  0.21265877  0.70822924  1
  H  H183  1  0.79177076  0.42857669  0.71265877  1
  H  H184  1  0.78734123  0.20822924  0.92857669  1
  H  H185  1  0.07142331  0.28734123  0.29177076  1
  H  H186  1  0.29177076  0.07142331  0.28734123  1
  H  H187  1  0.28734123  0.29177076  0.07142331  1
  H  H188  1  0.52802194  0.71556944  0.83835056  1
  H  H189  1  0.16164944  0.02802194  0.78443056  1
  H  H190  1  0.21556944  0.66164944  0.47197806  1
  H  H191  1  0.02802194  0.78443056  0.16164944  1
  H  H192  1  0.66164944  0.47197806  0.21556944  1
  H  H193  1  0.71556944  0.83835056  0.52802194  1
  H  H194  1  0.47197806  0.21556944  0.66164944  1
  H  H195  1  0.83835056  0.52802194  0.71556944  1
  H  H196  1  0.78443056  0.16164944  0.02802194  1
  H  H197  1  0.97197806  0.28443056  0.33835056  1
  H  H198  1  0.33835056  0.97197806  0.28443056  1
  H  H199  1  0.28443056  0.33835056  0.97197806  1
  H  H200  1  0.48881500  0.62142078  0.79794880  1
  H  H201  1  0.20205120  0.98881500  0.87857922  1
  H  H202  1  0.12142078  0.70205120  0.51118500  1
  H  H203  1  0.98881500  0.87857922  0.20205120  1
  H  H204  1  0.70205120  0.51118500  0.12142078  1
  H  H205  1  0.62142078  0.79794880  0.48881500  1
  H  H206  1  0.51118500  0.12142078  0.70205120  1
  H  H207  1  0.79794880  0.48881500  0.62142078  1
  H  H208  1  0.87857922  0.20205120  0.98881500  1
  H  H209  1  0.01118500  0.37857922  0.29794880  1
  H  H210  1  0.29794880  0.01118500  0.37857922  1
  H  H211  1  0.37857922  0.29794880  0.01118500  1
  H  H212  1  0.47362839  0.59818160  0.57564936  1
  H  H213  1  0.42435064  0.97362839  0.90181840  1
  H  H214  1  0.09818160  0.92435064  0.52637161  1
  H  H215  1  0.97362839  0.90181840  0.42435064  1
  H  H216  1  0.92435064  0.52637161  0.09818160  1
  H  H217  1  0.59818160  0.57564936  0.47362839  1
  H  H218  1  0.52637161  0.09818160  0.92435064  1
  H  H219  1  0.57564936  0.47362839  0.59818160  1
  H  H220  1  0.90181840  0.42435064  0.97362839  1
  H  H221  1  0.02637161  0.40181840  0.07564936  1
  H  H222  1  0.07564936  0.02637161  0.40181840  1
  H  H223  1  0.40181840  0.07564936  0.02637161  1
  H  H224  1  0.49183888  0.68638098  0.51328881  1
  H  H225  1  0.48671119  0.99183888  0.81361902  1
  H  H226  1  0.18638098  0.98671119  0.50816112  1
  H  H227  1  0.99183888  0.81361902  0.48671119  1
  H  H228  1  0.98671119  0.50816112  0.18638098  1
  H  H229  1  0.68638098  0.51328881  0.49183888  1
  H  H230  1  0.50816112  0.18638098  0.98671119  1
  H  H231  1  0.51328881  0.49183888  0.68638098  1
  H  H232  1  0.81361902  0.48671119  0.99183888  1
  H  H233  1  0.00816112  0.31361902  0.01328881  1
  H  H234  1  0.01328881  0.00816112  0.31361902  1
  H  H235  1  0.31361902  0.01328881  0.00816112  1
  H  H236  1  0.40603605  0.68402423  0.58115835  1
  H  H237  1  0.41884165  0.90603605  0.81597577  1
  H  H238  1  0.18402423  0.91884165  0.59396395  1
  H  H239  1  0.90603605  0.81597577  0.41884165  1
  H  H240  1  0.91884165  0.59396395  0.18402423  1
  H  H241  1  0.68402423  0.58115835  0.40603605  1
  H  H242  1  0.59396395  0.18402423  0.91884165  1
  H  H243  1  0.58115835  0.40603605  0.68402423  1
  H  H244  1  0.81597577  0.41884165  0.90603605  1
  H  H245  1  0.09396395  0.31597577  0.08115835  1
  H  H246  1  0.08115835  0.09396395  0.31597577  1
  H  H247  1  0.31597577  0.08115835  0.09396395  1
  C  C248  1  0.14020060  0.45696452  0.87317757  1
  C  C249  1  0.12682243  0.64020060  0.04303548  1
  C  C250  1  0.95696452  0.62682243  0.85979940  1
  C  C251  1  0.64020060  0.04303548  0.12682243  1
  C  C252  1  0.62682243  0.85979940  0.95696452  1
  C  C253  1  0.45696452  0.87317757  0.14020060  1
  C  C254  1  0.85979940  0.95696452  0.62682243  1
  C  C255  1  0.87317757  0.14020060  0.45696452  1
  C  C256  1  0.04303548  0.12682243  0.64020060  1
  C  C257  1  0.35979940  0.54303548  0.37317757  1
  C  C258  1  0.37317757  0.35979940  0.54303548  1
  C  C259  1  0.54303548  0.37317757  0.35979940  1
  C  C260  1  0.28971125  0.52957619  0.72512256  1
  C  C261  1  0.27487744  0.78971125  0.97042381  1
  C  C262  1  0.02957619  0.77487744  0.71028875  1
  C  C263  1  0.78971125  0.97042381  0.27487744  1
  C  C264  1  0.77487744  0.71028875  0.02957619  1
  C  C265  1  0.52957619  0.72512256  0.28971125  1
  C  C266  1  0.71028875  0.02957619  0.77487744  1
  C  C267  1  0.72512256  0.28971125  0.52957619  1
  C  C268  1  0.97042381  0.27487744  0.78971125  1
  C  C269  1  0.21028875  0.47042381  0.22512256  1
  C  C270  1  0.22512256  0.21028875  0.47042381  1
  C  C271  1  0.47042381  0.22512256  0.21028875  1
  C  C272  1  0.07803064  0.53968480  0.68057712  1
  C  C273  1  0.31942288  0.57803064  0.96031520  1
  C  C274  1  0.03968480  0.81942288  0.92196936  1
  C  C275  1  0.57803064  0.96031520  0.31942288  1
  C  C276  1  0.81942288  0.92196936  0.03968480  1
  C  C277  1  0.53968480  0.68057712  0.07803064  1
  C  C278  1  0.92196936  0.03968480  0.81942288  1
  C  C279  1  0.68057712  0.07803064  0.53968480  1
  C  C280  1  0.96031520  0.31942288  0.57803064  1
  C  C281  1  0.42196936  0.46031520  0.18057712  1
  C  C282  1  0.18057712  0.42196936  0.46031520  1
  C  C283  1  0.46031520  0.18057712  0.42196936  1
  C  C284  1  0.55304918  0.85028079  0.65780061  1
  C  C285  1  0.34219939  0.05304918  0.64971921  1
  C  C286  1  0.35028079  0.84219939  0.44695082  1
  C  C287  1  0.05304918  0.64971921  0.34219939  1
  C  C288  1  0.84219939  0.44695082  0.35028079  1
  C  C289  1  0.85028079  0.65780061  0.55304918  1
  C  C290  1  0.44695082  0.35028079  0.84219939  1
  C  C291  1  0.65780061  0.55304918  0.85028079  1
  C  C292  1  0.64971921  0.34219939  0.05304918  1
  C  C293  1  0.94695082  0.14971921  0.15780061  1
  C  C294  1  0.15780061  0.94695082  0.14971921  1
  C  C295  1  0.14971921  0.15780061  0.94695082  1
  C  C296  1  0.49101005  0.68796716  0.78951095  1
  C  C297  1  0.21048905  0.99101005  0.81203284  1
  C  C298  1  0.18796716  0.71048905  0.50898995  1
  C  C299  1  0.99101005  0.81203284  0.21048905  1
  C  C300  1  0.71048905  0.50898995  0.18796716  1
  C  C301  1  0.68796716  0.78951095  0.49101005  1
  C  C302  1  0.50898995  0.18796716  0.71048905  1
  C  C303  1  0.78951095  0.49101005  0.68796716  1
  C  C304  1  0.81203284  0.21048905  0.99101005  1
  C  C305  1  0.00898995  0.31203284  0.28951095  1
  C  C306  1  0.28951095  0.00898995  0.31203284  1
  C  C307  1  0.31203284  0.28951095  0.00898995  1
  C  C308  1  0.47004741  0.66508130  0.57319278  1
  C  C309  1  0.42680722  0.97004741  0.83491870  1
  C  C310  1  0.16508130  0.92680722  0.52995259  1
  C  C311  1  0.97004741  0.83491870  0.42680722  1
  C  C312  1  0.92680722  0.52995259  0.16508130  1
  C  C313  1  0.66508130  0.57319278  0.47004741  1
  C  C314  1  0.52995259  0.16508130  0.92680722  1
  C  C315  1  0.57319278  0.47004741  0.66508130  1
  C  C316  1  0.83491870  0.42680722  0.97004741  1
  C  C317  1  0.02995259  0.33491870  0.07319278  1
  C  C318  1  0.07319278  0.02995259  0.33491870  1
  C  C319  1  0.33491870  0.07319278  0.02995259  1
  N  N320  1  0.16468753  0.66468753  0.83531247  1
  N  N321  1  0.66468753  0.83531247  0.16468753  1
  N  N322  1  0.83531247  0.16468753  0.66468753  1
  N  N323  1  0.33531247  0.33531247  0.33531247  1
  N  N324  1  0.66345055  0.66345055  0.66345055  1
  N  N325  1  0.33654945  0.16345055  0.83654945  1
  N  N326  1  0.16345055  0.83654945  0.33654945  1
  N  N327  1  0.83654945  0.33654945  0.16345055  1
  Cl  Cl328  1  0.30574941  0.80574941  0.69425059  1
  Cl  Cl329  1  0.80574941  0.69425059  0.30574941  1
  Cl  Cl330  1  0.69425059  0.30574941  0.80574941  1
  Cl  Cl331  1  0.19425059  0.19425059  0.19425059  1
  Cl  Cl332  1  0.80442284  0.80442284  0.80442284  1
  Cl  Cl333  1  0.19557716  0.30442284  0.69557716  1
  Cl  Cl334  1  0.30442284  0.69557716  0.19557716  1
  Cl  Cl335  1  0.69557716  0.19557716  0.30442284  1
