# generated using pymatgen
data_SrFe5P5O22
_symmetry_space_group_name_H-M   'P 1'
_cell_length_a   6.53845500
_cell_length_b   8.01802568
_cell_length_c   15.80860193
_cell_angle_alpha   95.47979884
_cell_angle_beta   90.60563882
_cell_angle_gamma   99.85717627
_symmetry_Int_Tables_number   1
_chemical_formula_structural   SrFe5P5O22
_chemical_formula_sum   'Sr2 Fe10 P10 O44'
_cell_volume   812.50127374
_cell_formula_units_Z   2
loop_
 _symmetry_equiv_pos_site_id
 _symmetry_equiv_pos_as_xyz
  1  'x, y, z'
loop_
 _atom_site_type_symbol
 _atom_site_label
 _atom_site_symmetry_multiplicity
 _atom_site_fract_x
 _atom_site_fract_y
 _atom_site_fract_z
 _atom_site_occupancy
  Sr  Sr0  1  0.02588500  0.59808400  0.13531700  1
  Sr  Sr1  1  0.97411500  0.40191600  0.86468300  1
  Fe  Fe2  1  0.40528000  0.39119400  0.63168400  1
  Fe  Fe3  1  0.59472000  0.60880600  0.36831600  1
  Fe  Fe4  1  0.03240900  0.20594700  0.49102100  1
  Fe  Fe5  1  0.96759100  0.79405300  0.50897900  1
  Fe  Fe6  1  0.37573600  0.89425200  0.28698000  1
  Fe  Fe7  1  0.62426400  0.10574800  0.71302000  1
  Fe  Fe8  1  0.28301400  0.71283100  0.75128400  1
  Fe  Fe9  1  0.71698600  0.28716900  0.24871600  1
  Fe  Fe10  1  0.31882000  0.23424300  0.01379600  1
  Fe  Fe11  1  0.68118000  0.76575700  0.98620400  1
  P  P12  1  0.10386400  0.05250000  0.67912400  1
  P  P13  1  0.89613600  0.94750000  0.32087600  1
  P  P14  1  0.08437700  0.52019400  0.36104900  1
  P  P15  1  0.91562300  0.47980600  0.63895100  1
  P  P16  1  0.53564800  0.22131700  0.44016400  1
  P  P17  1  0.46435200  0.77868300  0.55983600  1
  P  P18  1  0.79881700  0.18596200  0.04362300  1
  P  P19  1  0.20118300  0.81403800  0.95637700  1
  P  P20  1  0.49869500  0.57403000  0.15282200  1
  P  P21  1  0.50130500  0.42597000  0.84717800  1
  O  O22  1  0.01976400  0.02012500  0.58283400  1
  O  O23  1  0.98023600  0.97987500  0.41716600  1
  O  O24  1  0.92569900  0.62827100  0.40366700  1
  O  O25  1  0.07430100  0.37172900  0.59633300  1
  O  O26  1  0.10939500  0.37325800  0.41211700  1
  O  O27  1  0.89060500  0.62674200  0.58788300  1
  O  O28  1  0.61660600  0.72325400  0.48982300  1
  O  O29  1  0.38339400  0.27674600  0.51017700  1
  O  O30  1  0.31668100  0.17713000  0.68133100  1
  O  O31  1  0.68331900  0.82287000  0.31866900  1
  O  O32  1  0.30012000  0.63399200  0.35291000  1
  O  O33  1  0.69988000  0.36600800  0.64709000  1
  O  O34  1  0.42037900  0.64084600  0.62713100  1
  O  O35  1  0.57962100  0.35915400  0.37286900  1
  O  O36  1  0.94804500  0.13009000  0.73489100  1
  O  O37  1  0.05195500  0.86991000  0.26510900  1
  O  O38  1  0.56771800  0.94309000  0.60844000  1
  O  O39  1  0.43228200  0.05691000  0.39156000  1
  O  O40  1  0.38260400  0.71715600  0.18542000  1
  O  O41  1  0.61739600  0.28284400  0.81458000  1
  O  O42  1  0.55875800  0.89251100  0.79232800  1
  O  O43  1  0.44124200  0.10748900  0.20767200  1
  O  O44  1  0.98989900  0.45632000  0.27201300  1
  O  O45  1  0.01010100  0.54368000  0.72798700  1
  O  O46  1  0.18298500  0.72492900  0.86418700  1
  O  O47  1  0.81701500  0.27507100  0.13581300  1
  O  O48  1  0.59449700  0.50334400  0.23163000  1
  O  O49  1  0.40550300  0.49665600  0.76837000  1
  O  O50  1  0.15344100  0.88626100  0.70703000  1
  O  O51  1  0.84655900  0.11373900  0.29297000  1
  O  O52  1  0.74097700  0.21427000  0.48532800  1
  O  O53  1  0.25902300  0.78573000  0.51467200  1
  O  O54  1  0.61657900  0.24224700  0.99773900  1
  O  O55  1  0.38342100  0.75775300  0.00226100  1
  O  O56  1  0.22698500  0.00718700  0.95695800  1
  O  O57  1  0.77301500  0.99281300  0.04304200  1
  O  O58  1  0.00377700  0.26524100  0.00247600  1
  O  O59  1  0.99622300  0.73475900  0.99752400  1
  O  O60  1  0.33491800  0.08348900  0.13347500  1
  O  O61  1  0.66508200  0.91651100  0.86652500  1
  O  O62  1  0.33741100  0.43216400  0.10414100  1
  O  O63  1  0.66258900  0.56783600  0.89585900  1
  O  O64  1  0.32317300  0.36182700  0.90575100  1
  O  O65  1  0.67682700  0.63817300  0.09424900  1
