# generated using pymatgen
data_Ca5(GeO5)2
_symmetry_space_group_name_H-M   'P 1'
_cell_length_a   5.26491600
_cell_length_b   9.03763500
_cell_length_c   11.69503283
_cell_angle_alpha   71.06703576
_cell_angle_beta   90.00000000
_cell_angle_gamma   90.00000000
_symmetry_Int_Tables_number   1
_chemical_formula_structural   Ca5(GeO5)2
_chemical_formula_sum   'Ca10 Ge4 O20'
_cell_volume   526.37151958
_cell_formula_units_Z   2
loop_
 _symmetry_equiv_pos_site_id
 _symmetry_equiv_pos_as_xyz
  1  'x, y, z'
loop_
 _atom_site_type_symbol
 _atom_site_label
 _atom_site_symmetry_multiplicity
 _atom_site_fract_x
 _atom_site_fract_y
 _atom_site_fract_z
 _atom_site_occupancy
  Ca  Ca0  1  0.50000000  0.00000000  0.50000000  1
  Ca  Ca1  1  0.00000000  0.00000000  0.00000000  1
  Ca  Ca2  1  0.49966500  0.80915000  0.82932700  1
  Ca  Ca3  1  0.99966500  0.19085000  0.67067300  1
  Ca  Ca4  1  0.50033500  0.19085000  0.17067300  1
  Ca  Ca5  1  0.00033500  0.80915000  0.32932700  1
  Ca  Ca6  1  0.50573200  0.57954100  0.61793700  1
  Ca  Ca7  1  0.00573200  0.42045900  0.88206300  1
  Ca  Ca8  1  0.49426800  0.42045900  0.38206300  1
  Ca  Ca9  1  0.99426800  0.57954100  0.11793700  1
  Ge  Ge10  1  0.06820400  0.79940200  0.64461600  1
  Ge  Ge11  1  0.56820400  0.20059800  0.85538400  1
  Ge  Ge12  1  0.93179600  0.20059800  0.35538400  1
  Ge  Ge13  1  0.43179600  0.79940200  0.14461600  1
  O  O14  1  0.21574700  0.79327400  0.50734300  1
  O  O15  1  0.71574700  0.20672600  0.99265700  1
  O  O16  1  0.78425300  0.20672600  0.49265700  1
  O  O17  1  0.28425300  0.79327400  0.00734300  1
  O  O18  1  0.21627600  0.96618800  0.66849300  1
  O  O19  1  0.71627600  0.03381200  0.83150700  1
  O  O20  1  0.78372400  0.03381200  0.33150700  1
  O  O21  1  0.28372400  0.96618800  0.16849300  1
  O  O22  1  0.21344800  0.63716600  0.75775300  1
  O  O23  1  0.71344800  0.36283400  0.74224700  1
  O  O24  1  0.78655200  0.36283400  0.24224700  1
  O  O25  1  0.28655200  0.63716600  0.25775300  1
  O  O26  1  0.73402800  0.79862500  0.64671200  1
  O  O27  1  0.23402800  0.20137500  0.85328800  1
  O  O28  1  0.26597200  0.20137500  0.35328800  1
  O  O29  1  0.76597200  0.79862500  0.14671200  1
  O  O30  1  0.76416000  0.60372800  0.93994000  1
  O  O31  1  0.26416000  0.39627200  0.56006000  1
  O  O32  1  0.23584000  0.39627200  0.06006000  1
  O  O33  1  0.73584000  0.60372800  0.43994000  1
