# generated using pymatgen
data_InSiH11C3Br3N
_symmetry_space_group_name_H-M   'P 1'
_cell_length_a   11.37836500
_cell_length_b   9.38619400
_cell_length_c   13.79963608
_cell_angle_alpha   74.64453319
_cell_angle_beta   90.00000000
_cell_angle_gamma   90.00000000
_symmetry_Int_Tables_number   1
_chemical_formula_structural   InSiH11C3Br3N
_chemical_formula_sum   'In4 Si4 H44 C12 Br12 N4'
_cell_volume   1421.18256398
_cell_formula_units_Z   4
loop_
 _symmetry_equiv_pos_site_id
 _symmetry_equiv_pos_as_xyz
  1  'x, y, z'
loop_
 _atom_site_type_symbol
 _atom_site_label
 _atom_site_symmetry_multiplicity
 _atom_site_fract_x
 _atom_site_fract_y
 _atom_site_fract_z
 _atom_site_occupancy
  In  In0  1  0.64593600  0.97395200  0.80168500  1
  In  In1  1  0.14593600  0.02604800  0.69831500  1
  In  In2  1  0.35406400  0.02604800  0.19831500  1
  In  In3  1  0.85406400  0.97395200  0.30168600  1
  Si  Si4  1  0.71376100  0.65098500  0.71629200  1
  Si  Si5  1  0.21376100  0.34901500  0.78370800  1
  Si  Si6  1  0.28623900  0.34901500  0.28370800  1
  Si  Si7  1  0.78623900  0.65098500  0.21629200  1
  H  H8  1  0.75563800  0.90641600  0.64511600  1
  H  H9  1  0.25563800  0.09358400  0.85488400  1
  H  H10  1  0.24436200  0.09358400  0.35488400  1
  H  H11  1  0.74436200  0.90641600  0.14511600  1
  H  H12  1  0.83602200  0.84434200  0.74555300  1
  H  H13  1  0.33602200  0.15565800  0.75444700  1
  H  H14  1  0.16397800  0.15565800  0.25444700  1
  H  H15  1  0.66397800  0.84434200  0.24555300  1
  H  H16  1  0.80077600  0.53093300  0.88313300  1
  H  H17  1  0.30077600  0.46906700  0.61686700  1
  H  H18  1  0.19922400  0.46906700  0.11686700  1
  H  H19  1  0.69922400  0.53093300  0.38313300  1
  H  H20  1  0.68557500  0.42414500  0.85213600  1
  H  H21  1  0.18557500  0.57585500  0.64786400  1
  H  H22  1  0.31442500  0.57585500  0.14786400  1
  H  H23  1  0.81442500  0.42414500  0.35213600  1
  H  H24  1  0.65103200  0.58023400  0.89643500  1
  H  H25  1  0.15103200  0.41976600  0.60356500  1
  H  H26  1  0.34896800  0.41976600  0.10356500  1
  H  H27  1  0.84896800  0.58023400  0.39643500  1
  H  H28  1  0.57420700  0.73296000  0.57429900  1
  H  H29  1  0.07420700  0.26704000  0.92570100  1
  H  H30  1  0.42579300  0.26704000  0.42570100  1
  H  H31  1  0.92579300  0.73296000  0.07429900  1
  H  H32  1  0.50118500  0.71467500  0.69123400  1
  H  H33  1  0.00118500  0.28532500  0.80876600  1
  H  H34  1  0.49881500  0.28532500  0.30876600  1
  H  H35  1  0.99881500  0.71467500  0.19123400  1
  H  H36  1  0.53774300  0.55487800  0.65140000  1
  H  H37  1  0.03774300  0.44512200  0.84860000  1
  H  H38  1  0.46225700  0.44512200  0.34860000  1
  H  H39  1  0.96225700  0.55487800  0.15140000  1
  H  H40  1  0.83502400  0.65923200  0.56455600  1
  H  H41  1  0.33502400  0.34076800  0.93544400  1
  H  H42  1  0.16497600  0.34076800  0.43544400  1
  H  H43  1  0.66497600  0.65923200  0.06455600  1
  H  H44  1  0.82067100  0.47589500  0.64289400  1
  H  H45  1  0.32067100  0.52410500  0.85710600  1
  H  H46  1  0.17932900  0.52410500  0.35710600  1
  H  H47  1  0.67932900  0.47589500  0.14289400  1
  H  H48  1  0.91994000  0.60148700  0.67610600  1
  H  H49  1  0.41994000  0.39851300  0.82389400  1
  H  H50  1  0.08006000  0.39851300  0.32389400  1
  H  H51  1  0.58006000  0.60148700  0.17610600  1
  C  C52  1  0.71267700  0.53774900  0.84952400  1
  C  C53  1  0.21267700  0.46225100  0.65047600  1
  C  C54  1  0.28732300  0.46225100  0.15047600  1
  C  C55  1  0.78732300  0.53774900  0.34952400  1
  C  C56  1  0.56822300  0.66573900  0.65253500  1
  C  C57  1  0.06822300  0.33426100  0.84746500  1
  C  C58  1  0.43177700  0.33426100  0.34746500  1
  C  C59  1  0.93177700  0.66573900  0.15253500  1
  C  C60  1  0.83340100  0.59213300  0.64290900  1
  C  C61  1  0.33340100  0.40786700  0.85709100  1
  C  C62  1  0.16659900  0.40786700  0.35709100  1
  C  C63  1  0.66659900  0.59213300  0.14290900  1
  Br  Br64  1  0.79115200  0.02539400  0.92655300  1
  Br  Br65  1  0.29115200  0.97460600  0.57344700  1
  Br  Br66  1  0.20884800  0.97460600  0.07344700  1
  Br  Br67  1  0.70884800  0.02539400  0.42655300  1
  Br  Br68  1  0.46756500  0.83436600  0.88503900  1
  Br  Br69  1  0.96756500  0.16563400  0.61496100  1
  Br  Br70  1  0.53243500  0.16563400  0.11496100  1
  Br  Br71  1  0.03243500  0.83436600  0.38503900  1
  Br  Br72  1  0.57940900  0.20445900  0.67173900  1
  Br  Br73  1  0.07940900  0.79554100  0.82826100  1
  Br  Br74  1  0.42059100  0.79554100  0.32826100  1
  Br  Br75  1  0.92059100  0.20445900  0.17173900  1
  N  N76  1  0.75185000  0.84179600  0.71805100  1
  N  N77  1  0.25185000  0.15820400  0.78194900  1
  N  N78  1  0.24815000  0.15820400  0.28194900  1
  N  N79  1  0.74815000  0.84179600  0.21805100  1
