# generated using pymatgen
data_Rb2TlCl5O
_symmetry_space_group_name_H-M   'P 1'
_cell_length_a   7.89738700
_cell_length_b   10.48882800
_cell_length_c   13.66042000
_cell_angle_alpha   90.00000000
_cell_angle_beta   90.00000000
_cell_angle_gamma   90.00000000
_symmetry_Int_Tables_number   1
_chemical_formula_structural   Rb2TlCl5O
_chemical_formula_sum   'Rb8 Tl4 Cl20 O4'
_cell_volume   1131.55179139
_cell_formula_units_Z   4
loop_
 _symmetry_equiv_pos_site_id
 _symmetry_equiv_pos_as_xyz
  1  'x, y, z'
loop_
 _atom_site_type_symbol
 _atom_site_label
 _atom_site_symmetry_multiplicity
 _atom_site_fract_x
 _atom_site_fract_y
 _atom_site_fract_z
 _atom_site_occupancy
  Rb  Rb0  1  0.68358300  0.48707900  0.36182800  1
  Rb  Rb1  1  0.81641700  0.01292100  0.86182800  1
  Rb  Rb2  1  0.31641700  0.98707900  0.63817200  1
  Rb  Rb3  1  0.18358300  0.51292100  0.13817200  1
  Rb  Rb4  1  0.31641700  0.51292100  0.63817200  1
  Rb  Rb5  1  0.18358300  0.98707900  0.13817200  1
  Rb  Rb6  1  0.68358300  0.01292100  0.36182800  1
  Rb  Rb7  1  0.81641700  0.48707900  0.86182800  1
  Tl  Tl8  1  0.73393600  0.75000000  0.11008400  1
  Tl  Tl9  1  0.76606400  0.75000000  0.61008400  1
  Tl  Tl10  1  0.26606400  0.25000000  0.88991600  1
  Tl  Tl11  1  0.23393600  0.25000000  0.38991600  1
  Cl  Cl12  1  0.97746300  0.75000000  0.98673400  1
  Cl  Cl13  1  0.52253700  0.75000000  0.48673400  1
  Cl  Cl14  1  0.02253700  0.25000000  0.01326600  1
  Cl  Cl15  1  0.47746300  0.25000000  0.51326600  1
  Cl  Cl16  1  0.91115400  0.75000000  0.26490400  1
  Cl  Cl17  1  0.58884600  0.75000000  0.76490400  1
  Cl  Cl18  1  0.08884600  0.25000000  0.73509600  1
  Cl  Cl19  1  0.41115400  0.25000000  0.23509600  1
  Cl  Cl20  1  0.42245000  0.75000000  0.21708000  1
  Cl  Cl21  1  0.07755000  0.75000000  0.71708000  1
  Cl  Cl22  1  0.57755000  0.25000000  0.78292000  1
  Cl  Cl23  1  0.92245000  0.25000000  0.28292000  1
  Cl  Cl24  1  0.69362900  0.50831700  0.10199200  1
  Cl  Cl25  1  0.80637100  0.99168300  0.60199200  1
  Cl  Cl26  1  0.30637100  0.00831700  0.89800800  1
  Cl  Cl27  1  0.19362900  0.49168300  0.39800800  1
  Cl  Cl28  1  0.30637100  0.49168300  0.89800800  1
  Cl  Cl29  1  0.19362900  0.00831700  0.39800800  1
  Cl  Cl30  1  0.69362900  0.99168300  0.10199200  1
  Cl  Cl31  1  0.80637100  0.50831700  0.60199200  1
  O  O32  1  0.46434300  0.75000000  0.04359300  1
  O  O33  1  0.03565700  0.75000000  0.54359300  1
  O  O34  1  0.53565700  0.25000000  0.95640700  1
  O  O35  1  0.96434300  0.25000000  0.45640700  1
