# generated using pymatgen
data_KNa2P3H7N3O8
_symmetry_space_group_name_H-M   'P 1'
_cell_length_a   8.08767175
_cell_length_b   8.18121799
_cell_length_c   8.65875015
_cell_angle_alpha   75.22170072
_cell_angle_beta   82.26117237
_cell_angle_gamma   76.03037585
_symmetry_Int_Tables_number   1
_chemical_formula_structural   KNa2P3H7N3O8
_chemical_formula_sum   'K2 Na4 P6 H14 N6 O16'
_cell_volume   535.95402960
_cell_formula_units_Z   2
loop_
 _symmetry_equiv_pos_site_id
 _symmetry_equiv_pos_as_xyz
  1  'x, y, z'
loop_
 _atom_site_type_symbol
 _atom_site_label
 _atom_site_symmetry_multiplicity
 _atom_site_fract_x
 _atom_site_fract_y
 _atom_site_fract_z
 _atom_site_occupancy
  K  K0  1  0.63643000  0.70278000  0.44267600  1
  K  K1  1  0.36357000  0.29722000  0.55732400  1
  Na  Na2  1  0.93092700  0.98651300  0.33983200  1
  Na  Na3  1  0.06907300  0.01348700  0.66016800  1
  Na  Na4  1  0.14640100  0.15600900  0.99068300  1
  Na  Na5  1  0.85359900  0.84399100  0.00931700  1
  P  P6  1  0.25293300  0.71281200  0.15422300  1
  P  P7  1  0.74706700  0.28718800  0.84577700  1
  P  P8  1  0.55817100  0.16071000  0.15455300  1
  P  P9  1  0.44182900  0.83929000  0.84544700  1
  P  P10  1  0.78773700  0.40759500  0.13273800  1
  P  P11  1  0.21226300  0.59240500  0.86726200  1
  H  H12  1  0.54090000  0.71551400  0.09318500  1
  H  H13  1  0.45910000  0.28448600  0.90681500  1
  H  H14  1  0.25264000  0.43447800  0.12711600  1
  H  H15  1  0.74736000  0.56552200  0.87288400  1
  H  H16  1  0.51163500  0.41714000  0.22950400  1
  H  H17  1  0.48836500  0.58286000  0.77049600  1
  H  H18  1  0.97755200  0.70173400  0.63079000  1
  H  H19  1  0.02244800  0.29826600  0.36921000  1
  H  H20  1  0.06341100  0.63784900  0.47670000  1
  H  H21  1  0.93658900  0.36215100  0.52330000  1
  H  H22  1  0.25815200  0.83484800  0.40049900  1
  H  H23  1  0.74184800  0.16515200  0.59950100  1
  H  H24  1  0.28123300  0.02927300  0.34344200  1
  H  H25  1  0.71876700  0.97072700  0.65655800  1
  N  N26  1  0.42483900  0.78281200  0.04813600  1
  N  N27  1  0.57516100  0.21718800  0.95186400  1
  N  N28  1  0.21677600  0.56231200  0.06787600  1
  N  N29  1  0.78322400  0.43768800  0.93212400  1
  N  N30  1  0.61606300  0.31986300  0.21731800  1
  N  N31  1  0.38393700  0.68013700  0.78268200  1
  O  O32  1  0.10107000  0.86419600  0.13273200  1
  O  O33  1  0.89893000  0.13580400  0.86726800  1
  O  O34  1  0.68428300  0.99224000  0.21037700  1
  O  O35  1  0.31571700  0.00776000  0.78962300  1
  O  O36  1  0.30469800  0.62492300  0.32378700  1
  O  O37  1  0.69530200  0.37507700  0.67621300  1
  O  O38  1  0.94686100  0.27332100  0.18780800  1
  O  O39  1  0.05313900  0.72667900  0.81219200  1
  O  O40  1  0.75499900  0.58449600  0.16924600  1
  O  O41  1  0.24500100  0.41550400  0.83075400  1
  O  O42  1  0.36909000  0.17634600  0.20631400  1
  O  O43  1  0.63091000  0.82365400  0.79368600  1
  O  O44  1  0.95420800  0.69476600  0.52323500  1
  O  O45  1  0.04579200  0.30523400  0.47676500  1
  O  O46  1  0.22604500  0.94766900  0.42962300  1
  O  O47  1  0.77395500  0.05233100  0.57037700  1
