# generated using pymatgen
data_Mg(IO8)2
_symmetry_space_group_name_H-M   'P 1'
_cell_length_a   5.19606300
_cell_length_b   10.50706700
_cell_length_c   10.92187369
_cell_angle_alpha   66.15595746
_cell_angle_beta   90.00000000
_cell_angle_gamma   90.00000000
_symmetry_Int_Tables_number   1
_chemical_formula_structural   Mg(IO8)2
_chemical_formula_sum   'Mg2 I4 O32'
_cell_volume   545.39056022
_cell_formula_units_Z   2
loop_
 _symmetry_equiv_pos_site_id
 _symmetry_equiv_pos_as_xyz
  1  'x, y, z'
loop_
 _atom_site_type_symbol
 _atom_site_label
 _atom_site_symmetry_multiplicity
 _atom_site_fract_x
 _atom_site_fract_y
 _atom_site_fract_z
 _atom_site_occupancy
  Mg  Mg0  1  0.00000000  0.50000000  0.50000000  1
  Mg  Mg1  1  0.50000000  0.50000000  0.00000000  1
  I  I2  1  0.96080300  0.13735900  0.87405400  1
  I  I3  1  0.46080300  0.86264100  0.62594600  1
  I  I4  1  0.03919700  0.86264100  0.12594600  1
  I  I5  1  0.53919700  0.13735900  0.37405400  1
  O  O6  1  0.84858500  0.31775000  0.85221900  1
  O  O7  1  0.34858500  0.68225000  0.64778100  1
  O  O8  1  0.15141500  0.68225000  0.14778100  1
  O  O9  1  0.65141500  0.31775000  0.35221900  1
  O  O10  1  0.30296200  0.20261500  0.88721300  1
  O  O11  1  0.80296200  0.79738500  0.61278700  1
  O  O12  1  0.69703800  0.79738500  0.11278700  1
  O  O13  1  0.19703800  0.20261500  0.38721300  1
  O  O14  1  0.63106400  0.08345800  0.84421200  1
  O  O15  1  0.13106400  0.91654200  0.65578800  1
  O  O16  1  0.36893600  0.91654200  0.15578800  1
  O  O17  1  0.86893600  0.08345800  0.34421200  1
  O  O18  1  0.94360600  0.81220000  0.30351200  1
  O  O19  1  0.44360600  0.18780000  0.19648800  1
  O  O20  1  0.05639400  0.18780000  0.69648800  1
  O  O21  1  0.55639400  0.81220000  0.80351200  1
  O  O22  1  0.08242200  0.94083400  0.92740800  1
  O  O23  1  0.58242200  0.05916600  0.57259200  1
  O  O24  1  0.91757800  0.05916600  0.07259200  1
  O  O25  1  0.41757800  0.94083400  0.42740800  1
  O  O26  1  0.26883500  0.65618800  0.46777600  1
  O  O27  1  0.76883500  0.34381200  0.03222400  1
  O  O28  1  0.73116500  0.34381200  0.53222400  1
  O  O29  1  0.23116500  0.65618800  0.96777600  1
  O  O30  1  0.18473600  0.44418300  0.34451700  1
  O  O31  1  0.68473600  0.55581700  0.15548300  1
  O  O32  1  0.81526400  0.55581700  0.65548300  1
  O  O33  1  0.31526400  0.44418300  0.84451700  1
  O  O34  1  0.63829000  0.58644400  0.45039600  1
  O  O35  1  0.13829000  0.41355600  0.04960400  1
  O  O36  1  0.36171000  0.41355600  0.54960400  1
  O  O37  1  0.86171000  0.58644400  0.95039600  1
