# generated using pymatgen
data_Fe4P3H4NO12
_symmetry_space_group_name_H-M   'P 1'
_cell_length_a   6.33183400
_cell_length_b   9.94523100
_cell_length_c   16.96144900
_cell_angle_alpha   90.00000000
_cell_angle_beta   90.00000000
_cell_angle_gamma   90.00000000
_symmetry_Int_Tables_number   1
_chemical_formula_structural   Fe4P3H4NO12
_chemical_formula_sum   'Fe16 P12 H16 N4 O48'
_cell_volume   1068.08876403
_cell_formula_units_Z   4
loop_
 _symmetry_equiv_pos_site_id
 _symmetry_equiv_pos_as_xyz
  1  'x, y, z'
loop_
 _atom_site_type_symbol
 _atom_site_label
 _atom_site_symmetry_multiplicity
 _atom_site_fract_x
 _atom_site_fract_y
 _atom_site_fract_z
 _atom_site_occupancy
  Fe  Fe0  1  0.50000000  0.03458700  0.40574400  1
  Fe  Fe1  1  0.50000000  0.96541300  0.59425600  1
  Fe  Fe2  1  0.00000000  0.53458700  0.09425600  1
  Fe  Fe3  1  0.00000000  0.46541300  0.90574400  1
  Fe  Fe4  1  0.50000000  0.48624300  0.36205200  1
  Fe  Fe5  1  0.50000000  0.51375700  0.63794800  1
  Fe  Fe6  1  0.00000000  0.98624300  0.13794800  1
  Fe  Fe7  1  0.00000000  0.01375700  0.86205200  1
  Fe  Fe8  1  0.74903300  0.74799000  0.29594300  1
  Fe  Fe9  1  0.74903300  0.25201000  0.70405700  1
  Fe  Fe10  1  0.75096700  0.24799000  0.20405700  1
  Fe  Fe11  1  0.75096700  0.75201000  0.79594300  1
  Fe  Fe12  1  0.25096700  0.25201000  0.70405700  1
  Fe  Fe13  1  0.25096700  0.74799000  0.29594300  1
  Fe  Fe14  1  0.24903300  0.75201000  0.79594300  1
  Fe  Fe15  1  0.24903300  0.24799000  0.20405700  1
  P  P16  1  0.50000000  0.53899800  0.16759700  1
  P  P17  1  0.50000000  0.46100200  0.83240300  1
  P  P18  1  0.00000000  0.03899800  0.33240300  1
  P  P19  1  0.00000000  0.96100200  0.66759700  1
  P  P20  1  0.50000000  0.95916200  0.21516900  1
  P  P21  1  0.50000000  0.04083800  0.78483100  1
  P  P22  1  0.00000000  0.45916200  0.28483100  1
  P  P23  1  0.00000000  0.54083800  0.71516900  1
  P  P24  1  0.50000000  0.71170800  0.46220100  1
  P  P25  1  0.50000000  0.28829200  0.53779900  1
  P  P26  1  0.00000000  0.21170800  0.03779900  1
  P  P27  1  0.00000000  0.78829200  0.96220100  1
  H  H28  1  0.50000000  0.69281000  0.03499000  1
  H  H29  1  0.50000000  0.30719000  0.96501000  1
  H  H30  1  0.00000000  0.19281000  0.46501000  1
  H  H31  1  0.00000000  0.80719000  0.53499000  1
  H  H32  1  0.50000000  0.82738200  0.97415200  1
  H  H33  1  0.50000000  0.17261800  0.02584800  1
  H  H34  1  0.00000000  0.32738200  0.52584800  1
  H  H35  1  0.00000000  0.67261800  0.47415200  1
  H  H36  1  0.63300200  0.82997300  0.06132300  1
  H  H37  1  0.63300200  0.17002700  0.93867700  1
  H  H38  1  0.86699800  0.32997300  0.43867700  1
  H  H39  1  0.86699800  0.67002700  0.56132300  1
  H  H40  1  0.36699800  0.17002700  0.93867700  1
  H  H41  1  0.36699800  0.82997300  0.06132300  1
  H  H42  1  0.13300200  0.67002700  0.56132300  1
  H  H43  1  0.13300200  0.32997300  0.43867700  1
  N  N44  1  0.50000000  0.79631200  0.03202300  1
  N  N45  1  0.50000000  0.20368800  0.96797700  1
  N  N46  1  0.00000000  0.29631200  0.46797700  1
  N  N47  1  0.00000000  0.70368800  0.53202300  1
  O  O48  1  0.50000000  0.61570100  0.81588400  1
  O  O49  1  0.50000000  0.38429900  0.18411600  1
  O  O50  1  0.00000000  0.11570100  0.68411600  1
  O  O51  1  0.00000000  0.88429900  0.31588400  1
  O  O52  1  0.50000000  0.11482200  0.22386000  1
  O  O53  1  0.50000000  0.88517800  0.77614000  1
  O  O54  1  0.00000000  0.61482200  0.27614000  1
  O  O55  1  0.00000000  0.38517800  0.72386000  1
  O  O56  1  0.69903300  0.58062800  0.12252700  1
  O  O57  1  0.69903300  0.41937200  0.87747300  1
  O  O58  1  0.80096700  0.08062800  0.37747300  1
  O  O59  1  0.80096700  0.91937200  0.62252700  1
  O  O60  1  0.30096700  0.41937200  0.87747300  1
  O  O61  1  0.30096700  0.58062800  0.12252700  1
  O  O62  1  0.19903300  0.91937200  0.62252700  1
  O  O63  1  0.19903300  0.08062800  0.37747300  1
  O  O64  1  0.50000000  0.89493000  0.30067900  1
  O  O65  1  0.50000000  0.10507000  0.69932100  1
  O  O66  1  0.00000000  0.39493000  0.19932100  1
  O  O67  1  0.00000000  0.60507000  0.80067900  1
  O  O68  1  0.50000000  0.61472800  0.25105200  1
  O  O69  1  0.50000000  0.38527200  0.74894800  1
  O  O70  1  0.00000000  0.11472800  0.24894800  1
  O  O71  1  0.00000000  0.88527200  0.75105200  1
  O  O72  1  0.50000000  0.36051000  0.45832800  1
  O  O73  1  0.50000000  0.63949000  0.54167200  1
  O  O74  1  0.00000000  0.86051000  0.04167200  1
  O  O75  1  0.00000000  0.13949000  0.95832800  1
  O  O76  1  0.69524400  0.66900200  0.40993900  1
  O  O77  1  0.69524400  0.33099800  0.59006100  1
  O  O78  1  0.80475600  0.16900200  0.09006100  1
  O  O79  1  0.80475600  0.83099800  0.90993900  1
  O  O80  1  0.30475600  0.33099800  0.59006100  1
  O  O81  1  0.30475600  0.66900200  0.40993900  1
  O  O82  1  0.19524400  0.83099800  0.90993900  1
  O  O83  1  0.19524400  0.16900200  0.09006100  1
  O  O84  1  0.70376800  0.90681300  0.17562200  1
  O  O85  1  0.70376800  0.09318700  0.82437800  1
  O  O86  1  0.79623200  0.40681300  0.32437800  1
  O  O87  1  0.79623200  0.59318700  0.67562200  1
  O  O88  1  0.29623200  0.09318700  0.82437800  1
  O  O89  1  0.29623200  0.90681300  0.17562200  1
  O  O90  1  0.20376800  0.59318700  0.67562200  1
  O  O91  1  0.20376800  0.40681300  0.32437800  1
  O  O92  1  0.50000000  0.86574300  0.47888400  1
  O  O93  1  0.50000000  0.13425700  0.52111600  1
  O  O94  1  0.00000000  0.36574300  0.02111600  1
  O  O95  1  0.00000000  0.63425700  0.97888400  1
