# generated using pymatgen
data_NaCd4(GeO3)5
_symmetry_space_group_name_H-M   'P 1'
_cell_length_a   7.24669100
_cell_length_b   8.13547505
_cell_length_c   12.36726622
_cell_angle_alpha   106.87033611
_cell_angle_beta   93.07389267
_cell_angle_gamma   94.53701874
_symmetry_Int_Tables_number   1
_chemical_formula_structural   NaCd4(GeO3)5
_chemical_formula_sum   'Na2 Cd8 Ge10 O30'
_cell_volume   693.30616984
_cell_formula_units_Z   2
loop_
 _symmetry_equiv_pos_site_id
 _symmetry_equiv_pos_as_xyz
  1  'x, y, z'
loop_
 _atom_site_type_symbol
 _atom_site_label
 _atom_site_symmetry_multiplicity
 _atom_site_fract_x
 _atom_site_fract_y
 _atom_site_fract_z
 _atom_site_occupancy
  Na  Na0  1  0.62789900  0.82719300  0.36222900  1
  Na  Na1  1  0.37210100  0.17280700  0.63777100  1
  Cd  Cd2  1  0.93665400  0.90496000  0.85024200  1
  Cd  Cd3  1  0.06334600  0.09504000  0.14975800  1
  Cd  Cd4  1  0.87045600  0.68886500  0.55514800  1
  Cd  Cd5  1  0.12954400  0.31113500  0.44485200  1
  Cd  Cd6  1  0.82873700  0.46268600  0.26442800  1
  Cd  Cd7  1  0.17126300  0.53731400  0.73557200  1
  Cd  Cd8  1  0.72960800  0.26216400  0.97683100  1
  Cd  Cd9  1  0.27039200  0.73783600  0.02316900  1
  Ge  Ge10  1  0.57444300  0.03708300  0.16913300  1
  Ge  Ge11  1  0.42555700  0.96291700  0.83086700  1
  Ge  Ge12  1  0.63994200  0.24145000  0.44521600  1
  Ge  Ge13  1  0.36005800  0.75855000  0.55478400  1
  Ge  Ge14  1  0.68814800  0.49757700  0.77289900  1
  Ge  Ge15  1  0.31185200  0.50242300  0.22710100  1
  Ge  Ge16  1  0.77907700  0.68812400  0.04452500  1
  Ge  Ge17  1  0.22092300  0.31187600  0.95547500  1
  Ge  Ge18  1  0.87550400  0.15098400  0.64781900  1
  Ge  Ge19  1  0.12449600  0.84901600  0.35218100  1
  O  O20  1  0.55656700  0.07724700  0.31814700  1
  O  O21  1  0.44343300  0.92275300  0.68185300  1
  O  O22  1  0.96628100  0.82394800  0.02429100  1
  O  O23  1  0.03371900  0.17605200  0.97570900  1
  O  O24  1  0.86570000  0.62367200  0.73297900  1
  O  O25  1  0.13430000  0.37632800  0.26702100  1
  O  O26  1  0.70800600  0.10165900  0.52730000  1
  O  O27  1  0.29199400  0.89834100  0.47270000  1
  O  O28  1  0.82622900  0.38712700  0.43635900  1
  O  O29  1  0.17377100  0.61287300  0.56364100  1
  O  O30  1  0.75386600  0.18014400  0.14873900  1
  O  O31  1  0.24613400  0.81985600  0.85126100  1
  O  O32  1  0.63285200  0.57991800  0.91646600  1
  O  O33  1  0.36714800  0.42008200  0.08353400  1
  O  O34  1  0.62162400  0.81138500  0.13517600  1
  O  O35  1  0.37837600  0.18861500  0.86482400  1
  O  O36  1  0.92223700  0.96137400  0.67807500  1
  O  O37  1  0.07776300  0.03862600  0.32192500  1
  O  O38  1  0.75915600  0.28568300  0.76528000  1
  O  O39  1  0.24084400  0.71431700  0.23472000  1
  O  O40  1  0.56601600  0.68127700  0.49753500  1
  O  O41  1  0.43398400  0.31872300  0.50246500  1
  O  O42  1  0.92540600  0.73320400  0.37873800  1
  O  O43  1  0.07459400  0.26679600  0.62126200  1
  O  O44  1  0.64514700  0.97948900  0.90048400  1
  O  O45  1  0.35485300  0.02051100  0.09951600  1
  O  O46  1  0.83762200  0.51654100  0.09390900  1
  O  O47  1  0.16237800  0.48345900  0.90609100  1
  O  O48  1  0.52745200  0.52201600  0.30553500  1
  O  O49  1  0.47254800  0.47798400  0.69446500  1
