# generated using pymatgen
data_Te4N4ClOF20
_symmetry_space_group_name_H-M   'P 1'
_cell_length_a   13.12627600
_cell_length_b   13.12627600
_cell_length_c   6.63865300
_cell_angle_alpha   90.00000000
_cell_angle_beta   90.00000000
_cell_angle_gamma   90.00000000
_symmetry_Int_Tables_number   1
_chemical_formula_structural   Te4N4ClOF20
_chemical_formula_sum   'Te8 N8 Cl2 O2 F40'
_cell_volume   1143.83408069
_cell_formula_units_Z   2
loop_
 _symmetry_equiv_pos_site_id
 _symmetry_equiv_pos_as_xyz
  1  'x, y, z'
loop_
 _atom_site_type_symbol
 _atom_site_label
 _atom_site_symmetry_multiplicity
 _atom_site_fract_x
 _atom_site_fract_y
 _atom_site_fract_z
 _atom_site_occupancy
  Te  Te0  1  0.68275800  0.96900000  0.98704700  1
  Te  Te1  1  0.18275800  0.53100000  0.51295300  1
  Te  Te2  1  0.31724200  0.03100000  0.98704700  1
  Te  Te3  1  0.81724200  0.46900000  0.51295300  1
  Te  Te4  1  0.03100000  0.68275800  0.01295300  1
  Te  Te5  1  0.46900000  0.18275800  0.48704700  1
  Te  Te6  1  0.96900000  0.31724200  0.01295300  1
  Te  Te7  1  0.53100000  0.81724200  0.48704700  1
  N  N8  1  0.89089400  0.11289900  0.50281600  1
  N  N9  1  0.39089400  0.38710100  0.99718400  1
  N  N10  1  0.10910600  0.88710100  0.50281600  1
  N  N11  1  0.60910600  0.61289900  0.99718400  1
  N  N12  1  0.88710100  0.89089400  0.49718400  1
  N  N13  1  0.61289900  0.39089400  0.00281600  1
  N  N14  1  0.11289900  0.10910600  0.49718400  1
  N  N15  1  0.38710100  0.60910600  0.00281600  1
  Cl  Cl16  1  0.50000000  0.50000000  0.00000000  1
  Cl  Cl17  1  0.00000000  0.00000000  0.50000000  1
  O  O18  1  0.50000000  0.50000000  0.50000000  1
  O  O19  1  0.00000000  0.00000000  0.00000000  1
  F  F20  1  0.77651400  0.01124200  0.18889600  1
  F  F21  1  0.27651400  0.48875800  0.31110400  1
  F  F22  1  0.22348600  0.98875800  0.18889600  1
  F  F23  1  0.72348600  0.51124200  0.31110400  1
  F  F24  1  0.98875800  0.77651400  0.81110400  1
  F  F25  1  0.51124200  0.27651400  0.68889600  1
  F  F26  1  0.01124200  0.22348600  0.81110400  1
  F  F27  1  0.48875800  0.72348600  0.68889600  1
  F  F28  1  0.58379100  0.91508400  0.73666300  1
  F  F29  1  0.08379100  0.58491600  0.76333700  1
  F  F30  1  0.41620900  0.08491600  0.73666300  1
  F  F31  1  0.91620900  0.41508400  0.76333700  1
  F  F32  1  0.08491600  0.58379100  0.26333700  1
  F  F33  1  0.41508400  0.08379100  0.23666300  1
  F  F34  1  0.91508400  0.41620900  0.26333700  1
  F  F35  1  0.58491600  0.91620900  0.23666300  1
  F  F36  1  0.63086200  0.10812600  0.96758300  1
  F  F37  1  0.13086200  0.39187400  0.53241700  1
  F  F38  1  0.36913800  0.89187400  0.96758300  1
  F  F39  1  0.86913800  0.60812600  0.53241700  1
  F  F40  1  0.89187400  0.63086200  0.03241700  1
  F  F41  1  0.60812600  0.13086200  0.46758300  1
  F  F42  1  0.10812600  0.36913800  0.03241700  1
  F  F43  1  0.39187400  0.86913800  0.46758300  1
  F  F44  1  0.74234300  0.83402700  0.99841200  1
  F  F45  1  0.24234300  0.66597300  0.50158800  1
  F  F46  1  0.25765700  0.16597300  0.99841200  1
  F  F47  1  0.75765700  0.33402700  0.50158800  1
  F  F48  1  0.16597300  0.74234300  0.00158800  1
  F  F49  1  0.33402700  0.24234300  0.49841200  1
  F  F50  1  0.83402700  0.25765700  0.00158800  1
  F  F51  1  0.66597300  0.75765700  0.49841200  1
  F  F52  1  0.78240900  0.00272200  0.78913000  1
  F  F53  1  0.28240900  0.49727800  0.71087000  1
  F  F54  1  0.21759100  0.99727800  0.78913000  1
  F  F55  1  0.71759100  0.50272200  0.71087000  1
  F  F56  1  0.99727800  0.78240900  0.21087000  1
  F  F57  1  0.50272200  0.28240900  0.28913000  1
  F  F58  1  0.00272200  0.21759100  0.21087000  1
  F  F59  1  0.49727800  0.71759100  0.28913000  1
