# generated using pymatgen
data_Zn5P6(H3O5)6
_symmetry_space_group_name_H-M   'P 1'
_cell_length_a   8.53998700
_cell_length_b   9.92667602
_cell_length_c   10.00932714
_cell_angle_alpha   112.11563398
_cell_angle_beta   111.82727003
_cell_angle_gamma   96.90751480
_symmetry_Int_Tables_number   1
_chemical_formula_structural   Zn5P6(H3O5)6
_chemical_formula_sum   'Zn5 P6 H18 O30'
_cell_volume   695.52811978
_cell_formula_units_Z   1
loop_
 _symmetry_equiv_pos_site_id
 _symmetry_equiv_pos_as_xyz
  1  'x, y, z'
loop_
 _atom_site_type_symbol
 _atom_site_label
 _atom_site_symmetry_multiplicity
 _atom_site_fract_x
 _atom_site_fract_y
 _atom_site_fract_z
 _atom_site_occupancy
  Zn  Zn0  1  0.44657800  0.83303300  0.26924500  1
  Zn  Zn1  1  0.55342200  0.16696700  0.73075500  1
  Zn  Zn2  1  0.06315600  0.16449100  0.92898900  1
  Zn  Zn3  1  0.93684400  0.83550900  0.07101100  1
  Zn  Zn4  1  0.50000000  0.50000000  0.50000000  1
  P  P5  1  0.36719800  0.47724700  0.12722400  1
  P  P6  1  0.63280200  0.52275300  0.87277600  1
  P  P7  1  0.19084800  0.94356800  0.42930800  1
  P  P8  1  0.80915200  0.05643200  0.57069200  1
  P  P9  1  0.26496800  0.94077000  0.02067400  1
  P  P10  1  0.73503200  0.05923000  0.97932600  1
  H  H11  1  0.55040400  0.38780500  0.03211100  1
  H  H12  1  0.44959600  0.61219500  0.96788900  1
  H  H13  1  0.08331200  0.93665900  0.59880200  1
  H  H14  1  0.91668800  0.06334100  0.40119800  1
  H  H15  1  0.37646100  0.94999200  0.85320300  1
  H  H16  1  0.62353900  0.05000800  0.14679700  1
  H  H17  1  0.69815700  0.76270200  0.54154400  1
  H  H18  1  0.30184300  0.23729800  0.45845600  1
  H  H19  1  0.72989400  0.76391700  0.70673300  1
  H  H20  1  0.27010600  0.23608300  0.29326700  1
  H  H21  1  0.37894400  0.65299900  0.70763600  1
  H  H22  1  0.62105600  0.34700100  0.29236400  1
  H  H23  1  0.28493500  0.68741800  0.55823800  1
  H  H24  1  0.71506500  0.31258200  0.44176200  1
  H  H25  1  0.95962900  0.39708000  0.16027800  1
  H  H26  1  0.04037100  0.60292000  0.83972200  1
  H  H27  1  0.93567600  0.55048100  0.15652900  1
  H  H28  1  0.06432400  0.44951900  0.84347100  1
  O  O29  1  0.41454200  0.62531400  0.11225400  1
  O  O30  1  0.58545800  0.37468600  0.88774600  1
  O  O31  1  0.67428700  0.89464600  0.45920400  1
  O  O32  1  0.32571300  0.10535400  0.54079600  1
  O  O33  1  0.26610200  0.82765300  0.34267700  1
  O  O34  1  0.73389800  0.17234700  0.65732300  1
  O  O35  1  0.44514200  0.95815600  0.15428100  1
  O  O36  1  0.55485800  0.04184400  0.84571900  1
  O  O37  1  0.18655400  0.37225100  0.98167500  1
  O  O38  1  0.81344600  0.62774900  0.01832500  1
  O  O39  1  0.36403400  0.50910900  0.28773400  1
  O  O40  1  0.63596600  0.49089100  0.71226600  1
  O  O41  1  0.02474200  0.95788600  0.30701400  1
  O  O42  1  0.97525800  0.04211400  0.69298600  1
  O  O43  1  0.22376700  0.09430400  0.06904500  1
  O  O44  1  0.77623300  0.90569600  0.93095500  1
  O  O45  1  0.11671100  0.81117200  0.99061300  1
  O  O46  1  0.88328900  0.18882800  0.00938700  1
  O  O47  1  0.51594300  0.39686800  0.12212500  1
  O  O48  1  0.48405700  0.60313200  0.87787500  1
  O  O49  1  0.13851500  0.87745700  0.53307300  1
  O  O50  1  0.86148500  0.12254300  0.46692700  1
  O  O51  1  0.27598100  0.88838400  0.85535600  1
  O  O52  1  0.72401900  0.11161600  0.14464400  1
  O  O53  1  0.71405000  0.69750000  0.59773500  1
  O  O54  1  0.28595000  0.30250000  0.40226500  1
  O  O55  1  0.38343300  0.65536900  0.61170100  1
  O  O56  1  0.61656700  0.34463100  0.38829900  1
  O  O57  1  0.98219100  0.50572700  0.23090100  1
  O  O58  1  0.01780900  0.49427300  0.76909900  1
