# generated using pymatgen
data_Ce33Fe13(B9C17)2
_symmetry_space_group_name_H-M   'P 1'
_cell_length_a   12.26964873
_cell_length_b   12.26964873
_cell_length_c   12.26964873
_cell_angle_alpha   109.47122063
_cell_angle_beta   109.47122063
_cell_angle_gamma   109.47122063
_symmetry_Int_Tables_number   1
_chemical_formula_structural   Ce33Fe13(B9C17)2
_chemical_formula_sum   'Ce33 Fe13 B18 C34'
_cell_volume   1421.91782332
_cell_formula_units_Z   1
loop_
 _symmetry_equiv_pos_site_id
 _symmetry_equiv_pos_as_xyz
  1  'x, y, z'
loop_
 _atom_site_type_symbol
 _atom_site_label
 _atom_site_symmetry_multiplicity
 _atom_site_fract_x
 _atom_site_fract_y
 _atom_site_fract_z
 _atom_site_occupancy
  Ce  Ce0  1  0.00000000  0.17852400  0.43415900  1
  Ce  Ce1  1  0.82147600  0.82147600  0.25563500  1
  Ce  Ce2  1  0.17852400  0.00000000  0.43415900  1
  Ce  Ce3  1  0.00000000  0.43415900  0.17852400  1
  Ce  Ce4  1  0.17852400  0.43415900  0.00000000  1
  Ce  Ce5  1  0.82147600  0.25563500  0.82147600  1
  Ce  Ce6  1  0.25563500  0.82147600  0.82147600  1
  Ce  Ce7  1  0.43415900  0.17852400  0.00000000  1
  Ce  Ce8  1  0.43415900  0.00000000  0.17852400  1
  Ce  Ce9  1  0.74436500  0.56584100  0.56584100  1
  Ce  Ce10  1  0.56584100  0.56584100  0.74436500  1
  Ce  Ce11  1  0.56584100  0.74436500  0.56584100  1
  Ce  Ce12  1  0.00000000  0.82147600  0.56584100  1
  Ce  Ce13  1  0.17852400  0.17852400  0.74436500  1
  Ce  Ce14  1  0.82147600  0.00000000  0.56584100  1
  Ce  Ce15  1  0.00000000  0.56584100  0.82147600  1
  Ce  Ce16  1  0.82147600  0.56584100  0.00000000  1
  Ce  Ce17  1  0.17852400  0.74436500  0.17852400  1
  Ce  Ce18  1  0.74436500  0.17852400  0.17852400  1
  Ce  Ce19  1  0.56584100  0.82147600  0.00000000  1
  Ce  Ce20  1  0.56584100  0.00000000  0.82147600  1
  Ce  Ce21  1  0.25563500  0.43415900  0.43415900  1
  Ce  Ce22  1  0.43415900  0.43415900  0.25563500  1
  Ce  Ce23  1  0.43415900  0.25563500  0.43415900  1
  Ce  Ce24  1  0.75000000  0.25000000  0.50000000  1
  Ce  Ce25  1  0.75000000  0.50000000  0.25000000  1
  Ce  Ce26  1  0.50000000  0.25000000  0.75000000  1
  Ce  Ce27  1  0.25000000  0.50000000  0.75000000  1
  Ce  Ce28  1  0.25000000  0.75000000  0.50000000  1
  Ce  Ce29  1  0.50000000  0.75000000  0.25000000  1
  Ce  Ce30  1  0.50000000  0.50000000  0.00000000  1
  Ce  Ce31  1  0.50000000  0.00000000  0.50000000  1
  Ce  Ce32  1  0.00000000  0.50000000  0.50000000  1
  Fe  Fe33  1  0.87272800  0.00000000  0.12727200  1
  Fe  Fe34  1  0.00000000  0.87272800  0.12727200  1
  Fe  Fe35  1  0.12727200  0.12727200  0.25454300  1
  Fe  Fe36  1  0.12727200  0.25454300  0.12727200  1
  Fe  Fe37  1  0.00000000  0.12727200  0.87272800  1
  Fe  Fe38  1  0.87272800  0.12727200  0.00000000  1
  Fe  Fe39  1  0.12727200  0.00000000  0.87272800  1
  Fe  Fe40  1  0.25454300  0.12727200  0.12727200  1
  Fe  Fe41  1  0.12727200  0.87272800  0.00000000  1
  Fe  Fe42  1  0.87272800  0.74545700  0.87272800  1
  Fe  Fe43  1  0.74545700  0.87272800  0.87272800  1
  Fe  Fe44  1  0.87272800  0.87272800  0.74545700  1
  Fe  Fe45  1  0.00000000  0.00000000  0.00000000  1
  B  B46  1  0.29724700  0.29724700  0.59449500  1
  B  B47  1  0.70275300  0.00000000  0.29724700  1
  B  B48  1  0.00000000  0.70275300  0.29724700  1
  B  B49  1  0.70275300  0.29724700  0.00000000  1
  B  B50  1  0.29724700  0.59449500  0.29724700  1
  B  B51  1  0.00000000  0.29724700  0.70275300  1
  B  B52  1  0.29724700  0.70275300  0.00000000  1
  B  B53  1  0.29724700  0.00000000  0.70275300  1
  B  B54  1  0.59449500  0.29724700  0.29724700  1
  B  B55  1  0.70275300  0.70275300  0.40550500  1
  B  B56  1  0.70275300  0.40550500  0.70275300  1
  B  B57  1  0.40550500  0.70275300  0.70275300  1
  B  B58  1  0.78345100  0.78345100  0.00000000  1
  B  B59  1  0.21654900  0.00000000  0.21654900  1
  B  B60  1  0.00000000  0.21654900  0.21654900  1
  B  B61  1  0.21654900  0.21654900  0.00000000  1
  B  B62  1  0.78345100  0.00000000  0.78345100  1
  B  B63  1  0.00000000  0.78345100  0.78345100  1
  C  C64  1  0.22408500  0.22408500  0.44816900  1
  C  C65  1  0.77591500  0.00000000  0.22408500  1
  C  C66  1  0.00000000  0.77591500  0.22408500  1
  C  C67  1  0.77591500  0.22408500  0.00000000  1
  C  C68  1  0.22408500  0.44816900  0.22408500  1
  C  C69  1  0.00000000  0.22408500  0.77591500  1
  C  C70  1  0.22408500  0.77591500  0.00000000  1
  C  C71  1  0.22408500  0.00000000  0.77591500  1
  C  C72  1  0.44816900  0.22408500  0.22408500  1
  C  C73  1  0.77591500  0.77591500  0.55183100  1
  C  C74  1  0.77591500  0.55183100  0.77591500  1
  C  C75  1  0.55183100  0.77591500  0.77591500  1
  C  C76  1  0.37158800  0.37158800  0.74317600  1
  C  C77  1  0.62841200  0.00000000  0.37158800  1
  C  C78  1  0.00000000  0.62841200  0.37158800  1
  C  C79  1  0.62841200  0.37158800  0.00000000  1
  C  C80  1  0.37158800  0.74317600  0.37158800  1
  C  C81  1  0.00000000  0.37158800  0.62841200  1
  C  C82  1  0.37158800  0.62841200  0.00000000  1
  C  C83  1  0.37158800  0.00000000  0.62841200  1
  C  C84  1  0.74317600  0.37158800  0.37158800  1
  C  C85  1  0.62841200  0.62841200  0.25682400  1
  C  C86  1  0.62841200  0.25682400  0.62841200  1
  C  C87  1  0.25682400  0.62841200  0.62841200  1
  C  C88  1  0.67445400  0.67445400  0.00000000  1
  C  C89  1  0.32554600  0.00000000  0.32554600  1
  C  C90  1  0.00000000  0.32554600  0.32554600  1
  C  C91  1  0.32554600  0.32554600  0.00000000  1
  C  C92  1  0.67445400  0.00000000  0.67445400  1
  C  C93  1  0.00000000  0.67445400  0.67445400  1
  C  C94  1  0.00000000  0.00000000  0.50000000  1
  C  C95  1  0.00000000  0.50000000  0.00000000  1
  C  C96  1  0.50000000  0.00000000  0.00000000  1
  C  C97  1  0.50000000  0.50000000  0.50000000  1
