# generated using pymatgen
data_Ag2AsS2
_symmetry_space_group_name_H-M   'P 1'
_cell_length_a   13.19459200
_cell_length_b   6.92834000
_cell_length_c   9.75737418
_cell_angle_alpha   81.29904016
_cell_angle_beta   90.00000000
_cell_angle_gamma   90.00000000
_symmetry_Int_Tables_number   1
_chemical_formula_structural   Ag2AsS2
_chemical_formula_sum   'Ag16 As8 S16'
_cell_volume   881.72060877
_cell_formula_units_Z   8
loop_
 _symmetry_equiv_pos_site_id
 _symmetry_equiv_pos_as_xyz
  1  'x, y, z'
loop_
 _atom_site_type_symbol
 _atom_site_label
 _atom_site_symmetry_multiplicity
 _atom_site_fract_x
 _atom_site_fract_y
 _atom_site_fract_z
 _atom_site_occupancy
  Ag  Ag0  1  0.59442400  0.07946600  0.23713000  1
  Ag  Ag1  1  0.40557600  0.57946600  0.23713000  1
  Ag  Ag2  1  0.91119200  0.77627200  0.04131500  1
  Ag  Ag3  1  0.08880800  0.27627200  0.04131500  1
  Ag  Ag4  1  0.90696500  0.37535600  0.69331100  1
  Ag  Ag5  1  0.09303500  0.87535600  0.69331100  1
  Ag  Ag6  1  0.89270100  0.86970400  0.35782800  1
  Ag  Ag7  1  0.10729900  0.36970400  0.35782800  1
  Ag  Ag8  1  0.60560300  0.60161100  0.56674400  1
  Ag  Ag9  1  0.39439700  0.10161100  0.56674400  1
  Ag  Ag10  1  0.79179600  0.19315500  0.95990200  1
  Ag  Ag11  1  0.20820400  0.69315500  0.95990200  1
  Ag  Ag12  1  0.49439100  0.84862800  0.84024000  1
  Ag  Ag13  1  0.50560900  0.34862800  0.84024000  1
  Ag  Ag14  1  0.68493500  0.64346700  0.96238600  1
  Ag  Ag15  1  0.31506500  0.14346700  0.96238600  1
  As  As16  1  0.68718600  0.55940400  0.31362200  1
  As  As17  1  0.31281400  0.05940400  0.31362200  1
  As  As18  1  0.68271900  0.14892600  0.61674100  1
  As  As19  1  0.31728100  0.64892600  0.61674100  1
  As  As20  1  0.83300700  0.31481300  0.30704100  1
  As  As21  1  0.16699300  0.81481300  0.30704100  1
  As  As22  1  0.82317300  0.89259600  0.62625600  1
  As  As23  1  0.17682700  0.39259600  0.62625600  1
  S  S24  1  0.58160300  0.45130100  0.15664900  1
  S  S25  1  0.41839700  0.95130100  0.15664900  1
  S  S26  1  0.91843000  0.00361100  0.79323500  1
  S  S27  1  0.08157000  0.50361100  0.79323500  1
  S  S28  1  0.74472000  0.84682300  0.19070700  1
  S  S29  1  0.25528000  0.34682300  0.19070700  1
  S  S30  1  0.75355900  0.61009700  0.73278400  1
  S  S31  1  0.24644100  0.11009700  0.73278400  1
  S  S32  1  0.63060300  0.08936100  0.84639000  1
  S  S33  1  0.36939700  0.58936100  0.84639000  1
  S  S34  1  0.56774100  0.98113900  0.51185000  1
  S  S35  1  0.43225900  0.48113900  0.51185000  1
  S  S36  1  0.89903600  0.39676000  0.08979700  1
  S  S37  1  0.10096400  0.89676000  0.08979700  1
  S  S38  1  0.93484200  0.48840900  0.42837200  1
  S  S39  1  0.06515800  0.98840900  0.42837200  1
