# generated using pymatgen
data_TbP2H9O11
_symmetry_space_group_name_H-M   'P 1'
_cell_length_a   11.50777100
_cell_length_b   6.61928100
_cell_length_c   13.47841857
_cell_angle_alpha   61.93462962
_cell_angle_beta   90.00000000
_cell_angle_gamma   90.00000000
_symmetry_Int_Tables_number   1
_chemical_formula_structural   TbP2H9O11
_chemical_formula_sum   'Tb4 P8 H36 O44'
_cell_volume   905.96635833
_cell_formula_units_Z   4
loop_
 _symmetry_equiv_pos_site_id
 _symmetry_equiv_pos_as_xyz
  1  'x, y, z'
loop_
 _atom_site_type_symbol
 _atom_site_label
 _atom_site_symmetry_multiplicity
 _atom_site_fract_x
 _atom_site_fract_y
 _atom_site_fract_z
 _atom_site_occupancy
  Tb  Tb0  1  0.91776500  0.91916200  0.33528700  1
  Tb  Tb1  1  0.58223500  0.91916200  0.83528700  1
  Tb  Tb2  1  0.08223500  0.08083800  0.66471300  1
  Tb  Tb3  1  0.41776500  0.08083800  0.16471300  1
  P  P4  1  0.04924100  0.39130100  0.35935700  1
  P  P5  1  0.45075900  0.39130100  0.85935700  1
  P  P6  1  0.95075900  0.60869900  0.64064300  1
  P  P7  1  0.54924100  0.60869900  0.14064300  1
  P  P8  1  0.13386000  0.81834300  0.16383500  1
  P  P9  1  0.36614000  0.81834300  0.66383500  1
  P  P10  1  0.86614000  0.18165700  0.83616500  1
  P  P11  1  0.63386000  0.18165700  0.33616500  1
  H  H12  1  0.11432000  0.68191300  0.50338100  1
  H  H13  1  0.38568000  0.68191300  0.00338100  1
  H  H14  1  0.88568000  0.31808700  0.49661900  1
  H  H15  1  0.61432000  0.31808700  0.99661900  1
  H  H16  1  0.79205900  0.73907300  0.05560300  1
  H  H17  1  0.70794100  0.73907300  0.55560300  1
  H  H18  1  0.20794100  0.26092700  0.94439700  1
  H  H19  1  0.29205900  0.26092700  0.44439700  1
  H  H20  1  0.13411200  0.94676500  0.46060600  1
  H  H21  1  0.36588800  0.94676500  0.96060600  1
  H  H22  1  0.86588800  0.05323500  0.53939400  1
  H  H23  1  0.63411200  0.05323500  0.03939400  1
  H  H24  1  0.85821600  0.50045100  0.10939200  1
  H  H25  1  0.64178400  0.50045100  0.60939200  1
  H  H26  1  0.14178400  0.49954900  0.89060800  1
  H  H27  1  0.35821600  0.49954900  0.39060800  1
  H  H28  1  0.66516000  0.79996500  0.31264200  1
  H  H29  1  0.83484000  0.79996500  0.81264200  1
  H  H30  1  0.33484000  0.20003500  0.68735800  1
  H  H31  1  0.16516000  0.20003500  0.18735800  1
  H  H32  1  0.88331700  0.16499400  0.08139000  1
  H  H33  1  0.61668300  0.16499400  0.58139000  1
  H  H34  1  0.11668300  0.83500600  0.91861000  1
  H  H35  1  0.38331700  0.83500600  0.41861000  1
  H  H36  1  0.75924500  0.17711400  0.12378200  1
  H  H37  1  0.74075500  0.17711400  0.62378200  1
  H  H38  1  0.24075500  0.82288600  0.87621800  1
  H  H39  1  0.25924500  0.82288600  0.37621800  1
  H  H40  1  0.98809900  0.74900500  0.07117500  1
  H  H41  1  0.51190100  0.74900500  0.57117500  1
  H  H42  1  0.01190100  0.25099500  0.92882500  1
  H  H43  1  0.48809900  0.25099500  0.42882500  1
  H  H44  1  0.74182500  0.61354700  0.29943500  1
  H  H45  1  0.75817500  0.61354700  0.79943500  1
  H  H46  1  0.25817500  0.38645300  0.70056500  1
  H  H47  1  0.24182500  0.38645300  0.20056500  1
  O  O48  1  0.95935000  0.54196700  0.37730500  1
  O  O49  1  0.54065000  0.54196700  0.87730500  1
  O  O50  1  0.04065000  0.45803300  0.62269500  1
  O  O51  1  0.45935000  0.45803300  0.12269500  1
  O  O52  1  0.00003400  0.25285800  0.30595200  1
  O  O53  1  0.49996600  0.25285800  0.80595200  1
  O  O54  1  0.99996600  0.74714200  0.69404800  1
  O  O55  1  0.50003400  0.74714200  0.19404800  1
  O  O56  1  0.11906800  0.24050900  0.46623600  1
  O  O57  1  0.38093200  0.24050900  0.96623600  1
  O  O58  1  0.88093200  0.75949100  0.53376400  1
  O  O59  1  0.61906800  0.75949100  0.03376400  1
  O  O60  1  0.07665000  0.78676200  0.06542400  1
  O  O61  1  0.42335000  0.78676200  0.56542400  1
  O  O62  1  0.92335000  0.21323800  0.93457600  1
  O  O63  1  0.57665000  0.21323800  0.43457600  1
  O  O64  1  0.05771800  0.96176800  0.19818200  1
  O  O65  1  0.44228200  0.96176800  0.69818200  1
  O  O66  1  0.94228200  0.03823200  0.80181800  1
  O  O67  1  0.55771800  0.03823200  0.30181800  1
  O  O68  1  0.25740000  0.89523100  0.13120500  1
  O  O69  1  0.24260000  0.89523100  0.63120500  1
  O  O70  1  0.74260000  0.10476900  0.86879500  1
  O  O71  1  0.75740000  0.10476900  0.36879500  1
  O  O72  1  0.14638100  0.56304700  0.27089600  1
  O  O73  1  0.35361900  0.56304700  0.77089600  1
  O  O74  1  0.85361900  0.43695300  0.72910400  1
  O  O75  1  0.64638100  0.43695300  0.22910400  1
  O  O76  1  0.12210900  0.83129100  0.43434000  1
  O  O77  1  0.37789100  0.83129100  0.93434000  1
  O  O78  1  0.87789100  0.16870900  0.56566000  1
  O  O79  1  0.62210900  0.16870900  0.06566000  1
  O  O80  1  0.84299600  0.18161100  0.14162600  1
  O  O81  1  0.65700400  0.18161100  0.64162600  1
  O  O82  1  0.15700400  0.81838900  0.85837400  1
  O  O83  1  0.34299600  0.81838900  0.35837400  1
  O  O84  1  0.74298500  0.72949000  0.32482300  1
  O  O85  1  0.75701500  0.72949000  0.82482300  1
  O  O86  1  0.25701500  0.27051000  0.67517700  1
  O  O87  1  0.24298500  0.27051000  0.17517700  1
  O  O88  1  0.86710500  0.66529200  0.08611500  1
  O  O89  1  0.63289500  0.66529200  0.58611500  1
  O  O90  1  0.13289500  0.33470800  0.91388500  1
  O  O91  1  0.36710500  0.33470800  0.41388500  1
