# generated using pymatgen
data_B6P2H14N2O19
_symmetry_space_group_name_H-M   'P 1'
_cell_length_a   4.55080700
_cell_length_b   9.54405319
_cell_length_c   11.05001432
_cell_angle_alpha   81.85674500
_cell_angle_beta   81.97173858
_cell_angle_gamma   82.23648570
_symmetry_Int_Tables_number   1
_chemical_formula_structural   B6P2H14N2O19
_chemical_formula_sum   'B6 P2 H14 N2 O19'
_cell_volume   467.17538251
_cell_formula_units_Z   1
loop_
 _symmetry_equiv_pos_site_id
 _symmetry_equiv_pos_as_xyz
  1  'x, y, z'
loop_
 _atom_site_type_symbol
 _atom_site_label
 _atom_site_symmetry_multiplicity
 _atom_site_fract_x
 _atom_site_fract_y
 _atom_site_fract_z
 _atom_site_occupancy
  B  B0  1  0.08545300  0.73208700  0.26324400  1
  B  B1  1  0.91454700  0.26791300  0.73675600  1
  B  B2  1  0.80771600  0.70113300  0.47551300  1
  B  B3  1  0.19228400  0.29886700  0.52448700  1
  B  B4  1  0.79320000  0.93520100  0.35563200  1
  B  B5  1  0.20680000  0.06479900  0.64436800  1
  P  P6  1  0.64621800  0.68186300  0.12495800  1
  P  P7  1  0.35378200  0.31813700  0.87504200  1
  H  H8  1  0.20251900  0.25131800  0.12549400  1
  H  H9  1  0.79748100  0.74868200  0.87450600  1
  H  H10  1  0.19117500  0.47872400  0.40618600  1
  H  H11  1  0.80882500  0.52127600  0.59381400  1
  H  H12  1  0.91271200  0.36738400  0.18201600  1
  H  H13  1  0.08728800  0.63261600  0.81798400  1
  H  H14  1  0.43405600  0.89139300  0.57916100  1
  H  H15  1  0.56594400  0.10860700  0.42083900  1
  H  H16  1  0.94739300  0.19851400  0.25021000  1
  H  H17  1  0.05260700  0.80148600  0.74979000  1
  H  H18  1  0.19144200  0.31064300  0.26800100  1
  H  H19  1  0.80855800  0.68935700  0.73199900  1
  H  H20  1  0.68928300  0.49841300  0.02236800  1
  H  H21  1  0.31071700  0.50158700  0.97763200  1
  N  N22  1  0.06618900  0.28125600  0.20633100  1
  N  N23  1  0.93381100  0.71874400  0.79366900  1
  O  O24  1  0.41850400  0.70813600  0.23934300  1
  O  O25  1  0.58149600  0.29186400  0.76065700  1
  O  O26  1  0.63065400  0.51364800  0.10863300  1
  O  O27  1  0.36934600  0.48635200  0.89136700  1
  O  O28  1  0.96377800  0.67332300  0.16482300  1
  O  O29  1  0.03622200  0.32667700  0.83517700  1
  O  O30  1  0.59822500  0.77138800  0.00578300  1
  O  O31  1  0.40177500  0.22861200  0.99421700  1
  O  O32  1  0.98569400  0.88186600  0.26446100  1
  O  O33  1  0.01430600  0.11813400  0.73553900  1
  O  O34  1  0.00535200  0.64641600  0.38435700  1
  O  O35  1  0.99464800  0.35358400  0.61564300  1
  O  O36  1  0.28015600  0.37648700  0.41419200  1
  O  O37  1  0.71984400  0.62351300  0.58580800  1
  O  O38  1  0.29559800  0.92099200  0.65158400  1
  O  O39  1  0.70440200  0.07900800  0.34841600  1
  O  O40  1  0.68998700  0.84524200  0.46163600  1
  O  O41  1  0.31001300  0.15475800  0.53836400  1
  O  O42  1  0.00000000  0.00000000  0.00000000  1
