# generated using pymatgen
data_CaFe3Si2O9
_symmetry_space_group_name_H-M   'P 1'
_cell_length_a   5.93063900
_cell_length_b   8.85260000
_cell_length_c   13.17013400
_cell_angle_alpha   90.00000000
_cell_angle_beta   90.00000000
_cell_angle_gamma   90.00000000
_symmetry_Int_Tables_number   1
_chemical_formula_structural   CaFe3Si2O9
_chemical_formula_sum   'Ca4 Fe12 Si8 O36'
_cell_volume   691.45277548
_cell_formula_units_Z   4
loop_
 _symmetry_equiv_pos_site_id
 _symmetry_equiv_pos_as_xyz
  1  'x, y, z'
loop_
 _atom_site_type_symbol
 _atom_site_label
 _atom_site_symmetry_multiplicity
 _atom_site_fract_x
 _atom_site_fract_y
 _atom_site_fract_z
 _atom_site_occupancy
  Ca  Ca0  1  0.75000000  0.12826200  0.68270400  1
  Ca  Ca1  1  0.75000000  0.37173800  0.18270400  1
  Ca  Ca2  1  0.25000000  0.87173800  0.31729600  1
  Ca  Ca3  1  0.25000000  0.62826200  0.81729600  1
  Fe  Fe4  1  0.99610400  0.44368100  0.61199200  1
  Fe  Fe5  1  0.50389600  0.05631900  0.11199200  1
  Fe  Fe6  1  0.49610400  0.55631900  0.38800800  1
  Fe  Fe7  1  0.00389600  0.94368100  0.88800800  1
  Fe  Fe8  1  0.00389600  0.55631900  0.38800800  1
  Fe  Fe9  1  0.49610400  0.94368100  0.88800800  1
  Fe  Fe10  1  0.50389600  0.44368100  0.61199200  1
  Fe  Fe11  1  0.99610400  0.05631900  0.11199200  1
  Fe  Fe12  1  0.25000000  0.76163000  0.56668200  1
  Fe  Fe13  1  0.25000000  0.73837000  0.06668200  1
  Fe  Fe14  1  0.75000000  0.23837000  0.43331800  1
  Fe  Fe15  1  0.75000000  0.26163000  0.93331800  1
  Si  Si16  1  0.25000000  0.13349700  0.53378500  1
  Si  Si17  1  0.25000000  0.36650300  0.03378500  1
  Si  Si18  1  0.75000000  0.86650300  0.46621500  1
  Si  Si19  1  0.75000000  0.63349700  0.96621500  1
  Si  Si20  1  0.75000000  0.76570000  0.68476800  1
  Si  Si21  1  0.75000000  0.73430000  0.18476800  1
  Si  Si22  1  0.25000000  0.23430000  0.31523200  1
  Si  Si23  1  0.25000000  0.26570000  0.81523200  1
  O  O24  1  0.75000000  0.47505300  0.48467500  1
  O  O25  1  0.75000000  0.02494700  0.98467500  1
  O  O26  1  0.25000000  0.52494700  0.51532500  1
  O  O27  1  0.25000000  0.97505300  0.01532500  1
  O  O28  1  0.01783000  0.23085700  0.55800000  1
  O  O29  1  0.48217000  0.26914300  0.05800000  1
  O  O30  1  0.51783000  0.76914300  0.44200000  1
  O  O31  1  0.98217000  0.73085700  0.94200000  1
  O  O32  1  0.98217000  0.76914300  0.44200000  1
  O  O33  1  0.51783000  0.73085700  0.94200000  1
  O  O34  1  0.48217000  0.23085700  0.55800000  1
  O  O35  1  0.01783000  0.26914300  0.05800000  1
  O  O36  1  0.25000000  0.38550300  0.71632800  1
  O  O37  1  0.25000000  0.11449700  0.21632800  1
  O  O38  1  0.75000000  0.61449700  0.28367200  1
  O  O39  1  0.75000000  0.88550300  0.78367200  1
  O  O40  1  0.98194900  0.66374200  0.67421400  1
  O  O41  1  0.51805100  0.83625800  0.17421400  1
  O  O42  1  0.48194900  0.33625800  0.32578600  1
  O  O43  1  0.01805100  0.16374200  0.82578600  1
  O  O44  1  0.01805100  0.33625800  0.32578600  1
  O  O45  1  0.48194900  0.16374200  0.82578600  1
  O  O46  1  0.51805100  0.66374200  0.67421400  1
  O  O47  1  0.98194900  0.83625800  0.17421400  1
  O  O48  1  0.75000000  0.89347900  0.59200500  1
  O  O49  1  0.75000000  0.60652100  0.09200500  1
  O  O50  1  0.25000000  0.10652100  0.40799500  1
  O  O51  1  0.25000000  0.39347900  0.90799500  1
  O  O52  1  0.25000000  0.97668000  0.59213600  1
  O  O53  1  0.25000000  0.52332000  0.09213600  1
  O  O54  1  0.75000000  0.02332000  0.40786400  1
  O  O55  1  0.75000000  0.47668000  0.90786400  1
  O  O56  1  0.75000000  0.38395800  0.69195800  1
  O  O57  1  0.75000000  0.11604200  0.19195800  1
  O  O58  1  0.25000000  0.61604200  0.30804200  1
  O  O59  1  0.25000000  0.88395800  0.80804200  1
