# generated using pymatgen
data_CrH20N2O6F5
_symmetry_space_group_name_H-M   'P 1'
_cell_length_a   7.14419459
_cell_length_b   7.14419459
_cell_length_c   13.50932661
_cell_angle_alpha   89.50277857
_cell_angle_beta   90.49722143
_cell_angle_gamma   121.19366545
_symmetry_Int_Tables_number   1
_chemical_formula_structural   CrH20N2O6F5
_chemical_formula_sum   'Cr2 H40 N4 O12 F10'
_cell_volume   589.79200295
_cell_formula_units_Z   2
loop_
 _symmetry_equiv_pos_site_id
 _symmetry_equiv_pos_as_xyz
  1  'x, y, z'
loop_
 _atom_site_type_symbol
 _atom_site_label
 _atom_site_symmetry_multiplicity
 _atom_site_fract_x
 _atom_site_fract_y
 _atom_site_fract_z
 _atom_site_occupancy
  Cr  Cr0  1  0.00000000  0.00000000  0.50000000  1
  Cr  Cr1  1  0.00000000  0.00000000  0.00000000  1
  H  H2  1  0.66692700  0.33754500  0.90202700  1
  H  H3  1  0.33754500  0.66692700  0.59797300  1
  H  H4  1  0.33307300  0.66245500  0.09797300  1
  H  H5  1  0.66245500  0.33307300  0.40202700  1
  H  H6  1  0.52003000  0.31636800  0.79765500  1
  H  H7  1  0.31636800  0.52003000  0.70234500  1
  H  H8  1  0.47997000  0.68363200  0.20234500  1
  H  H9  1  0.68363200  0.47997000  0.29765500  1
  H  H10  1  0.68388800  0.20794400  0.79934300  1
  H  H11  1  0.20794400  0.68388800  0.70065700  1
  H  H12  1  0.31611200  0.79205600  0.20065700  1
  H  H13  1  0.79205600  0.31611200  0.29934300  1
  H  H14  1  0.79653000  0.48334400  0.79759600  1
  H  H15  1  0.48334400  0.79653000  0.70240400  1
  H  H16  1  0.20347000  0.51665600  0.20240400  1
  H  H17  1  0.51665600  0.20347000  0.29759600  1
  H  H18  1  0.76846700  0.57679400  0.55970900  1
  H  H19  1  0.57679400  0.76846700  0.94029100  1
  H  H20  1  0.23153300  0.42320600  0.44029100  1
  H  H21  1  0.42320600  0.23153300  0.05970900  1
  H  H22  1  0.90682900  0.73128000  0.65270500  1
  H  H23  1  0.73128000  0.90682900  0.84729500  1
  H  H24  1  0.09317100  0.26872000  0.34729500  1
  H  H25  1  0.26872000  0.09317100  0.15270500  1
  H  H26  1  0.80755100  0.21729400  0.55751200  1
  H  H27  1  0.21729400  0.80755100  0.94248800  1
  H  H28  1  0.19244900  0.78270600  0.44248800  1
  H  H29  1  0.78270600  0.19244900  0.05751200  1
  H  H30  1  0.82739200  0.09229100  0.65397800  1
  H  H31  1  0.09229100  0.82739200  0.84602200  1
  H  H32  1  0.17260800  0.90770900  0.34602200  1
  H  H33  1  0.90770900  0.17260800  0.15397800  1
  H  H34  1  0.26834100  0.17794400  0.65318300  1
  H  H35  1  0.17794400  0.26834100  0.84681700  1
  H  H36  1  0.73165900  0.82205600  0.34681700  1
  H  H37  1  0.82205600  0.73165900  0.15318300  1
  H  H38  1  0.42123200  0.19964700  0.55980600  1
  H  H39  1  0.19964700  0.42123200  0.94019400  1
  H  H40  1  0.57876800  0.80035300  0.44019400  1
  H  H41  1  0.80035300  0.57876800  0.05980600  1
  N  N42  1  0.66654900  0.33588800  0.82482400  1
  N  N43  1  0.33588800  0.66654900  0.67517600  1
  N  N44  1  0.33345100  0.66411200  0.17517600  1
  N  N45  1  0.66411200  0.33345100  0.32482400  1
  O  O46  1  0.83561800  0.73026900  0.58710600  1
  O  O47  1  0.73026900  0.83561800  0.91289400  1
  O  O48  1  0.16438200  0.26973100  0.41289400  1
  O  O49  1  0.26973100  0.16438200  0.08710600  1
  O  O50  1  0.89548000  0.15774100  0.58652700  1
  O  O51  1  0.15774100  0.89548000  0.91347300  1
  O  O52  1  0.10452000  0.84225900  0.41347300  1
  O  O53  1  0.84225900  0.10452000  0.08652700  1
  O  O54  1  0.26722000  0.10948000  0.58732300  1
  O  O55  1  0.10948000  0.26722000  0.91267700  1
  O  O56  1  0.73278000  0.89052000  0.41267700  1
  O  O57  1  0.89052000  0.73278000  0.08732300  1
  F  F58  1  0.66338400  0.33232300  0.52974000  1
  F  F59  1  0.33232300  0.66338400  0.97026000  1
  F  F60  1  0.33661600  0.66767700  0.47026000  1
  F  F61  1  0.66767700  0.33661600  0.02974000  1
  F  F62  1  0.00750000  0.70874700  0.74981000  1
  F  F63  1  0.70874700  0.00750000  0.75019000  1
  F  F64  1  0.99250000  0.29125300  0.25019000  1
  F  F65  1  0.29125300  0.99250000  0.24981000  1
  F  F66  1  0.30028300  0.30028300  0.75000000  1
  F  F67  1  0.69971700  0.69971700  0.25000000  1
