# generated using pymatgen
data_NaCoPH10CO10
_symmetry_space_group_name_H-M   'P 1'
_cell_length_a   8.36695484
_cell_length_b   9.96032416
_cell_length_c   11.89020900
_cell_angle_alpha   90.00000000
_cell_angle_beta   90.00000000
_cell_angle_gamma   106.80202527
_symmetry_Int_Tables_number   1
_chemical_formula_structural   NaCoPH10CO10
_chemical_formula_sum   'Na4 Co4 P4 H40 C4 O40'
_cell_volume   948.59898401
_cell_formula_units_Z   4
loop_
 _symmetry_equiv_pos_site_id
 _symmetry_equiv_pos_as_xyz
  1  'x, y, z'
loop_
 _atom_site_type_symbol
 _atom_site_label
 _atom_site_symmetry_multiplicity
 _atom_site_fract_x
 _atom_site_fract_y
 _atom_site_fract_z
 _atom_site_occupancy
  Na  Na0  1  0.50906100  0.54197800  0.13210500  1
  Na  Na1  1  0.49093900  0.95802200  0.63210500  1
  Na  Na2  1  0.49093900  0.45802200  0.86789500  1
  Na  Na3  1  0.50906100  0.04197800  0.36789500  1
  Co  Co4  1  0.92031500  0.80725400  0.14415000  1
  Co  Co5  1  0.07968500  0.69274600  0.64415000  1
  Co  Co6  1  0.07968500  0.19274600  0.85585000  1
  Co  Co7  1  0.92031500  0.30725400  0.35585000  1
  P  P8  1  0.00576400  0.84155900  0.88625200  1
  P  P9  1  0.99423600  0.65844100  0.38625200  1
  P  P10  1  0.99423600  0.15844100  0.11374800  1
  P  P11  1  0.00576400  0.34155900  0.61374800  1
  H  H12  1  0.87437900  0.53331600  0.18414500  1
  H  H13  1  0.12562100  0.96668400  0.68414500  1
  H  H14  1  0.12562100  0.46668400  0.81585500  1
  H  H15  1  0.87437900  0.03331600  0.31585500  1
  H  H16  1  0.83341100  0.53361500  0.04823800  1
  H  H17  1  0.16658900  0.96638500  0.54823800  1
  H  H18  1  0.16658900  0.46638500  0.95176200  1
  H  H19  1  0.83341100  0.03361500  0.45176200  1
  H  H20  1  0.67721900  0.73325500  0.29391000  1
  H  H21  1  0.32278100  0.76674500  0.79391000  1
  H  H22  1  0.32278100  0.26674500  0.70609000  1
  H  H23  1  0.67721900  0.23325500  0.20609000  1
  H  H24  1  0.60382900  0.82851600  0.20901300  1
  H  H25  1  0.39617100  0.67148400  0.70901300  1
  H  H26  1  0.39617100  0.17148400  0.79098700  1
  H  H27  1  0.60382900  0.32851600  0.29098700  1
  H  H28  1  0.13871400  0.44350700  0.14265200  1
  H  H29  1  0.86128600  0.05649300  0.64265200  1
  H  H30  1  0.86128600  0.55649300  0.85734800  1
  H  H31  1  0.13871400  0.94350700  0.35734800  1
  H  H32  1  0.17988600  0.60682700  0.11751900  1
  H  H33  1  0.82011400  0.89317300  0.61751900  1
  H  H34  1  0.82011400  0.39317300  0.88248100  1
  H  H35  1  0.17988600  0.10682700  0.38248100  1
  H  H36  1  0.53101000  0.26500900  0.04079800  1
  H  H37  1  0.46899000  0.23499100  0.54079800  1
  H  H38  1  0.46899000  0.73499100  0.95920200  1
  H  H39  1  0.53101000  0.76500900  0.45920200  1
  H  H40  1  0.34224800  0.26762900  0.04128200  1
  H  H41  1  0.65775200  0.23237100  0.54128200  1
  H  H42  1  0.65775200  0.73237100  0.95871800  1
  H  H43  1  0.34224800  0.76762900  0.45871800  1
  H  H44  1  0.53638400  0.50376500  0.36568400  1
  H  H45  1  0.46361600  0.99623500  0.86568400  1
  H  H46  1  0.46361600  0.49623500  0.63431600  1
  H  H47  1  0.53638400  0.00376500  0.13431600  1
  H  H48  1  0.36551100  0.38626000  0.34490300  1
  H  H49  1  0.63448900  0.11374000  0.84490300  1
  H  H50  1  0.63448900  0.61374000  0.65509700  1
  H  H51  1  0.36551100  0.88626000  0.15509700  1
  C  C52  1  0.19016500  0.83681600  0.97460400  1
  C  C53  1  0.80983500  0.66318400  0.47460400  1
  C  C54  1  0.80983500  0.16318400  0.02539600  1
  C  C55  1  0.19016500  0.33681600  0.52539600  1
  O  O56  1  0.86408200  0.81979600  0.97298000  1
  O  O57  1  0.13591800  0.68020400  0.47298000  1
  O  O58  1  0.13591800  0.18020400  0.02702000  1
  O  O59  1  0.86408200  0.31979600  0.52702000  1
  O  O60  1  0.98163000  0.71721100  0.80411100  1
  O  O61  1  0.01837000  0.78278900  0.30411100  1
  O  O62  1  0.01837000  0.28278900  0.19588900  1
  O  O63  1  0.98163000  0.21721100  0.69588900  1
  O  O64  1  0.04709300  0.98127100  0.82199900  1
  O  O65  1  0.95290700  0.51872900  0.32199900  1
  O  O66  1  0.95290700  0.01872900  0.17800100  1
  O  O67  1  0.04709300  0.48127100  0.67800100  1
  O  O68  1  0.16830400  0.82385400  0.08108600  1
  O  O69  1  0.83169600  0.67614600  0.58108600  1
  O  O70  1  0.83169600  0.17614600  0.91891400  1
  O  O71  1  0.16830400  0.32385400  0.41891400  1
  O  O72  1  0.32732900  0.84014300  0.92675700  1
  O  O73  1  0.67267100  0.65985700  0.42675700  1
  O  O74  1  0.67267100  0.15985700  0.07324300  1
  O  O75  1  0.32732900  0.34014300  0.57324300  1
  O  O76  1  0.82866400  0.57851000  0.12232700  1
  O  O77  1  0.17133600  0.92149000  0.62232700  1
  O  O78  1  0.17133600  0.42149000  0.87767300  1
  O  O79  1  0.82866400  0.07851000  0.37767300  1
  O  O80  1  0.67144800  0.76054800  0.21386400  1
  O  O81  1  0.32855200  0.73945200  0.71386400  1
  O  O82  1  0.32855200  0.23945200  0.78613600  1
  O  O83  1  0.67144800  0.26054800  0.28613600  1
  O  O84  1  0.21109400  0.52267400  0.09745300  1
  O  O85  1  0.78890600  0.97732600  0.59745300  1
  O  O86  1  0.78890600  0.47732600  0.90254700  1
  O  O87  1  0.21109400  0.02267400  0.40254700  1
  O  O88  1  0.45989800  0.32832500  0.03844500  1
  O  O89  1  0.54010200  0.17167500  0.53844500  1
  O  O90  1  0.54010200  0.67167500  0.96155500  1
  O  O91  1  0.45989800  0.82832500  0.46155500  1
  O  O92  1  0.47681700  0.43127100  0.31151900  1
  O  O93  1  0.52318300  0.06872900  0.81151900  1
  O  O94  1  0.52318300  0.56872900  0.68848100  1
  O  O95  1  0.47681700  0.93127100  0.18848100  1
