# generated using pymatgen
data_V3C4NO7
_symmetry_space_group_name_H-M   'P 1'
_cell_length_a   6.58626000
_cell_length_b   8.52641800
_cell_length_c   19.99777806
_cell_angle_alpha   66.00311149
_cell_angle_beta   90.00000000
_cell_angle_gamma   90.00000000
_symmetry_Int_Tables_number   1
_chemical_formula_structural   V3C4NO7
_chemical_formula_sum   'V12 C16 N4 O28'
_cell_volume   1025.95401953
_cell_formula_units_Z   4
loop_
 _symmetry_equiv_pos_site_id
 _symmetry_equiv_pos_as_xyz
  1  'x, y, z'
loop_
 _atom_site_type_symbol
 _atom_site_label
 _atom_site_symmetry_multiplicity
 _atom_site_fract_x
 _atom_site_fract_y
 _atom_site_fract_z
 _atom_site_occupancy
  V  V0  1  0.38259600  0.95693500  0.78906800  1
  V  V1  1  0.11740400  0.95693500  0.28906800  1
  V  V2  1  0.61740400  0.04306500  0.21093200  1
  V  V3  1  0.88259600  0.04306500  0.71093200  1
  V  V4  1  0.17878000  0.77630500  0.70635600  1
  V  V5  1  0.32122000  0.77630500  0.20635600  1
  V  V6  1  0.82122000  0.22369500  0.29364400  1
  V  V7  1  0.67878000  0.22369500  0.79364400  1
  V  V8  1  0.68002800  0.64273800  0.77459900  1
  V  V9  1  0.81997200  0.64273800  0.27459900  1
  V  V10  1  0.31997200  0.35726200  0.22540100  1
  V  V11  1  0.18002800  0.35726200  0.72540100  1
  C  C12  1  0.32787400  0.18395900  0.51937700  1
  C  C13  1  0.17212600  0.18395900  0.01937700  1
  C  C14  1  0.67212600  0.81604100  0.48062300  1
  C  C15  1  0.82787400  0.81604100  0.98062300  1
  C  C16  1  0.13562400  0.28096900  0.49419100  1
  C  C17  1  0.36437600  0.28096900  0.99419100  1
  C  C18  1  0.86437600  0.71903100  0.50580900  1
  C  C19  1  0.63562400  0.71903100  0.00580900  1
  C  C20  1  0.19724500  0.38081600  0.41710500  1
  C  C21  1  0.30275500  0.38081600  0.91710500  1
  C  C22  1  0.80275500  0.61918400  0.58289500  1
  C  C23  1  0.69724500  0.61918400  0.08289500  1
  C  C24  1  0.31941300  0.21770500  0.44045800  1
  C  C25  1  0.18058700  0.21770500  0.94045800  1
  C  C26  1  0.68058700  0.78229500  0.55954200  1
  C  C27  1  0.81941300  0.78229500  0.05954200  1
  N  N28  1  0.36904700  0.37418900  0.46988600  1
  N  N29  1  0.13095300  0.37418900  0.96988600  1
  N  N30  1  0.63095300  0.62581100  0.53011400  1
  N  N31  1  0.86904700  0.62581100  0.03011400  1
  O  O32  1  0.28017700  0.85770000  0.86869100  1
  O  O33  1  0.21982300  0.85770000  0.36869100  1
  O  O34  1  0.71982300  0.14230000  0.13130900  1
  O  O35  1  0.78017700  0.14230000  0.63130900  1
  O  O36  1  0.20707700  0.82370400  0.62073300  1
  O  O37  1  0.29292300  0.82370400  0.12073300  1
  O  O38  1  0.79292300  0.17629600  0.37926700  1
  O  O39  1  0.70707700  0.17629600  0.87926700  1
  O  O40  1  0.71980100  0.57550900  0.86116000  1
  O  O41  1  0.78019900  0.57550900  0.36116000  1
  O  O42  1  0.28019900  0.42449100  0.13884000  1
  O  O43  1  0.21980100  0.42449100  0.63884000  1
  O  O44  1  0.16357700  0.53587000  0.74885800  1
  O  O45  1  0.33642300  0.53587000  0.24885800  1
  O  O46  1  0.83642300  0.46413000  0.25114200  1
  O  O47  1  0.66357700  0.46413000  0.75114200  1
  O  O48  1  0.67624200  0.00672100  0.78701000  1
  O  O49  1  0.82375800  0.00672100  0.28701000  1
  O  O50  1  0.32375800  0.99327900  0.21299000  1
  O  O51  1  0.17624200  0.99327900  0.71299000  1
  O  O52  1  0.44325600  0.76752600  0.75237200  1
  O  O53  1  0.05674400  0.76752600  0.25237200  1
  O  O54  1  0.55674400  0.23247400  0.24762800  1
  O  O55  1  0.94325600  0.23247400  0.74762800  1
  O  O56  1  0.39024600  0.21122400  0.77340700  1
  O  O57  1  0.10975400  0.21122400  0.27340700  1
  O  O58  1  0.60975400  0.78877600  0.22659300  1
  O  O59  1  0.89024600  0.78877600  0.72659300  1
