# generated using pymatgen
data_H2Pb(CO2)2
_symmetry_space_group_name_H-M   'P 1'
_cell_length_a   6.68757800
_cell_length_b   7.74257700
_cell_length_c   8.94750200
_cell_angle_alpha   90.00000000
_cell_angle_beta   90.00000000
_cell_angle_gamma   90.00000000
_symmetry_Int_Tables_number   1
_chemical_formula_structural   H2Pb(CO2)2
_chemical_formula_sum   'H8 Pb4 C8 O16'
_cell_volume   463.29348994
_cell_formula_units_Z   4
loop_
 _symmetry_equiv_pos_site_id
 _symmetry_equiv_pos_as_xyz
  1  'x, y, z'
loop_
 _atom_site_type_symbol
 _atom_site_label
 _atom_site_symmetry_multiplicity
 _atom_site_fract_x
 _atom_site_fract_y
 _atom_site_fract_z
 _atom_site_occupancy
  H  H0  1  0.49314300  0.53120700  0.77541600  1
  H  H1  1  0.00685700  0.46879300  0.27541600  1
  H  H2  1  0.99314300  0.96879300  0.22458400  1
  H  H3  1  0.50685700  0.03120700  0.72458400  1
  H  H4  1  0.76028700  0.71207900  0.99135700  1
  H  H5  1  0.73971300  0.28792100  0.49135700  1
  H  H6  1  0.26028700  0.78792100  0.00864300  1
  H  H7  1  0.23971300  0.21207900  0.50864300  1
  Pb  Pb8  1  0.07063200  0.74503200  0.66798400  1
  Pb  Pb9  1  0.42936800  0.25496800  0.16798400  1
  Pb  Pb10  1  0.57063200  0.75496800  0.33201600  1
  Pb  Pb11  1  0.92936800  0.24503200  0.83201600  1
  C  C12  1  0.57941300  0.61278100  0.69667200  1
  C  C13  1  0.92058700  0.38721900  0.19667200  1
  C  C14  1  0.07941300  0.88721900  0.30332800  1
  C  C15  1  0.42058700  0.11278100  0.80332800  1
  C  C16  1  0.75373100  0.85543200  0.99401400  1
  C  C17  1  0.74626900  0.14456800  0.49401400  1
  C  C18  1  0.25373100  0.64456800  0.00598600  1
  C  C19  1  0.24626900  0.35543200  0.50598600  1
  O  O20  1  0.48750400  0.73121300  0.62666100  1
  O  O21  1  0.01249600  0.26878700  0.12666100  1
  O  O22  1  0.98750400  0.76878700  0.37333900  1
  O  O23  1  0.51249600  0.23121300  0.87333900  1
  O  O24  1  0.76411500  0.57447300  0.68380600  1
  O  O25  1  0.73588500  0.42552700  0.18380600  1
  O  O26  1  0.26411500  0.92552700  0.31619400  1
  O  O27  1  0.23588500  0.07447300  0.81619400  1
  O  O28  1  0.14899200  0.57414900  0.90385200  1
  O  O29  1  0.35100800  0.42585100  0.40385200  1
  O  O30  1  0.64899200  0.92585100  0.09614800  1
  O  O31  1  0.85100800  0.07414900  0.59614800  1
  O  O32  1  0.85340200  0.93274500  0.89374700  1
  O  O33  1  0.64659800  0.06725500  0.39374700  1
  O  O34  1  0.35340200  0.56725500  0.10625300  1
  O  O35  1  0.14659800  0.43274500  0.60625300  1
