# generated using pymatgen
data_K2Pt(C2O5)2
_symmetry_space_group_name_H-M   'P 1'
_cell_length_a   14.12207000
_cell_length_b   6.07761100
_cell_length_c   6.63815119
_cell_angle_alpha   68.74811533
_cell_angle_beta   90.00000000
_cell_angle_gamma   90.00000000
_symmetry_Int_Tables_number   1
_chemical_formula_structural   K2Pt(C2O5)2
_chemical_formula_sum   'K4 Pt2 C8 O20'
_cell_volume   530.99743394
_cell_formula_units_Z   2
loop_
 _symmetry_equiv_pos_site_id
 _symmetry_equiv_pos_as_xyz
  1  'x, y, z'
loop_
 _atom_site_type_symbol
 _atom_site_label
 _atom_site_symmetry_multiplicity
 _atom_site_fract_x
 _atom_site_fract_y
 _atom_site_fract_z
 _atom_site_occupancy
  K  K0  1  0.34949900  0.49059800  0.44792100  1
  K  K1  1  0.15050100  0.99059800  0.44792100  1
  K  K2  1  0.65050100  0.50940200  0.55207900  1
  K  K3  1  0.84949900  0.00940200  0.55207900  1
  Pt  Pt4  1  0.50000000  0.50000000  0.00000000  1
  Pt  Pt5  1  0.00000000  0.00000000  0.00000000  1
  C  C6  1  0.38723900  0.87318100  0.73051000  1
  C  C7  1  0.11276100  0.37318100  0.73051000  1
  C  C8  1  0.61276100  0.12681900  0.26949000  1
  C  C9  1  0.88723900  0.62681900  0.26949000  1
  C  C10  1  0.48545800  0.98231300  0.74515600  1
  C  C11  1  0.01454200  0.48231300  0.74515600  1
  C  C12  1  0.51454200  0.01768700  0.25484400  1
  C  C13  1  0.98545800  0.51768700  0.25484400  1
  O  O14  1  0.38263300  0.64380500  0.83228900  1
  O  O15  1  0.11736700  0.14380500  0.83228900  1
  O  O16  1  0.61736700  0.35619500  0.16771100  1
  O  O17  1  0.88263300  0.85619500  0.16771100  1
  O  O18  1  0.32295400  0.99667500  0.62239300  1
  O  O19  1  0.17704600  0.49667500  0.62239300  1
  O  O20  1  0.67704600  0.00332500  0.37760700  1
  O  O21  1  0.82295400  0.50332500  0.37760700  1
  O  O22  1  0.54716700  0.83195600  0.86565500  1
  O  O23  1  0.95283300  0.33195600  0.86565500  1
  O  O24  1  0.45283300  0.16804400  0.13434500  1
  O  O25  1  0.04716700  0.66804400  0.13434500  1
  O  O26  1  0.50173300  0.19279400  0.64125300  1
  O  O27  1  0.99826700  0.69279400  0.64125300  1
  O  O28  1  0.49826700  0.80720600  0.35874700  1
  O  O29  1  0.00173300  0.30720600  0.35874700  1
  O  O30  1  0.22282100  0.42827600  0.13989300  1
  O  O31  1  0.27717900  0.92827600  0.13989300  1
  O  O32  1  0.77717900  0.57172400  0.86010700  1
  O  O33  1  0.72282100  0.07172400  0.86010700  1
