# generated using pymatgen
data_CoP3H16N4O11
_symmetry_space_group_name_H-M   'P 1'
_cell_length_a   7.91232115
_cell_length_b   8.14537240
_cell_length_c   10.46248200
_cell_angle_alpha   90.00000000
_cell_angle_beta   90.00000000
_cell_angle_gamma   100.46865346
_symmetry_Int_Tables_number   1
_chemical_formula_structural   CoP3H16N4O11
_chemical_formula_sum   'Co2 P6 H32 N8 O22'
_cell_volume   663.07044038
_cell_formula_units_Z   2
loop_
 _symmetry_equiv_pos_site_id
 _symmetry_equiv_pos_as_xyz
  1  'x, y, z'
loop_
 _atom_site_type_symbol
 _atom_site_label
 _atom_site_symmetry_multiplicity
 _atom_site_fract_x
 _atom_site_fract_y
 _atom_site_fract_z
 _atom_site_occupancy
  Co  Co0  1  0.64136300  0.22312800  0.00127600  1
  Co  Co1  1  0.35863700  0.77687200  0.50127600  1
  P  P2  1  0.20700400  0.63661000  0.98931600  1
  P  P3  1  0.79299600  0.36339000  0.48931600  1
  P  P4  1  0.54551600  0.83303100  0.05243700  1
  P  P5  1  0.45448400  0.16696900  0.55243700  1
  P  P6  1  0.76851000  0.94881100  0.83364700  1
  P  P7  1  0.23149000  0.05118900  0.33364700  1
  H  H8  1  0.94873800  0.19977000  0.00611500  1
  H  H9  1  0.05126200  0.80023000  0.50611500  1
  H  H10  1  0.94231200  0.37288600  0.08725900  1
  H  H11  1  0.05768800  0.62711400  0.58725900  1
  H  H12  1  0.87830800  0.18912900  0.15320800  1
  H  H13  1  0.12169200  0.81087100  0.65320800  1
  H  H14  1  0.58632600  0.49578400  0.90858100  1
  H  H15  1  0.41367400  0.50421600  0.40858100  1
  H  H16  1  0.71217800  0.40747100  0.81409400  1
  H  H17  1  0.28782200  0.59252900  0.31409400  1
  H  H18  1  0.79418300  0.51810000  0.93879300  1
  H  H19  1  0.20581700  0.48190000  0.43879300  1
  H  H20  1  0.56056800  0.46066500  0.13480200  1
  H  H21  1  0.43943200  0.53933500  0.63480200  1
  H  H22  1  0.43546000  0.27487900  0.16833300  1
  H  H23  1  0.56454000  0.72512100  0.66833300  1
  H  H24  1  0.62997600  0.32610700  0.22889600  1
  H  H25  1  0.37002400  0.67389300  0.72889600  1
  H  H26  1  0.32060900  0.12713300  0.00590300  1
  H  H27  1  0.67939100  0.87286700  0.50590300  1
  H  H28  1  0.36676400  0.28112100  0.89929800  1
  H  H29  1  0.63323600  0.71887900  0.39929800  1
  H  H30  1  0.40130000  0.09170400  0.86250100  1
  H  H31  1  0.59870000  0.90829600  0.36250100  1
  H  H32  1  0.11981600  0.24794100  0.72240700  1
  H  H33  1  0.88018400  0.75205900  0.22240700  1
  H  H34  1  0.15344000  0.41036200  0.80862900  1
  H  H35  1  0.84656000  0.58963800  0.30862900  1
  H  H36  1  0.07254500  0.61008200  0.17722200  1
  H  H37  1  0.92745500  0.38991800  0.67722200  1
  H  H38  1  0.98778700  0.84965800  0.92021000  1
  H  H39  1  0.01221300  0.15034200  0.42021000  1
  N  N40  1  0.87708100  0.25432500  0.06969700  1
  N  N41  1  0.12291900  0.74567500  0.56969700  1
  N  N42  1  0.68879200  0.43438200  0.90765800  1
  N  N43  1  0.31120800  0.56561800  0.40765800  1
  N  N44  1  0.55970300  0.33448400  0.14770500  1
  N  N45  1  0.44029700  0.66551600  0.64770500  1
  N  N46  1  0.40481900  0.17640100  0.93501700  1
  N  N47  1  0.59518100  0.82359900  0.43501700  1
  O  O48  1  0.04906700  0.68592800  0.93027800  1
  O  O49  1  0.95093300  0.31407200  0.43027800  1
  O  O50  1  0.16411100  0.55936200  0.12721600  1
  O  O51  1  0.83588900  0.44063800  0.62721600  1
  O  O52  1  0.29499100  0.52032900  0.91104200  1
  O  O53  1  0.70500900  0.47967100  0.41104200  1
  O  O54  1  0.34376200  0.81016700  0.01428200  1
  O  O55  1  0.65623800  0.18983300  0.51428200  1
  O  O56  1  0.60031400  0.01243400  0.09795200  1
  O  O57  1  0.39968600  0.98756600  0.59795200  1
  O  O58  1  0.58102600  0.69981400  0.14086000  1
  O  O59  1  0.41897400  0.30018600  0.64086000  1
  O  O60  1  0.62906500  0.81087400  0.91377600  1
  O  O61  1  0.37093500  0.18912600  0.41377600  1
  O  O62  1  0.94156800  0.96024100  0.91177700  1
  O  O63  1  0.05843200  0.03975900  0.41177700  1
  O  O64  1  0.77426100  0.87905800  0.70214100  1
  O  O65  1  0.22573900  0.12094200  0.20214100  1
  O  O66  1  0.71091000  0.11707900  0.84699600  1
  O  O67  1  0.28909000  0.88292100  0.34699600  1
  O  O68  1  0.06375600  0.33454100  0.75797800  1
  O  O69  1  0.93624400  0.66545900  0.25797800  1
