# generated using pymatgen
data_NdH3CSO7
_symmetry_space_group_name_H-M   'P 1'
_cell_length_a   7.05117000
_cell_length_b   7.05117000
_cell_length_c   11.93528700
_cell_angle_alpha   90.00000000
_cell_angle_beta   90.00000000
_cell_angle_gamma   90.00000000
_symmetry_Int_Tables_number   1
_chemical_formula_structural   NdH3CSO7
_chemical_formula_sum   'Nd4 H12 C4 S4 O28'
_cell_volume   593.41051489
_cell_formula_units_Z   4
loop_
 _symmetry_equiv_pos_site_id
 _symmetry_equiv_pos_as_xyz
  1  'x, y, z'
loop_
 _atom_site_type_symbol
 _atom_site_label
 _atom_site_symmetry_multiplicity
 _atom_site_fract_x
 _atom_site_fract_y
 _atom_site_fract_z
 _atom_site_occupancy
  Nd  Nd0  1  0.87086400  0.61313800  0.72228600  1
  Nd  Nd1  1  0.12913600  0.38686200  0.22228600  1
  Nd  Nd2  1  0.61313800  0.12913600  0.47228600  1
  Nd  Nd3  1  0.38686200  0.87086400  0.97228600  1
  H  H4  1  0.36227700  0.52433600  0.68600700  1
  H  H5  1  0.63772300  0.47566400  0.18600700  1
  H  H6  1  0.52433600  0.63772300  0.43600700  1
  H  H7  1  0.47566400  0.36227700  0.93600700  1
  H  H8  1  0.04062300  0.88430400  0.54459300  1
  H  H9  1  0.95937700  0.11569600  0.04459300  1
  H  H10  1  0.88430400  0.95937700  0.29459300  1
  H  H11  1  0.11569600  0.04062300  0.79459300  1
  H  H12  1  0.10540800  0.67623800  0.50804700  1
  H  H13  1  0.89459200  0.32376200  0.00804700  1
  H  H14  1  0.67623800  0.89459200  0.25804700  1
  H  H15  1  0.32376200  0.10540800  0.75804700  1
  C  C16  1  0.36656500  0.61527500  0.76110100  1
  C  C17  1  0.63343500  0.38472500  0.26110100  1
  C  C18  1  0.61527500  0.63343500  0.51110100  1
  C  C19  1  0.38472500  0.36656500  0.01110100  1
  S  S20  1  0.73041600  0.11144300  0.77630300  1
  S  S21  1  0.26958400  0.88855700  0.27630300  1
  S  S22  1  0.11144300  0.26958400  0.52630300  1
  S  S23  1  0.88855700  0.73041600  0.02630300  1
  O  O24  1  0.87691500  0.95951500  0.75874800  1
  O  O25  1  0.12308500  0.04048500  0.25874800  1
  O  O26  1  0.95951500  0.12308500  0.50874800  1
  O  O27  1  0.04048500  0.87691500  0.00874800  1
  O  O28  1  0.61164300  0.06453700  0.87439300  1
  O  O29  1  0.38835700  0.93546300  0.37439300  1
  O  O30  1  0.06453700  0.38835700  0.62439300  1
  O  O31  1  0.93546300  0.61164300  0.12439300  1
  O  O32  1  0.60680700  0.12719500  0.67596000  1
  O  O33  1  0.39319300  0.87280500  0.17596000  1
  O  O34  1  0.12719500  0.39319300  0.42596000  1
  O  O35  1  0.87280500  0.60680700  0.92596000  1
  O  O36  1  0.82638400  0.29363000  0.79884700  1
  O  O37  1  0.17361600  0.70637000  0.29884700  1
  O  O38  1  0.29363000  0.17361600  0.54884700  1
  O  O39  1  0.70637000  0.82638400  0.04884700  1
  O  O40  1  0.21132900  0.66207500  0.80738400  1
  O  O41  1  0.78867100  0.33792500  0.30738400  1
  O  O42  1  0.66207500  0.78867100  0.55738400  1
  O  O43  1  0.33792500  0.21132900  0.05738400  1
  O  O44  1  0.52704300  0.66672500  0.80067400  1
  O  O45  1  0.47295700  0.33327500  0.30067400  1
  O  O46  1  0.66672500  0.47295700  0.55067400  1
  O  O47  1  0.33327500  0.52704300  0.05067400  1
  O  O48  1  0.06971300  0.75553100  0.57215800  1
  O  O49  1  0.93028700  0.24446900  0.07215800  1
  O  O50  1  0.75553100  0.93028700  0.32215800  1
  O  O51  1  0.24446900  0.06971300  0.82215800  1
