# generated using pymatgen
data_U2PbSe5
_symmetry_space_group_name_H-M   'P 1'
_cell_length_a   7.82269300
_cell_length_b   8.10850000
_cell_length_c   12.88607700
_cell_angle_alpha   90.00000000
_cell_angle_beta   90.00000000
_cell_angle_gamma   90.00000000
_symmetry_Int_Tables_number   1
_chemical_formula_structural   U2PbSe5
_chemical_formula_sum   'U8 Pb4 Se20'
_cell_volume   817.36780970
_cell_formula_units_Z   4
loop_
 _symmetry_equiv_pos_site_id
 _symmetry_equiv_pos_as_xyz
  1  'x, y, z'
loop_
 _atom_site_type_symbol
 _atom_site_label
 _atom_site_symmetry_multiplicity
 _atom_site_fract_x
 _atom_site_fract_y
 _atom_site_fract_z
 _atom_site_occupancy
  U  U0  1  0.52002100  0.50173300  0.32083200  1
  U  U1  1  0.97997900  0.99826700  0.82083200  1
  U  U2  1  0.47997900  0.00173300  0.67916800  1
  U  U3  1  0.02002100  0.49826700  0.17916800  1
  U  U4  1  0.47997900  0.49826700  0.67916800  1
  U  U5  1  0.02002100  0.00173300  0.17916800  1
  U  U6  1  0.52002100  0.99826700  0.32083200  1
  U  U7  1  0.97997900  0.50173300  0.82083200  1
  Pb  Pb8  1  0.06660100  0.75000000  0.49088900  1
  Pb  Pb9  1  0.43339900  0.75000000  0.99088900  1
  Pb  Pb10  1  0.93339900  0.25000000  0.50911100  1
  Pb  Pb11  1  0.56660100  0.25000000  0.00911100  1
  Se  Se12  1  0.82816600  0.96096000  0.62006100  1
  Se  Se13  1  0.67183400  0.53904000  0.12006100  1
  Se  Se14  1  0.17183400  0.46096000  0.37993900  1
  Se  Se15  1  0.32816600  0.03904000  0.87993900  1
  Se  Se16  1  0.17183400  0.03904000  0.37993900  1
  Se  Se17  1  0.32816600  0.46096000  0.87993900  1
  Se  Se18  1  0.82816600  0.53904000  0.62006100  1
  Se  Se19  1  0.67183400  0.96096000  0.12006100  1
  Se  Se20  1  0.82559000  0.75000000  0.31148200  1
  Se  Se21  1  0.67441000  0.75000000  0.81148200  1
  Se  Se22  1  0.17441000  0.25000000  0.68851800  1
  Se  Se23  1  0.32559000  0.25000000  0.18851800  1
  Se  Se24  1  0.48208600  0.75000000  0.49873300  1
  Se  Se25  1  0.01791400  0.75000000  0.99873300  1
  Se  Se26  1  0.51791400  0.25000000  0.50126700  1
  Se  Se27  1  0.98208600  0.25000000  0.00126700  1
  Se  Se28  1  0.19708000  0.75000000  0.71330900  1
  Se  Se29  1  0.30292000  0.75000000  0.21330900  1
  Se  Se30  1  0.80292000  0.25000000  0.28669100  1
  Se  Se31  1  0.69708000  0.25000000  0.78669100  1
