# generated using pymatgen
data_Sr3Ti5O13
_symmetry_space_group_name_H-M   'P 1'
_cell_length_a   5.66606487
_cell_length_b   11.83678716
_cell_length_c   31.87110988
_cell_angle_alpha   90.00000000
_cell_angle_beta   90.80673971
_cell_angle_gamma   90.00000000
_symmetry_Int_Tables_number   1
_chemical_formula_structural   Sr3Ti5O13
_chemical_formula_sum   'Sr15 Ti25 O65'
_cell_volume   2137.31983777
_cell_formula_units_Z   5
loop_
 _symmetry_equiv_pos_site_id
 _symmetry_equiv_pos_as_xyz
  1  'x, y, z'
loop_
 _atom_site_type_symbol
 _atom_site_label
 _atom_site_symmetry_multiplicity
 _atom_site_fract_x
 _atom_site_fract_y
 _atom_site_fract_z
 _atom_site_occupancy
  Sr  Sr0  1  0.48507770  0.00000000  0.82096933  1
  Sr  Sr1  1  0.51492230  0.00000000  0.17903067  1
  Sr  Sr2  1  0.49149231  0.66256226  0.82202298  1
  Sr  Sr3  1  0.49149231  0.33743774  0.82202298  1
  Sr  Sr4  1  0.50850769  0.33743774  0.17797702  1
  Sr  Sr5  1  0.50850769  0.66256226  0.17797702  1
  Sr  Sr6  1  0.99561047  0.00000000  0.91166850  1
  Sr  Sr7  1  0.00438953  0.00000000  0.08833150  1
  Sr  Sr8  1  0.99753888  0.67319279  0.91493668  1
  Sr  Sr9  1  0.99753888  0.32680721  0.91493668  1
  Sr  Sr10  1  0.00246112  0.32680721  0.08506332  1
  Sr  Sr11  1  0.00246112  0.67319279  0.08506332  1
  Sr  Sr12  1  0.50000000  0.00000000  -0.00000000  1
  Sr  Sr13  1  0.50000000  0.67275107  -0.00000000  1
  Sr  Sr14  1  0.50000000  0.32724893  -0.00000000  1
  Ti  Ti15  1  0.66275003  0.86094830  0.72897234  1
  Ti  Ti16  1  0.66275003  0.13905170  0.72897234  1
  Ti  Ti17  1  0.33724997  0.13905170  0.27102766  1
  Ti  Ti18  1  0.33724997  0.86094830  0.27102766  1
  Ti  Ti19  1  0.15822814  0.76904056  0.72436406  1
  Ti  Ti20  1  0.15822814  0.23095944  0.72436406  1
  Ti  Ti21  1  0.84177186  0.23095944  0.27563594  1
  Ti  Ti22  1  0.84177186  0.76904056  0.27563594  1
  Ti  Ti23  1  0.99748314  0.50000000  0.74653571  1
  Ti  Ti24  1  0.00251686  0.50000000  0.25346429  1
  Ti  Ti25  1  0.99128097  0.83090824  0.82571886  1
  Ti  Ti26  1  0.99128097  0.16909176  0.82571886  1
  Ti  Ti27  1  0.00871903  0.16909176  0.17428114  1
  Ti  Ti28  1  0.00871903  0.83090824  0.17428114  1
  Ti  Ti29  1  0.97791096  0.50000000  0.83444153  1
  Ti  Ti30  1  0.02208904  0.50000000  0.16555847  1
  Ti  Ti31  1  0.49747205  0.83531124  0.91165513  1
  Ti  Ti32  1  0.49747205  0.16468876  0.91165513  1
  Ti  Ti33  1  0.50252795  0.16468876  0.08834487  1
  Ti  Ti34  1  0.50252795  0.83531124  0.08834487  1
  Ti  Ti35  1  0.49696161  0.50000000  0.91517391  1
  Ti  Ti36  1  0.50303839  0.50000000  0.08482609  1
  Ti  Ti37  1  0.00000000  0.83549077  -0.00000000  1
  Ti  Ti38  1  0.00000000  0.16450923  -0.00000000  1
  Ti  Ti39  1  0.00000000  0.50000000  -0.00000000  1
  O  O40  1  0.94505251  0.87071761  0.70287851  1
  O  O41  1  0.94505251  0.12928239  0.70287851  1
  O  O42  1  0.05494749  0.12928239  0.29712149  1
  O  O43  1  0.05494749  0.87071761  0.29712149  1
  O  O44  1  0.45137168  0.77024479  0.70121814  1
  O  O45  1  0.45137168  0.22975521  0.70121814  1
  O  O46  1  0.54862832  0.22975521  0.29878186  1
  O  O47  1  0.54862832  0.77024479  0.29878186  1
  O  O48  1  0.52472284  0.00000000  0.73709414  1
  O  O49  1  0.47527716  0.00000000  0.26290586  1
  O  O50  1  0.01673256  0.63309695  0.71736868  1
  O  O51  1  0.01673256  0.36690305  0.71736868  1
  O  O52  1  0.98326744  0.36690305  0.28263132  1
  O  O53  1  0.98326744  0.63309695  0.28263132  1
  O  O54  1  0.72476707  0.81713075  0.78252065  1
  O  O55  1  0.72476707  0.18286925  0.78252065  1
  O  O56  1  0.27523293  0.18286925  0.21747935  1
  O  O57  1  0.27523293  0.81713075  0.21747935  1
  O  O58  1  0.21988148  0.80414087  0.77958990  1
  O  O59  1  0.21988148  0.19585913  0.77958990  1
  O  O60  1  0.78011852  0.19585913  0.22041010  1
  O  O61  1  0.78011852  0.80414087  0.22041010  1
  O  O62  1  0.22254203  0.50000000  0.78840259  1
  O  O63  1  0.77745797  0.50000000  0.21159741  1
  O  O64  1  0.75319453  0.50000000  0.78202721  1
  O  O65  1  0.24680547  0.50000000  0.21797279  1
  O  O66  1  0.99845722  0.00000000  0.82184976  1
  O  O67  1  0.00154278  0.00000000  0.17815024  1
  O  O68  1  0.97522506  0.66717769  0.83460049  1
  O  O69  1  0.97522506  0.33282231  0.83460049  1
  O  O70  1  0.02477494  0.33282231  0.16539951  1
  O  O71  1  0.02477494  0.66717769  0.16539951  1
  O  O72  1  0.24613570  0.83872741  0.86701673  1
  O  O73  1  0.24613570  0.16127259  0.86701673  1
  O  O74  1  0.75386430  0.16127259  0.13298327  1
  O  O75  1  0.75386430  0.83872741  0.13298327  1
  O  O76  1  0.73927718  0.84431317  0.86865324  1
  O  O77  1  0.73927718  0.15568683  0.86865324  1
  O  O78  1  0.26072282  0.15568683  0.13134676  1
  O  O79  1  0.26072282  0.84431317  0.13134676  1
  O  O80  1  0.20261220  0.50000000  0.87807223  1
  O  O81  1  0.79738780  0.50000000  0.12192777  1
  O  O82  1  0.68801813  0.50000000  0.86512423  1
  O  O83  1  0.31198187  0.50000000  0.13487577  1
  O  O84  1  0.48721379  0.00000000  0.91493687  1
  O  O85  1  0.51278621  0.00000000  0.08506313  1
  O  O86  1  0.49432300  0.66863220  0.91280445  1
  O  O87  1  0.49432300  0.33136780  0.91280445  1
  O  O88  1  0.50567700  0.33136780  0.08719555  1
  O  O89  1  0.50567700  0.66863220  0.08719555  1
  O  O90  1  0.24211072  0.83318138  0.95579997  1
  O  O91  1  0.24211072  0.16681862  0.95579997  1
  O  O92  1  0.75788928  0.16681862  0.04420003  1
  O  O93  1  0.75788928  0.83318138  0.04420003  1
  O  O94  1  0.74537745  0.83412642  0.95650633  1
  O  O95  1  0.74537745  0.16587358  0.95650633  1
  O  O96  1  0.25462255  0.16587358  0.04349367  1
  O  O97  1  0.25462255  0.83412642  0.04349367  1
  O  O98  1  0.28014777  0.50000000  0.96275126  1
  O  O99  1  0.71985223  0.50000000  0.03724874  1
  O  O100  1  0.77742244  0.50000000  0.95098555  1
  O  O101  1  0.22257756  0.50000000  0.04901445  1
  O  O102  1  0.00000000  0.00000000  -0.00000000  1
  O  O103  1  0.00000000  0.66578860  -0.00000000  1
  O  O104  1  0.00000000  0.33421140  -0.00000000  1
