# generated using pymatgen
data_Na2Hf(SO5)3
_symmetry_space_group_name_H-M   'P 1'
_cell_length_a   6.96601000
_cell_length_b   7.88836100
_cell_length_c   22.51782900
_cell_angle_alpha   90.00000000
_cell_angle_beta   90.00000000
_cell_angle_gamma   90.00000000
_symmetry_Int_Tables_number   1
_chemical_formula_structural   Na2Hf(SO5)3
_chemical_formula_sum   'Na8 Hf4 S12 O60'
_cell_volume   1237.36374693
_cell_formula_units_Z   4
loop_
 _symmetry_equiv_pos_site_id
 _symmetry_equiv_pos_as_xyz
  1  'x, y, z'
loop_
 _atom_site_type_symbol
 _atom_site_label
 _atom_site_symmetry_multiplicity
 _atom_site_fract_x
 _atom_site_fract_y
 _atom_site_fract_z
 _atom_site_occupancy
  Na  Na0  1  0.50888200  0.16774300  0.33975800  1
  Na  Na1  1  0.99111800  0.83225700  0.83975800  1
  Na  Na2  1  0.00888200  0.33225700  0.66024200  1
  Na  Na3  1  0.49111800  0.66774300  0.16024200  1
  Na  Na4  1  0.78165100  0.22854100  0.18373300  1
  Na  Na5  1  0.71834900  0.77145900  0.68373300  1
  Na  Na6  1  0.28165100  0.27145900  0.81626700  1
  Na  Na7  1  0.21834900  0.72854100  0.31626700  1
  Hf  Hf8  1  0.83255500  0.56808200  0.41582100  1
  Hf  Hf9  1  0.66744500  0.43191800  0.91582100  1
  Hf  Hf10  1  0.33255500  0.93191800  0.58417900  1
  Hf  Hf11  1  0.16744500  0.06808200  0.08417900  1
  S  S12  1  0.80085100  0.44026900  0.79473900  1
  S  S13  1  0.69914900  0.55973100  0.29473900  1
  S  S14  1  0.30085100  0.05973100  0.20526100  1
  S  S15  1  0.19914900  0.94026900  0.70526100  1
  S  S16  1  0.83388400  0.86644900  0.10325100  1
  S  S17  1  0.66611600  0.13355100  0.60325100  1
  S  S18  1  0.33388400  0.63355100  0.89674900  1
  S  S19  1  0.16611600  0.36644900  0.39674900  1
  S  S20  1  0.00302200  0.60672300  0.56656300  1
  S  S21  1  0.49697800  0.39327700  0.06656300  1
  S  S22  1  0.50302200  0.89327700  0.43343700  1
  S  S23  1  0.99697800  0.10672300  0.93343700  1
  O  O24  1  0.86026200  0.54764800  0.84828900  1
  O  O25  1  0.63973800  0.45235200  0.34828900  1
  O  O26  1  0.36026200  0.95235200  0.15171100  1
  O  O27  1  0.13973800  0.04764800  0.65171100  1
  O  O28  1  0.84892900  0.67363800  0.32490300  1
  O  O29  1  0.65107100  0.32636200  0.82490300  1
  O  O30  1  0.34892900  0.82636200  0.67509700  1
  O  O31  1  0.15107100  0.17363800  0.17509700  1
  O  O32  1  0.78496400  0.45570000  0.24861200  1
  O  O33  1  0.71503600  0.54430000  0.74861200  1
  O  O34  1  0.28496400  0.04430000  0.75138800  1
  O  O35  1  0.21503600  0.95570000  0.25138800  1
  O  O36  1  0.53756900  0.66325500  0.27302800  1
  O  O37  1  0.96243100  0.33674500  0.77302800  1
  O  O38  1  0.03756900  0.83674500  0.72697200  1
  O  O39  1  0.46243100  0.16325500  0.22697200  1
  O  O40  1  0.14413500  0.56200100  0.40073300  1
  O  O41  1  0.35586500  0.43799900  0.90073300  1
  O  O42  1  0.64413500  0.93799900  0.59926700  1
  O  O43  1  0.85586500  0.06200100  0.09926700  1
  O  O44  1  0.95801600  0.31632900  0.40926800  1
  O  O45  1  0.54198400  0.68367100  0.90926800  1
  O  O46  1  0.45801600  0.18367100  0.59073200  1
  O  O47  1  0.04198400  0.81632900  0.09073200  1
  O  O48  1  0.29856300  0.30123400  0.44127800  1
  O  O49  1  0.20143700  0.69876600  0.94127800  1
  O  O50  1  0.79856300  0.19876600  0.55872200  1
  O  O51  1  0.70143700  0.80123400  0.05872200  1
  O  O52  1  0.22029000  0.32269100  0.33592900  1
  O  O53  1  0.27971000  0.67730900  0.83592900  1
  O  O54  1  0.72029000  0.17730900  0.66407100  1
  O  O55  1  0.77971000  0.82269100  0.16407100  1
  O  O56  1  0.91059600  0.59222900  0.50551000  1
  O  O57  1  0.58940400  0.40777100  0.00551000  1
  O  O58  1  0.41059600  0.90777100  0.49449000  1
  O  O59  1  0.08940400  0.09222900  0.99449000  1
  O  O60  1  0.85419200  0.58799100  0.61178600  1
  O  O61  1  0.64580800  0.41200900  0.11178600  1
  O  O62  1  0.35419200  0.91200900  0.38821400  1
  O  O63  1  0.14580800  0.08799100  0.88821400  1
  O  O64  1  0.58441700  0.71660100  0.43256900  1
  O  O65  1  0.91558300  0.28339900  0.93256900  1
  O  O66  1  0.08441700  0.78339900  0.56743100  1
  O  O67  1  0.41558300  0.21660100  0.06743100  1
  O  O68  1  0.15517000  0.47987400  0.57289200  1
  O  O69  1  0.34483000  0.52012600  0.07289200  1
  O  O70  1  0.65517000  0.02012600  0.42710800  1
  O  O71  1  0.84483000  0.97987400  0.92710800  1
  O  O72  1  0.64761300  0.41242000  0.47301200  1
  O  O73  1  0.85238700  0.58758000  0.97301200  1
  O  O74  1  0.14761300  0.08758000  0.52698800  1
  O  O75  1  0.35238700  0.91242000  0.02698800  1
  O  O76  1  0.54563700  0.17755400  0.93136100  1
  O  O77  1  0.95436300  0.82244600  0.43136100  1
  O  O78  1  0.04563700  0.32244600  0.06863900  1
  O  O79  1  0.45436300  0.67755400  0.56863900  1
  O  O80  1  0.78648900  0.08308100  0.27782100  1
  O  O81  1  0.71351100  0.91691900  0.77782100  1
  O  O82  1  0.28648900  0.41691900  0.72217900  1
  O  O83  1  0.21351100  0.58308100  0.22217900  1
