# generated using pymatgen
data_GeC4NCl3
_symmetry_space_group_name_H-M   'P 1'
_cell_length_a   7.95591400
_cell_length_b   8.12895000
_cell_length_c   15.14751100
_cell_angle_alpha   90.00000000
_cell_angle_beta   90.00000000
_cell_angle_gamma   90.00000000
_symmetry_Int_Tables_number   1
_chemical_formula_structural   GeC4NCl3
_chemical_formula_sum   'Ge4 C16 N4 Cl12'
_cell_volume   979.63841906
_cell_formula_units_Z   4
loop_
 _symmetry_equiv_pos_site_id
 _symmetry_equiv_pos_as_xyz
  1  'x, y, z'
loop_
 _atom_site_type_symbol
 _atom_site_label
 _atom_site_symmetry_multiplicity
 _atom_site_fract_x
 _atom_site_fract_y
 _atom_site_fract_z
 _atom_site_occupancy
  Ge  Ge0  1  0.24640700  0.75000000  0.78234100  1
  Ge  Ge1  1  0.25359300  0.75000000  0.28234100  1
  Ge  Ge2  1  0.75359300  0.25000000  0.21765900  1
  Ge  Ge3  1  0.74640700  0.25000000  0.71765900  1
  C  C4  1  0.30682900  0.25000000  0.02725500  1
  C  C5  1  0.19317100  0.25000000  0.52725500  1
  C  C6  1  0.69317100  0.75000000  0.97274500  1
  C  C7  1  0.80682900  0.75000000  0.47274500  1
  C  C8  1  0.14894600  0.25000000  0.88383200  1
  C  C9  1  0.35105400  0.25000000  0.38383200  1
  C  C10  1  0.85105400  0.75000000  0.11616800  1
  C  C11  1  0.64894600  0.75000000  0.61616800  1
  C  C12  1  0.37848100  0.16675700  0.09731100  1
  C  C13  1  0.12151900  0.33324300  0.59731100  1
  C  C14  1  0.62151900  0.66675700  0.90268900  1
  C  C15  1  0.87848100  0.83324300  0.40268900  1
  C  C16  1  0.62151900  0.83324300  0.90268900  1
  C  C17  1  0.87848100  0.66675700  0.40268900  1
  C  C18  1  0.37848100  0.33324300  0.09731100  1
  C  C19  1  0.12151900  0.16675700  0.59731100  1
  N  N20  1  0.22571600  0.25000000  0.95173700  1
  N  N21  1  0.27428400  0.25000000  0.45173700  1
  N  N22  1  0.77428400  0.75000000  0.04826300  1
  N  N23  1  0.72571600  0.75000000  0.54826300  1
  Cl  Cl24  1  0.45385500  0.97604100  0.79555000  1
  Cl  Cl25  1  0.04614500  0.52395900  0.29555000  1
  Cl  Cl26  1  0.54614500  0.47604100  0.20445000  1
  Cl  Cl27  1  0.95385500  0.02395900  0.70445000  1
  Cl  Cl28  1  0.54614500  0.02395900  0.20445000  1
  Cl  Cl29  1  0.95385500  0.47604100  0.70445000  1
  Cl  Cl30  1  0.45385500  0.52395900  0.79555000  1
  Cl  Cl31  1  0.04614500  0.97604100  0.29555000  1
  Cl  Cl32  1  0.17538200  0.75000000  0.92775100  1
  Cl  Cl33  1  0.32461800  0.75000000  0.42775100  1
  Cl  Cl34  1  0.82461800  0.25000000  0.07224900  1
  Cl  Cl35  1  0.67538200  0.25000000  0.57224900  1
