# generated using pymatgen
data_TaSi2H36C12N4Cl
_symmetry_space_group_name_H-M   'P 1'
_cell_length_a   14.17990700
_cell_length_b   11.41446600
_cell_length_c   19.19884311
_cell_angle_alpha   90.00000000
_cell_angle_beta   126.63141099
_cell_angle_gamma   90.00000000
_symmetry_Int_Tables_number   1
_chemical_formula_structural   TaSi2H36C12N4Cl
_chemical_formula_sum   'Ta4 Si8 H144 C48 N16 Cl4'
_cell_volume   2493.69844799
_cell_formula_units_Z   4
loop_
 _symmetry_equiv_pos_site_id
 _symmetry_equiv_pos_as_xyz
  1  'x, y, z'
loop_
 _atom_site_type_symbol
 _atom_site_label
 _atom_site_symmetry_multiplicity
 _atom_site_fract_x
 _atom_site_fract_y
 _atom_site_fract_z
 _atom_site_occupancy
  Ta  Ta0  1  0.18006400  0.29386600  0.45097400  1
  Ta  Ta1  1  0.18006400  0.20613400  0.95097400  1
  Ta  Ta2  1  0.81993600  0.70613400  0.54902600  1
  Ta  Ta3  1  0.81993600  0.79386600  0.04902600  1
  Si  Si4  1  0.43378400  0.19851600  0.62996200  1
  Si  Si5  1  0.43378400  0.30148400  0.12996200  1
  Si  Si6  1  0.56621600  0.80148400  0.37003800  1
  Si  Si7  1  0.56621600  0.69851600  0.87003800  1
  Si  Si8  1  0.24153300  0.01927200  0.52018000  1
  Si  Si9  1  0.24153300  0.48072800  0.02018000  1
  Si  Si10  1  0.75846700  0.98072800  0.47982000  1
  Si  Si11  1  0.75846700  0.51927200  0.97982000  1
  H  H12  1  0.49226800  0.32403500  0.55334000  1
  H  H13  1  0.49226800  0.17596500  0.05334000  1
  H  H14  1  0.50773200  0.67596500  0.44666000  1
  H  H15  1  0.50773200  0.82403500  0.94666000  1
  H  H16  1  0.60294400  0.31592500  0.66704200  1
  H  H17  1  0.60294400  0.18407500  0.16704200  1
  H  H18  1  0.39705600  0.68407500  0.33295800  1
  H  H19  1  0.39705600  0.81592500  0.83295800  1
  H  H20  1  0.47974800  0.40968700  0.62504800  1
  H  H21  1  0.47974800  0.09031300  0.12504800  1
  H  H22  1  0.52025200  0.59031300  0.37495200  1
  H  H23  1  0.52025200  0.90968700  0.87495200  1
  H  H24  1  0.88455100  0.17329400  0.27160500  1
  H  H25  1  0.88455100  0.32670600  0.77160500  1
  H  H26  1  0.11544900  0.82670600  0.72839500  1
  H  H27  1  0.11544900  0.67329400  0.22839500  1
  H  H28  1  0.00581800  0.17213500  0.26589400  1
  H  H29  1  0.00581800  0.32786500  0.76589400  1
  H  H30  1  0.99418200  0.82786500  0.73410600  1
  H  H31  1  0.99418200  0.67213500  0.23410600  1
  H  H32  1  0.89430000  0.28160200  0.20944800  1
  H  H33  1  0.89430000  0.21839800  0.70944800  1
  H  H34  1  0.10570000  0.71839800  0.79055200  1
  H  H35  1  0.10570000  0.78160200  0.29055200  1
  H  H36  1  0.29093300  0.14603300  0.32777800  1
  H  H37  1  0.29093300  0.35396700  0.82777800  1
  H  H38  1  0.70906700  0.85396700  0.67222200  1
  H  H39  1  0.70906700  0.64603300  0.17222200  1
  H  H40  1  0.36567000  0.14919300  0.44317900  1
  H  H41  1  0.36567000  0.35080700  0.94317900  1
  H  H42  1  0.63433000  0.85080700  0.55682100  1
  H  H43  1  0.63433000  0.64919300  0.05682100  1
  H  H44  1  0.39234500  0.25966700  0.39037100  1
  H  H45  1  0.39234500  0.24033300  0.89037100  1
  H  H46  1  0.60765500  0.74033300  0.60962900  1
  H  H47  1  0.60765500  0.75966700  0.10962900  1
  H  H48  1  0.51488200  0.99371800  0.68531900  1
  H  H49  1  0.51488200  0.50628200  0.18531900  1
  H  H50  1  0.48511800  0.00628200  0.31468100  1
  H  H51  1  0.48511800  0.49371800  0.81468100  1
  H  H52  1  0.62501600  0.10323900  0.72796900  1
  H  H53  1  0.62501600  0.39676100  0.22796900  1
  H  H54  1  0.37498400  0.89676100  0.27203100  1
  H  H55  1  0.37498400  0.60323900  0.77203100  1
  H  H56  1  0.55706300  0.05013300  0.62100900  1
  H  H57  1  0.55706300  0.44986700  0.12100900  1
  H  H58  1  0.44293700  0.94986700  0.37899100  1
  H  H59  1  0.44293700  0.55013300  0.87899100  1
  H  H60  1  0.35992500  0.30602200  0.70262900  1
  H  H61  1  0.35992500  0.19397800  0.20262900  1
  H  H62  1  0.64007500  0.69397800  0.29737100  1
  H  H63  1  0.64007500  0.80602200  0.79737100  1
  H  H64  1  0.51104300  0.26618200  0.77756000  1
  H  H65  1  0.51104300  0.23381800  0.27756000  1
  H  H66  1  0.48895700  0.73381800  0.22244000  1
  H  H67  1  0.48895700  0.76618200  0.72244000  1
  H  H68  1  0.39887900  0.16019000  0.74184200  1
  H  H69  1  0.39887900  0.33981000  0.24184200  1
  H  H70  1  0.60112100  0.83981000  0.25815800  1
  H  H71  1  0.60112100  0.66019000  0.75815800  1
  H  H72  1  0.88528800  0.43982000  0.27655300  1
  H  H73  1  0.88528800  0.06018000  0.77655300  1
  H  H74  1  0.11471200  0.56018000  0.72344700  1
  H  H75  1  0.11471200  0.93982000  0.22344700  1
  H  H76  1  0.97606800  0.45583900  0.39201200  1
  H  H77  1  0.97606800  0.04416100  0.89201200  1
  H  H78  1  0.02393200  0.54416100  0.60798800  1
  H  H79  1  0.02393200  0.95583900  0.10798800  1
  H  H80  1  0.86314600  0.34849200  0.34110600  1
  H  H81  1  0.86314600  0.15150800  0.84110600  1
  H  H82  1  0.13685400  0.65150800  0.65889400  1
  H  H83  1  0.13685400  0.84849200  0.15889400  1
  H  H84  1  0.23932100  0.38631800  0.28865500  1
  H  H85  1  0.23932100  0.11368200  0.78865500  1
  H  H86  1  0.76067900  0.61368200  0.71134500  1
  H  H87  1  0.76067900  0.88631800  0.21134500  1
  H  H88  1  0.10353900  0.39315100  0.27544000  1
  H  H89  1  0.10353900  0.10684900  0.77544000  1
  H  H90  1  0.89646100  0.60684900  0.72456000  1
  H  H91  1  0.89646100  0.89315100  0.22456000  1
  H  H92  1  0.13690500  0.27079400  0.23478800  1
  H  H93  1  0.13690500  0.22920600  0.73478800  1
  H  H94  1  0.86309500  0.72920600  0.76521200  1
  H  H95  1  0.86309500  0.77079400  0.26521200  1
  H  H96  1  0.30998000  0.93399500  0.43681500  1
  H  H97  1  0.30998000  0.56600500  0.93681500  1
  H  H98  1  0.69002000  0.06600500  0.56318500  1
  H  H99  1  0.69002000  0.43399500  0.06318500  1
  H  H100  1  0.27558100  0.82446100  0.48411000  1
  H  H101  1  0.27558100  0.67553900  0.98411000  1
  H  H102  1  0.72441900  0.17553900  0.51589000  1
  H  H103  1  0.72441900  0.32446100  0.01589000  1
  H  H104  1  0.41193400  0.89973400  0.54903800  1
  H  H105  1  0.41193400  0.60026600  0.04903800  1
  H  H106  1  0.58806600  0.10026600  0.45096200  1
  H  H107  1  0.58806600  0.39973400  0.95096200  1
  H  H108  1  0.34473300  0.96245700  0.67751100  1
  H  H109  1  0.34473300  0.53754300  0.17751100  1
  H  H110  1  0.65526700  0.03754300  0.32248900  1
  H  H111  1  0.65526700  0.46245700  0.82248900  1
  H  H112  1  0.21782300  0.87630100  0.60482700  1
  H  H113  1  0.21782300  0.62369900  0.10482700  1
  H  H114  1  0.78217700  0.12369900  0.39517300  1
  H  H115  1  0.78217700  0.37630100  0.89517300  1
  H  H116  1  0.20199100  0.02083200  0.63107800  1
  H  H117  1  0.20199100  0.47916800  0.13107800  1
  H  H118  1  0.79800900  0.97916800  0.36892200  1
  H  H119  1  0.79800900  0.52083200  0.86892200  1
  H  H120  1  0.02699300  0.07290100  0.43046300  1
  H  H121  1  0.02699300  0.42709900  0.93046300  1
  H  H122  1  0.97300700  0.92709900  0.56953700  1
  H  H123  1  0.97300700  0.57290100  0.06953700  1
  H  H124  1  0.05142000  0.92121800  0.42703000  1
  H  H125  1  0.05142000  0.57878200  0.92703000  1
  H  H126  1  0.94858000  0.07878200  0.57297000  1
  H  H127  1  0.94858000  0.42121800  0.07297000  1
  H  H128  1  0.06729500  0.02038900  0.36354400  1
  H  H129  1  0.06729500  0.47961100  0.86354400  1
  H  H130  1  0.93270500  0.97961100  0.63645600  1
  H  H131  1  0.93270500  0.52038900  0.13645600  1
  H  H132  1  0.24252700  0.59501500  0.41304800  1
  H  H133  1  0.24252700  0.90498500  0.91304800  1
  H  H134  1  0.75747300  0.40498500  0.58695200  1
  H  H135  1  0.75747300  0.09501500  0.08695200  1
  H  H136  1  0.32861100  0.46917800  0.42902800  1
  H  H137  1  0.32861100  0.03082200  0.92902800  1
  H  H138  1  0.67138900  0.53082200  0.57097200  1
  H  H139  1  0.67138900  0.96917800  0.07097200  1
  H  H140  1  0.37736000  0.56818600  0.51627000  1
  H  H141  1  0.37736000  0.93181400  0.01627000  1
  H  H142  1  0.62264000  0.43181400  0.48373000  1
  H  H143  1  0.62264000  0.06818600  0.98373000  1
  H  H144  1  0.29958900  0.57735100  0.58849400  1
  H  H145  1  0.29958900  0.92264900  0.08849400  1
  H  H146  1  0.70041100  0.42264900  0.41150600  1
  H  H147  1  0.70041100  0.07735100  0.91150600  1
  H  H148  1  0.17423000  0.49390700  0.55995700  1
  H  H149  1  0.17423000  0.00609300  0.05995700  1
  H  H150  1  0.82577000  0.50609300  0.44004300  1
  H  H151  1  0.82577000  0.99390700  0.94004300  1
  H  H152  1  0.15777200  0.61118100  0.49210100  1
  H  H153  1  0.15777200  0.88881900  0.99210100  1
  H  H154  1  0.84222800  0.38881900  0.50789900  1
  H  H155  1  0.84222800  0.11118100  0.00789900  1
  C  C156  1  0.50751000  0.32454500  0.61649400  1
  C  C157  1  0.50751000  0.17545500  0.11649400  1
  C  C158  1  0.49249000  0.67545500  0.38350600  1
  C  C159  1  0.49249000  0.82454500  0.88350600  1
  C  C160  1  0.94674200  0.22916600  0.26972900  1
  C  C161  1  0.94674200  0.27083400  0.76972900  1
  C  C162  1  0.05325800  0.77083400  0.73027100  1
  C  C163  1  0.05325800  0.72916600  0.23027100  1
  C  C164  1  0.32471200  0.20302100  0.38464200  1
  C  C165  1  0.32471200  0.29697900  0.88464200  1
  C  C166  1  0.67528800  0.79697900  0.61535800  1
  C  C167  1  0.67528800  0.70302100  0.11535800  1
  C  C168  1  0.54098700  0.07317500  0.66867400  1
  C  C169  1  0.54098700  0.42682500  0.16867400  1
  C  C170  1  0.45901300  0.92682500  0.33132600  1
  C  C171  1  0.45901300  0.57317500  0.83132600  1
  C  C172  1  0.42415900  0.23613300  0.72116800  1
  C  C173  1  0.42415900  0.26386700  0.22116800  1
  C  C174  1  0.57584100  0.76386700  0.27883200  1
  C  C175  1  0.57584100  0.73613300  0.77883200  1
  C  C176  1  0.93101500  0.39193500  0.33880700  1
  C  C177  1  0.93101500  0.10806500  0.83880700  1
  C  C178  1  0.06898500  0.60806500  0.66119300  1
  C  C179  1  0.06898500  0.89193500  0.16119300  1
  C  C180  1  0.17349900  0.33425300  0.28853200  1
  C  C181  1  0.17349900  0.16574700  0.78853200  1
  C  C182  1  0.82650100  0.66574700  0.71146800  1
  C  C183  1  0.82650100  0.83425300  0.21146800  1
  C  C184  1  0.31833200  0.91027400  0.49577400  1
  C  C185  1  0.31833200  0.58972600  0.99577400  1
  C  C186  1  0.68166800  0.08972600  0.50422600  1
  C  C187  1  0.68166800  0.41027400  0.00422600  1
  C  C188  1  0.25387100  0.96590100  0.61838300  1
  C  C189  1  0.25387100  0.53409900  0.11838300  1
  C  C190  1  0.74612900  0.03409900  0.38161700  1
  C  C191  1  0.74612900  0.46590100  0.88161700  1
  C  C192  1  0.08166500  0.00980600  0.42605500  1
  C  C193  1  0.08166500  0.49019400  0.92605500  1
  C  C194  1  0.91833500  0.99019400  0.57394500  1
  C  C195  1  0.91833500  0.50980600  0.07394500  1
  C  C196  1  0.29956100  0.52503000  0.45920800  1
  C  C197  1  0.29956100  0.97497000  0.95920800  1
  C  C198  1  0.70043900  0.47497000  0.54079200  1
  C  C199  1  0.70043900  0.02503000  0.04079200  1
  C  C200  1  0.21555200  0.53851700  0.53418400  1
  C  C201  1  0.21555200  0.96148300  0.03418400  1
  C  C202  1  0.78444800  0.46148300  0.46581600  1
  C  C203  1  0.78444800  0.03851700  0.96581600  1
  N  N204  1  0.22945100  0.27345000  0.37173100  1
  N  N205  1  0.22945100  0.22655000  0.87173100  1
  N  N206  1  0.77054900  0.72655000  0.62826900  1
  N  N207  1  0.77054900  0.77345000  0.12826900  1
  N  N208  1  0.01161300  0.30643000  0.34439300  1
  N  N209  1  0.01161300  0.19357000  0.84439300  1
  N  N210  1  0.98838700  0.69357000  0.65560700  1
  N  N211  1  0.98838700  0.80643000  0.15560700  1
  N  N212  1  0.23809400  0.45821900  0.48596000  1
  N  N213  1  0.23809400  0.04178100  0.98596000  1
  N  N214  1  0.76190600  0.54178100  0.51404000  1
  N  N215  1  0.76190600  0.95821900  0.01404000  1
  N  N216  1  0.29418800  0.16450800  0.53207000  1
  N  N217  1  0.29418800  0.33549200  0.03207000  1
  N  N218  1  0.70581200  0.83549200  0.46793000  1
  N  N219  1  0.70581200  0.66450800  0.96793000  1
  Cl  Cl220  1  0.09927600  0.29242400  0.53616600  1
  Cl  Cl221  1  0.09927600  0.20757600  0.03616600  1
  Cl  Cl222  1  0.90072400  0.70757600  0.46383400  1
  Cl  Cl223  1  0.90072400  0.79242400  0.96383400  1
