# generated using pymatgen
data_KB5O8
_symmetry_space_group_name_H-M   'P 1'
_cell_length_a   7.52698200
_cell_length_b   11.83385800
_cell_length_c   14.91711000
_cell_angle_alpha   90.00000000
_cell_angle_beta   90.00000000
_cell_angle_gamma   90.00000000
_symmetry_Int_Tables_number   1
_chemical_formula_structural   KB5O8
_chemical_formula_sum   'K8 B40 O64'
_cell_volume   1328.71526180
_cell_formula_units_Z   8
loop_
 _symmetry_equiv_pos_site_id
 _symmetry_equiv_pos_as_xyz
  1  'x, y, z'
loop_
 _atom_site_type_symbol
 _atom_site_label
 _atom_site_symmetry_multiplicity
 _atom_site_fract_x
 _atom_site_fract_y
 _atom_site_fract_z
 _atom_site_occupancy
  K  K0  1  0.57244800  0.29408300  0.37930600  1
  K  K1  1  0.07244800  0.20591700  0.62069400  1
  K  K2  1  0.42755200  0.79408300  0.12069400  1
  K  K3  1  0.92755200  0.70591700  0.87930600  1
  K  K4  1  0.42755200  0.70591700  0.62069400  1
  K  K5  1  0.92755200  0.79408300  0.37930600  1
  K  K6  1  0.57244800  0.20591700  0.87930600  1
  K  K7  1  0.07244800  0.29408300  0.12069400  1
  B  B8  1  0.05531000  0.27689500  0.37451400  1
  B  B9  1  0.55531000  0.22310500  0.62548600  1
  B  B10  1  0.94469000  0.77689500  0.12548600  1
  B  B11  1  0.44469000  0.72310500  0.87451400  1
  B  B12  1  0.94469000  0.72310500  0.62548600  1
  B  B13  1  0.44469000  0.77689500  0.37451400  1
  B  B14  1  0.05531000  0.22310500  0.87451400  1
  B  B15  1  0.55531000  0.27689500  0.12548600  1
  B  B16  1  0.91525800  0.09183200  0.41819700  1
  B  B17  1  0.41525800  0.40816800  0.58180300  1
  B  B18  1  0.08474200  0.59183200  0.08180300  1
  B  B19  1  0.58474200  0.90816800  0.91819700  1
  B  B20  1  0.08474200  0.90816800  0.58180300  1
  B  B21  1  0.58474200  0.59183200  0.41819700  1
  B  B22  1  0.91525800  0.40816800  0.91819700  1
  B  B23  1  0.41525800  0.09183200  0.08180300  1
  B  B24  1  0.97649200  0.47814000  0.34703900  1
  B  B25  1  0.47649200  0.02186000  0.65296100  1
  B  B26  1  0.02350800  0.97814000  0.15296100  1
  B  B27  1  0.52350800  0.52186000  0.84703900  1
  B  B28  1  0.02350800  0.52186000  0.65296100  1
  B  B29  1  0.52350800  0.97814000  0.34703900  1
  B  B30  1  0.97649200  0.02186000  0.84703900  1
  B  B31  1  0.47649200  0.47814000  0.15296100  1
  B  B32  1  0.19942000  0.43594100  0.45641100  1
  B  B33  1  0.69942000  0.06405900  0.54358900  1
  B  B34  1  0.80058000  0.93594100  0.04358900  1
  B  B35  1  0.30058000  0.56405900  0.95641100  1
  B  B36  1  0.80058000  0.56405900  0.54358900  1
  B  B37  1  0.30058000  0.93594100  0.45641100  1
  B  B38  1  0.19942000  0.06405900  0.95641100  1
  B  B39  1  0.69942000  0.43594100  0.04358900  1
  B  B40  1  0.08703500  0.10320800  0.28446100  1
  B  B41  1  0.58703500  0.39679200  0.71553900  1
  B  B42  1  0.91296500  0.60320800  0.21553900  1
  B  B43  1  0.41296500  0.89679200  0.78446100  1
  B  B44  1  0.91296500  0.89679200  0.71553900  1
  B  B45  1  0.41296500  0.60320800  0.28446100  1
  B  B46  1  0.08703500  0.39679200  0.78446100  1
  B  B47  1  0.58703500  0.10320800  0.21553900  1
  O  O48  1  0.81047800  0.02562500  0.47489200  1
  O  O49  1  0.31047800  0.47437500  0.52510800  1
  O  O50  1  0.18952200  0.52562500  0.02510800  1
  O  O51  1  0.68952200  0.97437500  0.97489200  1
  O  O52  1  0.18952200  0.97437500  0.52510800  1
  O  O53  1  0.68952200  0.52562500  0.47489200  1
  O  O54  1  0.81047800  0.47437500  0.97489200  1
  O  O55  1  0.31047800  0.02562500  0.02510800  1
  O  O56  1  0.93610700  0.20466100  0.42942400  1
  O  O57  1  0.43610700  0.29533900  0.57057600  1
  O  O58  1  0.06389300  0.70466100  0.07057600  1
  O  O59  1  0.56389300  0.79533900  0.92942400  1
  O  O60  1  0.06389300  0.79533900  0.57057600  1
  O  O61  1  0.56389300  0.70466100  0.42942400  1
  O  O62  1  0.93610700  0.29533900  0.92942400  1
  O  O63  1  0.43610700  0.20466100  0.07057600  1
  O  O64  1  0.13920200  0.21065500  0.30235100  1
  O  O65  1  0.63920200  0.28934500  0.69764900  1
  O  O66  1  0.86079800  0.71065500  0.19764900  1
  O  O67  1  0.36079800  0.78934500  0.80235100  1
  O  O68  1  0.86079800  0.78934500  0.69764900  1
  O  O69  1  0.36079800  0.71065500  0.30235100  1
  O  O70  1  0.13920200  0.28934500  0.80235100  1
  O  O71  1  0.63920200  0.21065500  0.19764900  1
  O  O72  1  0.94671900  0.36718400  0.33150400  1
  O  O73  1  0.44671900  0.13281600  0.66849600  1
  O  O74  1  0.05328100  0.86718400  0.16849600  1
  O  O75  1  0.55328100  0.63281600  0.83150400  1
  O  O76  1  0.05328100  0.63281600  0.66849600  1
  O  O77  1  0.55328100  0.86718400  0.33150400  1
  O  O78  1  0.94671900  0.13281600  0.83150400  1
  O  O79  1  0.44671900  0.36718400  0.16849600  1
  O  O80  1  0.19200500  0.32495000  0.43393700  1
  O  O81  1  0.69200500  0.17505000  0.56606300  1
  O  O82  1  0.80799500  0.82495000  0.06606300  1
  O  O83  1  0.30799500  0.67505000  0.93393700  1
  O  O84  1  0.80799500  0.67505000  0.56606300  1
  O  O85  1  0.30799500  0.82495000  0.43393700  1
  O  O86  1  0.19200500  0.17505000  0.93393700  1
  O  O87  1  0.69200500  0.32495000  0.06606300  1
  O  O88  1  0.61400600  0.06286500  0.30086100  1
  O  O89  1  0.11400600  0.43713500  0.69913900  1
  O  O90  1  0.38599400  0.56286500  0.19913900  1
  O  O91  1  0.88599400  0.93713500  0.80086100  1
  O  O92  1  0.38599400  0.93713500  0.69913900  1
  O  O93  1  0.88599400  0.56286500  0.30086100  1
  O  O94  1  0.61400600  0.43713500  0.80086100  1
  O  O95  1  0.11400600  0.06286500  0.19913900  1
  O  O96  1  0.99757000  0.03531200  0.34700700  1
  O  O97  1  0.49757000  0.46468800  0.65299300  1
  O  O98  1  0.00243000  0.53531200  0.15299300  1
  O  O99  1  0.50243000  0.96468800  0.84700700  1
  O  O100  1  0.00243000  0.96468800  0.65299300  1
  O  O101  1  0.50243000  0.53531200  0.34700700  1
  O  O102  1  0.99757000  0.46468800  0.84700700  1
  O  O103  1  0.49757000  0.03531200  0.15299300  1
  O  O104  1  0.40242600  0.01629700  0.41140000  1
  O  O105  1  0.90242600  0.48370300  0.58860000  1
  O  O106  1  0.59757400  0.51629700  0.08860000  1
  O  O107  1  0.09757400  0.98370300  0.91140000  1
  O  O108  1  0.59757400  0.98370300  0.58860000  1
  O  O109  1  0.09757400  0.51629700  0.41140000  1
  O  O110  1  0.40242600  0.48370300  0.91140000  1
  O  O111  1  0.90242600  0.01629700  0.08860000  1
