# generated using pymatgen
data_BaTe3H15(CN)3
_symmetry_space_group_name_H-M   'P 1'
_cell_length_a   14.49796864
_cell_length_b   14.49796864
_cell_length_c   15.97068371
_cell_angle_alpha   61.22255511
_cell_angle_beta   61.22255511
_cell_angle_gamma   29.32663703
_symmetry_Int_Tables_number   1
_chemical_formula_structural   BaTe3H15(CN)3
_chemical_formula_sum   'Ba4 Te12 H60 C12 N12'
_cell_volume   1426.14583906
_cell_formula_units_Z   4
loop_
 _symmetry_equiv_pos_site_id
 _symmetry_equiv_pos_as_xyz
  1  'x, y, z'
loop_
 _atom_site_type_symbol
 _atom_site_label
 _atom_site_symmetry_multiplicity
 _atom_site_fract_x
 _atom_site_fract_y
 _atom_site_fract_z
 _atom_site_occupancy
  Ba  Ba0  1  0.06227200  0.55827200  0.08967000  1
  Ba  Ba1  1  0.44172800  0.93772800  0.41033000  1
  Ba  Ba2  1  0.93772800  0.44172800  0.91033000  1
  Ba  Ba3  1  0.55827200  0.06227200  0.58967000  1
  Te  Te4  1  0.26359200  0.14977600  0.08486800  1
  Te  Te5  1  0.85022400  0.73640800  0.41513200  1
  Te  Te6  1  0.73640800  0.85022400  0.91513200  1
  Te  Te7  1  0.14977600  0.26359200  0.58486800  1
  Te  Te8  1  0.01886200  0.27625500  0.26475900  1
  Te  Te9  1  0.72374500  0.98113800  0.23524100  1
  Te  Te10  1  0.98113800  0.72374500  0.73524100  1
  Te  Te11  1  0.27625500  0.01886200  0.76475900  1
  Te  Te12  1  0.97235000  0.45962100  0.34679700  1
  Te  Te13  1  0.54037900  0.02765000  0.15320300  1
  Te  Te14  1  0.02765000  0.54037900  0.65320300  1
  Te  Te15  1  0.45962100  0.97235000  0.84679700  1
  H  H16  1  0.14360800  0.59812200  0.21751300  1
  H  H17  1  0.40187800  0.85639200  0.28248700  1
  H  H18  1  0.85639200  0.40187800  0.78248700  1
  H  H19  1  0.59812200  0.14360800  0.71751300  1
  H  H20  1  0.34343300  0.37043300  0.20638900  1
  H  H21  1  0.62956700  0.65656700  0.29361100  1
  H  H22  1  0.65656700  0.62956700  0.79361100  1
  H  H23  1  0.37043300  0.34343300  0.70638900  1
  H  H24  1  0.45803300  0.42928700  0.05507300  1
  H  H25  1  0.57071300  0.54196700  0.44492700  1
  H  H26  1  0.54196700  0.57071300  0.94492700  1
  H  H27  1  0.42928700  0.45803300  0.55507300  1
  H  H28  1  0.42502100  0.48319300  0.15419800  1
  H  H29  1  0.51680700  0.57497900  0.34580200  1
  H  H30  1  0.57497900  0.51680700  0.84580200  1
  H  H31  1  0.48319300  0.42502100  0.65419800  1
  H  H32  1  0.24980400  0.66922800  0.07542400  1
  H  H33  1  0.33077200  0.75019600  0.42457600  1
  H  H34  1  0.75019600  0.33077200  0.92457600  1
  H  H35  1  0.66922800  0.24980400  0.57542400  1
  H  H36  1  0.40766000  0.26593300  0.92962600  1
  H  H37  1  0.73406700  0.59234000  0.57037400  1
  H  H38  1  0.59234000  0.73406700  0.07037400  1
  H  H39  1  0.26593300  0.40766000  0.42962600  1
  H  H40  1  0.25575400  0.47262800  0.86084900  1
  H  H41  1  0.52737200  0.74424600  0.63915100  1
  H  H42  1  0.74424600  0.52737200  0.13915100  1
  H  H43  1  0.47262800  0.25575400  0.36084900  1
  H  H44  1  0.39843700  0.50479500  0.84635100  1
  H  H45  1  0.49520500  0.60156300  0.65364900  1
  H  H46  1  0.60156300  0.49520500  0.15364900  1
  H  H47  1  0.50479500  0.39843700  0.34635100  1
  H  H48  1  0.58236700  0.27748800  0.81607700  1
  H  H49  1  0.72251200  0.41763300  0.68392300  1
  H  H50  1  0.41763300  0.72251200  0.18392300  1
  H  H51  1  0.27748800  0.58236700  0.31607700  1
  H  H52  1  0.54667300  0.29783900  0.93280100  1
  H  H53  1  0.70216100  0.45332700  0.56719900  1
  H  H54  1  0.45332700  0.70216100  0.06719900  1
  H  H55  1  0.29783900  0.54667300  0.43280100  1
  H  H56  1  0.82775700  0.95225600  0.96741400  1
  H  H57  1  0.04774400  0.17224300  0.53258600  1
  H  H58  1  0.17224300  0.04774400  0.03258600  1
  H  H59  1  0.95225600  0.82775700  0.46741400  1
  H  H60  1  0.92340300  0.91754600  0.02650500  1
  H  H61  1  0.08245400  0.07659700  0.47349500  1
  H  H62  1  0.07659700  0.08245400  0.97349500  1
  H  H63  1  0.91754600  0.92340300  0.52650500  1
  H  H64  1  0.15898400  0.82045300  0.88821700  1
  H  H65  1  0.17954700  0.84101600  0.61178300  1
  H  H66  1  0.84101600  0.17954700  0.11178300  1
  H  H67  1  0.82045300  0.15898400  0.38821700  1
  H  H68  1  0.92776400  0.04839400  0.85473400  1
  H  H69  1  0.95160600  0.07223600  0.64526600  1
  H  H70  1  0.07223600  0.95160600  0.14526600  1
  H  H71  1  0.04839400  0.92776400  0.35473400  1
  H  H72  1  0.06600200  0.84184700  0.82612600  1
  H  H73  1  0.15815300  0.93399800  0.67387400  1
  H  H74  1  0.93399800  0.15815300  0.17387400  1
  H  H75  1  0.84184700  0.06600200  0.32612600  1
  C  C76  1  0.35097300  0.52199100  0.11138100  1
  C  C77  1  0.47800900  0.64902700  0.38861900  1
  C  C78  1  0.64902700  0.47800900  0.88861900  1
  C  C79  1  0.52199100  0.35097300  0.61138100  1
  C  C80  1  0.47280000  0.36680700  0.87458400  1
  C  C81  1  0.63319300  0.52720000  0.62541600  1
  C  C82  1  0.52720000  0.63319300  0.12541600  1
  C  C83  1  0.36680700  0.47280000  0.37458400  1
  C  C84  1  0.02928600  0.89784400  0.88138700  1
  C  C85  1  0.10215600  0.97071400  0.61861300  1
  C  C86  1  0.97071400  0.10215600  0.11861300  1
  C  C87  1  0.89784400  0.02928600  0.38138700  1
  N  N88  1  0.25029400  0.50508000  0.16783500  1
  N  N89  1  0.49492000  0.74970600  0.33216500  1
  N  N90  1  0.74970600  0.49492000  0.83216500  1
  N  N91  1  0.50508000  0.25029400  0.66783500  1
  N  N92  1  0.33418400  0.39654300  0.91341300  1
  N  N93  1  0.60345700  0.66581600  0.58658700  1
  N  N94  1  0.66581600  0.60345700  0.08658700  1
  N  N95  1  0.39654300  0.33418400  0.41341300  1
  N  N96  1  0.95500600  0.86960500  0.97344500  1
  N  N97  1  0.13039500  0.04499400  0.52655500  1
  N  N98  1  0.04499400  0.13039500  0.02655500  1
  N  N99  1  0.86960500  0.95500600  0.47344500  1
