# generated using pymatgen
data_CaB2H13N3
_symmetry_space_group_name_H-M   'P 1'
_cell_length_a   7.43155800
_cell_length_b   10.27179000
_cell_length_c   10.36006322
_cell_angle_alpha   61.82667800
_cell_angle_beta   90.00000000
_cell_angle_gamma   90.00000000
_symmetry_Int_Tables_number   1
_chemical_formula_structural   CaB2H13N3
_chemical_formula_sum   'Ca4 B8 H52 N12'
_cell_volume   697.14360354
_cell_formula_units_Z   4
loop_
 _symmetry_equiv_pos_site_id
 _symmetry_equiv_pos_as_xyz
  1  'x, y, z'
loop_
 _atom_site_type_symbol
 _atom_site_label
 _atom_site_symmetry_multiplicity
 _atom_site_fract_x
 _atom_site_fract_y
 _atom_site_fract_z
 _atom_site_occupancy
  Ca  Ca0  1  0.76537900  0.11172800  0.20661500  1
  Ca  Ca1  1  0.26537900  0.38827200  0.79338500  1
  Ca  Ca2  1  0.23462100  0.88827200  0.79338500  1
  Ca  Ca3  1  0.73462100  0.61172800  0.20661500  1
  B  B4  1  0.41256300  0.72774000  0.65837000  1
  B  B5  1  0.91256300  0.77226000  0.34163000  1
  B  B6  1  0.58743700  0.27226000  0.34163000  1
  B  B7  1  0.08743700  0.22774000  0.65837000  1
  B  B8  1  0.06922200  0.26509000  0.10189300  1
  B  B9  1  0.56922200  0.23491000  0.89810700  1
  B  B10  1  0.93077800  0.73491000  0.89810700  1
  B  B11  1  0.43077800  0.76509000  0.10189300  1
  H  H12  1  0.57201600  0.74676300  0.67470600  1
  H  H13  1  0.07201600  0.75323700  0.32529400  1
  H  H14  1  0.42798400  0.25323700  0.32529400  1
  H  H15  1  0.92798400  0.24676300  0.67470600  1
  H  H16  1  0.34133300  0.84924900  0.57786900  1
  H  H17  1  0.84133300  0.65075100  0.42213100  1
  H  H18  1  0.65866700  0.15075100  0.42213100  1
  H  H19  1  0.15866700  0.34924900  0.57786900  1
  H  H20  1  0.33798300  0.67948100  0.78127800  1
  H  H21  1  0.83798300  0.82051900  0.21872200  1
  H  H22  1  0.66201700  0.32051900  0.21872200  1
  H  H23  1  0.16201700  0.17948100  0.78127800  1
  H  H24  1  0.51286700  0.59588800  0.56420900  1
  H  H25  1  0.01286700  0.90411200  0.43579100  1
  H  H26  1  0.48713300  0.40411200  0.43579100  1
  H  H27  1  0.98713300  0.09588800  0.56420900  1
  H  H28  1  0.30942700  0.65302900  0.50820500  1
  H  H29  1  0.80942700  0.84697100  0.49179500  1
  H  H30  1  0.69057300  0.34697100  0.49179500  1
  H  H31  1  0.19057300  0.15302900  0.50820500  1
  H  H32  1  0.10290100  0.14904100  0.09723800  1
  H  H33  1  0.60290100  0.35095900  0.90276200  1
  H  H34  1  0.89709900  0.85095900  0.90276200  1
  H  H35  1  0.39709900  0.64904100  0.09723800  1
  H  H36  1  0.03619400  0.22827400  0.23333800  1
  H  H37  1  0.53619400  0.27172600  0.76666200  1
  H  H38  1  0.96380600  0.77172600  0.76666200  1
  H  H39  1  0.46380600  0.72827400  0.23333800  1
  H  H40  1  0.92701900  0.31468900  0.03342600  1
  H  H41  1  0.42701900  0.18531100  0.96657400  1
  H  H42  1  0.07298100  0.68531100  0.96657400  1
  H  H43  1  0.57298100  0.81468900  0.03342600  1
  H  H44  1  0.19225500  0.48056000  0.02052600  1
  H  H45  1  0.69225500  0.01944000  0.97947400  1
  H  H46  1  0.80774500  0.51944000  0.97947400  1
  H  H47  1  0.30774500  0.98056000  0.02052600  1
  H  H48  1  0.33667900  0.34559200  0.09240600  1
  H  H49  1  0.83667900  0.15440800  0.90759400  1
  H  H50  1  0.66332100  0.65440800  0.90759400  1
  H  H51  1  0.16332100  0.84559200  0.09240600  1
  H  H52  1  0.86052800  0.44618500  0.75652600  1
  H  H53  1  0.36052800  0.05381500  0.24347400  1
  H  H54  1  0.13947200  0.55381500  0.24347400  1
  H  H55  1  0.63947200  0.94618500  0.75652600  1
  H  H56  1  0.95259200  0.58979400  0.76052600  1
  H  H57  1  0.45259200  0.91020600  0.23947400  1
  H  H58  1  0.04740800  0.41020600  0.23947400  1
  H  H59  1  0.54740800  0.08979400  0.76052600  1
  H  H60  1  0.96020300  0.57361000  0.61047400  1
  H  H61  1  0.46020300  0.92639000  0.38952600  1
  H  H62  1  0.03979700  0.42639000  0.38952600  1
  H  H63  1  0.53979700  0.07361000  0.61047400  1
  N  N64  1  0.39098200  0.61495000  0.59773900  1
  N  N65  1  0.89098200  0.88505000  0.40226100  1
  N  N66  1  0.60901800  0.38505000  0.40226100  1
  N  N67  1  0.10901800  0.11495000  0.59773900  1
  N  N68  1  0.22141700  0.37860700  0.03160900  1
  N  N69  1  0.72141700  0.12139300  0.96839100  1
  N  N70  1  0.77858300  0.62139300  0.96839100  1
  N  N71  1  0.27858300  0.87860700  0.03160900  1
  N  N72  1  0.96998300  0.51490800  0.72241500  1
  N  N73  1  0.46998300  0.98509200  0.27758500  1
  N  N74  1  0.03001700  0.48509200  0.27758500  1
  N  N75  1  0.53001700  0.01490800  0.72241500  1
