# generated using pymatgen
data_CN6O
_symmetry_space_group_name_H-M   'P 1'
_cell_length_a   5.71516900
_cell_length_b   6.58577400
_cell_length_c   14.30494000
_cell_angle_alpha   90.00000000
_cell_angle_beta   90.00000000
_cell_angle_gamma   90.00000000
_symmetry_Int_Tables_number   1
_chemical_formula_structural   CN6O
_chemical_formula_sum   'C4 N24 O4'
_cell_volume   538.42093883
_cell_formula_units_Z   4
loop_
 _symmetry_equiv_pos_site_id
 _symmetry_equiv_pos_as_xyz
  1  'x, y, z'
loop_
 _atom_site_type_symbol
 _atom_site_label
 _atom_site_symmetry_multiplicity
 _atom_site_fract_x
 _atom_site_fract_y
 _atom_site_fract_z
 _atom_site_occupancy
  C  C0  1  0.76841300  0.75000000  0.49582800  1
  C  C1  1  0.26841300  0.75000000  0.00417200  1
  C  C2  1  0.23158700  0.25000000  0.50417200  1
  C  C3  1  0.73158700  0.25000000  0.99582800  1
  N  N4  1  0.77784800  0.75000000  0.59460500  1
  N  N5  1  0.27784800  0.75000000  0.90539500  1
  N  N6  1  0.22215200  0.25000000  0.40539500  1
  N  N7  1  0.72215200  0.25000000  0.09460500  1
  N  N8  1  0.97983600  0.75000000  0.62718300  1
  N  N9  1  0.47983600  0.75000000  0.87281700  1
  N  N10  1  0.02016400  0.25000000  0.37281700  1
  N  N11  1  0.52016400  0.25000000  0.12718300  1
  N  N12  1  0.15374300  0.75000000  0.66628500  1
  N  N13  1  0.65374300  0.75000000  0.83371500  1
  N  N14  1  0.84625700  0.25000000  0.33371500  1
  N  N15  1  0.34625700  0.25000000  0.16628500  1
  N  N16  1  0.53032300  0.75000000  0.46977900  1
  N  N17  1  0.03032300  0.75000000  0.03022100  1
  N  N18  1  0.46967700  0.25000000  0.53022100  1
  N  N19  1  0.96967700  0.25000000  0.96977900  1
  N  N20  1  0.49559500  0.75000000  0.38377100  1
  N  N21  1  0.99559500  0.75000000  0.11622900  1
  N  N22  1  0.50440500  0.25000000  0.61622900  1
  N  N23  1  0.00440500  0.25000000  0.88377100  1
  N  N24  1  0.43863100  0.75000000  0.30737800  1
  N  N25  1  0.93863100  0.75000000  0.19262200  1
  N  N26  1  0.56136900  0.25000000  0.69262200  1
  N  N27  1  0.06136900  0.25000000  0.80737800  1
  O  O28  1  0.93649000  0.75000000  0.44292200  1
  O  O29  1  0.43649000  0.75000000  0.05707800  1
  O  O30  1  0.06351000  0.25000000  0.55707800  1
  O  O31  1  0.56351000  0.25000000  0.94292200  1
