# generated using pymatgen
data_H6PbC10N8O7
_symmetry_space_group_name_H-M   'P 1'
_cell_length_a   7.41522037
_cell_length_b   8.65575207
_cell_length_c   12.12270041
_cell_angle_alpha   88.40818236
_cell_angle_beta   82.30305342
_cell_angle_gamma   90.43510104
_symmetry_Int_Tables_number   1
_chemical_formula_structural   H6PbC10N8O7
_chemical_formula_sum   'H12 Pb2 C20 N16 O14'
_cell_volume   770.72900629
_cell_formula_units_Z   2
loop_
 _symmetry_equiv_pos_site_id
 _symmetry_equiv_pos_as_xyz
  1  'x, y, z'
loop_
 _atom_site_type_symbol
 _atom_site_label
 _atom_site_symmetry_multiplicity
 _atom_site_fract_x
 _atom_site_fract_y
 _atom_site_fract_z
 _atom_site_occupancy
  H  H0  1  0.90202600  0.14061400  0.84140500  1
  H  H1  1  0.09797400  0.85938600  0.15859500  1
  H  H2  1  0.11679400  0.15953900  0.42558600  1
  H  H3  1  0.88320600  0.84046100  0.57441400  1
  H  H4  1  0.28857900  0.58540000  0.52951000  1
  H  H5  1  0.71142100  0.41460000  0.47049000  1
  H  H6  1  0.24889900  0.18068700  0.04257200  1
  H  H7  1  0.75110100  0.81931300  0.95742800  1
  H  H8  1  0.60661600  0.38231300  0.68492200  1
  H  H9  1  0.39338400  0.61768700  0.31507800  1
  H  H10  1  0.44370500  0.94112200  0.60139500  1
  H  H11  1  0.55629500  0.05887800  0.39860500  1
  Pb  Pb12  1  0.19412000  0.64825700  0.90530100  1
  Pb  Pb13  1  0.80588000  0.35174300  0.09469900  1
  C  C14  1  0.99088800  0.14888500  0.66905700  1
  C  C15  1  0.00911200  0.85111500  0.33094300  1
  C  C16  1  0.23386500  0.38569600  0.43878800  1
  C  C17  1  0.76613500  0.61430400  0.56121200  1
  C  C18  1  0.02454200  0.35445900  0.80536000  1
  C  C19  1  0.97545800  0.64554100  0.19464000  1
  C  C20  1  0.14756500  0.39771400  0.62546100  1
  C  C21  1  0.85243500  0.60228600  0.37453900  1
  C  C22  1  0.08938500  0.25447300  0.58994400  1
  C  C23  1  0.91061500  0.74552700  0.41005600  1
  C  C24  1  0.28720900  0.99173000  0.93864700  1
  C  C25  1  0.71279100  0.00827000  0.06135300  1
  C  C26  1  0.42318900  0.04552400  0.76181900  1
  C  C27  1  0.57681100  0.95447600  0.23818100  1
  C  C28  1  0.47644400  0.19526700  0.78879900  1
  C  C29  1  0.52355600  0.80473300  0.21120100  1
  C  C30  1  0.42726000  0.24920800  0.89932400  1
  C  C31  1  0.57274000  0.75079200  0.10067600  1
  C  C32  1  0.55191500  0.17119200  0.60468600  1
  C  C33  1  0.44808500  0.82880800  0.39531400  1
  N  N34  1  0.96732000  0.20965800  0.77694900  1
  N  N35  1  0.03268000  0.79034200  0.22305100  1
  N  N36  1  0.12173500  0.44983300  0.72836600  1
  N  N37  1  0.87826500  0.55016700  0.27163400  1
  N  N38  1  0.14269900  0.24899100  0.47609100  1
  N  N39  1  0.85730100  0.75100900  0.52390900  1
  N  N40  1  0.23420200  0.47550000  0.53285000  1
  N  N41  1  0.76579800  0.52450000  0.46715000  1
  N  N42  1  0.32582600  0.13924500  0.96867500  1
  N  N43  1  0.67417400  0.86075500  0.03132500  1
  N  N44  1  0.33836500  0.94152000  0.83260900  1
  N  N45  1  0.66163500  0.05848000  0.16739100  1
  N  N46  1  0.55715400  0.26872300  0.69331300  1
  N  N47  1  0.44284600  0.73127700  0.30668700  1
  N  N48  1  0.47201800  0.03336300  0.64888400  1
  N  N49  1  0.52798200  0.96663700  0.35111600  1
  O  O50  1  0.98902300  0.39956600  0.90476600  1
  O  O51  1  0.01097700  0.60043400  0.09523400  1
  O  O52  1  0.92758900  0.01921700  0.65135200  1
  O  O53  1  0.07241100  0.98078300  0.34864800  1
  O  O54  1  0.30239600  0.42382100  0.34280100  1
  O  O55  1  0.69760400  0.57617900  0.65719900  1
  O  O56  1  0.20125600  0.89888100  0.01029300  1
  O  O57  1  0.79874400  0.10111900  0.98970700  1
  O  O58  1  0.46383400  0.37918600  0.93177000  1
  O  O59  1  0.53616600  0.62081400  0.06823000  1
  O  O60  1  0.60557200  0.20335600  0.50431300  1
  O  O61  1  0.39442800  0.79664400  0.49568700  1
  O  O62  1  0.93214800  0.76125600  0.86752100  1
  O  O63  1  0.06785200  0.23874400  0.13247900  1
