# generated using pymatgen
data_Sb2NO6
_symmetry_space_group_name_H-M   'P 1'
_cell_length_a   5.79811000
_cell_length_b   10.33083300
_cell_length_c   10.46117916
_cell_angle_alpha   68.64237424
_cell_angle_beta   90.00000000
_cell_angle_gamma   90.00000000
_symmetry_Int_Tables_number   1
_chemical_formula_structural   Sb2NO6
_chemical_formula_sum   'Sb8 N4 O24'
_cell_volume   583.58468355
_cell_formula_units_Z   4
loop_
 _symmetry_equiv_pos_site_id
 _symmetry_equiv_pos_as_xyz
  1  'x, y, z'
loop_
 _atom_site_type_symbol
 _atom_site_label
 _atom_site_symmetry_multiplicity
 _atom_site_fract_x
 _atom_site_fract_y
 _atom_site_fract_z
 _atom_site_occupancy
  Sb  Sb0  1  0.33903100  0.81495300  0.31965400  1
  Sb  Sb1  1  0.83903100  0.18504700  0.18034600  1
  Sb  Sb2  1  0.66096900  0.18504700  0.68034600  1
  Sb  Sb3  1  0.16096900  0.81495300  0.81965400  1
  Sb  Sb4  1  0.73282300  0.89537600  0.50139700  1
  Sb  Sb5  1  0.23282300  0.10462400  0.99860300  1
  Sb  Sb6  1  0.26717700  0.10462400  0.49860300  1
  Sb  Sb7  1  0.76717700  0.89537600  0.00139700  1
  N  N8  1  0.22768200  0.57750400  0.66021500  1
  N  N9  1  0.72768200  0.42249600  0.83978500  1
  N  N10  1  0.77231800  0.42249600  0.33978500  1
  N  N11  1  0.27231800  0.57750400  0.16021500  1
  O  O12  1  0.41132800  0.96455000  0.41179900  1
  O  O13  1  0.91132800  0.03545000  0.08820100  1
  O  O14  1  0.58867200  0.03545000  0.58820100  1
  O  O15  1  0.08867200  0.96455000  0.91179900  1
  O  O16  1  0.43016000  0.96312200  0.13434400  1
  O  O17  1  0.93016000  0.03687800  0.36565600  1
  O  O18  1  0.56984000  0.03687800  0.86565600  1
  O  O19  1  0.06984000  0.96312200  0.63434400  1
  O  O20  1  0.32716500  0.21381100  0.63114900  1
  O  O21  1  0.82716500  0.78618900  0.86885100  1
  O  O22  1  0.67283500  0.78618900  0.36885100  1
  O  O23  1  0.17283500  0.21381100  0.13114900  1
  O  O24  1  0.19395900  0.70958100  0.64093500  1
  O  O25  1  0.69395900  0.29041900  0.85906500  1
  O  O26  1  0.80604100  0.29041900  0.35906500  1
  O  O27  1  0.30604100  0.70958100  0.14093500  1
  O  O28  1  0.25901600  0.54986200  0.55457600  1
  O  O29  1  0.75901600  0.45013800  0.94542400  1
  O  O30  1  0.74098400  0.45013800  0.44542400  1
  O  O31  1  0.24098400  0.54986200  0.05457600  1
  O  O32  1  0.22775000  0.48966100  0.77814000  1
  O  O33  1  0.72775000  0.51033900  0.72186000  1
  O  O34  1  0.77225000  0.51033900  0.22186000  1
  O  O35  1  0.27225000  0.48966100  0.27814000  1
