# generated using pymatgen
data_RbMg14MnO16
_symmetry_space_group_name_H-M   'P 1'
_cell_length_a   4.40148000
_cell_length_b   8.65364400
_cell_length_c   8.78758000
_cell_angle_alpha   90.00000000
_cell_angle_beta   90.00000000
_cell_angle_gamma   90.00000000
_symmetry_Int_Tables_number   1
_chemical_formula_structural   RbMg14MnO16
_chemical_formula_sum   'Rb1 Mg14 Mn1 O16'
_cell_volume   334.70873733
_cell_formula_units_Z   1
loop_
 _symmetry_equiv_pos_site_id
 _symmetry_equiv_pos_as_xyz
  1  'x, y, z'
loop_
 _atom_site_type_symbol
 _atom_site_label
 _atom_site_symmetry_multiplicity
 _atom_site_fract_x
 _atom_site_fract_y
 _atom_site_fract_z
 _atom_site_occupancy
  Rb  Rb0  1  0.00000000  0.50000000  0.00000000  1
  Mg  Mg1  1  0.00000000  0.00000000  0.50000000  1
  Mg  Mg2  1  0.00000000  0.50000000  0.50000000  1
  Mg  Mg3  1  0.50000000  0.75344400  0.00000000  1
  Mg  Mg4  1  0.50000000  0.24655600  0.00000000  1
  Mg  Mg5  1  0.50000000  0.74974300  0.50000000  1
  Mg  Mg6  1  0.50000000  0.25025700  0.50000000  1
  Mg  Mg7  1  0.50000000  0.00000000  0.74598200  1
  Mg  Mg8  1  0.50000000  0.50000000  0.74120300  1
  Mg  Mg9  1  0.50000000  0.00000000  0.25401800  1
  Mg  Mg10  1  0.50000000  0.50000000  0.25879700  1
  Mg  Mg11  1  0.00000000  0.75032100  0.74242700  1
  Mg  Mg12  1  0.00000000  0.24967900  0.74242700  1
  Mg  Mg13  1  0.00000000  0.75032100  0.25757300  1
  Mg  Mg14  1  0.00000000  0.24967900  0.25757300  1
  Mn  Mn15  1  0.00000000  0.00000000  0.00000000  1
  O  O16  1  0.00000000  0.00000000  0.74311100  1
  O  O17  1  0.00000000  0.50000000  0.71983500  1
  O  O18  1  0.00000000  0.00000000  0.25688900  1
  O  O19  1  0.00000000  0.50000000  0.28016500  1
  O  O20  1  0.50000000  0.75041400  0.75179700  1
  O  O21  1  0.50000000  0.24958600  0.75179700  1
  O  O22  1  0.50000000  0.75041400  0.24820300  1
  O  O23  1  0.50000000  0.24958600  0.24820300  1
  O  O24  1  0.50000000  0.00000000  0.00000000  1
  O  O25  1  0.50000000  0.50000000  0.00000000  1
  O  O26  1  0.50000000  0.00000000  0.50000000  1
  O  O27  1  0.50000000  0.50000000  0.50000000  1
  O  O28  1  0.00000000  0.78163300  0.00000000  1
  O  O29  1  0.00000000  0.21836700  0.00000000  1
  O  O30  1  0.00000000  0.75662900  0.50000000  1
  O  O31  1  0.00000000  0.24337100  0.50000000  1
