# generated using pymatgen
data_TeH4C4(NCl3)2
_symmetry_space_group_name_H-M   'P 1'
_cell_length_a   6.48300000
_cell_length_b   7.97193300
_cell_length_c   15.21067000
_cell_angle_alpha   90.00000000
_cell_angle_beta   90.00000000
_cell_angle_gamma   90.00000000
_symmetry_Int_Tables_number   1
_chemical_formula_structural   TeH4C4(NCl3)2
_chemical_formula_sum   'Te2 H8 C8 N4 Cl12'
_cell_volume   786.11848030
_cell_formula_units_Z   2
loop_
 _symmetry_equiv_pos_site_id
 _symmetry_equiv_pos_as_xyz
  1  'x, y, z'
loop_
 _atom_site_type_symbol
 _atom_site_label
 _atom_site_symmetry_multiplicity
 _atom_site_fract_x
 _atom_site_fract_y
 _atom_site_fract_z
 _atom_site_occupancy
  Te  Te0  1  0.50000000  0.50000000  0.50000000  1
  Te  Te1  1  0.00000000  0.00000000  0.00000000  1
  H  H2  1  0.61394900  0.89176500  0.39133900  1
  H  H3  1  0.38605100  0.89176500  0.60866100  1
  H  H4  1  0.11394900  0.60823500  0.10866100  1
  H  H5  1  0.88605100  0.60823500  0.89133900  1
  H  H6  1  0.38605100  0.10823500  0.60866100  1
  H  H7  1  0.61394900  0.10823500  0.39133900  1
  H  H8  1  0.88605100  0.39176500  0.89133900  1
  H  H9  1  0.11394900  0.39176500  0.10866100  1
  C  C10  1  0.82951400  0.00000000  0.31250300  1
  C  C11  1  0.17048600  0.00000000  0.68749700  1
  C  C12  1  0.32951400  0.50000000  0.18749700  1
  C  C13  1  0.67048600  0.50000000  0.81250300  1
  C  C14  1  0.98517600  0.00000000  0.26661600  1
  C  C15  1  0.01482400  0.00000000  0.73338400  1
  C  C16  1  0.48517600  0.50000000  0.23338400  1
  C  C17  1  0.51482400  0.50000000  0.76661600  1
  N  N18  1  0.66810200  0.00000000  0.36382300  1
  N  N19  1  0.33189800  0.00000000  0.63617700  1
  N  N20  1  0.16810200  0.50000000  0.13617700  1
  N  N21  1  0.83189800  0.50000000  0.86382300  1
  Cl  Cl22  1  0.66578900  0.50000000  0.30627200  1
  Cl  Cl23  1  0.33421100  0.50000000  0.69372800  1
  Cl  Cl24  1  0.16578900  0.00000000  0.19372800  1
  Cl  Cl25  1  0.83421100  0.00000000  0.80627200  1
  Cl  Cl26  1  0.74073000  0.72861400  0.55078700  1
  Cl  Cl27  1  0.25927000  0.72861400  0.44921300  1
  Cl  Cl28  1  0.24073000  0.77138600  0.94921300  1
  Cl  Cl29  1  0.75927000  0.77138600  0.05078700  1
  Cl  Cl30  1  0.25927000  0.27138600  0.44921300  1
  Cl  Cl31  1  0.74073000  0.27138600  0.55078700  1
  Cl  Cl32  1  0.75927000  0.22861400  0.05078700  1
  Cl  Cl33  1  0.24073000  0.22861400  0.94921300  1
