# generated using pymatgen
data_PrH8C2S2I3N4O9
_symmetry_space_group_name_H-M   'P 1'
_cell_length_a   8.08524100
_cell_length_b   10.80000342
_cell_length_c   12.30388262
_cell_angle_alpha   68.24770602
_cell_angle_beta   70.81832564
_cell_angle_gamma   68.01792235
_symmetry_Int_Tables_number   1
_chemical_formula_structural   PrH8C2S2I3N4O9
_chemical_formula_sum   'Pr2 H16 C4 S4 I6 N8 O18'
_cell_volume   902.57671070
_cell_formula_units_Z   2
loop_
 _symmetry_equiv_pos_site_id
 _symmetry_equiv_pos_as_xyz
  1  'x, y, z'
loop_
 _atom_site_type_symbol
 _atom_site_label
 _atom_site_symmetry_multiplicity
 _atom_site_fract_x
 _atom_site_fract_y
 _atom_site_fract_z
 _atom_site_occupancy
  Pr  Pr0  1  0.61524700  0.25000000  0.75000000  1
  Pr  Pr1  1  0.38475300  0.75000000  0.25000000  1
  H  H2  1  0.13582000  0.73527100  0.75819500  1
  H  H3  1  0.62928600  0.76472900  0.74180500  1
  H  H4  1  0.86418000  0.26472900  0.24180500  1
  H  H5  1  0.37071400  0.23527100  0.25819500  1
  H  H6  1  0.04650100  0.90567000  0.77164100  1
  H  H7  1  0.72381200  0.59433000  0.72835900  1
  H  H8  1  0.95349900  0.09433000  0.22835900  1
  H  H9  1  0.27618800  0.40567000  0.27164100  1
  H  H10  1  0.94173600  0.57479300  0.90487700  1
  H  H11  1  0.42140700  0.92520700  0.59512300  1
  H  H12  1  0.05826400  0.42520700  0.09512300  1
  H  H13  1  0.57859300  0.07479300  0.40487700  1
  H  H14  1  0.76847300  0.64138200  0.01998600  1
  H  H15  1  0.42984000  0.85861800  0.48001400  1
  H  H16  1  0.23152700  0.35861800  0.98001400  1
  H  H17  1  0.57016000  0.14138200  0.51998600  1
  C  C18  1  0.92045000  0.77112200  0.90001200  1
  C  C19  1  0.59158300  0.72887800  0.59998800  1
  C  C20  1  0.07955000  0.22887800  0.09998800  1
  C  C21  1  0.40841700  0.27112200  0.40001200  1
  S  S22  1  0.77545500  0.90653300  0.98137200  1
  S  S23  1  0.66335900  0.59346700  0.51862800  1
  S  S24  1  0.22454500  0.09346700  0.01862800  1
  S  S25  1  0.33664100  0.40653300  0.48137200  1
  I  I26  1  0.50000000  0.50000000  0.00000000  1
  I  I27  1  0.00000000  0.00000000  0.50000000  1
  I  I28  1  0.61248700  0.97058400  0.23868000  1
  I  I29  1  0.82175100  0.52941600  0.26132000  1
  I  I30  1  0.38751300  0.02941600  0.76132000  1
  I  I31  1  0.17824900  0.47058400  0.73868000  1
  N  N32  1  0.05313100  0.80234900  0.80795400  1
  N  N33  1  0.66343400  0.69765100  0.69204600  1
  N  N34  1  0.94686900  0.19765100  0.19204600  1
  N  N35  1  0.33656600  0.30234900  0.30795400  1
  N  N36  1  0.87684900  0.65426500  0.94447800  1
  N  N37  1  0.47559300  0.84573500  0.55552200  1
  N  N38  1  0.12315100  0.34573500  0.05552200  1
  N  N39  1  0.52440700  0.15426500  0.44447800  1
  O  O40  1  0.28118400  0.25000000  0.75000000  1
  O  O41  1  0.71881600  0.75000000  0.25000000  1
  O  O42  1  0.93248500  0.13102100  0.60099700  1
  O  O43  1  0.66450300  0.36897900  0.89900300  1
  O  O44  1  0.06751500  0.86897900  0.39900300  1
  O  O45  1  0.33549700  0.63102100  0.10099700  1
  O  O46  1  0.78553100  0.03565100  0.87454000  1
  O  O47  1  0.69572200  0.46434900  0.62546000  1
  O  O48  1  0.21446900  0.96434900  0.12546000  1
  O  O49  1  0.30427800  0.53565100  0.37454000  1
  O  O50  1  0.51413200  0.36519800  0.51719500  1
  O  O51  1  0.39652500  0.13480200  0.98280500  1
  O  O52  1  0.48586800  0.63480200  0.48280500  1
  O  O53  1  0.60347500  0.86519800  0.01719500  1
  O  O54  1  0.62040300  0.06317700  0.66842700  1
  O  O55  1  0.35200700  0.43682300  0.83157300  1
  O  O56  1  0.37959700  0.93682300  0.33157300  1
  O  O57  1  0.64799300  0.56317700  0.16842700  1
