# generated using pymatgen
data_Tm2Ga3Fe14
_symmetry_space_group_name_H-M   'P 1'
_cell_length_a   8.51378467
_cell_length_b   8.51378467
_cell_length_c   8.25275300
_cell_angle_alpha   90.00000000
_cell_angle_beta   90.00000000
_cell_angle_gamma   120.00000521
_symmetry_Int_Tables_number   1
_chemical_formula_structural   Tm2Ga3Fe14
_chemical_formula_sum   'Tm4 Ga6 Fe28'
_cell_volume   518.05369986
_cell_formula_units_Z   2
loop_
 _symmetry_equiv_pos_site_id
 _symmetry_equiv_pos_as_xyz
  1  'x, y, z'
loop_
 _atom_site_type_symbol
 _atom_site_label
 _atom_site_symmetry_multiplicity
 _atom_site_fract_x
 _atom_site_fract_y
 _atom_site_fract_z
 _atom_site_occupancy
  Tm  Tm0  1  0.00000000  0.00000000  0.25000000  1
  Tm  Tm1  1  0.00000000  0.00000000  0.75000000  1
  Tm  Tm2  1  0.33333300  0.66666700  0.75000000  1
  Tm  Tm3  1  0.66666700  0.33333300  0.25000000  1
  Ga  Ga4  1  0.50000000  0.50000000  0.50000000  1
  Ga  Ga5  1  0.50000000  0.00000000  0.50000000  1
  Ga  Ga6  1  0.00000000  0.50000000  0.50000000  1
  Ga  Ga7  1  0.50000000  0.50000000  0.00000000  1
  Ga  Ga8  1  0.50000000  0.00000000  0.00000000  1
  Ga  Ga9  1  0.00000000  0.50000000  0.00000000  1
  Fe  Fe10  1  0.33333300  0.66666700  0.38871900  1
  Fe  Fe11  1  0.66666700  0.33333300  0.61128100  1
  Fe  Fe12  1  0.66666700  0.33333300  0.88871900  1
  Fe  Fe13  1  0.33333300  0.66666700  0.11128100  1
  Fe  Fe14  1  0.32122100  0.34757100  0.25000000  1
  Fe  Fe15  1  0.65242900  0.97365000  0.25000000  1
  Fe  Fe16  1  0.02635000  0.67877900  0.25000000  1
  Fe  Fe17  1  0.65242900  0.67877900  0.25000000  1
  Fe  Fe18  1  0.02635000  0.34757100  0.25000000  1
  Fe  Fe19  1  0.32122100  0.97365000  0.25000000  1
  Fe  Fe20  1  0.67877900  0.65242900  0.75000000  1
  Fe  Fe21  1  0.34757100  0.02635000  0.75000000  1
  Fe  Fe22  1  0.97365000  0.32122100  0.75000000  1
  Fe  Fe23  1  0.34757100  0.32122100  0.75000000  1
  Fe  Fe24  1  0.97365000  0.65242900  0.75000000  1
  Fe  Fe25  1  0.67877900  0.02635000  0.75000000  1
  Fe  Fe26  1  0.16481300  0.83518700  0.51302100  1
  Fe  Fe27  1  0.16481300  0.32962600  0.51302100  1
  Fe  Fe28  1  0.67037400  0.83518700  0.51302100  1
  Fe  Fe29  1  0.83518700  0.16481300  0.48697900  1
  Fe  Fe30  1  0.83518700  0.67037400  0.48697900  1
  Fe  Fe31  1  0.32962600  0.16481300  0.48697900  1
  Fe  Fe32  1  0.83518700  0.16481300  0.01302100  1
  Fe  Fe33  1  0.83518700  0.67037400  0.01302100  1
  Fe  Fe34  1  0.32962600  0.16481300  0.01302100  1
  Fe  Fe35  1  0.16481300  0.83518700  0.98697900  1
  Fe  Fe36  1  0.16481300  0.32962600  0.98697900  1
  Fe  Fe37  1  0.67037400  0.83518700  0.98697900  1
