# generated using pymatgen
data_SmP2H16C6NO13
_symmetry_space_group_name_H-M   'P 1'
_cell_length_a   8.97967300
_cell_length_b   13.03045000
_cell_length_c   14.83073523
_cell_angle_alpha   66.62729267
_cell_angle_beta   90.00000000
_cell_angle_gamma   90.00000000
_symmetry_Int_Tables_number   1
_chemical_formula_structural   SmP2H16C6NO13
_chemical_formula_sum   'Sm4 P8 H64 C24 N4 O52'
_cell_volume   1592.93723508
_cell_formula_units_Z   4
loop_
 _symmetry_equiv_pos_site_id
 _symmetry_equiv_pos_as_xyz
  1  'x, y, z'
loop_
 _atom_site_type_symbol
 _atom_site_label
 _atom_site_symmetry_multiplicity
 _atom_site_fract_x
 _atom_site_fract_y
 _atom_site_fract_z
 _atom_site_occupancy
  Sm  Sm0  1  0.24759500  0.91019200  0.16582300  1
  Sm  Sm1  1  0.74759500  0.08980800  0.33417700  1
  Sm  Sm2  1  0.75240500  0.08980800  0.83417700  1
  Sm  Sm3  1  0.25240500  0.91019200  0.66582300  1
  P  P4  1  0.39421100  0.17043100  0.19198500  1
  P  P5  1  0.89421100  0.82956900  0.30801500  1
  P  P6  1  0.60578900  0.82956900  0.80801500  1
  P  P7  1  0.10578900  0.17043100  0.69198500  1
  P  P8  1  0.89427200  0.37837200  0.28625900  1
  P  P9  1  0.39427200  0.62162800  0.21374100  1
  P  P10  1  0.10572800  0.62162800  0.71374100  1
  P  P11  1  0.60572800  0.37837200  0.78625900  1
  H  H12  1  0.75836700  0.44867700  0.14772700  1
  H  H13  1  0.25836700  0.55132300  0.35227300  1
  H  H14  1  0.24163300  0.55132300  0.85227300  1
  H  H15  1  0.74163300  0.44867700  0.64772700  1
  H  H16  1  0.43880200  0.88556200  0.34539900  1
  H  H17  1  0.93880200  0.11443800  0.15460100  1
  H  H18  1  0.56119800  0.11443800  0.65460100  1
  H  H19  1  0.06119800  0.88556200  0.84539900  1
  H  H20  1  0.35119800  0.77151000  0.38294500  1
  H  H21  1  0.85119800  0.22849000  0.11705500  1
  H  H22  1  0.64880200  0.22849000  0.61705500  1
  H  H23  1  0.14880200  0.77151000  0.88294500  1
  H  H24  1  0.37533600  0.73051000  0.53102000  1
  H  H25  1  0.87533600  0.26949000  0.96898000  1
  H  H26  1  0.62466400  0.26949000  0.46898000  1
  H  H27  1  0.12466400  0.73051000  0.03102000  1
  H  H28  1  0.25437100  0.64078900  0.54212700  1
  H  H29  1  0.75437100  0.35921100  0.95787300  1
  H  H30  1  0.74562900  0.35921100  0.45787300  1
  H  H31  1  0.24562900  0.64078900  0.04212700  1
  H  H32  1  0.52702300  0.49376700  0.10879400  1
  H  H33  1  0.02702300  0.50623300  0.39120600  1
  H  H34  1  0.47297700  0.50623300  0.89120600  1
  H  H35  1  0.97297700  0.49376700  0.60879400  1
  H  H36  1  0.07596900  0.22001100  0.23475100  1
  H  H37  1  0.57596900  0.77998900  0.26524900  1
  H  H38  1  0.92403100  0.77998900  0.76524900  1
  H  H39  1  0.42403100  0.22001100  0.73475100  1
  H  H40  1  0.28417400  0.17513100  0.34076500  1
  H  H41  1  0.78417400  0.82486900  0.15923500  1
  H  H42  1  0.71582600  0.82486900  0.65923500  1
  H  H43  1  0.21582600  0.17513100  0.84076500  1
  H  H44  1  0.37120900  0.30512400  0.26497600  1
  H  H45  1  0.87120900  0.69487600  0.23502400  1
  H  H46  1  0.62879100  0.69487600  0.73502400  1
  H  H47  1  0.12879100  0.30512400  0.76497600  1
  H  H48  1  0.15812700  0.42566800  0.26199000  1
  H  H49  1  0.65812700  0.57433200  0.23801000  1
  H  H50  1  0.84187300  0.57433200  0.73801000  1
  H  H51  1  0.34187300  0.42566800  0.76199000  1
  H  H52  1  0.12177400  0.29598900  0.36226100  1
  H  H53  1  0.62177400  0.70401100  0.13773900  1
  H  H54  1  0.87822600  0.70401100  0.63773900  1
  H  H55  1  0.37822600  0.29598900  0.86226100  1
  H  H56  1  0.04452600  0.38856900  0.09261100  1
  H  H57  1  0.54452600  0.61143100  0.40738900  1
  H  H58  1  0.95547400  0.61143100  0.90738900  1
  H  H59  1  0.45547400  0.38856900  0.59261100  1
  H  H60  1  0.22785400  0.43197000  0.11072000  1
  H  H61  1  0.72785400  0.56803000  0.38928000  1
  H  H62  1  0.77214600  0.56803000  0.88928000  1
  H  H63  1  0.27214600  0.43197000  0.61072000  1
  H  H64  1  0.15567600  0.22548300  0.06510600  1
  H  H65  1  0.65567600  0.77451700  0.43489400  1
  H  H66  1  0.84432400  0.77451700  0.93489400  1
  H  H67  1  0.34432400  0.22548300  0.56510600  1
  H  H68  1  0.22045000  0.35834800  0.97963000  1
  H  H69  1  0.72045000  0.64165200  0.52037000  1
  H  H70  1  0.77955000  0.64165200  0.02037000  1
  H  H71  1  0.27955000  0.35834800  0.47963000  1
  H  H72  1  0.57082700  0.38392200  0.09371500  1
  H  H73  1  0.07082700  0.61607800  0.40628500  1
  H  H74  1  0.42917300  0.61607800  0.90628500  1
  H  H75  1  0.92917300  0.38392200  0.59371500  1
  C  C76  1  0.30061400  0.23620400  0.26511900  1
  C  C77  1  0.80061400  0.76379600  0.23488100  1
  C  C78  1  0.69938600  0.76379600  0.73488100  1
  C  C79  1  0.19938600  0.23620400  0.76511900  1
  C  C80  1  0.09419500  0.34756600  0.28539300  1
  C  C81  1  0.59419500  0.65243400  0.21460700  1
  C  C82  1  0.90580500  0.65243400  0.71460700  1
  C  C83  1  0.40580500  0.34756600  0.78539300  1
  C  C84  1  0.15803200  0.36018400  0.11720100  1
  C  C85  1  0.65803200  0.63981600  0.38279900  1
  C  C86  1  0.84196800  0.63981600  0.88279900  1
  C  C87  1  0.34196800  0.36018400  0.61720100  1
  C  C88  1  0.22106200  0.30001500  0.05680600  1
  C  C89  1  0.72106200  0.69998500  0.44319400  1
  C  C90  1  0.77893800  0.69998500  0.94319400  1
  C  C91  1  0.27893800  0.30001500  0.55680600  1
  C  C92  1  0.01145500  0.94778500  0.98804200  1
  C  C93  1  0.51145500  0.05221500  0.51195800  1
  C  C94  1  0.98854500  0.05221500  0.01195800  1
  C  C95  1  0.48854500  0.94778500  0.48804200  1
  C  C96  1  0.44090900  0.03466400  0.96198800  1
  C  C97  1  0.94090900  0.96533600  0.53801200  1
  C  C98  1  0.55909100  0.96533600  0.03801200  1
  C  C99  1  0.05909100  0.03466400  0.46198800  1
  N  N100  1  0.15017900  0.28536800  0.22532600  1
  N  N101  1  0.65017900  0.71463200  0.27467400  1
  N  N102  1  0.84982100  0.71463200  0.77467400  1
  N  N103  1  0.34982100  0.28536800  0.72532600  1
  O  O104  1  0.55818800  0.16357500  0.21487800  1
  O  O105  1  0.05818800  0.83642500  0.28512200  1
  O  O106  1  0.44181200  0.83642500  0.78512200  1
  O  O107  1  0.94181200  0.16357500  0.71487800  1
  O  O108  1  0.31033800  0.06677500  0.20108600  1
  O  O109  1  0.81033800  0.93322500  0.29891400  1
  O  O110  1  0.68966200  0.93322500  0.79891400  1
  O  O111  1  0.18966200  0.06677500  0.70108600  1
  O  O112  1  0.37599800  0.26712900  0.08250800  1
  O  O113  1  0.87599800  0.73287100  0.41749200  1
  O  O114  1  0.62400200  0.73287100  0.91749200  1
  O  O115  1  0.12400200  0.26712900  0.58250800  1
  O  O116  1  0.80347300  0.27203700  0.31464300  1
  O  O117  1  0.30347300  0.72796300  0.18535700  1
  O  O118  1  0.19652700  0.72796300  0.68535700  1
  O  O119  1  0.69652700  0.27203700  0.81464300  1
  O  O120  1  0.85870700  0.46065200  0.17648800  1
  O  O121  1  0.35870700  0.53934800  0.32351200  1
  O  O122  1  0.14129300  0.53934800  0.82351200  1
  O  O123  1  0.64129300  0.46065200  0.67648800  1
  O  O124  1  0.88602800  0.43697800  0.35656200  1
  O  O125  1  0.38602800  0.56302200  0.14343800  1
  O  O126  1  0.11397200  0.56302200  0.64343800  1
  O  O127  1  0.61397200  0.43697800  0.85656200  1
  O  O128  1  0.96070900  0.95394100  0.90609300  1
  O  O129  1  0.46070900  0.04605900  0.59390700  1
  O  O130  1  0.03929100  0.04605900  0.09390700  1
  O  O131  1  0.53929100  0.95394100  0.40609300  1
  O  O132  1  0.07821000  0.86521500  0.05155700  1
  O  O133  1  0.57821000  0.13478500  0.44844300  1
  O  O134  1  0.92179000  0.13478500  0.94844300  1
  O  O135  1  0.42179000  0.86521500  0.55155700  1
  O  O136  1  0.48573200  0.08673000  0.87455700  1
  O  O137  1  0.98573200  0.91327000  0.62544300  1
  O  O138  1  0.51426800  0.91327000  0.12544300  1
  O  O139  1  0.01426800  0.08673000  0.37455700  1
  O  O140  1  0.30984100  0.03424800  0.99333000  1
  O  O141  1  0.80984100  0.96575200  0.50667000  1
  O  O142  1  0.69015900  0.96575200  0.00667000  1
  O  O143  1  0.19015900  0.03424800  0.49333000  1
  O  O144  1  0.39088300  0.83217000  0.32148000  1
  O  O145  1  0.89088300  0.16783000  0.17852000  1
  O  O146  1  0.60911700  0.16783000  0.67852000  1
  O  O147  1  0.10911700  0.83217000  0.82148000  1
  O  O148  1  0.34137000  0.67853700  0.50187100  1
  O  O149  1  0.84137000  0.32146300  0.99812900  1
  O  O150  1  0.65863000  0.32146300  0.49812900  1
  O  O151  1  0.15863000  0.67853700  0.00187100  1
  O  O152  1  0.61159600  0.45334500  0.09366500  1
  O  O153  1  0.11159600  0.54665500  0.40633500  1
  O  O154  1  0.38840400  0.54665500  0.90633500  1
  O  O155  1  0.88840400  0.45334500  0.59366500  1
