# generated using pymatgen
data_VCu2HO5
_symmetry_space_group_name_H-M   'P 1'
_cell_length_a   6.18473500
_cell_length_b   8.59511000
_cell_length_c   15.20992800
_cell_angle_alpha   90.00000000
_cell_angle_beta   90.00000000
_cell_angle_gamma   90.00000000
_symmetry_Int_Tables_number   1
_chemical_formula_structural   VCu2HO5
_chemical_formula_sum   'V8 Cu16 H8 O40'
_cell_volume   808.53661758
_cell_formula_units_Z   8
loop_
 _symmetry_equiv_pos_site_id
 _symmetry_equiv_pos_as_xyz
  1  'x, y, z'
loop_
 _atom_site_type_symbol
 _atom_site_label
 _atom_site_symmetry_multiplicity
 _atom_site_fract_x
 _atom_site_fract_y
 _atom_site_fract_z
 _atom_site_occupancy
  V  V0  1  0.77674700  0.77783000  0.65234800  1
  V  V1  1  0.72325300  0.22217000  0.15234800  1
  V  V2  1  0.27674700  0.72217000  0.34765200  1
  V  V3  1  0.22325300  0.27783000  0.84765200  1
  V  V4  1  0.28728100  0.43569600  0.58165300  1
  V  V5  1  0.21271900  0.56430400  0.08165300  1
  V  V6  1  0.78728100  0.06430400  0.41834700  1
  V  V7  1  0.71271900  0.93569600  0.91834700  1
  Cu  Cu8  1  0.28621600  0.83393100  0.57574700  1
  Cu  Cu9  1  0.21378400  0.16606900  0.07574700  1
  Cu  Cu10  1  0.78621600  0.66606900  0.42425300  1
  Cu  Cu11  1  0.71378400  0.33393100  0.92425300  1
  Cu  Cu12  1  0.02393500  0.11698500  0.64081200  1
  Cu  Cu13  1  0.47606500  0.88301500  0.14081200  1
  Cu  Cu14  1  0.52393500  0.38301500  0.35918800  1
  Cu  Cu15  1  0.97606500  0.61698500  0.85918800  1
  Cu  Cu16  1  0.76633700  0.39843500  0.71402700  1
  Cu  Cu17  1  0.73366300  0.60156500  0.21402700  1
  Cu  Cu18  1  0.26633700  0.10156500  0.28597300  1
  Cu  Cu19  1  0.23366300  0.89843500  0.78597300  1
  Cu  Cu20  1  0.53693100  0.12025100  0.63413400  1
  Cu  Cu21  1  0.96306900  0.87974900  0.13413400  1
  Cu  Cu22  1  0.03693100  0.37974900  0.36586600  1
  Cu  Cu23  1  0.46306900  0.62025100  0.86586600  1
  H  H24  1  0.26048200  0.10415700  0.50490800  1
  H  H25  1  0.23951800  0.89584300  0.00490800  1
  H  H26  1  0.76048200  0.39584300  0.49509200  1
  H  H27  1  0.73951800  0.60415700  0.99509200  1
  H  H28  1  0.75966500  0.13630400  0.77701300  1
  H  H29  1  0.74033500  0.86369600  0.27701300  1
  H  H30  1  0.25966500  0.36369600  0.22298700  1
  H  H31  1  0.24033500  0.63630400  0.72298700  1
  O  O32  1  0.78715900  0.70882300  0.54803000  1
  O  O33  1  0.71284100  0.29117700  0.04803000  1
  O  O34  1  0.28715900  0.79117700  0.45197000  1
  O  O35  1  0.21284100  0.20882300  0.95197000  1
  O  O36  1  0.75687700  0.62043600  0.72375000  1
  O  O37  1  0.74312300  0.37956400  0.22375000  1
  O  O38  1  0.25687700  0.87956400  0.27625000  1
  O  O39  1  0.24312300  0.12043600  0.77625000  1
  O  O40  1  0.01867700  0.89361900  0.67698900  1
  O  O41  1  0.48132300  0.10638100  0.17698900  1
  O  O42  1  0.51867700  0.60638100  0.32301100  1
  O  O43  1  0.98132300  0.39361900  0.82301100  1
  O  O44  1  0.54022000  0.89497800  0.66535100  1
  O  O45  1  0.95978000  0.10502200  0.16535200  1
  O  O46  1  0.04022000  0.60502200  0.33464900  1
  O  O47  1  0.45978000  0.39497800  0.83464900  1
  O  O48  1  0.27637900  0.06244500  0.56494600  1
  O  O49  1  0.22362200  0.93755500  0.06494600  1
  O  O50  1  0.77637800  0.43755500  0.43505400  1
  O  O51  1  0.72362200  0.56244500  0.93505400  1
  O  O52  1  0.77237400  0.17187400  0.71386300  1
  O  O53  1  0.72762600  0.82812600  0.21386300  1
  O  O54  1  0.27237400  0.32812600  0.28613700  1
  O  O55  1  0.22762600  0.67187400  0.78613700  1
  O  O56  1  0.53381400  0.35033800  0.62147600  1
  O  O57  1  0.96618600  0.64966200  0.12147600  1
  O  O58  1  0.03381400  0.14966200  0.37852400  1
  O  O59  1  0.46618600  0.85033800  0.87852400  1
  O  O60  1  0.27261900  0.62808800  0.61823300  1
  O  O61  1  0.22738100  0.37191200  0.11823300  1
  O  O62  1  0.77261900  0.87191200  0.38176700  1
  O  O63  1  0.72738100  0.12808800  0.88176700  1
  O  O64  1  0.06166300  0.33942000  0.62367300  1
  O  O65  1  0.43833700  0.66058000  0.12367300  1
  O  O66  1  0.56166300  0.16058000  0.37632700  1
  O  O67  1  0.93833700  0.83942000  0.87632700  1
  O  O68  1  0.28773600  0.42106800  0.47024600  1
  O  O69  1  0.21226400  0.57893200  0.97024600  1
  O  O70  1  0.78773600  0.07893200  0.52975400  1
  O  O71  1  0.71226400  0.92106800  0.02975400  1
