# generated using pymatgen
data_InAu(I4N)2
_symmetry_space_group_name_H-M   'P 1'
_cell_length_a   8.10862700
_cell_length_b   12.88062600
_cell_length_c   19.89954400
_cell_angle_alpha   90.00000000
_cell_angle_beta   90.00000000
_cell_angle_gamma   90.00000000
_symmetry_Int_Tables_number   1
_chemical_formula_structural   InAu(I4N)2
_chemical_formula_sum   'In4 Au4 I32 N8'
_cell_volume   2078.39178948
_cell_formula_units_Z   4
loop_
 _symmetry_equiv_pos_site_id
 _symmetry_equiv_pos_as_xyz
  1  'x, y, z'
loop_
 _atom_site_type_symbol
 _atom_site_label
 _atom_site_symmetry_multiplicity
 _atom_site_fract_x
 _atom_site_fract_y
 _atom_site_fract_z
 _atom_site_occupancy
  In  In0  1  0.61802900  0.82384600  0.25000000  1
  In  In1  1  0.88197100  0.32384600  0.25000000  1
  In  In2  1  0.38197100  0.17615400  0.75000000  1
  In  In3  1  0.11802900  0.67615400  0.75000000  1
  Au  Au4  1  0.50000000  0.50000000  0.00000000  1
  Au  Au5  1  0.00000000  0.00000000  0.50000000  1
  Au  Au6  1  0.50000000  0.50000000  0.50000000  1
  Au  Au7  1  0.00000000  0.00000000  0.00000000  1
  I  I8  1  0.76649200  0.59296400  0.94670900  1
  I  I9  1  0.73350800  0.09296400  0.55329100  1
  I  I10  1  0.23350800  0.40703600  0.44670900  1
  I  I11  1  0.26649200  0.90703600  0.05329100  1
  I  I12  1  0.23350800  0.40703600  0.05329100  1
  I  I13  1  0.26649200  0.90703600  0.44670900  1
  I  I14  1  0.76649200  0.59296400  0.55329100  1
  I  I15  1  0.73350800  0.09296400  0.94670900  1
  I  I16  1  0.76737100  0.39846700  0.04748600  1
  I  I17  1  0.73262900  0.89846700  0.45251400  1
  I  I18  1  0.23262900  0.60153300  0.54748600  1
  I  I19  1  0.26737100  0.10153300  0.95251400  1
  I  I20  1  0.23262900  0.60153300  0.95251400  1
  I  I21  1  0.26737100  0.10153300  0.54748600  1
  I  I22  1  0.76737100  0.39846700  0.45251400  1
  I  I23  1  0.73262900  0.89846700  0.04748600  1
  I  I24  1  0.95347700  0.83208300  0.25000000  1
  I  I25  1  0.54652300  0.33208300  0.25000000  1
  I  I26  1  0.04652300  0.16791700  0.75000000  1
  I  I27  1  0.45347700  0.66791700  0.75000000  1
  I  I28  1  0.45564900  0.00763600  0.25000000  1
  I  I29  1  0.04435100  0.50763600  0.25000000  1
  I  I30  1  0.54435100  0.99236400  0.75000000  1
  I  I31  1  0.95564900  0.49236400  0.75000000  1
  I  I32  1  0.50563500  0.71394600  0.13591200  1
  I  I33  1  0.99436500  0.21394600  0.36408800  1
  I  I34  1  0.49436500  0.28605400  0.63591200  1
  I  I35  1  0.00563500  0.78605400  0.86408800  1
  I  I36  1  0.49436500  0.28605400  0.86408800  1
  I  I37  1  0.00563500  0.78605400  0.63591200  1
  I  I38  1  0.50563500  0.71394600  0.36408800  1
  I  I39  1  0.99436500  0.21394600  0.13591200  1
  N  N40  1  0.48828300  0.84383200  0.89561300  1
  N  N41  1  0.01171700  0.34383200  0.60438700  1
  N  N42  1  0.51171700  0.15616800  0.39561300  1
  N  N43  1  0.98828300  0.65616800  0.10438700  1
  N  N44  1  0.51171700  0.15616800  0.10438700  1
  N  N45  1  0.98828300  0.65616800  0.39561300  1
  N  N46  1  0.48828300  0.84383200  0.60438700  1
  N  N47  1  0.01171700  0.34383200  0.89561300  1
