# generated using pymatgen
data_ErAgS2
_symmetry_space_group_name_H-M   'P 1'
_cell_length_a   7.66185600
_cell_length_b   7.66076000
_cell_length_c   12.20019277
_cell_angle_alpha   89.90786323
_cell_angle_beta   90.00000000
_cell_angle_gamma   90.00000000
_symmetry_Int_Tables_number   1
_chemical_formula_structural   ErAgS2
_chemical_formula_sum   'Er8 Ag8 S16'
_cell_volume   716.09719677
_cell_formula_units_Z   8
loop_
 _symmetry_equiv_pos_site_id
 _symmetry_equiv_pos_as_xyz
  1  'x, y, z'
loop_
 _atom_site_type_symbol
 _atom_site_label
 _atom_site_symmetry_multiplicity
 _atom_site_fract_x
 _atom_site_fract_y
 _atom_site_fract_z
 _atom_site_occupancy
  Er  Er0  1  0.50175200  0.74713000  0.00164300  1
  Er  Er1  1  0.00175200  0.25287000  0.99835700  1
  Er  Er2  1  0.25382200  0.00060400  0.75457000  1
  Er  Er3  1  0.75382200  0.99939600  0.24543000  1
  Er  Er4  1  0.74822400  0.49782000  0.74629800  1
  Er  Er5  1  0.24822400  0.50218000  0.25370200  1
  Er  Er6  1  0.00179600  0.75300300  0.50318900  1
  Er  Er7  1  0.50179600  0.24699700  0.49681100  1
  Ag  Ag8  1  0.25036900  0.50256800  0.78028200  1
  Ag  Ag9  1  0.75036900  0.49743200  0.21971800  1
  Ag  Ag10  1  0.75428000  0.99736900  0.70423200  1
  Ag  Ag11  1  0.25428000  0.00263100  0.29576800  1
  Ag  Ag12  1  0.00365600  0.75185700  0.01856900  1
  Ag  Ag13  1  0.50365600  0.24814300  0.98143100  1
  Ag  Ag14  1  0.50135700  0.74471800  0.51543900  1
  Ag  Ag15  1  0.00135700  0.25528200  0.48456100  1
  S  S16  1  0.77014300  0.01750000  0.46875000  1
  S  S17  1  0.27014300  0.98250000  0.53125000  1
  S  S18  1  0.24001900  0.48694500  0.47925500  1
  S  S19  1  0.74001900  0.51305500  0.52074500  1
  S  S20  1  0.52347700  0.72883800  0.22782700  1
  S  S21  1  0.02347700  0.27116200  0.77217300  1
  S  S22  1  0.48154500  0.72873400  0.77760300  1
  S  S23  1  0.98154500  0.27126600  0.22239700  1
  S  S24  1  0.98185100  0.76882300  0.72955200  1
  S  S25  1  0.48185100  0.23117700  0.27044800  1
  S  S26  1  0.52620400  0.22552500  0.71979100  1
  S  S27  1  0.02620400  0.77447500  0.28020900  1
  S  S28  1  0.27363200  0.02103100  0.97873200  1
  S  S29  1  0.77363200  0.97896900  0.02126800  1
  S  S30  1  0.73087200  0.47839700  0.96973500  1
  S  S31  1  0.23087200  0.52160300  0.03026500  1
