# generated using pymatgen
data_Cu2AsO5
_symmetry_space_group_name_H-M   'P 1'
_cell_length_a   5.89405600
_cell_length_b   8.12453200
_cell_length_c   8.87457600
_cell_angle_alpha   90.00000000
_cell_angle_beta   90.00000000
_cell_angle_gamma   90.00000000
_symmetry_Int_Tables_number   1
_chemical_formula_structural   Cu2AsO5
_chemical_formula_sum   'Cu8 As4 O20'
_cell_volume   424.97190956
_cell_formula_units_Z   4
loop_
 _symmetry_equiv_pos_site_id
 _symmetry_equiv_pos_as_xyz
  1  'x, y, z'
loop_
 _atom_site_type_symbol
 _atom_site_label
 _atom_site_symmetry_multiplicity
 _atom_site_fract_x
 _atom_site_fract_y
 _atom_site_fract_z
 _atom_site_occupancy
  Cu  Cu0  1  0.50000000  0.84923500  0.61193300  1
  Cu  Cu1  1  0.50000000  0.15076500  0.38806700  1
  Cu  Cu2  1  0.00000000  0.65076500  0.11193300  1
  Cu  Cu3  1  0.00000000  0.34923500  0.88806700  1
  Cu  Cu4  1  0.25242100  0.50000000  0.50000000  1
  Cu  Cu5  1  0.24757900  0.00000000  0.00000000  1
  Cu  Cu6  1  0.74757900  0.50000000  0.50000000  1
  Cu  Cu7  1  0.75242100  0.00000000  0.00000000  1
  As  As8  1  0.50000000  0.76247700  0.25006100  1
  As  As9  1  0.50000000  0.23752300  0.74993900  1
  As  As10  1  0.00000000  0.73752300  0.75006100  1
  As  As11  1  0.00000000  0.26247700  0.24993900  1
  O  O12  1  0.50000000  0.91009600  0.39371400  1
  O  O13  1  0.50000000  0.08990400  0.60628600  1
  O  O14  1  0.00000000  0.58990400  0.89371400  1
  O  O15  1  0.00000000  0.41009600  0.10628600  1
  O  O16  1  0.50000000  0.86501800  0.07562100  1
  O  O17  1  0.50000000  0.13498200  0.92437900  1
  O  O18  1  0.00000000  0.63498200  0.57562100  1
  O  O19  1  0.00000000  0.36501800  0.42437900  1
  O  O20  1  0.50000000  0.62695300  0.57064300  1
  O  O21  1  0.50000000  0.37304700  0.42935700  1
  O  O22  1  0.00000000  0.87304700  0.07064300  1
  O  O23  1  0.00000000  0.12695300  0.92935700  1
  O  O24  1  0.74294100  0.64846800  0.26452100  1
  O  O25  1  0.74294100  0.35153200  0.73547900  1
  O  O26  1  0.75705900  0.85153200  0.76452100  1
  O  O27  1  0.75705900  0.14846800  0.23547900  1
  O  O28  1  0.25705900  0.35153200  0.73547900  1
  O  O29  1  0.25705900  0.64846800  0.26452100  1
  O  O30  1  0.24294100  0.14846800  0.23547900  1
  O  O31  1  0.24294100  0.85153200  0.76452100  1
