# generated using pymatgen
data_NpB8O17
_symmetry_space_group_name_H-M   'P 1'
_cell_length_a   6.49913300
_cell_length_b   9.15266165
_cell_length_c   11.09435972
_cell_angle_alpha   89.86711347
_cell_angle_beta   89.62571217
_cell_angle_gamma   69.20407055
_symmetry_Int_Tables_number   1
_chemical_formula_structural   NpB8O17
_chemical_formula_sum   'Np2 B16 O34'
_cell_volume   616.93322596
_cell_formula_units_Z   2
loop_
 _symmetry_equiv_pos_site_id
 _symmetry_equiv_pos_as_xyz
  1  'x, y, z'
loop_
 _atom_site_type_symbol
 _atom_site_label
 _atom_site_symmetry_multiplicity
 _atom_site_fract_x
 _atom_site_fract_y
 _atom_site_fract_z
 _atom_site_occupancy
  Np  Np0  1  0.01018100  0.46383200  0.75333800  1
  Np  Np1  1  0.47401300  0.53616800  0.25333800  1
  B  B2  1  0.49223700  0.39921500  0.68877000  1
  B  B3  1  0.89145200  0.60078500  0.18877000  1
  B  B4  1  0.20575100  0.46282000  0.05124600  1
  B  B5  1  0.66857100  0.53718000  0.55124600  1
  B  B6  1  0.86043300  0.40627800  0.01669000  1
  B  B7  1  0.26671100  0.59372200  0.51669000  1
  B  B8  1  0.54450900  0.38636700  0.91631900  1
  B  B9  1  0.93087600  0.61363300  0.41631900  1
  B  B10  1  0.84702500  0.11630100  0.00390700  1
  B  B11  1  0.96332600  0.88369900  0.50390700  1
  B  B12  1  0.74880100  0.14426500  0.58729200  1
  B  B13  1  0.89306700  0.85573500  0.08729200  1
  B  B14  1  0.12388300  0.87708300  0.92593400  1
  B  B15  1  0.00096600  0.12291700  0.42593400  1
  B  B16  1  0.40630700  0.88689100  0.78810300  1
  B  B17  1  0.29319800  0.11310900  0.28810300  1
  O  O18  1  0.87005700  0.54417700  0.52738800  1
  O  O19  1  0.41423500  0.45582300  0.02738800  1
  O  O20  1  0.07243300  0.42005300  0.97380600  1
  O  O21  1  0.49248600  0.57994700  0.47380600  1
  O  O22  1  0.09630600  0.26178200  0.72580100  1
  O  O23  1  0.35808800  0.73821800  0.22580100  1
  O  O24  1  0.63920500  0.21621600  0.94067300  1
  O  O25  1  0.85542200  0.78378400  0.44067300  1
  O  O26  1  0.40192000  0.42427700  0.81200700  1
  O  O27  1  0.82619700  0.57572300  0.31200700  1
  O  O28  1  0.65124000  0.48439300  0.66684700  1
  O  O29  1  0.13563300  0.51560700  0.16684700  1
  O  O30  1  0.28541600  0.47994200  0.61794800  1
  O  O31  1  0.76535800  0.52005800  0.11794800  1
  O  O32  1  0.72863000  0.44617300  0.90664000  1
  O  O33  1  0.17480400  0.55382700  0.40664000  1
  O  O34  1  0.81649900  0.98500600  0.59143700  1
  O  O35  1  0.80150600  0.01499400  0.09143700  1
  O  O36  1  0.91192400  0.66623500  0.78050000  1
  O  O37  1  0.57815900  0.33376500  0.28050000  1
  O  O38  1  0.59147400  0.23656200  0.66404000  1
  O  O39  1  0.82803600  0.76343800  0.16404000  1
  O  O40  1  0.88128000  0.25181300  0.06219600  1
  O  O41  1  0.13309300  0.74818700  0.56219600  1
  O  O42  1  0.05945800  0.78253100  0.00310500  1
  O  O43  1  0.84199000  0.21746900  0.50310500  1
  O  O44  1  0.30318400  0.80598400  0.85310500  1
  O  O45  1  0.10916800  0.19401600  0.35310500  1
  O  O46  1  0.01873400  0.03563100  0.91954800  1
  O  O47  1  0.05436500  0.96436900  0.41954800  1
  O  O48  1  0.45148900  0.87641600  0.66786100  1
  O  O49  1  0.32790500  0.12358400  0.16786100  1
  O  O50  1  0.50673900  0.98583800  0.82921900  1
  O  O51  1  0.49257700  0.01416200  0.32921900  1
