# generated using pymatgen
data_CdH12C2S2(N3Cl2)2
_symmetry_space_group_name_H-M   'P 1'
_cell_length_a   8.58900500
_cell_length_b   7.33515400
_cell_length_c   12.63481430
_cell_angle_alpha   60.62672867
_cell_angle_beta   90.00000000
_cell_angle_gamma   90.00000000
_symmetry_Int_Tables_number   1
_chemical_formula_structural   CdH12C2S2(N3Cl2)2
_chemical_formula_sum   'Cd2 H24 C4 S4 N12 Cl8'
_cell_volume   693.68100681
_cell_formula_units_Z   2
loop_
 _symmetry_equiv_pos_site_id
 _symmetry_equiv_pos_as_xyz
  1  'x, y, z'
loop_
 _atom_site_type_symbol
 _atom_site_label
 _atom_site_symmetry_multiplicity
 _atom_site_fract_x
 _atom_site_fract_y
 _atom_site_fract_z
 _atom_site_occupancy
  Cd  Cd0  1  0.50000000  0.00000000  0.50000000  1
  Cd  Cd1  1  0.00000000  0.00000000  0.00000000  1
  H  H2  1  0.97451500  0.25034100  0.55474700  1
  H  H3  1  0.52548500  0.25034100  0.05474700  1
  H  H4  1  0.02548500  0.74965900  0.44525300  1
  H  H5  1  0.47451500  0.74965900  0.94525300  1
  H  H6  1  0.03782000  0.17207200  0.23752100  1
  H  H7  1  0.46218000  0.17207200  0.73752100  1
  H  H8  1  0.96218000  0.82792800  0.76247900  1
  H  H9  1  0.53782000  0.82792800  0.26247900  1
  H  H10  1  0.17721800  0.23514400  0.57066900  1
  H  H11  1  0.32278200  0.23514400  0.07066900  1
  H  H12  1  0.82278200  0.76485600  0.42933100  1
  H  H13  1  0.67721800  0.76485600  0.92933100  1
  H  H14  1  0.85820100  0.30892100  0.37730800  1
  H  H15  1  0.64179900  0.30892100  0.87730800  1
  H  H16  1  0.14179900  0.69107900  0.62269200  1
  H  H17  1  0.35820100  0.69107900  0.12269200  1
  H  H18  1  0.01448300  0.43699900  0.16405700  1
  H  H19  1  0.48551700  0.43699900  0.66405700  1
  H  H20  1  0.98551700  0.56300100  0.83594300  1
  H  H21  1  0.51448300  0.56300100  0.33594300  1
  H  H22  1  0.85579700  0.27066500  0.21466400  1
  H  H23  1  0.64420300  0.27066500  0.71466400  1
  H  H24  1  0.14420300  0.72933500  0.78533600  1
  H  H25  1  0.35579700  0.72933500  0.28533600  1
  C  C26  1  0.09942200  0.26631100  0.41038300  1
  C  C27  1  0.40057800  0.26631100  0.91038300  1
  C  C28  1  0.90057800  0.73368900  0.58961700  1
  C  C29  1  0.59942200  0.73368900  0.08961700  1
  S  S30  1  0.27235300  0.25730100  0.34850500  1
  S  S31  1  0.22764700  0.25730100  0.84850500  1
  S  S32  1  0.72764700  0.74269900  0.65149500  1
  S  S33  1  0.77235300  0.74269900  0.15149500  1
  N  N34  1  0.96607100  0.28673900  0.34827100  1
  N  N35  1  0.53392900  0.28673900  0.84827100  1
  N  N36  1  0.03392900  0.71326100  0.65172900  1
  N  N37  1  0.46607100  0.71326100  0.15172900  1
  N  N38  1  0.96945000  0.29453000  0.23440100  1
  N  N39  1  0.53055000  0.29453000  0.73440100  1
  N  N40  1  0.03055000  0.70547000  0.76559900  1
  N  N41  1  0.46945000  0.70547000  0.26559900  1
  N  N42  1  0.08161400  0.25519500  0.51873200  1
  N  N43  1  0.41838600  0.25519500  0.01873200  1
  N  N44  1  0.91838600  0.74480500  0.48126800  1
  N  N45  1  0.58161400  0.74480500  0.98126800  1
  Cl  Cl46  1  0.65785300  0.32879300  0.48315700  1
  Cl  Cl47  1  0.84214700  0.32879300  0.98315700  1
  Cl  Cl48  1  0.34214700  0.67120700  0.51684300  1
  Cl  Cl49  1  0.15785300  0.67120700  0.01684300  1
  Cl  Cl50  1  0.37553900  0.91524100  0.71240000  1
  Cl  Cl51  1  0.12446100  0.91524100  0.21240000  1
  Cl  Cl52  1  0.62446100  0.08475900  0.28760000  1
  Cl  Cl53  1  0.87553900  0.08475900  0.78760000  1
