# generated using pymatgen
data_Ca2Y2Si4CO16
_symmetry_space_group_name_H-M   'P 1'
_cell_length_a   6.80372100
_cell_length_b   13.15130500
_cell_length_c   14.47473000
_cell_angle_alpha   90.00000000
_cell_angle_beta   90.00000000
_cell_angle_gamma   90.00000000
_symmetry_Int_Tables_number   1
_chemical_formula_structural   Ca2Y2Si4CO16
_chemical_formula_sum   'Ca8 Y8 Si16 C4 O64'
_cell_volume   1295.16714083
_cell_formula_units_Z   4
loop_
 _symmetry_equiv_pos_site_id
 _symmetry_equiv_pos_as_xyz
  1  'x, y, z'
loop_
 _atom_site_type_symbol
 _atom_site_label
 _atom_site_symmetry_multiplicity
 _atom_site_fract_x
 _atom_site_fract_y
 _atom_site_fract_z
 _atom_site_occupancy
  Ca  Ca0  1  0.19373900  0.07365400  0.05020400  1
  Ca  Ca1  1  0.30626100  0.42634600  0.55020400  1
  Ca  Ca2  1  0.80626100  0.57365400  0.94979600  1
  Ca  Ca3  1  0.69373900  0.92634600  0.44979600  1
  Ca  Ca4  1  0.80626100  0.92634600  0.94979600  1
  Ca  Ca5  1  0.69373900  0.57365400  0.44979600  1
  Ca  Ca6  1  0.19373900  0.42634600  0.05020400  1
  Ca  Ca7  1  0.30626100  0.07365400  0.55020400  1
  Y  Y8  1  0.38690100  0.06027700  0.27988600  1
  Y  Y9  1  0.11309900  0.43972300  0.77988600  1
  Y  Y10  1  0.61309900  0.56027700  0.72011400  1
  Y  Y11  1  0.88690100  0.93972300  0.22011400  1
  Y  Y12  1  0.61309900  0.93972300  0.72011400  1
  Y  Y13  1  0.88690100  0.56027700  0.22011400  1
  Y  Y14  1  0.38690100  0.43972300  0.27988600  1
  Y  Y15  1  0.11309900  0.06027700  0.77988600  1
  Si  Si16  1  0.88793500  0.13043800  0.35264900  1
  Si  Si17  1  0.61206500  0.36956200  0.85264900  1
  Si  Si18  1  0.11206500  0.63043800  0.64735100  1
  Si  Si19  1  0.38793500  0.86956200  0.14735100  1
  Si  Si20  1  0.11206500  0.86956200  0.64735100  1
  Si  Si21  1  0.38793500  0.63043800  0.14735100  1
  Si  Si22  1  0.88793500  0.36956200  0.35264900  1
  Si  Si23  1  0.61206500  0.13043800  0.85264900  1
  Si  Si24  1  0.66291800  0.13175700  0.06838500  1
  Si  Si25  1  0.83708200  0.36824300  0.56838500  1
  Si  Si26  1  0.33708200  0.63175700  0.93161500  1
  Si  Si27  1  0.16291800  0.86824300  0.43161500  1
  Si  Si28  1  0.33708200  0.86824300  0.93161500  1
  Si  Si29  1  0.16291800  0.63175700  0.43161500  1
  Si  Si30  1  0.66291800  0.36824300  0.06838500  1
  Si  Si31  1  0.83708200  0.13175700  0.56838500  1
  C  C32  1  0.38772500  0.25000000  0.37915300  1
  C  C33  1  0.11227500  0.25000000  0.87915300  1
  C  C34  1  0.61227500  0.75000000  0.62084700  1
  C  C35  1  0.88772500  0.75000000  0.12084700  1
  O  O36  1  0.93876200  0.11197300  0.46391000  1
  O  O37  1  0.56123800  0.38802700  0.96391000  1
  O  O38  1  0.06123800  0.61197300  0.53609000  1
  O  O39  1  0.43876200  0.88802700  0.03609000  1
  O  O40  1  0.06123800  0.88802700  0.53609000  1
  O  O41  1  0.43876200  0.61197300  0.03609000  1
  O  O42  1  0.93876200  0.38802700  0.46391000  1
  O  O43  1  0.56123800  0.11197300  0.96391000  1
  O  O44  1  0.70520700  0.05384000  0.32811200  1
  O  O45  1  0.79479300  0.44616000  0.82811200  1
  O  O46  1  0.29479300  0.55384000  0.67188800  1
  O  O47  1  0.20520700  0.94616000  0.17188800  1
  O  O48  1  0.29479300  0.94616000  0.67188800  1
  O  O49  1  0.20520700  0.55384000  0.17188800  1
  O  O50  1  0.70520700  0.44616000  0.32811200  1
  O  O51  1  0.79479300  0.05384000  0.82811200  1
  O  O52  1  0.06183400  0.09172700  0.28518600  1
  O  O53  1  0.43816600  0.40827300  0.78518600  1
  O  O54  1  0.93816600  0.59172700  0.71481400  1
  O  O55  1  0.56183400  0.90827300  0.21481400  1
  O  O56  1  0.93816600  0.90827300  0.71481400  1
  O  O57  1  0.56183400  0.59172700  0.21481400  1
  O  O58  1  0.06183400  0.40827300  0.28518600  1
  O  O59  1  0.43816600  0.09172700  0.78518600  1
  O  O60  1  0.83063500  0.25000000  0.33837800  1
  O  O61  1  0.66936500  0.25000000  0.83837800  1
  O  O62  1  0.16936500  0.75000000  0.66162200  1
  O  O63  1  0.33063500  0.75000000  0.16162200  1
  O  O64  1  0.84394300  0.05115600  0.08182100  1
  O  O65  1  0.65605700  0.44884400  0.58182100  1
  O  O66  1  0.15605700  0.55115600  0.91817900  1
  O  O67  1  0.34394300  0.94884400  0.41817900  1
  O  O68  1  0.15605700  0.94884400  0.91817900  1
  O  O69  1  0.34394300  0.55115600  0.41817900  1
  O  O70  1  0.84394300  0.44884400  0.08182100  1
  O  O71  1  0.65605700  0.05115600  0.58182100  1
  O  O72  1  0.47675100  0.11220200  0.13637100  1
  O  O73  1  0.02324900  0.38779800  0.63637100  1
  O  O74  1  0.52324900  0.61220200  0.86362900  1
  O  O75  1  0.97675100  0.88779800  0.36362900  1
  O  O76  1  0.52324900  0.88779800  0.86362900  1
  O  O77  1  0.97675100  0.61220200  0.36362900  1
  O  O78  1  0.47675100  0.38779800  0.13637100  1
  O  O79  1  0.02324900  0.11220200  0.63637100  1
  O  O80  1  0.74343500  0.25000000  0.07298800  1
  O  O81  1  0.75656500  0.25000000  0.57298800  1
  O  O82  1  0.25656500  0.75000000  0.92701200  1
  O  O83  1  0.24343500  0.75000000  0.42701200  1
  O  O84  1  0.38138500  0.16357800  0.42171200  1
  O  O85  1  0.11861500  0.33642200  0.92171200  1
  O  O86  1  0.61861500  0.66357800  0.57828800  1
  O  O87  1  0.88138500  0.83642200  0.07828800  1
  O  O88  1  0.61861500  0.83642200  0.57828800  1
  O  O89  1  0.88138500  0.66357800  0.07828800  1
  O  O90  1  0.38138500  0.33642200  0.42171200  1
  O  O91  1  0.11861500  0.16357800  0.92171200  1
  O  O92  1  0.39952500  0.25000000  0.29015500  1
  O  O93  1  0.10047500  0.25000000  0.79015500  1
  O  O94  1  0.60047500  0.75000000  0.70984500  1
  O  O95  1  0.89952500  0.75000000  0.20984500  1
  O  O96  1  0.15495500  0.25000000  0.10312900  1
  O  O97  1  0.34504500  0.25000000  0.60312900  1
  O  O98  1  0.84504500  0.75000000  0.89687100  1
  O  O99  1  0.65495500  0.75000000  0.39687100  1
