# generated using pymatgen
data_PtC4I4N
_symmetry_space_group_name_H-M   'P 1'
_cell_length_a   12.26242499
_cell_length_b   12.26242499
_cell_length_c   12.26242499
_cell_angle_alpha   120.99120594
_cell_angle_beta   111.68838079
_cell_angle_gamma   96.63449357
_symmetry_Int_Tables_number   1
_chemical_formula_structural   PtC4I4N
_chemical_formula_sum   'Pt4 C16 I16 N4'
_cell_volume   1356.18693184
_cell_formula_units_Z   4
loop_
 _symmetry_equiv_pos_site_id
 _symmetry_equiv_pos_as_xyz
  1  'x, y, z'
loop_
 _atom_site_type_symbol
 _atom_site_label
 _atom_site_symmetry_multiplicity
 _atom_site_fract_x
 _atom_site_fract_y
 _atom_site_fract_z
 _atom_site_occupancy
  Pt  Pt0  1  0.20792900  0.32839200  0.62046300  1
  Pt  Pt1  1  0.70792900  0.58746600  0.37953700  1
  Pt  Pt2  1  0.27886500  0.71109900  0.93223400  1
  Pt  Pt3  1  0.77886500  0.34663100  0.06776600  1
  C  C4  1  0.51321400  0.04839900  0.25304900  1
  C  C5  1  0.79535000  0.26016500  0.74695100  1
  C  C6  1  0.29535000  0.04839900  0.03518500  1
  C  C7  1  0.01321400  0.26016500  0.96481500  1
  C  C8  1  0.75649900  0.24196600  0.62702000  1
  C  C9  1  0.61494600  0.12947900  0.37298000  1
  C  C10  1  0.11494600  0.24196600  0.98546700  1
  C  C11  1  0.25649900  0.12947900  0.01453300  1
  C  C12  1  0.36139200  0.82697700  0.58114100  1
  C  C13  1  0.24583700  0.78025200  0.41885900  1
  C  C14  1  0.74583700  0.82697700  0.96558500  1
  C  C15  1  0.86139200  0.78025200  0.03441500  1
  C  C16  1  0.27206600  0.70927000  0.53897600  1
  C  C17  1  0.17029400  0.73309000  0.46102400  1
  C  C18  1  0.67029400  0.70927000  0.93720400  1
  C  C19  1  0.77206600  0.73309000  0.06279600  1
  I  I20  1  0.14021000  0.46548100  0.82527200  1
  I  I21  1  0.64021000  0.31493800  0.17472800  1
  I  I22  1  0.35478000  0.59359400  0.73881300  1
  I  I23  1  0.85478000  0.61596700  0.26118700  1
  I  I24  1  0.05801600  0.09215200  0.53413500  1
  I  I25  1  0.55801600  0.52388100  0.46586500  1
  I  I26  1  0.27159100  0.18984800  0.41825700  1
  I  I27  1  0.77159100  0.85333300  0.58174300  1
  I  I28  1  0.41035600  0.32316700  0.80236200  1
  I  I29  1  0.52080500  0.60799400  0.19763800  1
  I  I30  1  0.02080500  0.32316700  0.41281000  1
  I  I31  1  0.91035600  0.60799400  0.58719000  1
  I  I32  1  0.19370100  0.80901500  0.11531500  1
  I  I33  1  0.69370100  0.07838600  0.88468500  1
  I  I34  1  0.41548500  0.95429300  0.03880800  1
  I  I35  1  0.91548500  0.37667700  0.96119200  1
  N  N36  1  0.71232400  0.21232400  0.50000000  1
  N  N37  1  0.21232400  0.21232400  0.00000000  1
  N  N38  1  0.36854000  0.86854000  0.50000000  1
  N  N39  1  0.86854000  0.86854000  0.00000000  1
