# generated using pymatgen
data_MgS2O9
_symmetry_space_group_name_H-M   'P 1'
_cell_length_a   6.76177500
_cell_length_b   8.27460700
_cell_length_c   12.57332900
_cell_angle_alpha   90.00000000
_cell_angle_beta   90.00000000
_cell_angle_gamma   90.00000000
_symmetry_Int_Tables_number   1
_chemical_formula_structural   MgS2O9
_chemical_formula_sum   'Mg4 S8 O36'
_cell_volume   703.49071748
_cell_formula_units_Z   4
loop_
 _symmetry_equiv_pos_site_id
 _symmetry_equiv_pos_as_xyz
  1  'x, y, z'
loop_
 _atom_site_type_symbol
 _atom_site_label
 _atom_site_symmetry_multiplicity
 _atom_site_fract_x
 _atom_site_fract_y
 _atom_site_fract_z
 _atom_site_occupancy
  Mg  Mg0  1  0.50000000  0.50000000  0.00000000  1
  Mg  Mg1  1  0.00000000  0.00000000  0.50000000  1
  Mg  Mg2  1  0.50000000  0.50000000  0.50000000  1
  Mg  Mg3  1  0.00000000  0.00000000  0.00000000  1
  S  S4  1  0.68554400  0.61560400  0.25000000  1
  S  S5  1  0.81445600  0.11560400  0.25000000  1
  S  S6  1  0.31445600  0.38439600  0.75000000  1
  S  S7  1  0.18554400  0.88439600  0.75000000  1
  S  S8  1  0.05900000  0.50245700  0.25000000  1
  S  S9  1  0.44100000  0.00245700  0.25000000  1
  S  S10  1  0.94100000  0.49754300  0.75000000  1
  S  S11  1  0.55900000  0.99754300  0.75000000  1
  O  O12  1  0.02814700  0.41712400  0.15056100  1
  O  O13  1  0.47185300  0.91712400  0.34943900  1
  O  O14  1  0.97185300  0.58287600  0.65056100  1
  O  O15  1  0.52814700  0.08287600  0.84943900  1
  O  O16  1  0.97185300  0.58287600  0.84943900  1
  O  O17  1  0.52814700  0.08287600  0.65056100  1
  O  O18  1  0.02814700  0.41712400  0.34943900  1
  O  O19  1  0.47185300  0.91712400  0.15056100  1
  O  O20  1  0.19979900  0.63400400  0.25000000  1
  O  O21  1  0.30020100  0.13400400  0.25000000  1
  O  O22  1  0.80020100  0.36599600  0.75000000  1
  O  O23  1  0.69979900  0.86599600  0.75000000  1
  O  O24  1  0.34839500  0.28248700  0.05380500  1
  O  O25  1  0.15160500  0.78248700  0.44619500  1
  O  O26  1  0.65160500  0.71751300  0.55380500  1
  O  O27  1  0.84839500  0.21751300  0.94619500  1
  O  O28  1  0.65160500  0.71751300  0.94619500  1
  O  O29  1  0.84839500  0.21751300  0.55380500  1
  O  O30  1  0.34839500  0.28248700  0.44619500  1
  O  O31  1  0.15160500  0.78248700  0.05380500  1
  O  O32  1  0.60516800  0.53901900  0.15165600  1
  O  O33  1  0.89483200  0.03901900  0.34834400  1
  O  O34  1  0.39483200  0.46098100  0.65165600  1
  O  O35  1  0.10516800  0.96098100  0.84834400  1
  O  O36  1  0.39483200  0.46098100  0.84834400  1
  O  O37  1  0.10516800  0.96098100  0.65165600  1
  O  O38  1  0.60516800  0.53901900  0.34834400  1
  O  O39  1  0.89483200  0.03901900  0.15165600  1
  O  O40  1  0.74584400  0.31066600  0.00523300  1
  O  O41  1  0.75415600  0.81066600  0.49476700  1
  O  O42  1  0.25415600  0.68933400  0.50523300  1
  O  O43  1  0.24584400  0.18933400  0.99476700  1
  O  O44  1  0.25415600  0.68933400  0.99476700  1
  O  O45  1  0.24584400  0.18933400  0.50523300  1
  O  O46  1  0.74584400  0.31066600  0.49476700  1
  O  O47  1  0.75415600  0.81066600  0.00523300  1
