# generated using pymatgen
data_SrU2(AsO10)2
_symmetry_space_group_name_H-M   'P 1'
_cell_length_a   7.33654000
_cell_length_b   7.32443600
_cell_length_c   15.47564645
_cell_angle_alpha   81.51253727
_cell_angle_beta   90.00000000
_cell_angle_gamma   90.00000000
_symmetry_Int_Tables_number   1
_chemical_formula_structural   SrU2(AsO10)2
_chemical_formula_sum   'Sr2 U4 As4 O40'
_cell_volume   822.49208455
_cell_formula_units_Z   2
loop_
 _symmetry_equiv_pos_site_id
 _symmetry_equiv_pos_as_xyz
  1  'x, y, z'
loop_
 _atom_site_type_symbol
 _atom_site_label
 _atom_site_symmetry_multiplicity
 _atom_site_fract_x
 _atom_site_fract_y
 _atom_site_fract_z
 _atom_site_occupancy
  Sr  Sr0  1  0.82481100  0.64129600  0.26382800  1
  Sr  Sr1  1  0.17518900  0.64129600  0.76382800  1
  U  U2  1  0.25591900  0.36457200  0.57405900  1
  U  U3  1  0.74408100  0.36457200  0.07405900  1
  U  U4  1  0.25447100  0.90291200  0.95402000  1
  U  U5  1  0.74552900  0.90291200  0.45402000  1
  As  As6  1  0.24471100  0.88008200  0.51718000  1
  As  As7  1  0.75528900  0.88008200  0.01718000  1
  As  As8  1  0.75603800  0.38692300  0.50863200  1
  As  As9  1  0.24396200  0.38692300  0.00863200  1
  O  O10  1  0.25716000  0.39484500  0.45574100  1
  O  O11  1  0.74284000  0.39484500  0.95574100  1
  O  O12  1  0.25448300  0.35217300  0.69511200  1
  O  O13  1  0.74551700  0.35217300  0.19511200  1
  O  O14  1  0.25418600  0.86360900  0.07232000  1
  O  O15  1  0.74581400  0.86360900  0.57232000  1
  O  O16  1  0.25392300  0.92402600  0.83310100  1
  O  O17  1  0.74607700  0.92402600  0.33310100  1
  O  O18  1  0.25422800  0.67707400  0.59138400  1
  O  O19  1  0.74577200  0.67707400  0.09138400  1
  O  O20  1  0.23094600  0.05509900  0.58053000  1
  O  O21  1  0.76905400  0.05509900  0.08053000  1
  O  O22  1  0.05471800  0.87506500  0.45360900  1
  O  O23  1  0.94528200  0.87506500  0.95360900  1
  O  O24  1  0.43558900  0.90491500  0.45332800  1
  O  O25  1  0.56441100  0.90491500  0.95332800  1
  O  O26  1  0.94596600  0.39229600  0.57346300  1
  O  O27  1  0.05403400  0.39229600  0.07346300  1
  O  O28  1  0.56240200  0.36683800  0.57187600  1
  O  O29  1  0.43759800  0.36683800  0.07187600  1
  O  O30  1  0.76888200  0.20886000  0.44818400  1
  O  O31  1  0.23111800  0.20886000  0.94818400  1
  O  O32  1  0.74847800  0.58976900  0.43452900  1
  O  O33  1  0.25152200  0.58976900  0.93452900  1
  O  O34  1  0.51781900  0.46922300  0.29452100  1
  O  O35  1  0.48218100  0.46922300  0.79452100  1
  O  O36  1  0.17937400  0.65845000  0.31176600  1
  O  O37  1  0.82062600  0.65845000  0.81176600  1
  O  O38  1  0.95159600  0.97390300  0.20665600  1
  O  O39  1  0.04840400  0.97390300  0.70665600  1
  O  O40  1  0.04568300  0.23718900  0.30804700  1
  O  O41  1  0.95431700  0.23718900  0.80804700  1
  O  O42  1  0.19018900  0.61235800  0.23776900  1
  O  O43  1  0.80981100  0.61235800  0.73776900  1
  O  O44  1  0.50368300  0.71717200  0.21428800  1
  O  O45  1  0.49631700  0.71717200  0.71428800  1
  O  O46  1  0.20246500  0.22442300  0.27172900  1
  O  O47  1  0.79753500  0.22442300  0.77172900  1
  O  O48  1  0.25244100  0.06442800  0.25662800  1
  O  O49  1  0.74755900  0.06442800  0.75662800  1
