# generated using pymatgen
data_FeTe3S3Cl3(OF2)9
_symmetry_space_group_name_H-M   'P 1'
_cell_length_a   16.05829200
_cell_length_b   9.79023900
_cell_length_c   18.74851819
_cell_angle_alpha   67.72278494
_cell_angle_beta   90.00000000
_cell_angle_gamma   90.00000000
_symmetry_Int_Tables_number   1
_chemical_formula_structural   FeTe3S3Cl3(OF2)9
_chemical_formula_sum   'Fe4 Te12 S12 Cl12 O36 F72'
_cell_volume   2727.53650152
_cell_formula_units_Z   4
loop_
 _symmetry_equiv_pos_site_id
 _symmetry_equiv_pos_as_xyz
  1  'x, y, z'
loop_
 _atom_site_type_symbol
 _atom_site_label
 _atom_site_symmetry_multiplicity
 _atom_site_fract_x
 _atom_site_fract_y
 _atom_site_fract_z
 _atom_site_occupancy
  Fe  Fe0  1  0.84864400  0.24447300  0.25819600  1
  Fe  Fe1  1  0.65135600  0.24447300  0.75819600  1
  Fe  Fe2  1  0.15135600  0.75552700  0.74180400  1
  Fe  Fe3  1  0.34864400  0.75552700  0.24180400  1
  Te  Te4  1  0.97868600  0.29689700  0.39602100  1
  Te  Te5  1  0.52131400  0.29689700  0.89602100  1
  Te  Te6  1  0.02131400  0.70310300  0.60397900  1
  Te  Te7  1  0.47868600  0.70310300  0.10397900  1
  Te  Te8  1  0.01537400  0.14849600  0.16401600  1
  Te  Te9  1  0.48462600  0.14849600  0.66401600  1
  Te  Te10  1  0.98462600  0.85150400  0.83598400  1
  Te  Te11  1  0.51537500  0.85150400  0.33598400  1
  Te  Te12  1  0.85827800  0.62861700  0.14497300  1
  Te  Te13  1  0.64172200  0.62861700  0.64497300  1
  Te  Te14  1  0.14172200  0.37138300  0.85502700  1
  Te  Te15  1  0.35827800  0.37138300  0.35502700  1
  S  S16  1  0.82427300  0.88259500  0.38181600  1
  S  S17  1  0.67572700  0.88259500  0.88181600  1
  S  S18  1  0.17572700  0.11740500  0.61818400  1
  S  S19  1  0.32427300  0.11740500  0.11818400  1
  S  S20  1  0.70495800  0.22812000  0.11822800  1
  S  S21  1  0.79504200  0.22812000  0.61822800  1
  S  S22  1  0.29504200  0.77188000  0.88177200  1
  S  S23  1  0.20495800  0.77188000  0.38177200  1
  S  S24  1  0.67126100  0.30030100  0.35748400  1
  S  S25  1  0.82873900  0.30030100  0.85748400  1
  S  S26  1  0.32873900  0.69969900  0.64251600  1
  S  S27  1  0.17126100  0.69969900  0.14251600  1
  Cl  Cl28  1  0.77768400  0.70112100  0.37533900  1
  Cl  Cl29  1  0.72231600  0.70112100  0.87533900  1
  Cl  Cl30  1  0.22231600  0.29887900  0.62466100  1
  Cl  Cl31  1  0.27768400  0.29887900  0.12466100  1
  Cl  Cl32  1  0.70084600  0.01638100  0.13490800  1
  Cl  Cl33  1  0.79915400  0.01638100  0.63490800  1
  Cl  Cl34  1  0.29915400  0.98361900  0.86509200  1
  Cl  Cl35  1  0.20084600  0.98361900  0.36509200  1
  Cl  Cl36  1  0.61900700  0.16614800  0.45394300  1
  Cl  Cl37  1  0.88099300  0.16614800  0.95394300  1
  Cl  Cl38  1  0.38099300  0.83385200  0.54605700  1
  Cl  Cl39  1  0.11900700  0.83385200  0.04605700  1
  O  O40  1  0.92591500  0.19910700  0.34040000  1
  O  O41  1  0.57408500  0.19910700  0.84040000  1
  O  O42  1  0.07408500  0.80089300  0.65960000  1
  O  O43  1  0.42591500  0.80089300  0.15960000  1
  O  O44  1  0.91179900  0.21972400  0.17815000  1
  O  O45  1  0.58820100  0.21972400  0.67815000  1
  O  O46  1  0.08820100  0.78027600  0.82185000  1
  O  O47  1  0.41179900  0.78027600  0.32185000  1
  O  O48  1  0.83691300  0.45108500  0.22650900  1
  O  O49  1  0.66308700  0.45108500  0.72650900  1
  O  O50  1  0.16308700  0.54891500  0.77349100  1
  O  O51  1  0.33691300  0.54891500  0.27349100  1
  O  O52  1  0.81953800  0.99938900  0.30608800  1
  O  O53  1  0.68046200  0.99938900  0.80608800  1
  O  O54  1  0.18046200  0.00061100  0.69391200  1
  O  O55  1  0.31953800  0.00061100  0.19391200  1
  O  O56  1  0.79591700  0.90313400  0.44873900  1
  O  O57  1  0.70408300  0.90313400  0.94873900  1
  O  O58  1  0.20408300  0.09686600  0.55126100  1
  O  O59  1  0.29591700  0.09686600  0.05126100  1
  O  O60  1  0.73416200  0.24323200  0.18780000  1
  O  O61  1  0.76583800  0.24323200  0.68780000  1
  O  O62  1  0.26583800  0.75676800  0.81220000  1
  O  O63  1  0.23416200  0.75676800  0.31220000  1
  O  O64  1  0.73859800  0.31274700  0.04487500  1
  O  O65  1  0.76140200  0.31274700  0.54487500  1
  O  O66  1  0.26140200  0.68725300  0.95512500  1
  O  O67  1  0.23859800  0.68725300  0.45512500  1
  O  O68  1  0.74369900  0.22750000  0.34288000  1
  O  O69  1  0.75630100  0.22750000  0.84288000  1
  O  O70  1  0.25630100  0.77250000  0.65712000  1
  O  O71  1  0.24369900  0.77250000  0.15712000  1
  O  O72  1  0.67465500  0.44693000  0.35458900  1
  O  O73  1  0.82534500  0.44693000  0.85458900  1
  O  O74  1  0.32534500  0.55307000  0.64541100  1
  O  O75  1  0.17465500  0.55307000  0.14541100  1
  F  F76  1  0.91853700  0.83584100  0.39368700  1
  F  F77  1  0.58146300  0.83584100  0.89368700  1
  F  F78  1  0.08146300  0.16415900  0.60631300  1
  F  F79  1  0.41853700  0.16415900  0.10631300  1
  F  F80  1  0.60905900  0.26138800  0.11662800  1
  F  F81  1  0.89094100  0.26138800  0.61662800  1
  F  F82  1  0.39094100  0.73861200  0.88337200  1
  F  F83  1  0.10905900  0.73861200  0.38337200  1
  F  F84  1  0.60327100  0.29301700  0.29847600  1
  F  F85  1  0.89672900  0.29301700  0.79847600  1
  F  F86  1  0.39672900  0.70698300  0.70152400  1
  F  F87  1  0.10327100  0.70698300  0.20152400  1
  F  F88  1  0.07762300  0.19057700  0.40288000  1
  F  F89  1  0.42237700  0.19057700  0.90288000  1
  F  F90  1  0.92237700  0.80942300  0.59712000  1
  F  F91  1  0.57762300  0.80942300  0.09712000  1
  F  F92  1  0.01915600  0.45066600  0.30762800  1
  F  F93  1  0.48084400  0.45066600  0.80762800  1
  F  F94  1  0.98084400  0.54933400  0.69237200  1
  F  F95  1  0.51915600  0.54933400  0.19237200  1
  F  F96  1  0.88403200  0.40987000  0.39793500  1
  F  F97  1  0.61596800  0.40987000  0.89793500  1
  F  F98  1  0.11596800  0.59013000  0.60206500  1
  F  F99  1  0.38403200  0.59013000  0.10206500  1
  F  F100  1  0.94482800  0.15167400  0.49049600  1
  F  F101  1  0.55517200  0.15167400  0.99049600  1
  F  F102  1  0.05517200  0.84832600  0.50950400  1
  F  F103  1  0.44482800  0.84832600  0.00950400  1
  F  F104  1  0.03275300  0.39156200  0.45369200  1
  F  F105  1  0.46724700  0.39156200  0.95369200  1
  F  F106  1  0.96724700  0.60843800  0.54630800  1
  F  F107  1  0.53275300  0.60843800  0.04630800  1
  F  F108  1  0.00913100  0.97790900  0.25533400  1
  F  F109  1  0.49086900  0.97790900  0.75533400  1
  F  F110  1  0.99086900  0.02209100  0.74466600  1
  F  F111  1  0.50913100  0.02209100  0.24466600  1
  F  F112  1  0.96787100  0.04206800  0.10877700  1
  F  F113  1  0.53212900  0.04206800  0.60877700  1
  F  F114  1  0.03212900  0.95793200  0.89122300  1
  F  F115  1  0.46787100  0.95793200  0.39122300  1
  F  F116  1  0.03318200  0.30661400  0.07007000  1
  F  F117  1  0.46681800  0.30661400  0.57007000  1
  F  F118  1  0.96681800  0.69338600  0.92993000  1
  F  F119  1  0.53318200  0.69338600  0.42993000  1
  F  F120  1  0.07547100  0.24704200  0.21642200  1
  F  F121  1  0.42452900  0.24704200  0.71642200  1
  F  F122  1  0.92452900  0.75295800  0.78357800  1
  F  F123  1  0.57547100  0.75295800  0.28357800  1
  F  F124  1  0.11884700  0.07269400  0.14802700  1
  F  F125  1  0.38115300  0.07269400  0.64802700  1
  F  F126  1  0.88115300  0.92730600  0.85197300  1
  F  F127  1  0.61884700  0.92730600  0.35197300  1
  F  F128  1  0.81519900  0.56374300  0.06978300  1
  F  F129  1  0.68480100  0.56374300  0.56978300  1
  F  F130  1  0.18480100  0.43625700  0.93021700  1
  F  F131  1  0.31519900  0.43625700  0.43021700  1
  F  F132  1  0.75234700  0.70170100  0.15566500  1
  F  F133  1  0.74765300  0.70170100  0.65566500  1
  F  F134  1  0.24765300  0.29829900  0.84433500  1
  F  F135  1  0.25234700  0.29829900  0.34433500  1
  F  F136  1  0.90070700  0.71458300  0.21172700  1
  F  F137  1  0.59929300  0.71458300  0.71172700  1
  F  F138  1  0.09929300  0.28541700  0.78827300  1
  F  F139  1  0.40070700  0.28541700  0.28827300  1
  F  F140  1  0.96676200  0.57491400  0.12741600  1
  F  F141  1  0.53323800  0.57491400  0.62741600  1
  F  F142  1  0.03323800  0.42508600  0.87258400  1
  F  F143  1  0.46676200  0.42508600  0.37258400  1
  F  F144  1  0.87744900  0.81154300  0.06418600  1
  F  F145  1  0.62255100  0.81154300  0.56418600  1
  F  F146  1  0.12255100  0.18845700  0.93581400  1
  F  F147  1  0.37744900  0.18845700  0.43581400  1
