# generated using pymatgen
data_SiW12C16(NO10)4
_symmetry_space_group_name_H-M   'P 1'
_cell_length_a   11.89325283
_cell_length_b   11.89325283
_cell_length_c   11.89325283
_cell_angle_alpha   106.59747604
_cell_angle_beta   106.59747604
_cell_angle_gamma   115.38557524
_symmetry_Int_Tables_number   1
_chemical_formula_structural   SiW12C16(NO10)4
_chemical_formula_sum   'Si1 W12 C16 N4 O40'
_cell_volume   1284.57518196
_cell_formula_units_Z   1
loop_
 _symmetry_equiv_pos_site_id
 _symmetry_equiv_pos_as_xyz
  1  'x, y, z'
loop_
 _atom_site_type_symbol
 _atom_site_label
 _atom_site_symmetry_multiplicity
 _atom_site_fract_x
 _atom_site_fract_y
 _atom_site_fract_z
 _atom_site_occupancy
  Si  Si0  1  0.00000000  0.00000000  0.00000000  1
  W  W1  1  0.55004900  0.80966400  0.96405500  1
  W  W2  1  0.84561000  0.58599500  0.03594500  1
  W  W3  1  0.41400500  0.44995100  0.25961500  1
  W  W4  1  0.19033600  0.15439000  0.74038500  1
  W  W5  1  0.74483100  0.81120400  0.21269900  1
  W  W6  1  0.59850500  0.53213200  0.78730100  1
  W  W7  1  0.46786800  0.25516900  0.06637300  1
  W  W8  1  0.18879600  0.40149500  0.93362700  1
  W  W9  1  0.46088100  0.76279900  0.20648000  1
  W  W10  1  0.55631800  0.25440100  0.79352000  1
  W  W11  1  0.74559900  0.53911900  0.30191800  1
  W  W12  1  0.23720100  0.44368200  0.69808200  1
  C  C13  1  0.11364200  0.94659300  0.94876600  1
  C  C14  1  0.99782700  0.16487600  0.05123400  1
  C  C15  1  0.83512400  0.88635800  0.83295100  1
  C  C16  1  0.05340700  0.00217300  0.16704900  1
  C  C17  1  0.24347200  0.96003000  0.97203800  1
  C  C18  1  0.98799200  0.27143400  0.02796200  1
  C  C19  1  0.72856600  0.75652800  0.71655800  1
  C  C20  1  0.03997000  0.01200800  0.28344200  1
  C  C21  1  0.11502700  0.83533000  0.87153400  1
  C  C22  1  0.96379600  0.24349300  0.12846600  1
  C  C23  1  0.75650700  0.88497300  0.72030200  1
  C  C24  1  0.16467000  0.03620400  0.27969800  1
  C  C25  1  0.01152000  0.59832700  0.68409000  1
  C  C26  1  0.91423800  0.32743000  0.31591000  1
  C  C27  1  0.67257000  0.98848000  0.58680700  1
  C  C28  1  0.40167200  0.08576200  0.41319300  1
  N  N29  1  0.04842700  0.70852200  0.77012600  1
  N  N30  1  0.93839600  0.27830100  0.22987400  1
  N  N31  1  0.72169900  0.95157300  0.66009500  1
  N  N32  1  0.29147800  0.06160400  0.33990500  1
  O  O33  1  0.57021600  0.93163500  0.90538700  1
  O  O34  1  0.02624800  0.66482900  0.09461300  1
  O  O35  1  0.33517100  0.42978400  0.36141900  1
  O  O36  1  0.06836500  0.97375200  0.63858100  1
  O  O37  1  0.96554100  0.99513000  0.34063000  1
  O  O38  1  0.65450000  0.62491100  0.65937000  1
  O  O39  1  0.37508900  0.03445900  0.02958900  1
  O  O40  1  0.00487000  0.34550000  0.97041100  1
  O  O41  1  0.40009500  0.84534300  0.29225000  1
  O  O42  1  0.55309300  0.10784500  0.70775000  1
  O  O43  1  0.89215500  0.59990500  0.44524800  1
  O  O44  1  0.15465700  0.44690700  0.55475200  1
  O  O45  1  0.83433200  0.74487500  0.12444000  1
  O  O46  1  0.62043500  0.70989200  0.87556000  1
  O  O47  1  0.29010800  0.16566800  0.91054300  1
  O  O48  1  0.25512500  0.37956500  0.08945700  1
  O  O49  1  0.36420500  0.64302000  0.82722800  1
  O  O50  1  0.81579100  0.53697700  0.17277200  1
  O  O51  1  0.46302300  0.63579500  0.27881400  1
  O  O52  1  0.35698000  0.18420900  0.72118600  1
  O  O53  1  0.74233800  0.92168500  0.11654900  1
  O  O54  1  0.80513600  0.62578900  0.88345100  1
  O  O55  1  0.37421100  0.25766200  0.17934700  1
  O  O56  1  0.07831500  0.19486400  0.82065300  1
  O  O57  1  0.77143700  0.71776900  0.31450700  1
  O  O58  1  0.40326200  0.45692900  0.68549300  1
  O  O59  1  0.54307100  0.22856300  0.94633200  1
  O  O60  1  0.28223100  0.59673800  0.05366800  1
  O  O61  1  0.47721000  0.84722800  0.08609700  1
  O  O62  1  0.76113200  0.39111300  0.91390300  1
  O  O63  1  0.60888700  0.52279000  0.37001800  1
  O  O64  1  0.15277200  0.23886800  0.62998200  1
  O  O65  1  0.66956100  0.88730700  0.31409200  1
  O  O66  1  0.57321500  0.35546900  0.68590800  1
  O  O67  1  0.64453100  0.33043900  0.21774600  1
  O  O68  1  0.11269300  0.42678500  0.78225400  1
  O  O69  1  0.56265400  0.67654200  0.08381900  1
  O  O70  1  0.59272300  0.47883500  0.91618100  1
  O  O71  1  0.52116500  0.43734600  0.11388800  1
  O  O72  1  0.32345800  0.40727700  0.88611200  1
