# generated using pymatgen
data_ReBi3O8
_symmetry_space_group_name_H-M   'P 1'
_cell_length_a   10.18929117
_cell_length_b   10.18929117
_cell_length_c   10.18929117
_cell_angle_alpha   109.47122063
_cell_angle_beta   109.47122063
_cell_angle_gamma   109.47122063
_symmetry_Int_Tables_number   1
_chemical_formula_structural   ReBi3O8
_chemical_formula_sum   'Re4 Bi12 O32'
_cell_volume   814.34798824
_cell_formula_units_Z   4
loop_
 _symmetry_equiv_pos_site_id
 _symmetry_equiv_pos_as_xyz
  1  'x, y, z'
loop_
 _atom_site_type_symbol
 _atom_site_label
 _atom_site_symmetry_multiplicity
 _atom_site_fract_x
 _atom_site_fract_y
 _atom_site_fract_z
 _atom_site_occupancy
  Re  Re0  1  0.23958900  0.50000000  0.00000000  1
  Re  Re1  1  0.00000000  0.23958900  0.50000000  1
  Re  Re2  1  0.50000000  0.00000000  0.23958900  1
  Re  Re3  1  0.26041100  0.26041100  0.26041100  1
  Bi  Bi4  1  0.74980100  0.98252500  0.96412600  1
  Bi  Bi5  1  0.78567500  0.53587400  0.51839800  1
  Bi  Bi6  1  0.26727700  0.98160200  0.51747500  1
  Bi  Bi7  1  0.51839800  0.78567500  0.53587400  1
  Bi  Bi8  1  0.51747500  0.26727700  0.98160200  1
  Bi  Bi9  1  0.96412600  0.74980100  0.98252500  1
  Bi  Bi10  1  0.98160200  0.51747500  0.26727700  1
  Bi  Bi11  1  0.98252500  0.96412600  0.74980100  1
  Bi  Bi12  1  0.53587400  0.51839800  0.78567500  1
  Bi  Bi13  1  0.75019900  0.71432500  0.23272300  1
  Bi  Bi14  1  0.71432500  0.23272300  0.75019900  1
  Bi  Bi15  1  0.23272300  0.75019900  0.71432500  1
  O  O16  1  0.06567000  0.50000000  0.00000000  1
  O  O17  1  0.00000000  0.06567000  0.50000000  1
  O  O18  1  0.50000000  0.00000000  0.06567000  1
  O  O19  1  0.43433000  0.43433000  0.43433000  1
  O  O20  1  0.19231100  0.30506600  0.87410000  1
  O  O21  1  0.31821100  0.62590000  0.93096600  1
  O  O22  1  0.38724500  0.56903400  0.19493400  1
  O  O23  1  0.93096600  0.31821100  0.62590000  1
  O  O24  1  0.19493400  0.38724500  0.56903400  1
  O  O25  1  0.87410000  0.19231100  0.30506600  1
  O  O26  1  0.56903400  0.19493400  0.38724500  1
  O  O27  1  0.30506600  0.87410000  0.19231100  1
  O  O28  1  0.62590000  0.93096600  0.31821100  1
  O  O29  1  0.30768900  0.18178900  0.11275500  1
  O  O30  1  0.18178900  0.11275500  0.30768900  1
  O  O31  1  0.11275500  0.30768900  0.18178900  1
  O  O32  1  0.56648100  0.50000000  0.00000000  1
  O  O33  1  0.00000000  0.56648100  0.50000000  1
  O  O34  1  0.50000000  0.00000000  0.56648100  1
  O  O35  1  0.93351900  0.93351900  0.93351900  1
  O  O36  1  0.75000000  0.77531600  0.02531600  1
  O  O37  1  0.72468400  0.47468400  0.25000000  1
  O  O38  1  0.47468400  0.25000000  0.72468400  1
  O  O39  1  0.25000000  0.72468400  0.47468400  1
  O  O40  1  0.02531600  0.75000000  0.77531600  1
  O  O41  1  0.77531600  0.02531600  0.75000000  1
  O  O42  1  0.25000000  0.97033800  0.72033800  1
  O  O43  1  0.52966200  0.77966200  0.75000000  1
  O  O44  1  0.77966200  0.75000000  0.52966200  1
  O  O45  1  0.75000000  0.52966200  0.77966200  1
  O  O46  1  0.72033800  0.25000000  0.97033800  1
  O  O47  1  0.97033800  0.72033800  0.25000000  1
