# generated using pymatgen
data_SbP2AuF12
_symmetry_space_group_name_H-M   'P 1'
_cell_length_a   8.48610100
_cell_length_b   9.12457800
_cell_length_c   8.56686069
_cell_angle_alpha   90.00000000
_cell_angle_beta   119.75861538
_cell_angle_gamma   90.00000000
_symmetry_Int_Tables_number   1
_chemical_formula_structural   SbP2AuF12
_chemical_formula_sum   'Sb2 P4 Au2 F24'
_cell_volume   575.87012275
_cell_formula_units_Z   2
loop_
 _symmetry_equiv_pos_site_id
 _symmetry_equiv_pos_as_xyz
  1  'x, y, z'
loop_
 _atom_site_type_symbol
 _atom_site_label
 _atom_site_symmetry_multiplicity
 _atom_site_fract_x
 _atom_site_fract_y
 _atom_site_fract_z
 _atom_site_occupancy
  Sb  Sb0  1  0.00000000  0.50000000  0.50000000  1
  Sb  Sb1  1  0.00000000  0.00000000  0.00000000  1
  P  P2  1  0.69017400  0.02662900  0.34687100  1
  P  P3  1  0.30982600  0.52662900  0.15312900  1
  P  P4  1  0.30982600  0.97337100  0.65312900  1
  P  P5  1  0.69017400  0.47337100  0.84687100  1
  Au  Au6  1  0.00000000  0.00000000  0.50000000  1
  Au  Au7  1  0.00000000  0.50000000  0.00000000  1
  F  F8  1  0.16437700  0.42108600  0.73345900  1
  F  F9  1  0.83562300  0.92108600  0.76654100  1
  F  F10  1  0.83562300  0.57891400  0.26654100  1
  F  F11  1  0.16437700  0.07891400  0.23345900  1
  F  F12  1  0.14006700  0.41045300  0.40529900  1
  F  F13  1  0.85993300  0.91045300  0.09470100  1
  F  F14  1  0.85993300  0.58954700  0.59470100  1
  F  F15  1  0.14006700  0.08954700  0.90529900  1
  F  F16  1  0.14813900  0.67355400  0.55970600  1
  F  F17  1  0.85186100  0.17355400  0.94029400  1
  F  F18  1  0.85186100  0.32644600  0.44029400  1
  F  F19  1  0.14813900  0.82644600  0.05970600  1
  F  F20  1  0.60211800  0.11444700  0.43882000  1
  F  F21  1  0.39788200  0.61444700  0.06118000  1
  F  F22  1  0.39788200  0.88555300  0.56118000  1
  F  F23  1  0.60211800  0.38555300  0.93882000  1
  F  F24  1  0.60520800  0.10195000  0.15972800  1
  F  F25  1  0.39479200  0.60195000  0.34027200  1
  F  F26  1  0.39479200  0.89805000  0.84027200  1
  F  F27  1  0.60520800  0.39805000  0.65972800  1
  F  F28  1  0.58098500  0.88115600  0.29896700  1
  F  F29  1  0.41901500  0.38115600  0.20103300  1
  F  F30  1  0.41901500  0.11884400  0.70103300  1
  F  F31  1  0.58098500  0.61884400  0.79896700  1
