# generated using pymatgen
data_CaVSi4H8O15
_symmetry_space_group_name_H-M   'P 1'
_cell_length_a   9.76893000
_cell_length_b   9.84425000
_cell_length_c   14.00559500
_cell_angle_alpha   90.00000000
_cell_angle_beta   90.00000000
_cell_angle_gamma   90.00000000
_symmetry_Int_Tables_number   1
_chemical_formula_structural   CaVSi4H8O15
_chemical_formula_sum   'Ca4 V4 Si16 H32 O60'
_cell_volume   1346.88710692
_cell_formula_units_Z   4
loop_
 _symmetry_equiv_pos_site_id
 _symmetry_equiv_pos_as_xyz
  1  'x, y, z'
loop_
 _atom_site_type_symbol
 _atom_site_label
 _atom_site_symmetry_multiplicity
 _atom_site_fract_x
 _atom_site_fract_y
 _atom_site_fract_z
 _atom_site_occupancy
  Ca  Ca0  1  0.88203100  0.41632600  0.75000000  1
  Ca  Ca1  1  0.38203100  0.08367400  0.75000000  1
  Ca  Ca2  1  0.11796900  0.58367400  0.25000000  1
  Ca  Ca3  1  0.61796900  0.91632600  0.25000000  1
  V  V4  1  0.02523600  0.09507400  0.75000000  1
  V  V5  1  0.52523600  0.40492600  0.75000000  1
  V  V6  1  0.97476400  0.90492600  0.25000000  1
  V  V7  1  0.47476400  0.59507400  0.25000000  1
  Si  Si8  1  0.68313000  0.40427200  0.96396400  1
  Si  Si9  1  0.18313000  0.09572800  0.53603600  1
  Si  Si10  1  0.31687000  0.59572800  0.46396400  1
  Si  Si11  1  0.81687000  0.90427200  0.03603600  1
  Si  Si12  1  0.31687000  0.59572800  0.03603600  1
  Si  Si13  1  0.81687000  0.90427200  0.46396400  1
  Si  Si14  1  0.68313000  0.40427200  0.53603600  1
  Si  Si15  1  0.18313000  0.09572800  0.96396400  1
  Si  Si16  1  0.89378600  0.18384700  0.95552300  1
  Si  Si17  1  0.39378600  0.31615300  0.54447700  1
  Si  Si18  1  0.10621400  0.81615300  0.45552300  1
  Si  Si19  1  0.60621400  0.68384700  0.04447700  1
  Si  Si20  1  0.10621400  0.81615300  0.04447700  1
  Si  Si21  1  0.60621400  0.68384700  0.45552300  1
  Si  Si22  1  0.89378600  0.18384700  0.54447700  1
  Si  Si23  1  0.39378600  0.31615300  0.95552300  1
  H  H24  1  0.91492300  0.63078100  0.88718300  1
  H  H25  1  0.41492300  0.86921900  0.61281700  1
  H  H26  1  0.08507700  0.36921900  0.38718300  1
  H  H27  1  0.58507700  0.13078100  0.11281700  1
  H  H28  1  0.08507700  0.36921900  0.11281700  1
  H  H29  1  0.58507700  0.13078100  0.38718300  1
  H  H30  1  0.91492300  0.63078100  0.61281700  1
  H  H31  1  0.41492300  0.86921900  0.88718300  1
  H  H32  1  0.05557300  0.56943500  0.91452900  1
  H  H33  1  0.55557300  0.93056500  0.58547100  1
  H  H34  1  0.94442700  0.43056500  0.41452900  1
  H  H35  1  0.44442700  0.06943500  0.08547100  1
  H  H36  1  0.94442700  0.43056500  0.08547100  1
  H  H37  1  0.44442700  0.06943500  0.41452900  1
  H  H38  1  0.05557300  0.56943500  0.58547100  1
  H  H39  1  0.55557300  0.93056500  0.91452900  1
  H  H40  1  0.19662900  0.36924300  0.69586400  1
  H  H41  1  0.69662900  0.13075700  0.80413600  1
  H  H42  1  0.80337100  0.63075700  0.19586400  1
  H  H43  1  0.30337100  0.86924300  0.30413600  1
  H  H44  1  0.80337100  0.63075700  0.30413600  1
  H  H45  1  0.30337100  0.86924300  0.19586400  1
  H  H46  1  0.19662900  0.36924300  0.80413600  1
  H  H47  1  0.69662900  0.13075700  0.69586400  1
  H  H48  1  0.82791900  0.77905900  0.75000000  1
  H  H49  1  0.32791900  0.72094100  0.75000000  1
  H  H50  1  0.17208100  0.22094100  0.25000000  1
  H  H51  1  0.67208100  0.27905900  0.25000000  1
  H  H52  1  0.68935600  0.69651100  0.75000000  1
  H  H53  1  0.18935600  0.80348900  0.75000000  1
  H  H54  1  0.31064400  0.30348900  0.25000000  1
  H  H55  1  0.81064400  0.19651100  0.25000000  1
  O  O56  1  0.67823900  0.41311900  0.84853400  1
  O  O57  1  0.17823900  0.08688100  0.65146600  1
  O  O58  1  0.32176100  0.58688100  0.34853400  1
  O  O59  1  0.82176100  0.91311900  0.15146600  1
  O  O60  1  0.32176100  0.58688100  0.15146600  1
  O  O61  1  0.82176100  0.91311900  0.34853400  1
  O  O62  1  0.67823900  0.41311900  0.65146600  1
  O  O63  1  0.17823900  0.08688100  0.84853400  1
  O  O64  1  0.90912000  0.20290100  0.84156000  1
  O  O65  1  0.40912000  0.29709900  0.65844000  1
  O  O66  1  0.09088000  0.79709900  0.34156000  1
  O  O67  1  0.59088000  0.70290100  0.15844000  1
  O  O68  1  0.09088000  0.79709900  0.15844000  1
  O  O69  1  0.59088000  0.70290100  0.34156000  1
  O  O70  1  0.90912000  0.20290100  0.65844000  1
  O  O71  1  0.40912000  0.29709900  0.84156000  1
  O  O72  1  0.79921500  0.05102100  0.98179800  1
  O  O73  1  0.29921500  0.44897900  0.51820200  1
  O  O74  1  0.20078500  0.94897900  0.48179800  1
  O  O75  1  0.70078500  0.55102100  0.01820200  1
  O  O76  1  0.20078500  0.94897900  0.01820200  1
  O  O77  1  0.70078500  0.55102100  0.48179800  1
  O  O78  1  0.79921500  0.05102100  0.51820200  1
  O  O79  1  0.29921500  0.44897900  0.98179800  1
  O  O80  1  0.54453800  0.32910400  0.00656000  1
  O  O81  1  0.04453800  0.17089600  0.49344000  1
  O  O82  1  0.45546200  0.67089600  0.50656000  1
  O  O83  1  0.95546200  0.82910400  0.99344000  1
  O  O84  1  0.45546200  0.67089600  0.99344000  1
  O  O85  1  0.95546200  0.82910400  0.50656000  1
  O  O86  1  0.54453800  0.32910400  0.49344000  1
  O  O87  1  0.04453800  0.17089600  0.00656000  1
  O  O88  1  0.81643500  0.31680000  0.00215400  1
  O  O89  1  0.31643500  0.18320000  0.49784600  1
  O  O90  1  0.18356500  0.68320000  0.50215400  1
  O  O91  1  0.68356500  0.81680000  0.99784600  1
  O  O92  1  0.18356500  0.68320000  0.99784600  1
  O  O93  1  0.68356500  0.81680000  0.50215400  1
  O  O94  1  0.81643500  0.31680000  0.49784600  1
  O  O95  1  0.31643500  0.18320000  0.00215400  1
  O  O96  1  0.95790200  0.94163800  0.75000000  1
  O  O97  1  0.45790200  0.55836200  0.75000000  1
  O  O98  1  0.04209800  0.05836200  0.25000000  1
  O  O99  1  0.54209800  0.44163800  0.25000000  1
  O  O100  1  0.97190900  0.55033900  0.87878100  1
  O  O101  1  0.47190900  0.94966100  0.62121900  1
  O  O102  1  0.02809100  0.44966100  0.37878100  1
  O  O103  1  0.52809100  0.05033900  0.12121900  1
  O  O104  1  0.02809100  0.44966100  0.12121900  1
  O  O105  1  0.52809100  0.05033900  0.37878100  1
  O  O106  1  0.97190900  0.55033900  0.62121900  1
  O  O107  1  0.47190900  0.94966100  0.87878100  1
  O  O108  1  0.13385000  0.36456400  0.75000000  1
  O  O109  1  0.63385000  0.13543600  0.75000000  1
  O  O110  1  0.86615000  0.63543600  0.25000000  1
  O  O111  1  0.36615000  0.86456400  0.25000000  1
  O  O112  1  0.78845900  0.68701900  0.75000000  1
  O  O113  1  0.28845900  0.81298100  0.75000000  1
  O  O114  1  0.21154100  0.31298100  0.25000000  1
  O  O115  1  0.71154100  0.18701900  0.25000000  1
