# generated using pymatgen
data_Rb2CrCl5O
_symmetry_space_group_name_H-M   'P 1'
_cell_length_a   7.13877300
_cell_length_b   10.19424400
_cell_length_c   14.15213200
_cell_angle_alpha   90.00000000
_cell_angle_beta   90.00000000
_cell_angle_gamma   90.00000000
_symmetry_Int_Tables_number   1
_chemical_formula_structural   Rb2CrCl5O
_chemical_formula_sum   'Rb8 Cr4 Cl20 O4'
_cell_volume   1029.91282760
_cell_formula_units_Z   4
loop_
 _symmetry_equiv_pos_site_id
 _symmetry_equiv_pos_as_xyz
  1  'x, y, z'
loop_
 _atom_site_type_symbol
 _atom_site_label
 _atom_site_symmetry_multiplicity
 _atom_site_fract_x
 _atom_site_fract_y
 _atom_site_fract_z
 _atom_site_occupancy
  Rb  Rb0  1  0.69613700  0.99854500  0.14146500  1
  Rb  Rb1  1  0.80386300  0.50145500  0.64146500  1
  Rb  Rb2  1  0.30386300  0.49854500  0.85853500  1
  Rb  Rb3  1  0.19613700  0.00145500  0.35853500  1
  Rb  Rb4  1  0.30386300  0.00145500  0.85853500  1
  Rb  Rb5  1  0.19613700  0.49854500  0.35853500  1
  Rb  Rb6  1  0.69613700  0.50145500  0.14146500  1
  Rb  Rb7  1  0.80386300  0.99854500  0.64146500  1
  Cr  Cr8  1  0.69059400  0.75000000  0.39875100  1
  Cr  Cr9  1  0.80940600  0.75000000  0.89875100  1
  Cr  Cr10  1  0.30940600  0.25000000  0.60124900  1
  Cr  Cr11  1  0.19059400  0.25000000  0.10124900  1
  Cl  Cl12  1  0.95368700  0.75000000  0.49733700  1
  Cl  Cl13  1  0.54631300  0.75000000  0.99733700  1
  Cl  Cl14  1  0.04631300  0.25000000  0.50266300  1
  Cl  Cl15  1  0.45368700  0.25000000  0.00266300  1
  Cl  Cl16  1  0.92420400  0.75000000  0.26695700  1
  Cl  Cl17  1  0.57579600  0.75000000  0.76695700  1
  Cl  Cl18  1  0.07579600  0.25000000  0.73304300  1
  Cl  Cl19  1  0.42420400  0.25000000  0.23304300  1
  Cl  Cl20  1  0.46981000  0.75000000  0.27541700  1
  Cl  Cl21  1  0.03019000  0.75000000  0.77541700  1
  Cl  Cl22  1  0.53019000  0.25000000  0.72458300  1
  Cl  Cl23  1  0.96981000  0.25000000  0.22458300  1
  Cl  Cl24  1  0.70650000  0.97961500  0.39032700  1
  Cl  Cl25  1  0.79350000  0.52038500  0.89032800  1
  Cl  Cl26  1  0.29350000  0.47961500  0.60967200  1
  Cl  Cl27  1  0.20650000  0.02038500  0.10967300  1
  Cl  Cl28  1  0.29350000  0.02038500  0.60967200  1
  Cl  Cl29  1  0.20650000  0.47961500  0.10967300  1
  Cl  Cl30  1  0.70650000  0.52038500  0.39032700  1
  Cl  Cl31  1  0.79350000  0.97961500  0.89032800  1
  O  O32  1  0.53624300  0.75000000  0.48113300  1
  O  O33  1  0.96375700  0.75000000  0.98113300  1
  O  O34  1  0.46375700  0.25000000  0.51886700  1
  O  O35  1  0.03624300  0.25000000  0.01886700  1
