# generated using pymatgen
data_Pr6Fe13Hg
_symmetry_space_group_name_H-M   'P 1'
_cell_length_a   8.07079800
_cell_length_b   8.07079800
_cell_length_c   12.97117973
_cell_angle_alpha   108.12583615
_cell_angle_beta   108.12583615
_cell_angle_gamma   90.00000000
_symmetry_Int_Tables_number   1
_chemical_formula_structural   Pr6Fe13Hg
_chemical_formula_sum   'Pr12 Fe26 Hg2'
_cell_volume   758.74362528
_cell_formula_units_Z   2
loop_
 _symmetry_equiv_pos_site_id
 _symmetry_equiv_pos_as_xyz
  1  'x, y, z'
loop_
 _atom_site_type_symbol
 _atom_site_label
 _atom_site_symmetry_multiplicity
 _atom_site_fract_x
 _atom_site_fract_y
 _atom_site_fract_z
 _atom_site_occupancy
  Pr  Pr0  1  0.97673700  0.47673700  0.62815600  1
  Pr  Pr1  1  0.65141900  0.15141900  0.62815600  1
  Pr  Pr2  1  0.15141900  0.97673700  0.62815600  1
  Pr  Pr3  1  0.47673700  0.65141900  0.62815600  1
  Pr  Pr4  1  0.02326300  0.52326300  0.37184400  1
  Pr  Pr5  1  0.34858100  0.84858100  0.37184400  1
  Pr  Pr6  1  0.84858100  0.02326300  0.37184400  1
  Pr  Pr7  1  0.52326300  0.34858100  0.37184400  1
  Pr  Pr8  1  0.60548000  0.60548000  0.21096100  1
  Pr  Pr9  1  0.10548000  0.10548000  0.21096100  1
  Pr  Pr10  1  0.39452000  0.39452000  0.78903900  1
  Pr  Pr11  1  0.89452000  0.89452000  0.78903900  1
  Fe  Fe12  1  0.11973300  0.61973300  0.88272900  1
  Fe  Fe13  1  0.76299600  0.26299600  0.88272900  1
  Fe  Fe14  1  0.26299600  0.11973300  0.88272900  1
  Fe  Fe15  1  0.61973300  0.76299600  0.88272900  1
  Fe  Fe16  1  0.88026700  0.38026700  0.11727100  1
  Fe  Fe17  1  0.23700400  0.73700400  0.11727100  1
  Fe  Fe18  1  0.73700400  0.88026700  0.11727100  1
  Fe  Fe19  1  0.38026700  0.23700400  0.11727100  1
  Fe  Fe20  1  0.71087900  0.56655700  0.00000000  1
  Fe  Fe21  1  0.28912100  0.43344300  0.00000000  1
  Fe  Fe22  1  0.78912100  0.06655700  0.00000000  1
  Fe  Fe23  1  0.21087900  0.93344300  0.00000000  1
  Fe  Fe24  1  0.56655700  0.28912100  0.00000000  1
  Fe  Fe25  1  0.43344300  0.71087900  0.00000000  1
  Fe  Fe26  1  0.06655700  0.21087900  0.00000000  1
  Fe  Fe27  1  0.93344300  0.78912100  0.00000000  1
  Fe  Fe28  1  0.29277700  0.79277700  0.81198500  1
  Fe  Fe29  1  0.51920700  0.01920700  0.81198500  1
  Fe  Fe30  1  0.01920700  0.29277700  0.81198500  1
  Fe  Fe31  1  0.79277700  0.51920700  0.81198500  1
  Fe  Fe32  1  0.70722300  0.20722300  0.18801500  1
  Fe  Fe33  1  0.48079300  0.98079300  0.18801500  1
  Fe  Fe34  1  0.98079300  0.70722300  0.18801500  1
  Fe  Fe35  1  0.20722300  0.48079300  0.18801500  1
  Fe  Fe36  1  0.00000000  0.50000000  0.00000000  1
  Fe  Fe37  1  0.50000000  0.00000000  0.00000000  1
  Hg  Hg38  1  0.25000000  0.25000000  0.50000000  1
  Hg  Hg39  1  0.75000000  0.75000000  0.50000000  1
