# generated using pymatgen
data_KTbP2H4O9
_symmetry_space_group_name_H-M   'P 1'
_cell_length_a   10.83220100
_cell_length_b   7.71400900
_cell_length_c   10.34691724
_cell_angle_alpha   87.99268719
_cell_angle_beta   90.00000000
_cell_angle_gamma   90.00000000
_symmetry_Int_Tables_number   1
_chemical_formula_structural   KTbP2H4O9
_chemical_formula_sum   'K4 Tb4 P8 H16 O36'
_cell_volume   864.05471859
_cell_formula_units_Z   4
loop_
 _symmetry_equiv_pos_site_id
 _symmetry_equiv_pos_as_xyz
  1  'x, y, z'
loop_
 _atom_site_type_symbol
 _atom_site_label
 _atom_site_symmetry_multiplicity
 _atom_site_fract_x
 _atom_site_fract_y
 _atom_site_fract_z
 _atom_site_occupancy
  K  K0  1  0.29139200  0.74056800  0.13557300  1
  K  K1  1  0.79139200  0.25943200  0.36442700  1
  K  K2  1  0.70860800  0.25943200  0.86442700  1
  K  K3  1  0.20860800  0.74056800  0.63557300  1
  Tb  Tb4  1  0.37573700  0.24911500  0.16568100  1
  Tb  Tb5  1  0.87573700  0.75088500  0.33431900  1
  Tb  Tb6  1  0.62426300  0.75088500  0.83431900  1
  Tb  Tb7  1  0.12426300  0.24911500  0.66568100  1
  P  P8  1  0.10607100  0.40062700  0.33700100  1
  P  P9  1  0.60607100  0.59937300  0.16299900  1
  P  P10  1  0.89392900  0.59937300  0.66299900  1
  P  P11  1  0.39392900  0.40062700  0.83700100  1
  P  P12  1  0.14686300  0.03233800  0.36766000  1
  P  P13  1  0.64686300  0.96766200  0.13234000  1
  P  P14  1  0.85313700  0.96766200  0.63234000  1
  P  P15  1  0.35313700  0.03233800  0.86766000  1
  H  H16  1  0.17768500  0.55869200  0.89554100  1
  H  H17  1  0.67768500  0.44130800  0.60445900  1
  H  H18  1  0.82231500  0.44130800  0.10445900  1
  H  H19  1  0.32231500  0.55869200  0.39554100  1
  H  H20  1  0.08034700  0.70699900  0.88526900  1
  H  H21  1  0.58034700  0.29300100  0.61473100  1
  H  H22  1  0.91965300  0.29300100  0.11473100  1
  H  H23  1  0.41965300  0.70699900  0.38526900  1
  H  H24  1  0.44321100  0.33014300  0.44389000  1
  H  H25  1  0.94321100  0.66985700  0.05611000  1
  H  H26  1  0.55678900  0.66985700  0.55611000  1
  H  H27  1  0.05678900  0.33014300  0.94389000  1
  H  H28  1  0.52938700  0.18338500  0.40709600  1
  H  H29  1  0.02938700  0.81661500  0.09290400  1
  H  H30  1  0.47061300  0.81661500  0.59290400  1
  H  H31  1  0.97061300  0.18338500  0.90709600  1
  O  O32  1  0.14132600  0.42194100  0.47847900  1
  O  O33  1  0.64132600  0.57805900  0.02152100  1
  O  O34  1  0.85867400  0.57805900  0.52152100  1
  O  O35  1  0.35867400  0.42194100  0.97847900  1
  O  O36  1  0.99386900  0.50383900  0.29012500  1
  O  O37  1  0.49386900  0.49616100  0.20987500  1
  O  O38  1  0.00613100  0.49616100  0.70987500  1
  O  O39  1  0.50613100  0.50383900  0.79012500  1
  O  O40  1  0.22033100  0.42362200  0.24891600  1
  O  O41  1  0.72033100  0.57637800  0.25108400  1
  O  O42  1  0.77966900  0.57637800  0.75108400  1
  O  O43  1  0.27966900  0.42362200  0.74891600  1
  O  O44  1  0.05805400  0.19891800  0.32368800  1
  O  O45  1  0.55805400  0.80108200  0.17631200  1
  O  O46  1  0.94194600  0.80108200  0.67631200  1
  O  O47  1  0.44194600  0.19891800  0.82368800  1
  O  O48  1  0.17944300  0.05523400  0.50963600  1
  O  O49  1  0.67944300  0.94476600  0.99036400  1
  O  O50  1  0.82055700  0.94476600  0.49036400  1
  O  O51  1  0.32055700  0.05523400  0.00963600  1
  O  O52  1  0.06555500  0.87331600  0.34772400  1
  O  O53  1  0.56555500  0.12668400  0.15227600  1
  O  O54  1  0.93444500  0.12668400  0.65227600  1
  O  O55  1  0.43444500  0.87331600  0.84772400  1
  O  O56  1  0.25688600  0.03812500  0.27521100  1
  O  O57  1  0.75688600  0.96187500  0.22478900  1
  O  O58  1  0.74311400  0.96187500  0.72478900  1
  O  O59  1  0.24311400  0.03812500  0.77521100  1
  O  O60  1  0.13091600  0.64113800  0.94737800  1
  O  O61  1  0.63091600  0.35886200  0.55262200  1
  O  O62  1  0.86908400  0.35886200  0.05262200  1
  O  O63  1  0.36908400  0.64113800  0.44737800  1
  O  O64  1  0.44330900  0.21851800  0.40197700  1
  O  O65  1  0.94330900  0.78148200  0.09802300  1
  O  O66  1  0.55669100  0.78148200  0.59802300  1
  O  O67  1  0.05669100  0.21851800  0.90197700  1
