# generated using pymatgen
data_K2Al2Si2O9
_symmetry_space_group_name_H-M   'P 1'
_cell_length_a   9.56199800
_cell_length_b   9.66356100
_cell_length_c   10.00927000
_cell_angle_alpha   90.00000000
_cell_angle_beta   90.00000000
_cell_angle_gamma   90.00000000
_symmetry_Int_Tables_number   1
_chemical_formula_structural   K2Al2Si2O9
_chemical_formula_sum   'K8 Al8 Si8 O36'
_cell_volume   924.88608490
_cell_formula_units_Z   4
loop_
 _symmetry_equiv_pos_site_id
 _symmetry_equiv_pos_as_xyz
  1  'x, y, z'
loop_
 _atom_site_type_symbol
 _atom_site_label
 _atom_site_symmetry_multiplicity
 _atom_site_fract_x
 _atom_site_fract_y
 _atom_site_fract_z
 _atom_site_occupancy
  K  K0  1  0.69852400  0.74198300  0.13613300  1
  K  K1  1  0.80147600  0.25801700  0.63613300  1
  K  K2  1  0.19852400  0.75801700  0.86386700  1
  K  K3  1  0.30147600  0.24198300  0.36386700  1
  K  K4  1  0.97627000  0.95439000  0.37016800  1
  K  K5  1  0.52373000  0.04561000  0.87016800  1
  K  K6  1  0.47627000  0.54561000  0.62983200  1
  K  K7  1  0.02373000  0.45439000  0.12983200  1
  Al  Al8  1  0.38014600  0.89685600  0.19711400  1
  Al  Al9  1  0.11985400  0.10314400  0.69711400  1
  Al  Al10  1  0.88014600  0.60314400  0.80288600  1
  Al  Al11  1  0.61985400  0.39685600  0.30288600  1
  Al  Al12  1  0.12995000  0.63030600  0.47056500  1
  Al  Al13  1  0.37005000  0.36969400  0.97056500  1
  Al  Al14  1  0.62995000  0.86969400  0.52943500  1
  Al  Al15  1  0.87005000  0.13030600  0.02943500  1
  Si  Si16  1  0.64797900  0.07078200  0.26862200  1
  Si  Si17  1  0.85202100  0.92921800  0.76862200  1
  Si  Si18  1  0.14797900  0.42921800  0.73137800  1
  Si  Si19  1  0.35202100  0.57078200  0.23137800  1
  Si  Si20  1  0.29909100  0.91493200  0.50202700  1
  Si  Si21  1  0.20090900  0.08506800  0.00202700  1
  Si  Si22  1  0.79909100  0.58506800  0.49797300  1
  Si  Si23  1  0.70090900  0.41493200  0.99797300  1
  O  O24  1  0.68198200  0.70441700  0.47249500  1
  O  O25  1  0.81801800  0.29558300  0.97249500  1
  O  O26  1  0.18198200  0.79558300  0.52750500  1
  O  O27  1  0.31801800  0.20441700  0.02750500  1
  O  O28  1  0.44921100  0.86806700  0.56182600  1
  O  O29  1  0.05078900  0.13193300  0.06182600  1
  O  O30  1  0.94921100  0.63193300  0.43817400  1
  O  O31  1  0.55078900  0.36806700  0.93817400  1
  O  O32  1  0.70424300  0.91267400  0.68606400  1
  O  O33  1  0.79575700  0.08732600  0.18606400  1
  O  O34  1  0.20424300  0.58732600  0.31393600  1
  O  O35  1  0.29575700  0.41267400  0.81393600  1
  O  O36  1  0.75899100  0.56110200  0.93010000  1
  O  O37  1  0.74100900  0.43889800  0.43010000  1
  O  O38  1  0.25899100  0.93889800  0.06990000  1
  O  O39  1  0.24100900  0.06110200  0.56990000  1
  O  O40  1  0.30351900  0.95653500  0.34386700  1
  O  O41  1  0.19648100  0.04346500  0.84386700  1
  O  O42  1  0.80351900  0.54346500  0.65613300  1
  O  O43  1  0.69648100  0.45653500  0.15613300  1
  O  O44  1  0.45771800  0.48045600  0.32756500  1
  O  O45  1  0.04228200  0.51954400  0.82756500  1
  O  O46  1  0.95771800  0.01954400  0.67243500  1
  O  O47  1  0.54228200  0.98045600  0.17243500  1
  O  O48  1  0.41970500  0.72046900  0.19312600  1
  O  O49  1  0.08029500  0.27953100  0.69312600  1
  O  O50  1  0.91970500  0.77953100  0.80687400  1
  O  O51  1  0.58029500  0.22046900  0.30687400  1
  O  O52  1  0.31423400  0.48688500  0.09385800  1
  O  O53  1  0.18576600  0.51311500  0.59385800  1
  O  O54  1  0.81423400  0.01311500  0.90614200  1
  O  O55  1  0.68576600  0.98688500  0.40614200  1
  O  O56  1  0.05971500  0.77871100  0.13348900  1
  O  O57  1  0.44028500  0.22128900  0.63348900  1
  O  O58  1  0.55971500  0.72128900  0.86651100  1
  O  O59  1  0.94028500  0.27871100  0.36651100  1
