# generated using pymatgen
data_FeH10N3O14
_symmetry_space_group_name_H-M   'P 1'
_cell_length_a   6.91371300
_cell_length_b   7.23625504
_cell_length_c   12.02746534
_cell_angle_alpha   87.71084653
_cell_angle_beta   79.97212878
_cell_angle_gamma   69.97134878
_symmetry_Int_Tables_number   1
_chemical_formula_structural   FeH10N3O14
_chemical_formula_sum   'Fe2 H20 N6 O28'
_cell_volume   556.57253478
_cell_formula_units_Z   2
loop_
 _symmetry_equiv_pos_site_id
 _symmetry_equiv_pos_as_xyz
  1  'x, y, z'
loop_
 _atom_site_type_symbol
 _atom_site_label
 _atom_site_symmetry_multiplicity
 _atom_site_fract_x
 _atom_site_fract_y
 _atom_site_fract_z
 _atom_site_occupancy
  Fe  Fe0  1  0.71829800  0.27374700  0.74838300  1
  Fe  Fe1  1  0.28170200  0.72625300  0.25161700  1
  H  H2  1  0.05959400  0.37519800  0.66166800  1
  H  H3  1  0.94040600  0.62480200  0.33833200  1
  H  H4  1  0.91586600  0.52461000  0.77010600  1
  H  H5  1  0.08413400  0.47539000  0.22989400  1
  H  H6  1  0.75608800  0.10082500  0.95281100  1
  H  H7  1  0.24391200  0.89917500  0.04718900  1
  H  H8  1  0.76897600  0.32440700  0.95654700  1
  H  H9  1  0.23102400  0.67559300  0.04345300  1
  H  H10  1  0.05089300  0.94521800  0.74842600  1
  H  H11  1  0.94910700  0.05478200  0.25157400  1
  H  H12  1  0.93307700  0.93114500  0.64356800  1
  H  H13  1  0.06692300  0.06885500  0.35643200  1
  H  H14  1  0.41021000  0.14135600  0.85210300  1
  H  H15  1  0.58979000  0.85864400  0.14789700  1
  H  H16  1  0.52411500  0.02789200  0.72822000  1
  H  H17  1  0.47588500  0.97210800  0.27178000  1
  H  H18  1  0.53013100  0.31058800  0.56223400  1
  H  H19  1  0.46986900  0.68941200  0.43776600  1
  H  H20  1  0.76706000  0.31959800  0.52267800  1
  H  H21  1  0.23294000  0.68040200  0.47732200  1
  N  N22  1  0.35253700  0.65198100  0.77279900  1
  N  N23  1  0.64746300  0.34801900  0.22720100  1
  N  N24  1  0.78033400  0.71114700  0.96180100  1
  N  N25  1  0.21966600  0.28885300  0.03819900  1
  N  N26  1  0.73604300  0.78334400  0.53714800  1
  N  N27  1  0.26395700  0.21665600  0.46285200  1
  O  O28  1  0.78038800  0.21203800  0.90832300  1
  O  O29  1  0.21961200  0.78796200  0.09167700  1
  O  O30  1  0.92614600  0.41712800  0.71645900  1
  O  O31  1  0.07385400  0.58287200  0.28354100  1
  O  O32  1  0.95408300  0.02259300  0.69738100  1
  O  O33  1  0.04591700  0.97740700  0.30261900  1
  O  O34  1  0.49799200  0.14530700  0.77583700  1
  O  O35  1  0.50200800  0.85469300  0.22416300  1
  O  O36  1  0.66650900  0.29745600  0.58503500  1
  O  O37  1  0.33349100  0.70254400  0.41496500  1
  O  O38  1  0.52031900  0.54092800  0.81063200  1
  O  O39  1  0.47968100  0.45907200  0.18936800  1
  O  O40  1  0.29039100  0.59132400  0.69578300  1
  O  O41  1  0.70960900  0.40867600  0.30421700  1
  O  O42  1  0.26222900  0.81871900  0.81928500  1
  O  O43  1  0.73777100  0.18128100  0.18071500  1
  O  O44  1  0.72195500  0.68869700  0.45309100  1
  O  O45  1  0.27804500  0.31130300  0.54690900  1
  O  O46  1  0.91344000  0.79280300  0.54515000  1
  O  O47  1  0.08656000  0.20719700  0.45485000  1
  O  O48  1  0.57663300  0.86320700  0.60921100  1
  O  O49  1  0.42336700  0.13679300  0.39078900  1
  O  O50  1  0.75839500  0.55979600  0.00879100  1
  O  O51  1  0.24160500  0.44020400  0.99120900  1
  O  O52  1  0.85989100  0.71255100  0.85912700  1
  O  O53  1  0.14010900  0.28744900  0.14087300  1
  O  O54  1  0.72019300  0.87220300  0.02034100  1
  O  O55  1  0.27980700  0.12779700  0.97965900  1
