# generated using pymatgen
data_CsH4NF2
_symmetry_space_group_name_H-M   'P 1'
_cell_length_a   4.20171400
_cell_length_b   7.38824200
_cell_length_c   13.74616000
_cell_angle_alpha   90.00000000
_cell_angle_beta   90.00000000
_cell_angle_gamma   90.00000000
_symmetry_Int_Tables_number   1
_chemical_formula_structural   CsH4NF2
_chemical_formula_sum   'Cs4 H16 N4 F8'
_cell_volume   426.72589170
_cell_formula_units_Z   4
loop_
 _symmetry_equiv_pos_site_id
 _symmetry_equiv_pos_as_xyz
  1  'x, y, z'
loop_
 _atom_site_type_symbol
 _atom_site_label
 _atom_site_symmetry_multiplicity
 _atom_site_fract_x
 _atom_site_fract_y
 _atom_site_fract_z
 _atom_site_occupancy
  Cs  Cs0  1  0.25000000  0.11028000  0.35627100  1
  Cs  Cs1  1  0.25000000  0.61028000  0.14372900  1
  Cs  Cs2  1  0.75000000  0.88972000  0.64372900  1
  Cs  Cs3  1  0.75000000  0.38972000  0.85627100  1
  H  H4  1  0.75000000  0.73306100  0.33282000  1
  H  H5  1  0.75000000  0.23306100  0.16718000  1
  H  H6  1  0.25000000  0.26693900  0.66718000  1
  H  H7  1  0.25000000  0.76693900  0.83282000  1
  H  H8  1  0.95479800  0.66690200  0.43490800  1
  H  H9  1  0.54520200  0.16690200  0.06509200  1
  H  H10  1  0.45479800  0.33309800  0.56509200  1
  H  H11  1  0.04520200  0.83309800  0.93490800  1
  H  H12  1  0.04520200  0.33309800  0.56509200  1
  H  H13  1  0.45479800  0.83309800  0.93490800  1
  H  H14  1  0.54520200  0.66690200  0.43490800  1
  H  H15  1  0.95479800  0.16690200  0.06509200  1
  H  H16  1  0.75000000  0.51204200  0.36182500  1
  H  H17  1  0.75000000  0.01204200  0.13817500  1
  H  H18  1  0.25000000  0.48795800  0.63817500  1
  H  H19  1  0.25000000  0.98795800  0.86182500  1
  N  N20  1  0.75000000  0.64063900  0.39223500  1
  N  N21  1  0.75000000  0.14063900  0.10776500  1
  N  N22  1  0.25000000  0.35936100  0.60776500  1
  N  N23  1  0.25000000  0.85936100  0.89223500  1
  F  F24  1  0.75000000  0.36470500  0.25767600  1
  F  F25  1  0.75000000  0.86470500  0.24232400  1
  F  F26  1  0.25000000  0.63529500  0.74232400  1
  F  F27  1  0.25000000  0.13529500  0.75767600  1
  F  F28  1  0.25000000  0.75526000  0.49480000  1
  F  F29  1  0.25000000  0.25526000  0.00520000  1
  F  F30  1  0.75000000  0.24474000  0.50520000  1
  F  F31  1  0.75000000  0.74474000  0.99480000  1
