# generated using pymatgen
data_Y5Si4
_symmetry_space_group_name_H-M   'P 1'
_cell_length_a   7.67358100
_cell_length_b   7.48039800
_cell_length_c   14.67189632
_cell_angle_alpha   86.65347575
_cell_angle_beta   90.00000000
_cell_angle_gamma   90.00000000
_symmetry_Int_Tables_number   1
_chemical_formula_structural   Y5Si4
_chemical_formula_sum   'Y20 Si16'
_cell_volume   840.75183079
_cell_formula_units_Z   4
loop_
 _symmetry_equiv_pos_site_id
 _symmetry_equiv_pos_as_xyz
  1  'x, y, z'
loop_
 _atom_site_type_symbol
 _atom_site_label
 _atom_site_symmetry_multiplicity
 _atom_site_fract_x
 _atom_site_fract_y
 _atom_site_fract_z
 _atom_site_occupancy
  Y  Y0  1  0.31986300  0.50401600  0.59857300  1
  Y  Y1  1  0.81986300  0.99598400  0.40142700  1
  Y  Y2  1  0.68013700  0.49598400  0.40142700  1
  Y  Y3  1  0.18013700  0.00401600  0.59857300  1
  Y  Y4  1  0.68227700  0.52028100  0.09936400  1
  Y  Y5  1  0.18227700  0.97971900  0.90063600  1
  Y  Y6  1  0.31772300  0.47971900  0.90063600  1
  Y  Y7  1  0.81772300  0.02028100  0.09936400  1
  Y  Y8  1  0.17825300  0.67228900  0.12194400  1
  Y  Y9  1  0.67825300  0.82771100  0.87805600  1
  Y  Y10  1  0.82174700  0.32771100  0.87805600  1
  Y  Y11  1  0.32174700  0.17228900  0.12194400  1
  Y  Y12  1  0.16527400  0.64552300  0.38024300  1
  Y  Y13  1  0.66527400  0.85447700  0.61975700  1
  Y  Y14  1  0.83472600  0.35447700  0.61975700  1
  Y  Y15  1  0.33472600  0.14552300  0.38024300  1
  Y  Y16  1  0.50641400  0.82660300  0.25343500  1
  Y  Y17  1  0.00641400  0.67339700  0.74656500  1
  Y  Y18  1  0.49358600  0.17339700  0.74656500  1
  Y  Y19  1  0.99358600  0.32660300  0.25343500  1
  Si  Si20  1  0.47185100  0.85246800  0.04074500  1
  Si  Si21  1  0.97185100  0.64753200  0.95925500  1
  Si  Si22  1  0.52814900  0.14753200  0.95925500  1
  Si  Si23  1  0.02814900  0.35246800  0.04074500  1
  Si  Si24  1  0.46533600  0.79707500  0.45737900  1
  Si  Si25  1  0.96533600  0.70292500  0.54262100  1
  Si  Si26  1  0.53466400  0.20292500  0.54262100  1
  Si  Si27  1  0.03466400  0.29707500  0.45737900  1
  Si  Si28  1  0.10781900  0.95357800  0.24804800  1
  Si  Si29  1  0.60781900  0.54642200  0.75195200  1
  Si  Si30  1  0.89218100  0.04642200  0.75195200  1
  Si  Si31  1  0.39218100  0.45357800  0.24804800  1
  Si  Si32  1  0.37131600  0.78792800  0.75200200  1
  Si  Si33  1  0.87131600  0.71207200  0.24799800  1
  Si  Si34  1  0.62868400  0.21207200  0.24799800  1
  Si  Si35  1  0.12868400  0.28792800  0.75200200  1
