# generated using pymatgen
data_Ca4MgAs4O27
_symmetry_space_group_name_H-M   'P 1'
_cell_length_a   6.79460647
_cell_length_b   13.96878515
_cell_length_c   11.76756053
_cell_angle_alpha   93.21269841
_cell_angle_beta   94.62583908
_cell_angle_gamma   104.61378015
_symmetry_Int_Tables_number   1
_chemical_formula_structural   Ca4MgAs4O27
_chemical_formula_sum   'Ca8 Mg2 As8 O54'
_cell_volume   1073.84990519
_cell_formula_units_Z   2
loop_
 _symmetry_equiv_pos_site_id
 _symmetry_equiv_pos_as_xyz
  1  'x, y, z'
loop_
 _atom_site_type_symbol
 _atom_site_label
 _atom_site_symmetry_multiplicity
 _atom_site_fract_x
 _atom_site_fract_y
 _atom_site_fract_z
 _atom_site_occupancy
  Ca  Ca0  1  0.09332400  0.34981800  0.63115000  1
  Ca  Ca1  1  0.90667600  0.65018200  0.36885000  1
  Ca  Ca2  1  0.56571200  0.38123500  0.46510400  1
  Ca  Ca3  1  0.43428800  0.61876500  0.53489600  1
  Ca  Ca4  1  0.73518300  0.09014300  0.58705700  1
  Ca  Ca5  1  0.26481700  0.90985700  0.41294300  1
  Ca  Ca6  1  0.24637000  0.02742500  0.72726600  1
  Ca  Ca7  1  0.75363000  0.97257500  0.27273400  1
  Mg  Mg8  1  0.26333200  0.15364000  0.96118200  1
  Mg  Mg9  1  0.73666800  0.84636000  0.03881800  1
  As  As10  1  0.21736400  0.13101600  0.47290700  1
  As  As11  1  0.78263600  0.86898400  0.52709300  1
  As  As12  1  0.05733400  0.40977700  0.37166300  1
  As  As13  1  0.94266600  0.59022300  0.62833700  1
  As  As14  1  0.56495900  0.28650900  0.74784900  1
  As  As15  1  0.43504100  0.71349100  0.25215100  1
  As  As16  1  0.78487600  0.00880900  0.85598700  1
  As  As17  1  0.21512400  0.99119100  0.14401300  1
  O  O18  1  0.38318800  0.22407200  0.41907600  1
  O  O19  1  0.61681200  0.77592800  0.58092400  1
  O  O20  1  0.06880000  0.04134600  0.37301900  1
  O  O21  1  0.93120000  0.95865400  0.62698100  1
  O  O22  1  0.06795000  0.17500700  0.56501200  1
  O  O23  1  0.93205000  0.82499300  0.43498800  1
  O  O24  1  0.36195500  0.06137000  0.54917500  1
  O  O25  1  0.63804500  0.93863000  0.45082500  1
  O  O26  1  0.09306500  0.31789200  0.26710800  1
  O  O27  1  0.90693500  0.68210800  0.73289200  1
  O  O28  1  0.99732400  0.50595700  0.30920300  1
  O  O29  1  0.00267600  0.49404300  0.69079700  1
  O  O30  1  0.27784100  0.44468000  0.46448500  1
  O  O31  1  0.72215900  0.55532000  0.53551500  1
  O  O32  1  0.88392400  0.34887700  0.45858500  1
  O  O33  1  0.11607600  0.65112300  0.54141500  1
  O  O34  1  0.75644000  0.25069600  0.68593400  1
  O  O35  1  0.24356000  0.74930400  0.31406600  1
  O  O36  1  0.44104600  0.34736000  0.65833300  1
  O  O37  1  0.55895400  0.65264000  0.34166700  1
  O  O38  1  0.70189000  0.38657300  0.87442700  1
  O  O39  1  0.29811000  0.61342700  0.12557300  1
  O  O40  1  0.40782900  0.19550100  0.81574300  1
  O  O41  1  0.59217100  0.80449900  0.18425700  1
  O  O42  1  0.70160200  0.05635100  0.99695100  1
  O  O43  1  0.29839800  0.94364900  0.00304900  1
  O  O44  1  0.01608900  0.09187800  0.84700400  1
  O  O45  1  0.98391100  0.90812200  0.15299600  1
  O  O46  1  0.80194800  0.89461100  0.88660900  1
  O  O47  1  0.19805200  0.10538900  0.11339100  1
  O  O48  1  0.61157600  0.02290600  0.75048700  1
  O  O49  1  0.38842400  0.97709400  0.24951300  1
  O  O50  1  0.16139300  0.37110000  0.86099100  1
  O  O51  1  0.83860700  0.62890000  0.13900900  1
  O  O52  1  0.62588800  0.44094500  0.28046400  1
  O  O53  1  0.37411200  0.55905500  0.71953600  1
  O  O54  1  0.69930400  0.15817500  0.35484700  1
  O  O55  1  0.30069600  0.84182500  0.64515300  1
  O  O56  1  0.27675400  0.84132200  0.74847300  1
  O  O57  1  0.72324600  0.15867800  0.25152700  1
  O  O58  1  0.00200400  0.26944700  0.06326500  1
  O  O59  1  0.99799600  0.73055300  0.93673500  1
  O  O60  1  0.45836700  0.28970700  0.05063700  1
  O  O61  1  0.54163300  0.71029300  0.94936300  1
  O  O62  1  0.34106500  0.01836000  0.93052600  1
  O  O63  1  0.65893500  0.98164000  0.06947400  1
  O  O64  1  0.46659400  0.71170300  0.84861300  1
  O  O65  1  0.53340600  0.28829700  0.15138700  1
  O  O66  1  0.97411400  0.65646300  0.87027700  1
  O  O67  1  0.02588600  0.34353700  0.12972300  1
  O  O68  1  0.68115300  0.47538700  0.85761700  1
  O  O69  1  0.31884700  0.52461300  0.14238300  1
  O  O70  1  0.24421400  0.45659800  0.90314000  1
  O  O71  1  0.75578600  0.54340200  0.09686000  1
