# generated using pymatgen
data_SnC8(NCl3)2
_symmetry_space_group_name_H-M   'P 1'
_cell_length_a   16.22613346
_cell_length_b   16.22613346
_cell_length_c   16.22613346
_cell_angle_alpha   60.00000000
_cell_angle_beta   60.00000000
_cell_angle_gamma   60.00000000
_symmetry_Int_Tables_number   1
_chemical_formula_structural   SnC8(NCl3)2
_chemical_formula_sum   'Sn8 C64 N16 Cl48'
_cell_volume   3020.85676219
_cell_formula_units_Z   8
loop_
 _symmetry_equiv_pos_site_id
 _symmetry_equiv_pos_as_xyz
  1  'x, y, z'
loop_
 _atom_site_type_symbol
 _atom_site_label
 _atom_site_symmetry_multiplicity
 _atom_site_fract_x
 _atom_site_fract_y
 _atom_site_fract_z
 _atom_site_occupancy
  Sn  Sn0  1  0.87500000  0.37500000  0.37500000  1
  Sn  Sn1  1  0.37500000  0.87500000  0.37500000  1
  Sn  Sn2  1  0.37500000  0.37500000  0.87500000  1
  Sn  Sn3  1  0.37500000  0.37500000  0.37500000  1
  Sn  Sn4  1  0.37500000  0.87500000  0.87500000  1
  Sn  Sn5  1  0.87500000  0.87500000  0.37500000  1
  Sn  Sn6  1  0.87500000  0.37500000  0.87500000  1
  Sn  Sn7  1  0.87500000  0.87500000  0.87500000  1
  C  C8  1  0.35902800  0.21365700  0.21365700  1
  C  C9  1  0.21365700  0.35902800  0.21365700  1
  C  C10  1  0.21365700  0.21365700  0.35902800  1
  C  C11  1  0.21365700  0.21365700  0.21365700  1
  C  C12  1  0.39097200  0.53634300  0.53634300  1
  C  C13  1  0.53634300  0.39097200  0.53634300  1
  C  C14  1  0.53634300  0.53634300  0.39097200  1
  C  C15  1  0.53634300  0.53634300  0.53634300  1
  C  C16  1  0.85902800  0.71365700  0.71365700  1
  C  C17  1  0.71365700  0.71365700  0.85902800  1
  C  C18  1  0.71365700  0.85902800  0.71365700  1
  C  C19  1  0.71365700  0.71365700  0.71365700  1
  C  C20  1  0.89097200  0.03634300  0.03634300  1
  C  C21  1  0.03634300  0.03634300  0.89097200  1
  C  C22  1  0.03634300  0.89097200  0.03634300  1
  C  C23  1  0.03634300  0.03634300  0.03634300  1
  C  C24  1  0.54612200  0.91806000  0.07200600  1
  C  C25  1  0.91806000  0.54612200  0.46381200  1
  C  C26  1  0.07200600  0.46381200  0.54612200  1
  C  C27  1  0.46381200  0.07200600  0.91806000  1
  C  C28  1  0.91806000  0.07200600  0.54612200  1
  C  C29  1  0.54612200  0.46381200  0.91806000  1
  C  C30  1  0.46381200  0.54612200  0.07200600  1
  C  C31  1  0.07200600  0.91806000  0.46381200  1
  C  C32  1  0.07200600  0.54612200  0.91806000  1
  C  C33  1  0.46381200  0.91806000  0.54612200  1
  C  C34  1  0.54612200  0.07200600  0.46381200  1
  C  C35  1  0.91806000  0.46381200  0.07200600  1
  C  C36  1  0.20387800  0.83194000  0.67799400  1
  C  C37  1  0.83194000  0.20387800  0.28618800  1
  C  C38  1  0.67799400  0.28618800  0.20387800  1
  C  C39  1  0.28618800  0.67799400  0.83194000  1
  C  C40  1  0.83194000  0.67799400  0.20387800  1
  C  C41  1  0.20387800  0.28618800  0.83194000  1
  C  C42  1  0.28618800  0.20387800  0.67799400  1
  C  C43  1  0.67799400  0.83194000  0.28618800  1
  C  C44  1  0.67799400  0.20387800  0.83194000  1
  C  C45  1  0.28618800  0.83194000  0.20387800  1
  C  C46  1  0.20387800  0.67799400  0.28618800  1
  C  C47  1  0.83194000  0.28618800  0.67799400  1
  C  C48  1  0.04612200  0.57200600  0.41806000  1
  C  C49  1  0.41806000  0.96381200  0.04612200  1
  C  C50  1  0.57200600  0.04612200  0.96381200  1
  C  C51  1  0.96381200  0.41806000  0.57200600  1
  C  C52  1  0.41806000  0.04612200  0.57200600  1
  C  C53  1  0.04612200  0.41806000  0.96381200  1
  C  C54  1  0.96381200  0.57200600  0.04612200  1
  C  C55  1  0.57200600  0.96381200  0.41806000  1
  C  C56  1  0.57200600  0.41806000  0.04612200  1
  C  C57  1  0.96381200  0.04612200  0.41806000  1
  C  C58  1  0.04612200  0.96381200  0.57200600  1
  C  C59  1  0.41806000  0.57200600  0.96381200  1
  C  C60  1  0.70387800  0.17799400  0.33194000  1
  C  C61  1  0.33194000  0.78618800  0.70387800  1
  C  C62  1  0.17799400  0.70387800  0.78618800  1
  C  C63  1  0.78618800  0.33194000  0.17799400  1
  C  C64  1  0.33194000  0.70387800  0.17799400  1
  C  C65  1  0.70387800  0.33194000  0.78618800  1
  C  C66  1  0.78618800  0.17799400  0.70387800  1
  C  C67  1  0.17799400  0.78618800  0.33194000  1
  C  C68  1  0.17799400  0.33194000  0.70387800  1
  C  C69  1  0.78618800  0.70387800  0.33194000  1
  C  C70  1  0.70387800  0.78618800  0.17799400  1
  C  C71  1  0.33194000  0.17799400  0.78618800  1
  N  N72  1  0.25000000  0.25000000  0.25000000  1
  N  N73  1  0.50000000  0.50000000  0.50000000  1
  N  N74  1  0.75000000  0.75000000  0.75000000  1
  N  N75  1  0.00000000  0.00000000  0.00000000  1
  N  N76  1  0.50000000  0.50000000  0.00000000  1
  N  N77  1  0.00000000  0.00000000  0.50000000  1
  N  N78  1  0.50000000  0.00000000  0.50000000  1
  N  N79  1  0.00000000  0.50000000  0.00000000  1
  N  N80  1  0.00000000  0.50000000  0.50000000  1
  N  N81  1  0.50000000  0.00000000  0.00000000  1
  N  N82  1  0.25000000  0.25000000  0.75000000  1
  N  N83  1  0.75000000  0.75000000  0.25000000  1
  N  N84  1  0.25000000  0.75000000  0.25000000  1
  N  N85  1  0.75000000  0.25000000  0.75000000  1
  N  N86  1  0.75000000  0.25000000  0.25000000  1
  N  N87  1  0.25000000  0.75000000  0.75000000  1
  Cl  Cl88  1  0.98815500  0.47292400  0.30318000  1
  Cl  Cl89  1  0.47292400  0.98815500  0.23574100  1
  Cl  Cl90  1  0.30318000  0.23574100  0.98815500  1
  Cl  Cl91  1  0.23574100  0.30318000  0.47292400  1
  Cl  Cl92  1  0.47292400  0.30318000  0.98815500  1
  Cl  Cl93  1  0.98815500  0.23574100  0.47292400  1
  Cl  Cl94  1  0.23574100  0.98815500  0.30318000  1
  Cl  Cl95  1  0.30318000  0.47292400  0.23574100  1
  Cl  Cl96  1  0.30318000  0.98815500  0.47292400  1
  Cl  Cl97  1  0.23574100  0.47292400  0.98815500  1
  Cl  Cl98  1  0.98815500  0.30318000  0.23574100  1
  Cl  Cl99  1  0.47292400  0.23574100  0.30318000  1
  Cl  Cl100  1  0.76184500  0.27707600  0.44682000  1
  Cl  Cl101  1  0.27707600  0.76184500  0.51425900  1
  Cl  Cl102  1  0.44682000  0.51425900  0.76184500  1
  Cl  Cl103  1  0.51425900  0.44682000  0.27707600  1
  Cl  Cl104  1  0.27707600  0.44682000  0.76184500  1
  Cl  Cl105  1  0.76184500  0.51425900  0.27707600  1
  Cl  Cl106  1  0.51425900  0.76184500  0.44682000  1
  Cl  Cl107  1  0.44682000  0.27707600  0.51425900  1
  Cl  Cl108  1  0.44682000  0.76184500  0.27707600  1
  Cl  Cl109  1  0.51425900  0.27707600  0.76184500  1
  Cl  Cl110  1  0.76184500  0.44682000  0.51425900  1
  Cl  Cl111  1  0.27707600  0.51425900  0.44682000  1
  Cl  Cl112  1  0.48815500  0.80318000  0.97292400  1
  Cl  Cl113  1  0.97292400  0.73574100  0.48815500  1
  Cl  Cl114  1  0.80318000  0.48815500  0.73574100  1
  Cl  Cl115  1  0.73574100  0.97292400  0.80318000  1
  Cl  Cl116  1  0.97292400  0.48815500  0.80318000  1
  Cl  Cl117  1  0.48815500  0.97292400  0.73574100  1
  Cl  Cl118  1  0.73574100  0.80318000  0.48815500  1
  Cl  Cl119  1  0.80318000  0.73574100  0.97292400  1
  Cl  Cl120  1  0.80318000  0.97292400  0.48815500  1
  Cl  Cl121  1  0.73574100  0.48815500  0.97292400  1
  Cl  Cl122  1  0.48815500  0.73574100  0.80318000  1
  Cl  Cl123  1  0.97292400  0.80318000  0.73574100  1
  Cl  Cl124  1  0.26184500  0.94682000  0.77707600  1
  Cl  Cl125  1  0.77707600  0.01425900  0.26184500  1
  Cl  Cl126  1  0.94682000  0.26184500  0.01425900  1
  Cl  Cl127  1  0.01425900  0.77707600  0.94682000  1
  Cl  Cl128  1  0.77707600  0.26184500  0.94682000  1
  Cl  Cl129  1  0.26184500  0.77707600  0.01425900  1
  Cl  Cl130  1  0.01425900  0.94682000  0.26184500  1
  Cl  Cl131  1  0.94682000  0.01425900  0.77707600  1
  Cl  Cl132  1  0.94682000  0.77707600  0.26184500  1
  Cl  Cl133  1  0.01425900  0.26184500  0.77707600  1
  Cl  Cl134  1  0.26184500  0.01425900  0.94682000  1
  Cl  Cl135  1  0.77707600  0.94682000  0.01425900  1
