# generated using pymatgen
data_BaMgBO3F
_symmetry_space_group_name_H-M   'P 1'
_cell_length_a   17.81374905
_cell_length_b   17.81374905
_cell_length_c   8.24771921
_cell_angle_alpha   89.99351076
_cell_angle_beta   89.99351076
_cell_angle_gamma   120.06188361
_symmetry_Int_Tables_number   1
_chemical_formula_structural   BaMgBO3F
_chemical_formula_sum   'Ba24 Mg24 B24 O72 F24'
_cell_volume   2265.18664413
_cell_formula_units_Z   24
loop_
 _symmetry_equiv_pos_site_id
 _symmetry_equiv_pos_as_xyz
  1  'x, y, z'
loop_
 _atom_site_type_symbol
 _atom_site_label
 _atom_site_symmetry_multiplicity
 _atom_site_fract_x
 _atom_site_fract_y
 _atom_site_fract_z
 _atom_site_occupancy
  Ba  Ba0  1  0.09850200  0.28859800  0.79663400  1
  Ba  Ba1  1  0.28859800  0.09850200  0.29663400  1
  Ba  Ba2  1  0.91168000  0.91527200  0.78373300  1
  Ba  Ba3  1  0.91527200  0.91168000  0.28373300  1
  Ba  Ba4  1  0.11403600  0.29865900  0.29348000  1
  Ba  Ba5  1  0.29865900  0.11403600  0.79348000  1
  Ba  Ba6  1  0.78649700  0.09489000  0.82263600  1
  Ba  Ba7  1  0.09489000  0.78649700  0.32263600  1
  Ba  Ba8  1  0.59566200  0.78788100  0.80846700  1
  Ba  Ba9  1  0.78788100  0.59566200  0.30846700  1
  Ba  Ba10  1  0.29041300  0.60036200  0.82565600  1
  Ba  Ba11  1  0.60036200  0.29041300  0.32565600  1
  Ba  Ba12  1  0.80109800  0.11649500  0.32365600  1
  Ba  Ba13  1  0.11649500  0.80109800  0.82365600  1
  Ba  Ba14  1  0.40943000  0.42056200  0.79477900  1
  Ba  Ba15  1  0.42056200  0.40943000  0.29477900  1
  Ba  Ba16  1  0.41814900  0.91184400  0.83610300  1
  Ba  Ba17  1  0.91184400  0.41814900  0.33610300  1
  Ba  Ba18  1  0.91666500  0.40909200  0.83722100  1
  Ba  Ba19  1  0.40909200  0.91666500  0.33722100  1
  Ba  Ba20  1  0.80254100  0.61485000  0.81075400  1
  Ba  Ba21  1  0.61485000  0.80254100  0.31075400  1
  Ba  Ba22  1  0.30044300  0.61290200  0.32699000  1
  Ba  Ba23  1  0.61290200  0.30044300  0.82699000  1
  Mg  Mg24  1  0.24392000  0.24152700  0.53248700  1
  Mg  Mg25  1  0.24152700  0.24392000  0.03248700  1
  Mg  Mg26  1  0.95956400  0.09992600  0.03584900  1
  Mg  Mg27  1  0.09992600  0.95956400  0.53584900  1
  Mg  Mg28  1  0.96482500  0.10604400  0.53160800  1
  Mg  Mg29  1  0.10604400  0.96482500  0.03160800  1
  Mg  Mg30  1  0.60051100  0.96192900  0.58219000  1
  Mg  Mg31  1  0.96192900  0.60051100  0.08219000  1
  Mg  Mg32  1  0.10165600  0.45996000  0.58019100  1
  Mg  Mg33  1  0.45996000  0.10165600  0.08019100  1
  Mg  Mg34  1  0.74212600  0.24304900  0.07967200  1
  Mg  Mg35  1  0.24304900  0.74212600  0.57967200  1
  Mg  Mg36  1  0.96701800  0.60601600  0.58909300  1
  Mg  Mg37  1  0.60601600  0.96701800  0.08909300  1
  Mg  Mg38  1  0.74361500  0.24186700  0.58391400  1
  Mg  Mg39  1  0.24186700  0.74361500  0.08391400  1
  Mg  Mg40  1  0.10638000  0.46458800  0.08752200  1
  Mg  Mg41  1  0.46458800  0.10638000  0.58752200  1
  Mg  Mg42  1  0.74359900  0.74442100  0.05569100  1
  Mg  Mg43  1  0.74442100  0.74359900  0.55569100  1
  Mg  Mg44  1  0.46132600  0.60072600  0.05524700  1
  Mg  Mg45  1  0.60072600  0.46132600  0.55524700  1
  Mg  Mg46  1  0.46693600  0.60619100  0.54379900  1
  Mg  Mg47  1  0.60619100  0.46693600  0.04379900  1
  B  B48  1  0.60225100  0.10218800  0.57991100  1
  B  B49  1  0.10218800  0.60225100  0.07991100  1
  B  B50  1  0.60098000  0.10391300  0.08070300  1
  B  B51  1  0.10391300  0.60098000  0.58070300  1
  B  B52  1  0.10228600  0.10074400  0.53533500  1
  B  B53  1  0.10074400  0.10228600  0.03533500  1
  B  B54  1  0.93900500  0.26933100  0.56796900  1
  B  B55  1  0.26933100  0.93900500  0.06796900  1
  B  B56  1  0.27226500  0.43812500  0.55382300  1
  B  B57  1  0.43812500  0.27226500  0.05382300  1
  B  B58  1  0.26819300  0.43855700  0.05094900  1
  B  B59  1  0.43855700  0.26819300  0.55094900  1
  B  B60  1  0.93716800  0.27051600  0.06961400  1
  B  B61  1  0.27051600  0.93716800  0.56961400  1
  B  B62  1  0.77000500  0.93797000  0.55397000  1
  B  B63  1  0.93797000  0.77000500  0.05397000  1
  B  B64  1  0.77129300  0.93913500  0.06709200  1
  B  B65  1  0.93913500  0.77129300  0.56709200  1
  B  B66  1  0.43975500  0.77122100  0.56632300  1
  B  B67  1  0.77122100  0.43975500  0.06632300  1
  B  B68  1  0.43946700  0.77179600  0.07579900  1
  B  B69  1  0.77179600  0.43946700  0.57579900  1
  B  B70  1  0.60220600  0.60467400  0.05526300  1
  B  B71  1  0.60467400  0.60220600  0.55526300  1
  O  O72  1  0.87219100  0.78868900  0.02408200  1
  O  O73  1  0.78868900  0.87219100  0.52408200  1
  O  O74  1  0.29387800  0.37394700  0.52553300  1
  O  O75  1  0.37394700  0.29387800  0.02553300  1
  O  O76  1  0.96979000  0.21986600  0.49560200  1
  O  O77  1  0.21986600  0.96979000  0.99560200  1
  O  O78  1  0.97015300  0.71817800  0.61908000  1
  O  O79  1  0.71817800  0.97015300  0.11908000  1
  O  O80  1  0.68226700  0.60971200  0.04153500  1
  O  O81  1  0.60971200  0.68226700  0.54153500  1
  O  O82  1  0.33715200  0.52360600  0.57906700  1
  O  O83  1  0.52360600  0.33715200  0.07906700  1
  O  O84  1  0.21870200  0.46770700  0.12793400  1
  O  O85  1  0.46770700  0.21870200  0.62793400  1
  O  O86  1  0.84706200  0.99247300  0.98395000  1
  O  O87  1  0.99247300  0.84706200  0.48395000  1
  O  O88  1  0.52677600  0.52381400  0.05211100  1
  O  O89  1  0.52381400  0.52677600  0.55211100  1
  O  O90  1  0.59697800  0.67942400  0.07020600  1
  O  O91  1  0.67942400  0.59697800  0.57020600  1
  O  O92  1  0.83550200  0.02368900  0.56011700  1
  O  O93  1  0.02368900  0.83550200  0.06011700  1
  O  O94  1  0.02220600  0.33672000  0.05125000  1
  O  O95  1  0.33672000  0.02220600  0.55125000  1
  O  O96  1  0.02359500  0.52514300  0.58485300  1
  O  O97  1  0.52514300  0.02359500  0.08485300  1
  O  O98  1  0.10782000  0.18124600  0.52700500  1
  O  O99  1  0.18124600  0.10782000  0.02700500  1
  O  O100  1  0.52135500  0.02689700  0.57984600  1
  O  O101  1  0.02689700  0.52135500  0.07984600  1
  O  O102  1  0.02547100  0.02141600  0.03459900  1
  O  O103  1  0.02141600  0.02547100  0.53459900  1
  O  O104  1  0.87202800  0.28970300  0.10351600  1
  O  O105  1  0.28970300  0.87202800  0.60351600  1
  O  O106  1  0.99534700  0.34885500  0.63663500  1
  O  O107  1  0.34885500  0.99534700  0.13663500  1
  O  O108  1  0.68079000  0.10813700  0.09042000  1
  O  O109  1  0.10813700  0.68079000  0.59042000  1
  O  O110  1  0.60761100  0.18263200  0.59063300  1
  O  O111  1  0.18263200  0.60761100  0.09063300  1
  O  O112  1  0.68436000  0.91668700  0.57866000  1
  O  O113  1  0.91668700  0.68436000  0.07866000  1
  O  O114  1  0.17934100  0.59661300  0.56920100  1
  O  O115  1  0.59661300  0.17934100  0.06920100  1
  O  O116  1  0.09530300  0.17706000  0.04364100  1
  O  O117  1  0.17706000  0.09530300  0.54364100  1
  O  O118  1  0.83683400  0.52545000  0.56239100  1
  O  O119  1  0.52545000  0.83683400  0.06239100  1
  O  O120  1  0.35119200  0.23495100  0.52663700  1
  O  O121  1  0.23495100  0.35119200  0.02663700  1
  O  O122  1  0.41754800  0.68552500  0.06370500  1
  O  O123  1  0.68552500  0.41754800  0.56370500  1
  O  O124  1  0.91574100  0.18460500  0.05255800  1
  O  O125  1  0.18460500  0.91574100  0.55255800  1
  O  O126  1  0.47018500  0.71829100  0.50959700  1
  O  O127  1  0.71829100  0.47018500  0.00959700  1
  O  O128  1  0.74844700  0.85451500  0.09999200  1
  O  O129  1  0.85451500  0.74844700  0.59999200  1
  O  O130  1  0.79210300  0.37407000  0.59836500  1
  O  O131  1  0.37407000  0.79210300  0.09836500  1
  O  O132  1  0.49579900  0.84976900  0.63803500  1
  O  O133  1  0.84976900  0.49579900  0.13803500  1
  O  O134  1  0.67702100  0.09684000  0.57023200  1
  O  O135  1  0.09684000  0.67702100  0.07023200  1
  O  O136  1  0.35003800  0.49688600  0.99386900  1
  O  O137  1  0.49688600  0.35003800  0.49386900  1
  O  O138  1  0.85128200  0.23799600  0.57330100  1
  O  O139  1  0.23799600  0.85128200  0.07330100  1
  O  O140  1  0.18586300  0.41552000  0.55999300  1
  O  O141  1  0.41552000  0.18586300  0.05999300  1
  O  O142  1  0.35332000  0.74452300  0.55368400  1
  O  O143  1  0.74452300  0.35332000  0.05368400  1
  F  F144  1  0.94476800  0.08127100  0.28254200  1
  F  F145  1  0.08127100  0.94476800  0.78254200  1
  F  F146  1  0.24555500  0.24504600  0.28065300  1
  F  F147  1  0.24504600  0.24555500  0.78065300  1
  F  F148  1  0.44266100  0.57859400  0.29796400  1
  F  F149  1  0.57859400  0.44266100  0.79796400  1
  F  F150  1  0.76004500  0.73517100  0.30628200  1
  F  F151  1  0.73517100  0.76004500  0.80628200  1
  F  F152  1  0.97064800  0.11875300  0.78190400  1
  F  F153  1  0.11875300  0.97064800  0.28190400  1
  F  F154  1  0.61416600  0.97402300  0.83783100  1
  F  F155  1  0.97402300  0.61416600  0.33783100  1
  F  F156  1  0.07955500  0.44365800  0.33499000  1
  F  F157  1  0.44365800  0.07955500  0.83499000  1
  F  F158  1  0.47483900  0.61923800  0.79663000  1
  F  F159  1  0.61923800  0.47483900  0.29663000  1
  F  F160  1  0.12504000  0.47076900  0.83529600  1
  F  F161  1  0.47076900  0.12504000  0.33529600  1
  F  F162  1  0.74087300  0.25065200  0.33287500  1
  F  F163  1  0.25065200  0.74087300  0.83287500  1
  F  F164  1  0.94482400  0.58160800  0.83788000  1
  F  F165  1  0.58160800  0.94482400  0.33788000  1
  F  F166  1  0.75111400  0.23715900  0.83277300  1
  F  F167  1  0.23715900  0.75111400  0.33277300  1
