# generated using pymatgen
data_NdH2C2Cl2O9
_symmetry_space_group_name_H-M   'P 1'
_cell_length_a   7.33425314
_cell_length_b   8.31775100
_cell_length_c   14.32859952
_cell_angle_alpha   90.00000000
_cell_angle_beta   93.67883821
_cell_angle_gamma   90.00000000
_symmetry_Int_Tables_number   1
_chemical_formula_structural   NdH2C2Cl2O9
_chemical_formula_sum   'Nd4 H8 C8 Cl8 O36'
_cell_volume   872.30772348
_cell_formula_units_Z   4
loop_
 _symmetry_equiv_pos_site_id
 _symmetry_equiv_pos_as_xyz
  1  'x, y, z'
loop_
 _atom_site_type_symbol
 _atom_site_label
 _atom_site_symmetry_multiplicity
 _atom_site_fract_x
 _atom_site_fract_y
 _atom_site_fract_z
 _atom_site_occupancy
  Nd  Nd0  1  0.75051700  0.24709800  0.59409900  1
  Nd  Nd1  1  0.74948300  0.74709800  0.90590100  1
  Nd  Nd2  1  0.24948300  0.75290200  0.40590100  1
  Nd  Nd3  1  0.25051700  0.25290200  0.09409900  1
  H  H4  1  0.85137300  0.43822700  0.41510200  1
  H  H5  1  0.64862700  0.93822700  0.08489800  1
  H  H6  1  0.14862700  0.56177300  0.58489800  1
  H  H7  1  0.35137300  0.06177300  0.91510200  1
  H  H8  1  0.63992400  0.45329700  0.41727400  1
  H  H9  1  0.86007600  0.95329700  0.08272600  1
  H  H10  1  0.36007600  0.54670300  0.58272600  1
  H  H11  1  0.13992400  0.04670300  0.91727400  1
  C  C12  1  0.65728600  0.55802700  0.71085800  1
  C  C13  1  0.84271400  0.05802700  0.78914200  1
  C  C14  1  0.34271400  0.44197300  0.28914200  1
  C  C15  1  0.15728600  0.94197300  0.21085800  1
  C  C16  1  0.87006700  0.55264100  0.71729700  1
  C  C17  1  0.62993300  0.05264100  0.78270300  1
  C  C18  1  0.12993300  0.44735900  0.28270300  1
  C  C19  1  0.37006700  0.94735900  0.21729700  1
  Cl  Cl20  1  0.81190100  0.19758300  0.27337300  1
  Cl  Cl21  1  0.68809900  0.69758300  0.22662700  1
  Cl  Cl22  1  0.18809900  0.80241700  0.72662700  1
  Cl  Cl23  1  0.31190100  0.30241700  0.77337300  1
  Cl  Cl24  1  0.75048300  0.87174800  0.50041000  1
  Cl  Cl25  1  0.74951700  0.37174800  0.99959000  1
  Cl  Cl26  1  0.24951700  0.12825200  0.49959000  1
  Cl  Cl27  1  0.25048300  0.62825200  0.00041000  1
  O  O28  1  0.71780600  0.03206700  0.45884700  1
  O  O29  1  0.78219400  0.53206700  0.04115300  1
  O  O30  1  0.28219400  0.96793300  0.54115300  1
  O  O31  1  0.21780600  0.46793300  0.95884700  1
  O  O32  1  0.77860600  0.89446100  0.60139100  1
  O  O33  1  0.72139400  0.39446100  0.89860900  1
  O  O34  1  0.22139400  0.10553900  0.39860900  1
  O  O35  1  0.27860600  0.60553900  0.10139100  1
  O  O36  1  0.94533600  0.47330900  0.65526400  1
  O  O37  1  0.55466400  0.97330900  0.84473600  1
  O  O38  1  0.05466400  0.52669100  0.34473600  1
  O  O39  1  0.44533600  0.02669100  0.15526400  1
  O  O40  1  0.91104300  0.79821700  0.46368600  1
  O  O41  1  0.58895700  0.29821700  0.03631400  1
  O  O42  1  0.08895700  0.20178300  0.53631400  1
  O  O43  1  0.41104300  0.70178300  0.96368600  1
  O  O44  1  0.57928900  0.47518000  0.64491100  1
  O  O45  1  0.92071100  0.97518000  0.85508900  1
  O  O46  1  0.42071100  0.52482000  0.35508900  1
  O  O47  1  0.07928900  0.02482000  0.14491100  1
  O  O48  1  0.58282900  0.64521900  0.76860100  1
  O  O49  1  0.91717100  0.14521900  0.73139900  1
  O  O50  1  0.41717100  0.35478100  0.23139900  1
  O  O51  1  0.08282900  0.85478100  0.26860100  1
  O  O52  1  0.75006200  0.41770600  0.45534100  1
  O  O53  1  0.74993800  0.91770600  0.04465900  1
  O  O54  1  0.24993800  0.58229400  0.54465900  1
  O  O55  1  0.25006200  0.08229400  0.95534100  1
  O  O56  1  0.94516700  0.63432000  0.78417600  1
  O  O57  1  0.55483300  0.13432000  0.71582400  1
  O  O58  1  0.05483300  0.36568000  0.21582400  1
  O  O59  1  0.44516700  0.86568000  0.28417600  1
  O  O60  1  0.59304000  0.76832900  0.47879000  1
  O  O61  1  0.90696000  0.26832900  0.02121000  1
  O  O62  1  0.40696000  0.23167100  0.52121000  1
  O  O63  1  0.09304000  0.73167100  0.97879000  1
