# generated using pymatgen
data_Ni2As2O9
_symmetry_space_group_name_H-M   'P 1'
_cell_length_a   14.20947500
_cell_length_b   6.51908200
_cell_length_c   9.59405395
_cell_angle_alpha   51.80349187
_cell_angle_beta   90.00000000
_cell_angle_gamma   90.00000000
_symmetry_Int_Tables_number   1
_chemical_formula_structural   Ni2As2O9
_chemical_formula_sum   'Ni8 As8 O36'
_cell_volume   698.44293079
_cell_formula_units_Z   4
loop_
 _symmetry_equiv_pos_site_id
 _symmetry_equiv_pos_as_xyz
  1  'x, y, z'
loop_
 _atom_site_type_symbol
 _atom_site_label
 _atom_site_symmetry_multiplicity
 _atom_site_fract_x
 _atom_site_fract_y
 _atom_site_fract_z
 _atom_site_occupancy
  Ni  Ni0  1  0.74784100  0.68309000  0.86277200  1
  Ni  Ni1  1  0.75215900  0.68309000  0.36277200  1
  Ni  Ni2  1  0.25215900  0.31691000  0.13722800  1
  Ni  Ni3  1  0.24784100  0.31691000  0.63722800  1
  Ni  Ni4  1  0.88435600  0.17748500  0.59140500  1
  Ni  Ni5  1  0.61564400  0.17748500  0.09140500  1
  Ni  Ni6  1  0.11564400  0.82251500  0.40859500  1
  Ni  Ni7  1  0.38435600  0.82251500  0.90859500  1
  As  As8  1  0.81373900  0.10684700  0.94808600  1
  As  As9  1  0.68626100  0.10684700  0.44808600  1
  As  As10  1  0.18626100  0.89315300  0.05191400  1
  As  As11  1  0.31373900  0.89315300  0.55191400  1
  As  As12  1  0.92318900  0.61069600  0.65369700  1
  As  As13  1  0.57681100  0.61069600  0.15369700  1
  As  As14  1  0.07681100  0.38930400  0.34630300  1
  As  As15  1  0.42318900  0.38930400  0.84630300  1
  O  O16  1  0.78918300  0.03900200  0.80444200  1
  O  O17  1  0.71081700  0.03900200  0.30444200  1
  O  O18  1  0.21081700  0.96099800  0.19555800  1
  O  O19  1  0.28918300  0.96099800  0.69555800  1
  O  O20  1  0.84204100  0.84665600  0.15674500  1
  O  O21  1  0.65795900  0.84665600  0.65674500  1
  O  O22  1  0.15795900  0.15334400  0.84325500  1
  O  O23  1  0.34204100  0.15334400  0.34325500  1
  O  O24  1  0.72852900  0.31655100  0.92220700  1
  O  O25  1  0.77147100  0.31655100  0.42220700  1
  O  O26  1  0.27147100  0.68344900  0.07779300  1
  O  O27  1  0.22852900  0.68344900  0.57779300  1
  O  O28  1  0.91999400  0.29552000  0.86846100  1
  O  O29  1  0.58000600  0.29552000  0.36846100  1
  O  O30  1  0.08000600  0.70448000  0.13153900  1
  O  O31  1  0.41999400  0.70448000  0.63153900  1
  O  O32  1  0.03531300  0.70853400  0.61903700  1
  O  O33  1  0.46468700  0.70853400  0.11903700  1
  O  O34  1  0.96468700  0.29146600  0.38096300  1
  O  O35  1  0.53531300  0.29146600  0.88096300  1
  O  O36  1  0.87485600  0.55355000  0.51620200  1
  O  O37  1  0.62514400  0.55355000  0.01620200  1
  O  O38  1  0.12514400  0.44645000  0.48379800  1
  O  O39  1  0.37485600  0.44645000  0.98379800  1
  O  O40  1  0.85009100  0.80909600  0.66680200  1
  O  O41  1  0.64990900  0.80909600  0.16680200  1
  O  O42  1  0.14990900  0.19090400  0.33319800  1
  O  O43  1  0.35009100  0.19090400  0.83319800  1
  O  O44  1  0.83368500  0.50946100  0.05008300  1
  O  O45  1  0.66631500  0.50946100  0.55008300  1
  O  O46  1  0.16631500  0.49053900  0.94991700  1
  O  O47  1  0.33368500  0.49053900  0.44991700  1
  O  O48  1  0.98512700  0.01360100  0.74713500  1
  O  O49  1  0.51487300  0.01360100  0.24713500  1
  O  O50  1  0.01487300  0.98639900  0.25286500  1
  O  O51  1  0.48512700  0.98639900  0.75286500  1
