# generated using pymatgen
data_V4Cd(SeO6)3
_symmetry_space_group_name_H-M   'P 1'
_cell_length_a   6.41383400
_cell_length_b   7.62635825
_cell_length_c   16.02689023
_cell_angle_alpha   101.26911831
_cell_angle_beta   98.90375470
_cell_angle_gamma   93.62935860
_symmetry_Int_Tables_number   1
_chemical_formula_structural   V4Cd(SeO6)3
_chemical_formula_sum   'V8 Cd2 Se6 O36'
_cell_volume   756.01495541
_cell_formula_units_Z   2
loop_
 _symmetry_equiv_pos_site_id
 _symmetry_equiv_pos_as_xyz
  1  'x, y, z'
loop_
 _atom_site_type_symbol
 _atom_site_label
 _atom_site_symmetry_multiplicity
 _atom_site_fract_x
 _atom_site_fract_y
 _atom_site_fract_z
 _atom_site_occupancy
  V  V0  1  0.15770200  0.37932500  0.51920400  1
  V  V1  1  0.84229800  0.62067500  0.48079600  1
  V  V2  1  0.46088200  0.54601600  0.70957500  1
  V  V3  1  0.53911800  0.45398400  0.29042500  1
  V  V4  1  0.56533300  0.64461000  0.93910000  1
  V  V5  1  0.43466700  0.35539000  0.06090000  1
  V  V6  1  0.32821400  0.22851900  0.83482000  1
  V  V7  1  0.67178600  0.77148100  0.16518000  1
  Cd  Cd8  1  0.67820100  0.20701300  0.57486800  1
  Cd  Cd9  1  0.32179900  0.79298700  0.42513200  1
  Se  Se10  1  0.81490800  0.27680600  0.94230400  1
  Se  Se11  1  0.18509200  0.72319400  0.05769600  1
  Se  Se12  1  0.20674000  0.03730900  0.62922100  1
  Se  Se13  1  0.79326000  0.96269100  0.37077900  1
  Se  Se14  1  0.99681000  0.53129300  0.77173100  1
  Se  Se15  1  0.00319000  0.46870700  0.22826900  1
  O  O16  1  0.41381200  0.41552500  0.59350300  1
  O  O17  1  0.58618800  0.58447500  0.40649700  1
  O  O18  1  0.85419300  0.39284900  0.50377400  1
  O  O19  1  0.14580700  0.60715100  0.49622600  1
  O  O20  1  0.61093500  0.00588900  0.43672700  1
  O  O21  1  0.38906500  0.99411100  0.56327300  1
  O  O22  1  0.05166700  0.17968300  0.57754700  1
  O  O23  1  0.94833300  0.82031700  0.42245300  1
  O  O24  1  0.74944600  0.45323200  0.70795000  1
  O  O25  1  0.25055400  0.54676800  0.29205000  1
  O  O26  1  0.70255400  0.27248400  0.03463700  1
  O  O27  1  0.29744600  0.72751600  0.96536300  1
  O  O28  1  0.62239100  0.17459800  0.85552800  1
  O  O29  1  0.37760900  0.82540200  0.14447200  1
  O  O30  1  0.80848000  0.50116600  0.93180900  1
  O  O31  1  0.19152000  0.49883400  0.06819100  1
  O  O32  1  0.36670800  0.19463900  0.71339800  1
  O  O33  1  0.63329200  0.80536100  0.28660200  1
  O  O34  1  0.14470800  0.53924000  0.68980900  1
  O  O35  1  0.85529200  0.46076000  0.31019100  1
  O  O36  1  0.05407000  0.32859500  0.80006900  1
  O  O37  1  0.94593000  0.67140500  0.19993100  1
  O  O38  1  0.45585300  0.52998500  0.82167800  1
  O  O39  1  0.54414700  0.47001500  0.17832200  1
  O  O40  1  0.62424100  0.63293400  0.05717400  1
  O  O41  1  0.37575900  0.36706600  0.94282600  1
  O  O42  1  0.21126800  0.03826200  0.84000100  1
  O  O43  1  0.78873200  0.96173800  0.15999900  1
  O  O44  1  0.21047400  0.25554100  0.43215800  1
  O  O45  1  0.78952600  0.74445900  0.56784200  1
  O  O46  1  0.51681300  0.75503400  0.71010900  1
  O  O47  1  0.48318700  0.24496600  0.28989100  1
  O  O48  1  0.68935000  0.83006400  0.93128900  1
  O  O49  1  0.31065000  0.16993600  0.06871100  1
  O  O50  1  0.79892400  0.05608600  0.68999800  1
  O  O51  1  0.20107600  0.94391400  0.31000200  1
