# generated using pymatgen
data_CaMg14BiO16
_symmetry_space_group_name_H-M   'P 1'
_cell_length_a   4.48262700
_cell_length_b   8.76638600
_cell_length_c   8.86752100
_cell_angle_alpha   90.00000000
_cell_angle_beta   90.00000000
_cell_angle_gamma   90.00000000
_symmetry_Int_Tables_number   1
_chemical_formula_structural   CaMg14BiO16
_chemical_formula_sum   'Ca1 Mg14 Bi1 O16'
_cell_volume   348.46199430
_cell_formula_units_Z   1
loop_
 _symmetry_equiv_pos_site_id
 _symmetry_equiv_pos_as_xyz
  1  'x, y, z'
loop_
 _atom_site_type_symbol
 _atom_site_label
 _atom_site_symmetry_multiplicity
 _atom_site_fract_x
 _atom_site_fract_y
 _atom_site_fract_z
 _atom_site_occupancy
  Ca  Ca0  1  0.00000000  0.00000000  0.00000000  1
  Mg  Mg1  1  0.00000000  0.50000000  0.00000000  1
  Mg  Mg2  1  0.00000000  0.50000000  0.50000000  1
  Mg  Mg3  1  0.50000000  0.00000000  0.24190200  1
  Mg  Mg4  1  0.50000000  0.00000000  0.75809800  1
  Mg  Mg5  1  0.50000000  0.50000000  0.24860800  1
  Mg  Mg6  1  0.50000000  0.50000000  0.75139200  1
  Mg  Mg7  1  0.50000000  0.25807100  0.00000000  1
  Mg  Mg8  1  0.50000000  0.26327900  0.50000000  1
  Mg  Mg9  1  0.50000000  0.74192900  0.00000000  1
  Mg  Mg10  1  0.50000000  0.73672100  0.50000000  1
  Mg  Mg11  1  0.00000000  0.26136900  0.24520500  1
  Mg  Mg12  1  0.00000000  0.26136900  0.75479500  1
  Mg  Mg13  1  0.00000000  0.73863100  0.24520500  1
  Mg  Mg14  1  0.00000000  0.73863100  0.75479500  1
  Bi  Bi15  1  0.00000000  0.00000000  0.50000000  1
  O  O16  1  0.00000000  0.26528400  0.00000000  1
  O  O17  1  0.00000000  0.27132800  0.50000000  1
  O  O18  1  0.00000000  0.73471600  0.00000000  1
  O  O19  1  0.00000000  0.72867200  0.50000000  1
  O  O20  1  0.50000000  0.24962600  0.25009400  1
  O  O21  1  0.50000000  0.24962600  0.74990600  1
  O  O22  1  0.50000000  0.75037400  0.25009400  1
  O  O23  1  0.50000000  0.75037400  0.74990600  1
  O  O24  1  0.50000000  0.00000000  0.00000000  1
  O  O25  1  0.50000000  0.00000000  0.50000000  1
  O  O26  1  0.50000000  0.50000000  0.00000000  1
  O  O27  1  0.50000000  0.50000000  0.50000000  1
  O  O28  1  0.00000000  0.00000000  0.24302200  1
  O  O29  1  0.00000000  0.00000000  0.75697800  1
  O  O30  1  0.00000000  0.50000000  0.24878900  1
  O  O31  1  0.00000000  0.50000000  0.75121100  1
