# generated using pymatgen
data_K2CeS3O13
_symmetry_space_group_name_H-M   'P 1'
_cell_length_a   11.20608009
_cell_length_b   11.20608009
_cell_length_c   18.31095224
_cell_angle_alpha   59.20577554
_cell_angle_beta   59.20577554
_cell_angle_gamma   37.87078714
_symmetry_Int_Tables_number   1
_chemical_formula_structural   K2CeS3O13
_chemical_formula_sum   'K8 Ce4 S12 O52'
_cell_volume   1186.94292266
_cell_formula_units_Z   4
loop_
 _symmetry_equiv_pos_site_id
 _symmetry_equiv_pos_as_xyz
  1  'x, y, z'
loop_
 _atom_site_type_symbol
 _atom_site_label
 _atom_site_symmetry_multiplicity
 _atom_site_fract_x
 _atom_site_fract_y
 _atom_site_fract_z
 _atom_site_occupancy
  K  K0  1  0.43822600  0.84138000  0.70908900  1
  K  K1  1  0.15862000  0.56177400  0.29091100  1
  K  K2  1  0.59547200  0.96927400  0.83808400  1
  K  K3  1  0.03072600  0.40452800  0.16191600  1
  K  K4  1  0.99074500  0.00925500  0.00000000  1
  K  K5  1  0.37361100  0.62638900  0.50000000  1
  K  K6  1  0.05916700  0.48879200  0.72923400  1
  K  K7  1  0.51120800  0.94083300  0.27076600  1
  Ce  Ce8  1  0.43385400  0.40171700  0.91462300  1
  Ce  Ce9  1  0.59828300  0.56614600  0.08537700  1
  Ce  Ce10  1  0.91610500  0.32620500  0.57961500  1
  Ce  Ce11  1  0.67379500  0.08389500  0.42038500  1
  S  S12  1  0.44132300  0.47057200  0.72374200  1
  S  S13  1  0.52942800  0.55867700  0.27625800  1
  S  S14  1  0.91503000  0.22401500  0.77289400  1
  S  S15  1  0.77598500  0.08497000  0.22710600  1
  S  S16  1  0.57239700  0.63214100  0.90426300  1
  S  S17  1  0.36785900  0.42760300  0.09573700  1
  S  S18  1  0.05417500  0.42575100  0.94501300  1
  S  S19  1  0.57424900  0.94582500  0.05498700  1
  S  S20  1  0.64074100  0.03890100  0.61268800  1
  S  S21  1  0.96109900  0.35925900  0.38731200  1
  S  S22  1  0.48109400  0.86880900  0.50056500  1
  S  S23  1  0.13119100  0.51890600  0.49943500  1
  O  O24  1  0.39318400  0.59853700  0.76330700  1
  O  O25  1  0.40146300  0.60681600  0.23669300  1
  O  O26  1  0.28762500  0.58045600  0.68206900  1
  O  O27  1  0.41954400  0.71237500  0.31793100  1
  O  O28  1  0.46722000  0.31312500  0.80106000  1
  O  O29  1  0.68687500  0.53278000  0.19894000  1
  O  O30  1  0.63579800  0.37614900  0.66045500  1
  O  O31  1  0.62385100  0.36420200  0.33954500  1
  O  O32  1  0.80852500  0.42423300  0.71309000  1
  O  O33  1  0.57576700  0.19147500  0.28691000  1
  O  O34  1  0.05482400  0.15998000  0.80730500  1
  O  O35  1  0.84002000  0.94517600  0.19269500  1
  O  O36  1  0.02114000  0.08820100  0.71714400  1
  O  O37  1  0.91179900  0.97886000  0.28285600  1
  O  O38  1  0.76676300  0.22664700  0.84721800  1
  O  O39  1  0.77335300  0.23323700  0.15278200  1
  O  O40  1  0.45756400  0.61930200  0.89549200  1
  O  O41  1  0.38069800  0.54243600  0.10450800  1
  O  O42  1  0.72429600  0.44390300  0.95931800  1
  O  O43  1  0.55609700  0.27570400  0.04068200  1
  O  O44  1  0.43637400  0.79037500  0.95447200  1
  O  O45  1  0.20962500  0.56362600  0.04552800  1
  O  O46  1  0.66203900  0.67959600  0.81816100  1
  O  O47  1  0.32040400  0.33796100  0.18183900  1
  O  O48  1  0.20266800  0.23554800  0.92075900  1
  O  O49  1  0.76445200  0.79733200  0.07924100  1
  O  O50  1  0.92171500  0.42917500  0.03155300  1
  O  O51  1  0.57082500  0.07828500  0.96844700  1
  O  O52  1  0.15996300  0.44535100  0.96111700  1
  O  O53  1  0.55464900  0.84003700  0.03888300  1
  O  O54  1  0.93670000  0.59666600  0.87939200  1
  O  O55  1  0.40333400  0.06330000  0.12060800  1
  O  O56  1  0.66100400  0.92839500  0.57548400  1
  O  O57  1  0.07160500  0.33899600  0.42451600  1
  O  O58  1  0.64426900  0.17975300  0.52943800  1
  O  O59  1  0.82024700  0.35573100  0.47056200  1
  O  O60  1  0.44655700  0.15714400  0.67123700  1
  O  O61  1  0.84285600  0.55344300  0.32876300  1
  O  O62  1  0.80392300  0.90798000  0.65404500  1
  O  O63  1  0.09202000  0.19607700  0.34595500  1
  O  O64  1  0.56383700  0.95421500  0.44587000  1
  O  O65  1  0.04578500  0.43616300  0.55413000  1
  O  O66  1  0.29374700  0.00370600  0.56139200  1
  O  O67  1  0.99629400  0.70625300  0.43860800  1
  O  O68  1  0.62961000  0.67458100  0.55506100  1
  O  O69  1  0.32541900  0.37039000  0.44493900  1
  O  O70  1  0.44705400  0.84154200  0.44644600  1
  O  O71  1  0.15845800  0.55294600  0.55355400  1
  O  O72  1  0.02266400  0.04944700  0.56958300  1
  O  O73  1  0.95055300  0.97733600  0.43041700  1
  O  O74  1  0.11912500  0.71652300  0.89743500  1
  O  O75  1  0.28347700  0.88087500  0.10256500  1
