# generated using pymatgen
data_CdC3NO6
_symmetry_space_group_name_H-M   'P 1'
_cell_length_a   8.71928600
_cell_length_b   11.20496500
_cell_length_c   12.90426500
_cell_angle_alpha   90.00000000
_cell_angle_beta   90.00000000
_cell_angle_gamma   90.00000000
_symmetry_Int_Tables_number   1
_chemical_formula_structural   CdC3NO6
_chemical_formula_sum   'Cd4 C12 N4 O24'
_cell_volume   1260.73758596
_cell_formula_units_Z   4
loop_
 _symmetry_equiv_pos_site_id
 _symmetry_equiv_pos_as_xyz
  1  'x, y, z'
loop_
 _atom_site_type_symbol
 _atom_site_label
 _atom_site_symmetry_multiplicity
 _atom_site_fract_x
 _atom_site_fract_y
 _atom_site_fract_z
 _atom_site_occupancy
  Cd  Cd0  1  0.60785600  0.50169100  0.99696500  1
  Cd  Cd1  1  0.39214400  0.49830900  0.49696500  1
  Cd  Cd2  1  0.89214400  0.00169100  0.49696500  1
  Cd  Cd3  1  0.10785600  0.99830900  0.99696500  1
  C  C4  1  0.40901900  0.81564400  0.07450300  1
  C  C5  1  0.59098100  0.18435600  0.57450300  1
  C  C6  1  0.09098100  0.31564400  0.57450300  1
  C  C7  1  0.90901900  0.68435600  0.07450300  1
  C  C8  1  0.68883600  0.54940800  0.74087700  1
  C  C9  1  0.31116400  0.45059200  0.24087700  1
  C  C10  1  0.81116400  0.04940800  0.24087700  1
  C  C11  1  0.18883600  0.95059200  0.74087700  1
  C  C12  1  0.27673000  0.31815000  0.95574900  1
  C  C13  1  0.72327000  0.68185000  0.45574900  1
  C  C14  1  0.22327000  0.81815000  0.45574900  1
  C  C15  1  0.77673000  0.18185000  0.95574900  1
  N  N16  1  0.32961500  0.15771100  0.29331700  1
  N  N17  1  0.67038500  0.84228900  0.79331700  1
  N  N18  1  0.17038500  0.65771100  0.79331700  1
  N  N19  1  0.82961500  0.34228900  0.29331700  1
  O  O20  1  0.38626900  0.75076800  0.00412200  1
  O  O21  1  0.61373100  0.24923200  0.50412200  1
  O  O22  1  0.11373100  0.25076800  0.50412200  1
  O  O23  1  0.88626900  0.74923200  0.00412200  1
  O  O24  1  0.43269600  0.87924500  0.14538500  1
  O  O25  1  0.56730400  0.12075500  0.64538500  1
  O  O26  1  0.06730400  0.37924500  0.64538500  1
  O  O27  1  0.93269600  0.62075500  0.14538500  1
  O  O28  1  0.82095300  0.54241300  0.75775500  1
  O  O29  1  0.17904700  0.45758700  0.25775500  1
  O  O30  1  0.67904700  0.04241300  0.25775500  1
  O  O31  1  0.32095300  0.95758700  0.75775500  1
  O  O32  1  0.55646400  0.55552100  0.72263800  1
  O  O33  1  0.44353600  0.44447900  0.22263800  1
  O  O34  1  0.94353600  0.05552100  0.22263800  1
  O  O35  1  0.05646400  0.94447900  0.72263800  1
  O  O36  1  0.25065600  0.37487800  0.88133000  1
  O  O37  1  0.74934400  0.62512200  0.38133000  1
  O  O38  1  0.24934400  0.87487800  0.38133000  1
  O  O39  1  0.75065600  0.12512200  0.88133000  1
  O  O40  1  0.30146600  0.26100500  0.03046100  1
  O  O41  1  0.69853400  0.73899500  0.53046100  1
  O  O42  1  0.19853400  0.76100500  0.53046100  1
  O  O43  1  0.80146600  0.23899500  0.03046100  1
