# generated using pymatgen
data_Sr7Ge6
_symmetry_space_group_name_H-M   'P 1'
_cell_length_a   7.83861400
_cell_length_b   8.61246700
_cell_length_c   23.75179700
_cell_angle_alpha   90.00000000
_cell_angle_beta   90.00000000
_cell_angle_gamma   90.00000000
_symmetry_Int_Tables_number   1
_chemical_formula_structural   Sr7Ge6
_chemical_formula_sum   'Sr28 Ge24'
_cell_volume   1603.47916964
_cell_formula_units_Z   4
loop_
 _symmetry_equiv_pos_site_id
 _symmetry_equiv_pos_as_xyz
  1  'x, y, z'
loop_
 _atom_site_type_symbol
 _atom_site_label
 _atom_site_symmetry_multiplicity
 _atom_site_fract_x
 _atom_site_fract_y
 _atom_site_fract_z
 _atom_site_occupancy
  Sr  Sr0  1  0.52878300  0.31973000  0.16230100  1
  Sr  Sr1  1  0.02878300  0.18027000  0.33769900  1
  Sr  Sr2  1  0.47121700  0.68027000  0.66230100  1
  Sr  Sr3  1  0.97121700  0.81973000  0.83769900  1
  Sr  Sr4  1  0.47121700  0.68027000  0.83769900  1
  Sr  Sr5  1  0.97121700  0.81973000  0.66230100  1
  Sr  Sr6  1  0.52878300  0.31973000  0.33769900  1
  Sr  Sr7  1  0.02878300  0.18027000  0.16230100  1
  Sr  Sr8  1  0.63495100  0.18268600  0.64004100  1
  Sr  Sr9  1  0.13495100  0.31731400  0.85995900  1
  Sr  Sr10  1  0.36504900  0.81731400  0.14004100  1
  Sr  Sr11  1  0.86504900  0.68268600  0.35995900  1
  Sr  Sr12  1  0.36504900  0.81731400  0.35995900  1
  Sr  Sr13  1  0.86504900  0.68268600  0.14004100  1
  Sr  Sr14  1  0.63495100  0.18268600  0.85995900  1
  Sr  Sr15  1  0.13495100  0.31731400  0.64004100  1
  Sr  Sr16  1  0.83824800  0.32195100  0.01827400  1
  Sr  Sr17  1  0.33824800  0.17804900  0.48172600  1
  Sr  Sr18  1  0.16175200  0.67804900  0.51827400  1
  Sr  Sr19  1  0.66175200  0.82195100  0.98172600  1
  Sr  Sr20  1  0.16175200  0.67804900  0.98172600  1
  Sr  Sr21  1  0.66175200  0.82195100  0.51827400  1
  Sr  Sr22  1  0.83824800  0.32195100  0.48172600  1
  Sr  Sr23  1  0.33824800  0.17804900  0.01827400  1
  Sr  Sr24  1  0.80118200  0.47187300  0.75000000  1
  Sr  Sr25  1  0.30118200  0.02812700  0.75000000  1
  Sr  Sr26  1  0.19881800  0.52812700  0.25000000  1
  Sr  Sr27  1  0.69881800  0.97187300  0.25000000  1
  Ge  Ge28  1  0.50358500  0.46237900  0.55238200  1
  Ge  Ge29  1  0.00358500  0.03762100  0.94761800  1
  Ge  Ge30  1  0.49641500  0.53762100  0.05238200  1
  Ge  Ge31  1  0.99641500  0.96237900  0.44761800  1
  Ge  Ge32  1  0.49641500  0.53762100  0.44761800  1
  Ge  Ge33  1  0.99641500  0.96237900  0.05238200  1
  Ge  Ge34  1  0.50358500  0.46237900  0.94761800  1
  Ge  Ge35  1  0.00358500  0.03762100  0.55238200  1
  Ge  Ge36  1  0.69842900  0.02792900  0.09675600  1
  Ge  Ge37  1  0.19842900  0.47207100  0.40324400  1
  Ge  Ge38  1  0.30157100  0.97207100  0.59675600  1
  Ge  Ge39  1  0.80157100  0.52792900  0.90324400  1
  Ge  Ge40  1  0.30157100  0.97207100  0.90324400  1
  Ge  Ge41  1  0.80157100  0.52792900  0.59675600  1
  Ge  Ge42  1  0.69842900  0.02792900  0.40324400  1
  Ge  Ge43  1  0.19842900  0.47207100  0.09675600  1
  Ge  Ge44  1  0.67657400  0.90836500  0.75000000  1
  Ge  Ge45  1  0.17657400  0.59163500  0.75000000  1
  Ge  Ge46  1  0.32342600  0.09163500  0.25000000  1
  Ge  Ge47  1  0.82342600  0.40836500  0.25000000  1
  Ge  Ge48  1  0.90641500  0.11778400  0.75000000  1
  Ge  Ge49  1  0.40641500  0.38221600  0.75000000  1
  Ge  Ge50  1  0.09358500  0.88221600  0.25000000  1
  Ge  Ge51  1  0.59358500  0.61778400  0.25000000  1
