# generated using pymatgen
data_Na3B6BrO10
_symmetry_space_group_name_H-M   'P 1'
_cell_length_a   7.57983700
_cell_length_b   9.99154600
_cell_length_c   12.87883600
_cell_angle_alpha   90.00000000
_cell_angle_beta   90.00000000
_cell_angle_gamma   90.00000000
_symmetry_Int_Tables_number   1
_chemical_formula_structural   Na3B6BrO10
_chemical_formula_sum   'Na12 B24 Br4 O40'
_cell_volume   975.36950123
_cell_formula_units_Z   4
loop_
 _symmetry_equiv_pos_site_id
 _symmetry_equiv_pos_as_xyz
  1  'x, y, z'
loop_
 _atom_site_type_symbol
 _atom_site_label
 _atom_site_symmetry_multiplicity
 _atom_site_fract_x
 _atom_site_fract_y
 _atom_site_fract_z
 _atom_site_occupancy
  Na  Na0  1  0.50000000  0.00000000  0.50000000  1
  Na  Na1  1  0.00000000  0.50000000  0.00000000  1
  Na  Na2  1  0.50000000  0.50000000  0.50000000  1
  Na  Na3  1  0.00000000  0.00000000  0.00000000  1
  Na  Na4  1  0.85265500  0.75000000  0.20331200  1
  Na  Na5  1  0.64734500  0.75000000  0.70331200  1
  Na  Na6  1  0.14734500  0.25000000  0.79668800  1
  Na  Na7  1  0.35265500  0.25000000  0.29668800  1
  Na  Na8  1  0.50000000  0.50000000  0.00000000  1
  Na  Na9  1  0.00000000  0.00000000  0.50000000  1
  Na  Na10  1  0.50000000  0.00000000  0.00000000  1
  Na  Na11  1  0.00000000  0.50000000  0.50000000  1
  B  B12  1  0.48787200  0.51782700  0.23061300  1
  B  B13  1  0.01212800  0.98217300  0.73061300  1
  B  B14  1  0.51212800  0.01782700  0.76938700  1
  B  B15  1  0.98787200  0.48217300  0.26938700  1
  B  B16  1  0.51212800  0.48217300  0.76938700  1
  B  B17  1  0.98787200  0.01782700  0.26938700  1
  B  B18  1  0.48787200  0.98217300  0.23061300  1
  B  B19  1  0.01212800  0.51782700  0.73061300  1
  B  B20  1  0.24918200  0.88066700  0.33713000  1
  B  B21  1  0.25081800  0.61933300  0.83713000  1
  B  B22  1  0.75081800  0.38066700  0.66287000  1
  B  B23  1  0.74918200  0.11933300  0.16287000  1
  B  B24  1  0.75081800  0.11933300  0.66287000  1
  B  B25  1  0.74918200  0.38066700  0.16287000  1
  B  B26  1  0.24918200  0.61933300  0.33713000  1
  B  B27  1  0.25081800  0.88066700  0.83713000  1
  B  B28  1  0.39487400  0.75000000  0.18383200  1
  B  B29  1  0.10512600  0.75000000  0.68383200  1
  B  B30  1  0.60512600  0.25000000  0.81616800  1
  B  B31  1  0.89487400  0.25000000  0.31616800  1
  B  B32  1  0.25728900  0.75000000  0.00494100  1
  B  B33  1  0.24271100  0.75000000  0.50494100  1
  B  B34  1  0.74271100  0.25000000  0.99505900  1
  B  B35  1  0.75728900  0.25000000  0.49505900  1
  Br  Br36  1  0.78787200  0.75000000  0.95618200  1
  Br  Br37  1  0.71212800  0.75000000  0.45618200  1
  Br  Br38  1  0.21212800  0.25000000  0.04381800  1
  Br  Br39  1  0.28787200  0.25000000  0.54381800  1
  O  O40  1  0.24849300  0.75000000  0.11051700  1
  O  O41  1  0.25150700  0.75000000  0.61051700  1
  O  O42  1  0.75150700  0.25000000  0.88948300  1
  O  O43  1  0.74849300  0.25000000  0.38948300  1
  O  O44  1  0.32118900  0.75000000  0.29414100  1
  O  O45  1  0.17881100  0.75000000  0.79414100  1
  O  O46  1  0.67881100  0.25000000  0.70585900  1
  O  O47  1  0.82118900  0.25000000  0.20585900  1
  O  O48  1  0.37247500  0.51070100  0.31347600  1
  O  O49  1  0.12752500  0.98929900  0.81347600  1
  O  O50  1  0.62752500  0.01070100  0.68652400  1
  O  O51  1  0.87247500  0.48929900  0.18652400  1
  O  O52  1  0.62752500  0.48929900  0.68652400  1
  O  O53  1  0.87247500  0.01070100  0.18652400  1
  O  O54  1  0.37247500  0.98929900  0.31347600  1
  O  O55  1  0.12752500  0.51070100  0.81347600  1
  O  O56  1  0.57571100  0.40178300  0.20811600  1
  O  O57  1  0.92428900  0.09821700  0.70811600  1
  O  O58  1  0.42428900  0.90178300  0.79188400  1
  O  O59  1  0.07571100  0.59821700  0.29188400  1
  O  O60  1  0.42428900  0.59821700  0.79188400  1
  O  O61  1  0.07571100  0.90178300  0.29188400  1
  O  O62  1  0.57571100  0.09821700  0.20811600  1
  O  O63  1  0.92428900  0.40178300  0.70811600  1
  O  O64  1  0.50660100  0.63036900  0.17053300  1
  O  O65  1  0.99339900  0.86963100  0.67053300  1
  O  O66  1  0.49339900  0.13036900  0.82946700  1
  O  O67  1  0.00660100  0.36963100  0.32946700  1
  O  O68  1  0.49339900  0.36963100  0.82946700  1
  O  O69  1  0.00660100  0.13036900  0.32946700  1
  O  O70  1  0.50660100  0.86963100  0.17053300  1
  O  O71  1  0.99339900  0.63036900  0.67053300  1
  O  O72  1  0.24089300  0.87020800  0.45170800  1
  O  O73  1  0.25910700  0.62979200  0.95170800  1
  O  O74  1  0.75910700  0.37020800  0.54829200  1
  O  O75  1  0.74089300  0.12979200  0.04829200  1
  O  O76  1  0.75910700  0.12979200  0.54829200  1
  O  O77  1  0.74089300  0.37020800  0.04829200  1
  O  O78  1  0.24089300  0.62979200  0.45170800  1
  O  O79  1  0.25910700  0.87020800  0.95170800  1
