# generated using pymatgen
data_Gd2USe5
_symmetry_space_group_name_H-M   'P 1'
_cell_length_a   7.67847700
_cell_length_b   8.26551200
_cell_length_c   12.05951100
_cell_angle_alpha   90.00000000
_cell_angle_beta   90.00000000
_cell_angle_gamma   90.00000000
_symmetry_Int_Tables_number   1
_chemical_formula_structural   Gd2USe5
_chemical_formula_sum   'Gd8 U4 Se20'
_cell_volume   765.37548291
_cell_formula_units_Z   4
loop_
 _symmetry_equiv_pos_site_id
 _symmetry_equiv_pos_as_xyz
  1  'x, y, z'
loop_
 _atom_site_type_symbol
 _atom_site_label
 _atom_site_symmetry_multiplicity
 _atom_site_fract_x
 _atom_site_fract_y
 _atom_site_fract_z
 _atom_site_occupancy
  Gd  Gd0  1  0.53002800  0.49857100  0.32206500  1
  Gd  Gd1  1  0.96997200  0.00142900  0.82206500  1
  Gd  Gd2  1  0.46997200  0.99857100  0.67793500  1
  Gd  Gd3  1  0.03002800  0.50142900  0.17793500  1
  Gd  Gd4  1  0.46997200  0.50142900  0.67793500  1
  Gd  Gd5  1  0.03002800  0.99857100  0.17793500  1
  Gd  Gd6  1  0.53002800  0.00142900  0.32206500  1
  Gd  Gd7  1  0.96997200  0.49857100  0.82206500  1
  U  U8  1  0.07722900  0.75000000  0.48929500  1
  U  U9  1  0.42277100  0.75000000  0.98929500  1
  U  U10  1  0.92277100  0.25000000  0.51070500  1
  U  U11  1  0.57722900  0.25000000  0.01070500  1
  Se  Se12  1  0.82823800  0.95152900  0.59358400  1
  Se  Se13  1  0.67176200  0.54847100  0.09358400  1
  Se  Se14  1  0.17176200  0.45152900  0.40641600  1
  Se  Se15  1  0.32823800  0.04847100  0.90641600  1
  Se  Se16  1  0.17176200  0.04847100  0.40641600  1
  Se  Se17  1  0.32823800  0.45152900  0.90641600  1
  Se  Se18  1  0.82823800  0.54847100  0.59358400  1
  Se  Se19  1  0.67176200  0.95152900  0.09358400  1
  Se  Se20  1  0.82896100  0.75000000  0.31259400  1
  Se  Se21  1  0.67103900  0.75000000  0.81259400  1
  Se  Se22  1  0.17103900  0.25000000  0.68740600  1
  Se  Se23  1  0.32896100  0.25000000  0.18740600  1
  Se  Se24  1  0.46270500  0.75000000  0.50022700  1
  Se  Se25  1  0.03729500  0.75000000  0.00022700  1
  Se  Se26  1  0.53729500  0.25000000  0.49977300  1
  Se  Se27  1  0.96270500  0.25000000  0.99977300  1
  Se  Se28  1  0.19443500  0.75000000  0.71974100  1
  Se  Se29  1  0.30556500  0.75000000  0.21974100  1
  Se  Se30  1  0.80556500  0.25000000  0.28025900  1
  Se  Se31  1  0.69443500  0.25000000  0.78025900  1
