# generated using pymatgen
data_Ba3Co2(NO2)12
_symmetry_space_group_name_H-M   'P 1'
_cell_length_a   10.91483500
_cell_length_b   10.91483500
_cell_length_c   10.91483500
_cell_angle_alpha   90.00000000
_cell_angle_beta   90.00000000
_cell_angle_gamma   90.00000000
_symmetry_Int_Tables_number   1
_chemical_formula_structural   Ba3Co2(NO2)12
_chemical_formula_sum   'Ba6 Co4 N24 O48'
_cell_volume   1300.32383884
_cell_formula_units_Z   2
loop_
 _symmetry_equiv_pos_site_id
 _symmetry_equiv_pos_as_xyz
  1  'x, y, z'
loop_
 _atom_site_type_symbol
 _atom_site_label
 _atom_site_symmetry_multiplicity
 _atom_site_fract_x
 _atom_site_fract_y
 _atom_site_fract_z
 _atom_site_occupancy
  Ba  Ba0  1  0.50000000  0.00000000  0.50000000  1
  Ba  Ba1  1  0.50000000  0.50000000  0.00000000  1
  Ba  Ba2  1  0.00000000  0.50000000  0.50000000  1
  Ba  Ba3  1  0.00000000  0.50000000  0.00000000  1
  Ba  Ba4  1  0.00000000  0.00000000  0.50000000  1
  Ba  Ba5  1  0.50000000  0.00000000  0.00000000  1
  Co  Co6  1  0.75000000  0.75000000  0.25000000  1
  Co  Co7  1  0.75000000  0.25000000  0.75000000  1
  Co  Co8  1  0.25000000  0.75000000  0.75000000  1
  Co  Co9  1  0.25000000  0.25000000  0.25000000  1
  N  N10  1  0.75321700  0.56637400  0.24678300  1
  N  N11  1  0.75321700  0.75321700  0.43362600  1
  N  N12  1  0.56637400  0.75321700  0.24678300  1
  N  N13  1  0.75321700  0.43362600  0.75321700  1
  N  N14  1  0.75321700  0.24678300  0.56637400  1
  N  N15  1  0.56637400  0.24678300  0.75321700  1
  N  N16  1  0.24678300  0.56637400  0.75321700  1
  N  N17  1  0.24678300  0.75321700  0.56637400  1
  N  N18  1  0.43362600  0.75321700  0.75321700  1
  N  N19  1  0.24678300  0.43362600  0.24678300  1
  N  N20  1  0.24678300  0.24678300  0.43362600  1
  N  N21  1  0.43362600  0.24678300  0.24678300  1
  N  N22  1  0.74678300  0.93362600  0.25321700  1
  N  N23  1  0.74678300  0.74678300  0.06637400  1
  N  N24  1  0.93362600  0.74678300  0.25321700  1
  N  N25  1  0.74678300  0.06637400  0.74678300  1
  N  N26  1  0.74678300  0.25321700  0.93362600  1
  N  N27  1  0.93362600  0.25321700  0.74678300  1
  N  N28  1  0.25321700  0.93362600  0.74678300  1
  N  N29  1  0.25321700  0.74678300  0.93362600  1
  N  N30  1  0.06637400  0.74678300  0.74678300  1
  N  N31  1  0.25321700  0.06637400  0.25321700  1
  N  N32  1  0.25321700  0.25321700  0.06637400  1
  N  N33  1  0.06637400  0.25321700  0.25321700  1
  O  O34  1  0.82653800  0.50831400  0.31210300  1
  O  O35  1  0.68789700  0.50831400  0.17346200  1
  O  O36  1  0.68789700  0.82653800  0.49168600  1
  O  O37  1  0.82653800  0.68789700  0.49168600  1
  O  O38  1  0.50831400  0.68789700  0.17346200  1
  O  O39  1  0.50831400  0.82653800  0.31210300  1
  O  O40  1  0.82653800  0.49168600  0.68789700  1
  O  O41  1  0.68789700  0.49168600  0.82653800  1
  O  O42  1  0.68789700  0.17346200  0.50831400  1
  O  O43  1  0.82653800  0.31210300  0.50831400  1
  O  O44  1  0.50831400  0.31210300  0.82653800  1
  O  O45  1  0.50831400  0.17346200  0.68789700  1
  O  O46  1  0.17346200  0.50831400  0.68789700  1
  O  O47  1  0.31210300  0.50831400  0.82653800  1
  O  O48  1  0.31210300  0.82653800  0.50831400  1
  O  O49  1  0.17346200  0.68789700  0.50831400  1
  O  O50  1  0.49168600  0.68789700  0.82653800  1
  O  O51  1  0.49168600  0.82653800  0.68789700  1
  O  O52  1  0.17346200  0.49168600  0.31210300  1
  O  O53  1  0.31210300  0.49168600  0.17346200  1
  O  O54  1  0.31210300  0.17346200  0.49168600  1
  O  O55  1  0.17346200  0.31210300  0.49168600  1
  O  O56  1  0.49168600  0.31210300  0.17346200  1
  O  O57  1  0.49168600  0.17346200  0.31210300  1
  O  O58  1  0.67346200  0.99168600  0.18789700  1
  O  O59  1  0.81210300  0.99168600  0.32653800  1
  O  O60  1  0.81210300  0.67346200  0.00831400  1
  O  O61  1  0.67346200  0.81210300  0.00831400  1
  O  O62  1  0.99168600  0.81210300  0.32653800  1
  O  O63  1  0.99168600  0.67346200  0.18789700  1
  O  O64  1  0.67346200  0.00831400  0.81210300  1
  O  O65  1  0.81210300  0.00831400  0.67346200  1
  O  O66  1  0.81210300  0.32653800  0.99168600  1
  O  O67  1  0.67346200  0.18789700  0.99168600  1
  O  O68  1  0.99168600  0.18789700  0.67346200  1
  O  O69  1  0.99168600  0.32653800  0.81210300  1
  O  O70  1  0.32653800  0.99168600  0.81210300  1
  O  O71  1  0.18789700  0.99168600  0.67346200  1
  O  O72  1  0.18789700  0.67346200  0.99168600  1
  O  O73  1  0.32653800  0.81210300  0.99168600  1
  O  O74  1  0.00831400  0.81210300  0.67346200  1
  O  O75  1  0.00831400  0.67346200  0.81210300  1
  O  O76  1  0.32653800  0.00831400  0.18789700  1
  O  O77  1  0.18789700  0.00831400  0.32653800  1
  O  O78  1  0.18789700  0.32653800  0.00831400  1
  O  O79  1  0.32653800  0.18789700  0.00831400  1
  O  O80  1  0.00831400  0.18789700  0.32653800  1
  O  O81  1  0.00831400  0.32653800  0.18789700  1
