# generated using pymatgen
data_SnC8(S3N)2
_symmetry_space_group_name_H-M   'P 1'
_cell_length_a   14.08907971
_cell_length_b   14.08907971
_cell_length_c   9.55705522
_cell_angle_alpha   85.73861213
_cell_angle_beta   85.73861213
_cell_angle_gamma   57.14793763
_symmetry_Int_Tables_number   1
_chemical_formula_structural   SnC8(S3N)2
_chemical_formula_sum   'Sn4 C32 S24 N8'
_cell_volume   1587.98610743
_cell_formula_units_Z   4
loop_
 _symmetry_equiv_pos_site_id
 _symmetry_equiv_pos_as_xyz
  1  'x, y, z'
loop_
 _atom_site_type_symbol
 _atom_site_label
 _atom_site_symmetry_multiplicity
 _atom_site_fract_x
 _atom_site_fract_y
 _atom_site_fract_z
 _atom_site_occupancy
  Sn  Sn0  1  0.00000000  0.00000000  0.00000000  1
  Sn  Sn1  1  0.50000000  0.50000000  0.00000000  1
  Sn  Sn2  1  0.00000000  0.50000000  0.50000000  1
  Sn  Sn3  1  0.50000000  0.00000000  0.50000000  1
  C  C4  1  0.92924800  0.79813700  0.58176400  1
  C  C5  1  0.79813700  0.92924800  0.58176400  1
  C  C6  1  0.07075200  0.20186300  0.41823600  1
  C  C7  1  0.20186300  0.07075200  0.41823600  1
  C  C8  1  0.87877000  0.87877000  0.69169900  1
  C  C9  1  0.12123000  0.12123000  0.30830100  1
  C  C10  1  0.83281300  0.83281300  0.50299400  1
  C  C11  1  0.16718700  0.16718700  0.49700600  1
  C  C12  1  0.55701900  0.72970000  0.47288000  1
  C  C13  1  0.72970000  0.55701900  0.47288000  1
  C  C14  1  0.44298100  0.27030000  0.52712000  1
  C  C15  1  0.27030000  0.44298100  0.52712000  1
  C  C16  1  0.65718800  0.65718800  0.56390300  1
  C  C17  1  0.34281200  0.34281200  0.43609700  1
  C  C18  1  0.60987600  0.60987600  0.44447400  1
  C  C19  1  0.39012400  0.39012400  0.55552600  1
  C  C20  1  0.90130600  0.48689800  0.87546700  1
  C  C21  1  0.48689800  0.90130600  0.87546700  1
  C  C22  1  0.09869400  0.51310200  0.12453300  1
  C  C23  1  0.51310200  0.09869400  0.12453300  1
  C  C24  1  0.87799300  0.39910700  0.11645000  1
  C  C25  1  0.39910700  0.87799300  0.11645000  1
  C  C26  1  0.12200700  0.60089300  0.88355000  1
  C  C27  1  0.60089300  0.12200700  0.88355000  1
  C  C28  1  0.86135000  0.32937100  0.95126200  1
  C  C29  1  0.32937100  0.86135000  0.95126200  1
  C  C30  1  0.13865000  0.67062900  0.04873800  1
  C  C31  1  0.67062900  0.13865000  0.04873800  1
  C  C32  1  0.89086100  0.41522100  0.96017500  1
  C  C33  1  0.41522100  0.89086100  0.96017500  1
  C  C34  1  0.10913900  0.58477900  0.03982500  1
  C  C35  1  0.58477900  0.10913900  0.03982500  1
  S  S36  1  0.90753100  0.22381500  0.84711000  1
  S  S37  1  0.22381500  0.90753100  0.84711000  1
  S  S38  1  0.09246900  0.77618500  0.15289000  1
  S  S39  1  0.77618500  0.09246900  0.15289000  1
  S  S40  1  0.89788600  0.89788600  0.85132800  1
  S  S41  1  0.10211400  0.10211400  0.14867200  1
  S  S42  1  0.27174000  0.66796600  0.80667600  1
  S  S43  1  0.66796600  0.27174000  0.80667600  1
  S  S44  1  0.72826000  0.33203400  0.19332400  1
  S  S45  1  0.33203400  0.72826000  0.19332400  1
  S  S46  1  0.58951300  0.58951300  0.94212900  1
  S  S47  1  0.41048700  0.41048700  0.05787100  1
  S  S48  1  0.14957900  0.56524900  0.53027000  1
  S  S49  1  0.56524900  0.14957900  0.53027000  1
  S  S50  1  0.85042100  0.43475100  0.46973000  1
  S  S51  1  0.43475100  0.85042100  0.46973000  1
  S  S52  1  0.11808900  0.32559300  0.68072700  1
  S  S53  1  0.32559300  0.11808900  0.68072700  1
  S  S54  1  0.88191100  0.67440700  0.31927300  1
  S  S55  1  0.67440700  0.88191100  0.31927300  1
  S  S56  1  0.10076500  0.41536600  0.21696100  1
  S  S57  1  0.41536600  0.10076500  0.21696100  1
  S  S58  1  0.89923500  0.58463400  0.78303900  1
  S  S59  1  0.58463400  0.89923500  0.78303900  1
  N  N60  1  0.79977600  0.79977600  0.40363600  1
  N  N61  1  0.20022400  0.20022400  0.59636400  1
  N  N62  1  0.59831500  0.59831500  0.60492300  1
  N  N63  1  0.40168500  0.40168500  0.39507700  1
  N  N64  1  0.81869200  0.34871500  0.09339900  1
  N  N65  1  0.34871500  0.81869200  0.09339900  1
  N  N66  1  0.18130800  0.65128500  0.90660100  1
  N  N67  1  0.65128500  0.18130800  0.90660100  1
