# generated using pymatgen
data_KTiPO5
_symmetry_space_group_name_H-M   'P 1'
_cell_length_a   6.51619300
_cell_length_b   10.42341400
_cell_length_c   12.92990100
_cell_angle_alpha   90.00000000
_cell_angle_beta   90.00000000
_cell_angle_gamma   90.00000000
_symmetry_Int_Tables_number   1
_chemical_formula_structural   KTiPO5
_chemical_formula_sum   'K8 Ti8 P8 O40'
_cell_volume   878.21151287
_cell_formula_units_Z   8
loop_
 _symmetry_equiv_pos_site_id
 _symmetry_equiv_pos_as_xyz
  1  'x, y, z'
loop_
 _atom_site_type_symbol
 _atom_site_label
 _atom_site_symmetry_multiplicity
 _atom_site_fract_x
 _atom_site_fract_y
 _atom_site_fract_z
 _atom_site_occupancy
  K  K0  1  0.72612400  0.62828300  0.89479300  1
  K  K1  1  0.27387600  0.12828300  0.10520700  1
  K  K2  1  0.22612400  0.12828300  0.60520700  1
  K  K3  1  0.77387600  0.62828300  0.39479300  1
  K  K4  1  0.79710000  0.86800500  0.61603500  1
  K  K5  1  0.20290000  0.36800500  0.38396500  1
  K  K6  1  0.29710000  0.36800500  0.88396500  1
  K  K7  1  0.70290000  0.86800500  0.11603500  1
  Ti  Ti8  1  0.01150800  0.99666200  0.87009000  1
  Ti  Ti9  1  0.98849200  0.49666200  0.12991000  1
  Ti  Ti10  1  0.51150800  0.49666200  0.62991000  1
  Ti  Ti11  1  0.48849200  0.99666200  0.37009000  1
  Ti  Ti12  1  0.24759700  0.72326600  0.77779400  1
  Ti  Ti13  1  0.75240300  0.22326600  0.22220600  1
  Ti  Ti14  1  0.74759700  0.22326600  0.72220600  1
  Ti  Ti15  1  0.25240300  0.72326600  0.27779400  1
  P  P16  1  0.17300800  0.75542300  0.02610000  1
  P  P17  1  0.82699200  0.25542300  0.97390000  1
  P  P18  1  0.67300800  0.25542300  0.47390000  1
  P  P19  1  0.32699200  0.75542300  0.52610000  1
  P  P20  1  0.01723700  0.47810600  0.67923300  1
  P  P21  1  0.98276300  0.97810600  0.32076700  1
  P  P22  1  0.51723700  0.97810600  0.82076700  1
  P  P23  1  0.48276300  0.47810600  0.17923300  1
  O  O24  1  0.07550800  0.88868200  0.01016100  1
  O  O25  1  0.92449200  0.38868200  0.98983900  1
  O  O26  1  0.57550800  0.38868200  0.48983900  1
  O  O27  1  0.42449200  0.88868200  0.51016100  1
  O  O28  1  0.99759100  0.65534200  0.04056900  1
  O  O29  1  0.00240900  0.15534200  0.95943100  1
  O  O30  1  0.49759100  0.15534200  0.45943100  1
  O  O31  1  0.50240900  0.65534200  0.54056900  1
  O  O32  1  0.30655100  0.71071500  0.93172200  1
  O  O33  1  0.69344900  0.21071500  0.06827800  1
  O  O34  1  0.80655100  0.21071500  0.56827800  1
  O  O35  1  0.19344900  0.71071500  0.43172200  1
  O  O36  1  0.30997100  0.75726000  0.12454400  1
  O  O37  1  0.69002900  0.25726000  0.87545600  1
  O  O38  1  0.80997100  0.25726000  0.37545600  1
  O  O39  1  0.19002900  0.75726000  0.62454400  1
  O  O40  1  0.54078400  0.33313000  0.69375800  1
  O  O41  1  0.45921600  0.83313000  0.30624200  1
  O  O42  1  0.04078400  0.83313000  0.80624200  1
  O  O43  1  0.95921600  0.33313000  0.19375800  1
  O  O44  1  0.46004600  0.58362300  0.74514400  1
  O  O45  1  0.53995400  0.08362300  0.25485600  1
  O  O46  1  0.96004600  0.08362300  0.75485600  1
  O  O47  1  0.03995400  0.58362300  0.24514400  1
  O  O48  1  0.20266700  0.46700100  0.60406000  1
  O  O49  1  0.79733300  0.96700100  0.39594000  1
  O  O50  1  0.70266700  0.96700100  0.89594000  1
  O  O51  1  0.29733300  0.46700100  0.10406000  1
  O  O52  1  0.82342400  0.52516100  0.62234600  1
  O  O53  1  0.17657600  0.02516100  0.37765400  1
  O  O54  1  0.32342400  0.02516100  0.87765400  1
  O  O55  1  0.67657600  0.52516100  0.12234600  1
  O  O56  1  0.98225600  0.34338400  0.72926400  1
  O  O57  1  0.01774400  0.84338400  0.27073600  1
  O  O58  1  0.48225600  0.84338400  0.77073600  1
  O  O59  1  0.51774400  0.34338400  0.22926400  1
  O  O60  1  0.06268100  0.57045700  0.77145800  1
  O  O61  1  0.93731900  0.07045700  0.22854200  1
  O  O62  1  0.56268100  0.07045700  0.72854200  1
  O  O63  1  0.43731900  0.57045700  0.27145800  1
