# generated using pymatgen
data_Yb2Mn17
_symmetry_space_group_name_H-M   'P 1'
_cell_length_a   8.21511000
_cell_length_b   8.24308900
_cell_length_c   8.47835714
_cell_angle_alpha   60.91377394
_cell_angle_beta   90.00000000
_cell_angle_gamma   90.00000000
_symmetry_Int_Tables_number   1
_chemical_formula_structural   Yb2Mn17
_chemical_formula_sum   'Yb4 Mn34'
_cell_volume   501.73154559
_cell_formula_units_Z   2
loop_
 _symmetry_equiv_pos_site_id
 _symmetry_equiv_pos_as_xyz
  1  'x, y, z'
loop_
 _atom_site_type_symbol
 _atom_site_label
 _atom_site_symmetry_multiplicity
 _atom_site_fract_x
 _atom_site_fract_y
 _atom_site_fract_z
 _atom_site_occupancy
  Yb  Yb0  1  0.25000000  0.99562700  0.00874600  1
  Yb  Yb1  1  0.75000000  0.00437300  0.99125400  1
  Yb  Yb2  1  0.75000000  0.66461300  0.67077500  1
  Yb  Yb3  1  0.25000000  0.33538700  0.32922500  1
  Mn  Mn4  1  0.38836800  0.66582000  0.66836100  1
  Mn  Mn5  1  0.61163200  0.33418000  0.33163900  1
  Mn  Mn6  1  0.88836800  0.33418000  0.33163900  1
  Mn  Mn7  1  0.11163200  0.66582000  0.66836100  1
  Mn  Mn8  1  0.50000000  0.00000000  0.50000000  1
  Mn  Mn9  1  0.50000000  0.50000000  0.00000000  1
  Mn  Mn10  1  0.50000000  0.50000000  0.50000000  1
  Mn  Mn11  1  0.00000000  0.00000000  0.50000000  1
  Mn  Mn12  1  0.00000000  0.50000000  0.00000000  1
  Mn  Mn13  1  0.00000000  0.50000000  0.50000000  1
  Mn  Mn14  1  0.25000000  0.95258700  0.38328900  1
  Mn  Mn15  1  0.25000000  0.67880500  0.94568000  1
  Mn  Mn16  1  0.25000000  0.35642200  0.67313500  1
  Mn  Mn17  1  0.25000000  0.97044300  0.67313500  1
  Mn  Mn18  1  0.25000000  0.66412400  0.38328900  1
  Mn  Mn19  1  0.25000000  0.37551400  0.94568000  1
  Mn  Mn20  1  0.75000000  0.04741300  0.61671100  1
  Mn  Mn21  1  0.75000000  0.32119500  0.05432000  1
  Mn  Mn22  1  0.75000000  0.64357800  0.32686500  1
  Mn  Mn23  1  0.75000000  0.02955700  0.32686500  1
  Mn  Mn24  1  0.75000000  0.33587600  0.61671100  1
  Mn  Mn25  1  0.75000000  0.62448600  0.05432000  1
  Mn  Mn26  1  0.52679200  0.33899500  0.82629100  1
  Mn  Mn27  1  0.51716300  0.82890000  0.34219900  1
  Mn  Mn28  1  0.52679200  0.83471400  0.82629100  1
  Mn  Mn29  1  0.47320800  0.66100500  0.17370900  1
  Mn  Mn30  1  0.48283700  0.17110000  0.65780100  1
  Mn  Mn31  1  0.47320800  0.16528600  0.17370900  1
  Mn  Mn32  1  0.02679200  0.66100500  0.17370900  1
  Mn  Mn33  1  0.01716300  0.17110000  0.65780100  1
  Mn  Mn34  1  0.02679200  0.16528600  0.17370900  1
  Mn  Mn35  1  0.97320800  0.33899500  0.82629100  1
  Mn  Mn36  1  0.98283700  0.82890000  0.34219900  1
  Mn  Mn37  1  0.97320800  0.83471400  0.82629100  1
