# generated using pymatgen
data_Zn5P6H14(NO11)2
_symmetry_space_group_name_H-M   'P 1'
_cell_length_a   7.52050000
_cell_length_b   9.83475183
_cell_length_c   10.51328781
_cell_angle_alpha   63.19416223
_cell_angle_beta   88.59443688
_cell_angle_gamma   75.27714400
_symmetry_Int_Tables_number   1
_chemical_formula_structural   Zn5P6H14(NO11)2
_chemical_formula_sum   'Zn5 P6 H14 N2 O22'
_cell_volume   667.57473957
_cell_formula_units_Z   1
loop_
 _symmetry_equiv_pos_site_id
 _symmetry_equiv_pos_as_xyz
  1  'x, y, z'
loop_
 _atom_site_type_symbol
 _atom_site_label
 _atom_site_symmetry_multiplicity
 _atom_site_fract_x
 _atom_site_fract_y
 _atom_site_fract_z
 _atom_site_occupancy
  Zn  Zn0  1  0.50000000  0.50000000  0.50000000  1
  Zn  Zn1  1  0.37097900  0.85675400  0.98081600  1
  Zn  Zn2  1  0.62902100  0.14324600  0.01918400  1
  Zn  Zn3  1  0.65853100  0.80031100  0.66181600  1
  Zn  Zn4  1  0.34146900  0.19968900  0.33818400  1
  P  P5  1  0.74418400  0.43951200  0.80159100  1
  P  P6  1  0.25581600  0.56048800  0.19840900  1
  P  P7  1  0.24831200  0.99769800  0.65231500  1
  P  P8  1  0.75168800  0.00230200  0.34768500  1
  P  P9  1  0.75589400  0.90629800  0.88465700  1
  P  P10  1  0.24410600  0.09370200  0.11534300  1
  H  H11  1  0.88787500  0.34405500  0.76461700  1
  H  H12  1  0.11212500  0.65594500  0.23538300  1
  H  H13  1  0.07620100  0.98637800  0.61631400  1
  H  H14  1  0.92379900  0.01362200  0.38368600  1
  H  H15  1  0.93587100  0.83535800  0.95704800  1
  H  H16  1  0.06412900  0.16464200  0.04295200  1
  H  H17  1  0.73717800  0.58795300  0.08152500  1
  H  H18  1  0.26282200  0.41204700  0.91847500  1
  H  H19  1  0.75916600  0.40419600  0.09800500  1
  H  H20  1  0.24083400  0.59580400  0.90199500  1
  H  H21  1  0.70829400  0.44307500  0.23822300  1
  H  H22  1  0.29170600  0.55692500  0.76177700  1
  H  H23  1  0.92392500  0.43646200  0.18238800  1
  H  H24  1  0.07607500  0.56353800  0.81761200  1
  N  N25  1  0.78369800  0.46582400  0.15110600  1
  N  N26  1  0.21630200  0.53417600  0.84889400  1
  O  O27  1  0.39096100  0.84409100  0.66900700  1
  O  O28  1  0.60903900  0.15590900  0.33099300  1
  O  O29  1  0.56969600  0.49757500  0.69724500  1
  O  O30  1  0.43030400  0.50242500  0.30275500  1
  O  O31  1  0.71341300  0.33797100  0.95910900  1
  O  O32  1  0.28658700  0.66202900  0.04089100  1
  O  O33  1  0.81286800  0.58021100  0.78851200  1
  O  O34  1  0.18713200  0.41978900  0.21148800  1
  O  O35  1  0.28454900  0.14851200  0.53296600  1
  O  O36  1  0.71545100  0.85148800  0.46703400  1
  O  O37  1  0.68549300  0.07111000  0.87511000  1
  O  O38  1  0.31450700  0.92889000  0.12489000  1
  O  O39  1  0.23634200  0.00685600  0.79445100  1
  O  O40  1  0.76365800  0.99314400  0.20554900  1
  O  O41  1  0.64151100  0.79179700  0.97862600  1
  O  O42  1  0.35848900  0.20820300  0.02137400  1
  O  O43  1  0.76940900  0.91441200  0.73615100  1
  O  O44  1  0.23059100  0.08558800  0.26384900  1
  O  O45  1  0.71337300  0.32536200  0.51666900  1
  O  O46  1  0.28662700  0.67463800  0.48333100  1
  O  O47  1  0.69729900  0.57858000  0.38907000  1
  O  O48  1  0.30270100  0.42142000  0.61093000  1
