# generated using pymatgen
data_Nd6Fe13Ge
_symmetry_space_group_name_H-M   'P 1'
_cell_length_a   8.02182900
_cell_length_b   8.02182900
_cell_length_c   12.86465358
_cell_angle_alpha   108.16640922
_cell_angle_beta   108.16640922
_cell_angle_gamma   90.00000000
_symmetry_Int_Tables_number   1
_chemical_formula_structural   Nd6Fe13Ge
_chemical_formula_sum   'Nd12 Fe26 Ge2'
_cell_volume   743.02200071
_cell_formula_units_Z   2
loop_
 _symmetry_equiv_pos_site_id
 _symmetry_equiv_pos_as_xyz
  1  'x, y, z'
loop_
 _atom_site_type_symbol
 _atom_site_label
 _atom_site_symmetry_multiplicity
 _atom_site_fract_x
 _atom_site_fract_y
 _atom_site_fract_z
 _atom_site_occupancy
  Nd  Nd0  1  0.39163000  0.39163000  0.78326000  1
  Nd  Nd1  1  0.89163000  0.89163000  0.78326000  1
  Nd  Nd2  1  0.60837000  0.60837000  0.21674000  1
  Nd  Nd3  1  0.10837000  0.10837000  0.21674000  1
  Nd  Nd4  1  0.97725200  0.47725200  0.62257100  1
  Nd  Nd5  1  0.64531900  0.14531900  0.62257100  1
  Nd  Nd6  1  0.14531900  0.97725200  0.62257100  1
  Nd  Nd7  1  0.47725200  0.64531900  0.62257100  1
  Nd  Nd8  1  0.02274800  0.52274800  0.37742900  1
  Nd  Nd9  1  0.35468100  0.85468100  0.37742900  1
  Nd  Nd10  1  0.85468100  0.02274800  0.37742900  1
  Nd  Nd11  1  0.52274800  0.35468100  0.37742900  1
  Fe  Fe12  1  0.70898400  0.56509900  0.00000000  1
  Fe  Fe13  1  0.29101600  0.43490100  0.00000000  1
  Fe  Fe14  1  0.79101600  0.06509900  0.00000000  1
  Fe  Fe15  1  0.20898400  0.93490100  0.00000000  1
  Fe  Fe16  1  0.56509900  0.29101600  0.00000000  1
  Fe  Fe17  1  0.43490100  0.70898400  0.00000000  1
  Fe  Fe18  1  0.06509900  0.20898400  0.00000000  1
  Fe  Fe19  1  0.93490100  0.79101600  0.00000000  1
  Fe  Fe20  1  0.11897000  0.61897000  0.87930200  1
  Fe  Fe21  1  0.76033300  0.26033300  0.87930200  1
  Fe  Fe22  1  0.26033300  0.11897000  0.87930200  1
  Fe  Fe23  1  0.61897000  0.76033300  0.87930200  1
  Fe  Fe24  1  0.88103000  0.38103000  0.12069800  1
  Fe  Fe25  1  0.23966700  0.73966700  0.12069800  1
  Fe  Fe26  1  0.73966700  0.88103000  0.12069800  1
  Fe  Fe27  1  0.38103000  0.23966700  0.12069800  1
  Fe  Fe28  1  0.29128800  0.79128800  0.80934600  1
  Fe  Fe29  1  0.51805800  0.01805800  0.80934600  1
  Fe  Fe30  1  0.01805800  0.29128800  0.80934600  1
  Fe  Fe31  1  0.79128800  0.51805800  0.80934600  1
  Fe  Fe32  1  0.70871200  0.20871200  0.19065400  1
  Fe  Fe33  1  0.48194200  0.98194200  0.19065400  1
  Fe  Fe34  1  0.98194200  0.70871200  0.19065400  1
  Fe  Fe35  1  0.20871200  0.48194200  0.19065400  1
  Fe  Fe36  1  0.00000000  0.50000000  0.00000000  1
  Fe  Fe37  1  0.50000000  0.00000000  0.00000000  1
  Ge  Ge38  1  0.25000000  0.25000000  0.50000000  1
  Ge  Ge39  1  0.75000000  0.75000000  0.50000000  1
