# generated using pymatgen
data_Ce10Se14O
_symmetry_space_group_name_H-M   'P 1'
_cell_length_a   15.20566172
_cell_length_b   15.20566172
_cell_length_c   15.20566172
_cell_angle_alpha   93.94346025
_cell_angle_beta   117.74996505
_cell_angle_gamma   117.74996505
_symmetry_Int_Tables_number   1
_chemical_formula_structural   Ce10Se14O
_chemical_formula_sum   'Ce40 Se56 O4'
_cell_volume   2563.97663131
_cell_formula_units_Z   4
loop_
 _symmetry_equiv_pos_site_id
 _symmetry_equiv_pos_as_xyz
  1  'x, y, z'
loop_
 _atom_site_type_symbol
 _atom_site_label
 _atom_site_symmetry_multiplicity
 _atom_site_fract_x
 _atom_site_fract_y
 _atom_site_fract_z
 _atom_site_occupancy
  Ce  Ce0  1  0.84237262  0.02082486  0.41739969  1
  Ce  Ce1  1  0.39657483  0.07502707  0.91739969  1
  Ce  Ce2  1  0.34237262  0.91739969  0.52082486  1
  Ce  Ce3  1  0.60342517  0.67845224  0.02082486  1
  Ce  Ce4  1  0.15762738  0.97917514  0.58260031  1
  Ce  Ce5  1  0.60342517  0.92497293  0.08260031  1
  Ce  Ce6  1  0.65762738  0.08260031  0.47917514  1
  Ce  Ce7  1  0.39657483  0.32154776  0.97917514  1
  Ce  Ce8  1  0.10342517  0.52082486  0.17845224  1
  Ce  Ce9  1  0.65762738  0.57502707  0.67845224  1
  Ce  Ce10  1  0.89657483  0.41739969  0.57502707  1
  Ce  Ce11  1  0.15762738  0.17845224  0.07502707  1
  Ce  Ce12  1  0.89657483  0.47917514  0.82154776  1
  Ce  Ce13  1  0.34237262  0.42497293  0.32154776  1
  Ce  Ce14  1  0.10342517  0.58260031  0.42497293  1
  Ce  Ce15  1  0.84237262  0.82154776  0.92497293  1
  Ce  Ce16  1  0.37494180  0.80517946  0.18896649  1
  Ce  Ce17  1  0.38378703  0.31402469  0.68896649  1
  Ce  Ce18  1  0.87494180  0.68896649  0.30517946  1
  Ce  Ce19  1  0.61621297  0.93023766  0.80517946  1
  Ce  Ce20  1  0.62505820  0.19482054  0.81103351  1
  Ce  Ce21  1  0.61621297  0.68597531  0.31103351  1
  Ce  Ce22  1  0.12505820  0.31103351  0.69482054  1
  Ce  Ce23  1  0.38378703  0.06976234  0.19482054  1
  Ce  Ce24  1  0.11621297  0.30517946  0.43023766  1
  Ce  Ce25  1  0.12505820  0.81402469  0.93023766  1
  Ce  Ce26  1  0.88378703  0.18896649  0.81402469  1
  Ce  Ce27  1  0.62505820  0.43023766  0.31402469  1
  Ce  Ce28  1  0.88378703  0.69482054  0.56976234  1
  Ce  Ce29  1  0.87494180  0.18597531  0.06976234  1
  Ce  Ce30  1  0.11621297  0.81103351  0.18597531  1
  Ce  Ce31  1  0.37494180  0.56976234  0.68597531  1
  Ce  Ce32  1  0.48180202  0.74090101  0.49090101  1
  Ce  Ce33  1  0.75000000  0.50909899  0.99090101  1
  Ce  Ce34  1  0.98180202  0.99090101  0.24090101  1
  Ce  Ce35  1  0.25000000  0.75909899  0.74090101  1
  Ce  Ce36  1  0.51819798  0.25909899  0.50909899  1
  Ce  Ce37  1  0.25000000  0.49090101  0.00909899  1
  Ce  Ce38  1  0.01819798  0.00909899  0.75909899  1
  Ce  Ce39  1  0.75000000  0.24090101  0.25909899  1
  Se  Se40  1  0.59697915  0.62084552  0.47980762  1
  Se  Se41  1  0.85896210  0.38282847  0.97980762  1
  Se  Se42  1  0.09697915  0.97980762  0.12084552  1
  Se  Se43  1  0.14103790  0.52386637  0.62084552  1
  Se  Se44  1  0.40302085  0.37915448  0.52019238  1
  Se  Se45  1  0.14103790  0.61717153  0.02019238  1
  Se  Se46  1  0.90302085  0.02019238  0.87915448  1
  Se  Se47  1  0.85896210  0.47613363  0.37915448  1
  Se  Se48  1  0.64103790  0.12084552  0.02386637  1
  Se  Se49  1  0.90302085  0.88282847  0.52386637  1
  Se  Se50  1  0.35896210  0.47980762  0.88282847  1
  Se  Se51  1  0.40302085  0.02386637  0.38282847  1
  Se  Se52  1  0.35896210  0.87915448  0.97613363  1
  Se  Se53  1  0.09697915  0.11717153  0.47613363  1
  Se  Se54  1  0.64103790  0.52019238  0.11717153  1
  Se  Se55  1  0.59697915  0.97613363  0.61717153  1
  Se  Se56  1  0.58689177  0.02213615  0.24997516  1
  Se  Se57  1  0.22783902  0.16308339  0.74997516  1
  Se  Se58  1  0.08689177  0.74997516  0.52213615  1
  Se  Se59  1  0.77216098  0.93524438  0.02213615  1
  Se  Se60  1  0.41310823  0.97786385  0.75002484  1
  Se  Se61  1  0.77216098  0.83691661  0.25002484  1
  Se  Se62  1  0.91310823  0.25002484  0.47786385  1
  Se  Se63  1  0.22783902  0.06475562  0.97786385  1
  Se  Se64  1  0.27216098  0.52213615  0.43524438  1
  Se  Se65  1  0.91310823  0.66308339  0.93524438  1
  Se  Se66  1  0.72783902  0.24997516  0.66308339  1
  Se  Se67  1  0.41310823  0.43524438  0.16308339  1
  Se  Se68  1  0.72783902  0.47786385  0.56475562  1
  Se  Se69  1  0.08689177  0.33691661  0.06475562  1
  Se  Se70  1  0.27216098  0.75002484  0.33691661  1
  Se  Se71  1  0.58689177  0.56475562  0.83691661  1
  Se  Se72  1  0.89013579  0.10064875  0.63288788  1
  Se  Se73  1  0.53223913  0.24275208  0.13288788  1
  Se  Se74  1  0.39013579  0.13288788  0.60064875  1
  Se  Se75  1  0.46776087  0.71051295  0.10064875  1
  Se  Se76  1  0.10986421  0.89935125  0.36711212  1
  Se  Se77  1  0.46776087  0.75724792  0.86711212  1
  Se  Se78  1  0.60986421  0.86711212  0.39935125  1
  Se  Se79  1  0.53223913  0.28948705  0.89935125  1
  Se  Se80  1  0.96776087  0.60064875  0.21051295  1
  Se  Se81  1  0.60986421  0.74275208  0.71051295  1
  Se  Se82  1  0.03223913  0.63288788  0.74275208  1
  Se  Se83  1  0.10986421  0.21051295  0.24275208  1
  Se  Se84  1  0.03223913  0.39935125  0.78948705  1
  Se  Se85  1  0.39013579  0.25724792  0.28948705  1
  Se  Se86  1  0.96776087  0.36711212  0.25724792  1
  Se  Se87  1  0.89013579  0.78948705  0.75724792  1
  Se  Se88  1  0.64501078  0.25000000  0.39501078  1
  Se  Se89  1  0.14501078  0.25000000  0.89501078  1
  Se  Se90  1  0.14501078  0.89501078  0.75000000  1
  Se  Se91  1  0.85498922  0.10498922  0.25000000  1
  Se  Se92  1  0.35498922  0.75000000  0.60498922  1
  Se  Se93  1  0.85498922  0.75000000  0.10498922  1
  Se  Se94  1  0.64501078  0.39501078  0.75000000  1
  Se  Se95  1  0.35498922  0.60498922  0.25000000  1
  O  O96  1  0.75000000  0.12500000  0.87500000  1
  O  O97  1  0.75000000  0.62500000  0.37500000  1
  O  O98  1  0.25000000  0.37500000  0.62500000  1
  O  O99  1  0.25000000  0.87500000  0.12500000  1
