# generated using pymatgen
data_NaSbClOF3
_symmetry_space_group_name_H-M   'P 1'
_cell_length_a   5.97679300
_cell_length_b   11.53127100
_cell_length_c   15.00562900
_cell_angle_alpha   90.00000000
_cell_angle_beta   90.00000000
_cell_angle_gamma   90.00000000
_symmetry_Int_Tables_number   1
_chemical_formula_structural   NaSbClOF3
_chemical_formula_sum   'Na8 Sb8 Cl8 O8 F24'
_cell_volume   1034.18824770
_cell_formula_units_Z   8
loop_
 _symmetry_equiv_pos_site_id
 _symmetry_equiv_pos_as_xyz
  1  'x, y, z'
loop_
 _atom_site_type_symbol
 _atom_site_label
 _atom_site_symmetry_multiplicity
 _atom_site_fract_x
 _atom_site_fract_y
 _atom_site_fract_z
 _atom_site_occupancy
  Na  Na0  1  0.70691500  0.37489100  0.00785300  1
  Na  Na1  1  0.79308500  0.87489100  0.99214700  1
  Na  Na2  1  0.20691500  0.62510900  0.49214700  1
  Na  Na3  1  0.29308500  0.12510900  0.50785300  1
  Na  Na4  1  0.29308500  0.62510900  0.99214700  1
  Na  Na5  1  0.20691500  0.12510900  0.00785300  1
  Na  Na6  1  0.79308500  0.37489100  0.50785300  1
  Na  Na7  1  0.70691500  0.87489100  0.49214700  1
  Sb  Sb8  1  0.64926800  0.09134400  0.16797400  1
  Sb  Sb9  1  0.85073200  0.59134400  0.83202600  1
  Sb  Sb10  1  0.14926800  0.90865600  0.33202600  1
  Sb  Sb11  1  0.35073200  0.40865600  0.66797400  1
  Sb  Sb12  1  0.35073200  0.90865600  0.83202600  1
  Sb  Sb13  1  0.14926800  0.40865600  0.16797400  1
  Sb  Sb14  1  0.85073200  0.09134400  0.66797400  1
  Sb  Sb15  1  0.64926800  0.59134400  0.33202600  1
  Cl  Cl16  1  0.72724600  0.35835200  0.25989400  1
  Cl  Cl17  1  0.77275400  0.85835200  0.74010600  1
  Cl  Cl18  1  0.22724600  0.64164800  0.24010600  1
  Cl  Cl19  1  0.27275400  0.14164800  0.75989400  1
  Cl  Cl20  1  0.27275400  0.64164800  0.74010600  1
  Cl  Cl21  1  0.22724600  0.14164800  0.25989400  1
  Cl  Cl22  1  0.77275400  0.35835200  0.75989400  1
  Cl  Cl23  1  0.72724600  0.85835200  0.24010600  1
  O  O24  1  0.66693000  0.24140100  0.38880800  1
  O  O25  1  0.83307000  0.74140100  0.61119200  1
  O  O26  1  0.16693000  0.75859900  0.11119200  1
  O  O27  1  0.33307000  0.25859900  0.88880800  1
  O  O28  1  0.33307000  0.75859900  0.61119200  1
  O  O29  1  0.16693000  0.25859900  0.38880800  1
  O  O30  1  0.83307000  0.24140100  0.88880800  1
  O  O31  1  0.66693000  0.74140100  0.11119200  1
  F  F32  1  0.54224700  0.71269000  0.41851300  1
  F  F33  1  0.95775300  0.21269000  0.58148700  1
  F  F34  1  0.04224700  0.28731000  0.08148700  1
  F  F35  1  0.45775300  0.78731000  0.91851300  1
  F  F36  1  0.45775300  0.28731000  0.58148700  1
  F  F37  1  0.04224700  0.78731000  0.41851300  1
  F  F38  1  0.95775300  0.71269000  0.91851300  1
  F  F39  1  0.54224700  0.21269000  0.08148700  1
  F  F40  1  0.88240400  0.04545000  0.07811800  1
  F  F41  1  0.61759600  0.54545000  0.92188200  1
  F  F42  1  0.38240400  0.95455000  0.42188200  1
  F  F43  1  0.11759600  0.45455000  0.57811800  1
  F  F44  1  0.11759600  0.95455000  0.92188200  1
  F  F45  1  0.38240400  0.45455000  0.07811800  1
  F  F46  1  0.61759600  0.04545000  0.57811800  1
  F  F47  1  0.88240400  0.54545000  0.42188200  1
  F  F48  1  0.94231900  0.00647800  0.40164600  1
  F  F49  1  0.55768100  0.50647800  0.59835400  1
  F  F50  1  0.44231900  0.99352200  0.09835400  1
  F  F51  1  0.05768100  0.49352200  0.90164600  1
  F  F52  1  0.05768100  0.99352200  0.59835400  1
  F  F53  1  0.44231900  0.49352200  0.40164600  1
  F  F54  1  0.55768100  0.00647800  0.90164600  1
  F  F55  1  0.94231900  0.50647800  0.09835400  1
