# generated using pymatgen
data_TaH24C8N4Cl
_symmetry_space_group_name_H-M   'P 1'
_cell_length_a   9.08014700
_cell_length_b   12.57755900
_cell_length_c   16.08476487
_cell_angle_alpha   90.00000000
_cell_angle_beta   111.43022273
_cell_angle_gamma   90.00000000
_symmetry_Int_Tables_number   1
_chemical_formula_structural   TaH24C8N4Cl
_chemical_formula_sum   'Ta4 H96 C32 N16 Cl4'
_cell_volume   1709.97527050
_cell_formula_units_Z   4
loop_
 _symmetry_equiv_pos_site_id
 _symmetry_equiv_pos_as_xyz
  1  'x, y, z'
loop_
 _atom_site_type_symbol
 _atom_site_label
 _atom_site_symmetry_multiplicity
 _atom_site_fract_x
 _atom_site_fract_y
 _atom_site_fract_z
 _atom_site_occupancy
  Ta  Ta0  1  0.80569200  0.28367700  0.62078300  1
  Ta  Ta1  1  0.80569200  0.21632300  0.12078300  1
  Ta  Ta2  1  0.19430800  0.71632300  0.37921700  1
  Ta  Ta3  1  0.19430800  0.78367700  0.87921700  1
  H  H4  1  0.58618400  0.30866000  0.78500800  1
  H  H5  1  0.58618400  0.19134000  0.28500800  1
  H  H6  1  0.41381600  0.69134000  0.21499200  1
  H  H7  1  0.41381600  0.80866000  0.71499200  1
  H  H8  1  0.54043600  0.36790700  0.67706400  1
  H  H9  1  0.54043600  0.13209300  0.17706400  1
  H  H10  1  0.45956400  0.63209300  0.32293600  1
  H  H11  1  0.45956400  0.86790700  0.82293600  1
  H  H12  1  0.66829200  0.43444600  0.77462300  1
  H  H13  1  0.66829200  0.06555400  0.27462300  1
  H  H14  1  0.33170800  0.56555400  0.22537700  1
  H  H15  1  0.33170800  0.93444600  0.72537700  1
  H  H16  1  0.92902700  0.35241000  0.86099700  1
  H  H17  1  0.92902700  0.14759000  0.36099700  1
  H  H18  1  0.07097300  0.64759000  0.13900300  1
  H  H19  1  0.07097300  0.85241000  0.63900300  1
  H  H20  1  0.98870100  0.23514700  0.81844800  1
  H  H21  1  0.98870100  0.26485300  0.31844800  1
  H  H22  1  0.01129900  0.76485300  0.18155200  1
  H  H23  1  0.01129900  0.73514700  0.68155200  1
  H  H24  1  0.83288500  0.22912300  0.86104700  1
  H  H25  1  0.83288500  0.27087700  0.36104700  1
  H  H26  1  0.16711500  0.77087700  0.13895300  1
  H  H27  1  0.16711500  0.72912300  0.63895300  1
  H  H28  1  0.20239200  0.36510000  0.61826600  1
  H  H29  1  0.20239200  0.13490000  0.11826600  1
  H  H30  1  0.79760800  0.63490000  0.38173400  1
  H  H31  1  0.79760800  0.86510000  0.88173400  1
  H  H32  1  0.01978300  0.37933600  0.52761300  1
  H  H33  1  0.01978300  0.12066400  0.02761300  1
  H  H34  1  0.98021700  0.62066400  0.47238700  1
  H  H35  1  0.98021700  0.87933600  0.97238700  1
  H  H36  1  0.14595000  0.26912900  0.53080400  1
  H  H37  1  0.14595000  0.23087100  0.03080400  1
  H  H38  1  0.85405000  0.73087100  0.46919600  1
  H  H39  1  0.85405000  0.76912900  0.96919600  1
  H  H40  1  0.16197300  0.11980100  0.62323200  1
  H  H41  1  0.16197300  0.38019900  0.12323200  1
  H  H42  1  0.83802700  0.88019900  0.37676800  1
  H  H43  1  0.83802700  0.61980100  0.87676800  1
  H  H44  1  0.08411300  0.12623800  0.71052600  1
  H  H45  1  0.08411300  0.37376200  0.21052600  1
  H  H46  1  0.91588700  0.87376200  0.28947400  1
  H  H47  1  0.91588700  0.62623800  0.78947400  1
  H  H48  1  0.24527700  0.20913500  0.71363000  1
  H  H49  1  0.24527700  0.29086500  0.21363000  1
  H  H50  1  0.75472300  0.79086500  0.28637000  1
  H  H51  1  0.75472300  0.70913500  0.78637000  1
  H  H52  1  0.57311300  0.36604400  0.37237900  1
  H  H53  1  0.57311300  0.13395600  0.87237900  1
  H  H54  1  0.42688700  0.63395600  0.62762100  1
  H  H55  1  0.42688700  0.86604400  0.12762100  1
  H  H56  1  0.72909800  0.43946300  0.45328700  1
  H  H57  1  0.72909800  0.06053700  0.95328700  1
  H  H58  1  0.27090200  0.56053700  0.54671300  1
  H  H59  1  0.27090200  0.93946300  0.04671300  1
  H  H60  1  0.52789100  0.46219400  0.43996200  1
  H  H61  1  0.52789100  0.03780600  0.93996200  1
  H  H62  1  0.47210900  0.53780600  0.56003800  1
  H  H63  1  0.47210900  0.96219400  0.06003800  1
  H  H64  1  0.37542900  0.31343400  0.46163200  1
  H  H65  1  0.37542900  0.18656600  0.96163200  1
  H  H66  1  0.62457100  0.68656600  0.53836800  1
  H  H67  1  0.62457100  0.81343400  0.03836800  1
  H  H68  1  0.47268400  0.19897400  0.52358800  1
  H  H69  1  0.47268400  0.30102600  0.02358800  1
  H  H70  1  0.52731600  0.80102600  0.47641200  1
  H  H71  1  0.52731600  0.69897400  0.97641200  1
  H  H72  1  0.45843100  0.21741200  0.41060900  1
  H  H73  1  0.45843100  0.28258800  0.91060900  1
  H  H74  1  0.54156900  0.78258800  0.58939100  1
  H  H75  1  0.54156900  0.71741200  0.08939100  1
  H  H76  1  0.85056700  0.98768700  0.57919600  1
  H  H77  1  0.85056700  0.51231300  0.07919600  1
  H  H78  1  0.14943300  0.01231300  0.42080400  1
  H  H79  1  0.14943300  0.48768700  0.92080400  1
  H  H80  1  0.82682000  0.10044700  0.50741000  1
  H  H81  1  0.82682000  0.39955300  0.00741000  1
  H  H82  1  0.17318000  0.89955300  0.49259000  1
  H  H83  1  0.17318000  0.60044700  0.99259000  1
  H  H84  1  0.65890000  0.02447800  0.50521500  1
  H  H85  1  0.65890000  0.47552200  0.00521500  1
  H  H86  1  0.34110000  0.97552200  0.49478500  1
  H  H87  1  0.34110000  0.52447800  0.99478500  1
  H  H88  1  0.58537200  0.02095300  0.63361000  1
  H  H89  1  0.58537200  0.47904700  0.13361000  1
  H  H90  1  0.41462800  0.97904700  0.36639000  1
  H  H91  1  0.41462800  0.52095300  0.86639000  1
  H  H92  1  0.67385500  0.11141100  0.72408300  1
  H  H93  1  0.67385500  0.38858900  0.22408300  1
  H  H94  1  0.32614500  0.88858900  0.27591700  1
  H  H95  1  0.32614500  0.61141100  0.77591700  1
  H  H96  1  0.78223700  0.99903800  0.70895200  1
  H  H97  1  0.78223700  0.50096200  0.20895200  1
  H  H98  1  0.21776300  0.00096200  0.29104800  1
  H  H99  1  0.21776300  0.49903800  0.79104800  1
  C  C100  1  0.63431400  0.35567600  0.74273200  1
  C  C101  1  0.63431400  0.14432400  0.24273200  1
  C  C102  1  0.36568600  0.64432400  0.25726800  1
  C  C103  1  0.36568600  0.85567600  0.75726800  1
  C  C104  1  0.88633800  0.27832900  0.82272800  1
  C  C105  1  0.88633800  0.22167100  0.32272800  1
  C  C106  1  0.11366200  0.72167100  0.17727200  1
  C  C107  1  0.11366200  0.77832900  0.67727200  1
  C  C108  1  0.10003100  0.32101300  0.57138400  1
  C  C109  1  0.10003100  0.17898700  0.07138400  1
  C  C110  1  0.89996900  0.67898700  0.42861600  1
  C  C111  1  0.89996900  0.82101300  0.92861600  1
  C  C112  1  0.13220100  0.17368100  0.66935100  1
  C  C113  1  0.13220100  0.32631900  0.16935100  1
  C  C114  1  0.86779900  0.82631900  0.33064900  1
  C  C115  1  0.86779900  0.67368100  0.83064900  1
  C  C116  1  0.61509700  0.40064900  0.44031000  1
  C  C117  1  0.61509700  0.09935100  0.94031000  1
  C  C118  1  0.38490300  0.59935100  0.55969000  1
  C  C119  1  0.38490300  0.90064900  0.05969000  1
  C  C120  1  0.47617300  0.25830700  0.47455300  1
  C  C121  1  0.47617300  0.24169300  0.97455300  1
  C  C122  1  0.52382700  0.74169300  0.52544700  1
  C  C123  1  0.52382700  0.75830700  0.02544700  1
  C  C124  1  0.77460600  0.05685300  0.54901900  1
  C  C125  1  0.77460600  0.44314700  0.04901900  1
  C  C126  1  0.22539400  0.94314700  0.45098100  1
  C  C127  1  0.22539400  0.55685300  0.95098100  1
  C  C128  1  0.69661100  0.06173600  0.67411300  1
  C  C129  1  0.69661100  0.43826400  0.17411300  1
  C  C130  1  0.30338900  0.93826400  0.32588700  1
  C  C131  1  0.30338900  0.56173600  0.82588700  1
  N  N132  1  0.77033400  0.30202400  0.73477700  1
  N  N133  1  0.77033400  0.19797600  0.23477700  1
  N  N134  1  0.22966600  0.69797600  0.26522300  1
  N  N135  1  0.22966600  0.80202400  0.76522300  1
  N  N136  1  0.02364000  0.25688800  0.61977000  1
  N  N137  1  0.02364000  0.24311200  0.11977000  1
  N  N138  1  0.97636000  0.74311200  0.38023000  1
  N  N139  1  0.97636000  0.75688800  0.88023000  1
  N  N140  1  0.62528700  0.31735800  0.50568500  1
  N  N141  1  0.62528700  0.18264200  0.00568500  1
  N  N142  1  0.37471300  0.68264200  0.49431500  1
  N  N143  1  0.37471300  0.81735800  0.99431500  1
  N  N144  1  0.75638800  0.12553900  0.61772800  1
  N  N145  1  0.75638800  0.37446100  0.11772800  1
  N  N146  1  0.24361200  0.87446100  0.38227200  1
  N  N147  1  0.24361200  0.62553900  0.88227200  1
  Cl  Cl148  1  0.86947100  0.47763300  0.62693600  1
  Cl  Cl149  1  0.86947100  0.02236700  0.12693600  1
  Cl  Cl150  1  0.13052900  0.52236700  0.37306400  1
  Cl  Cl151  1  0.13052900  0.97763300  0.87306400  1
