# generated using pymatgen
data_CsP2H5O8
_symmetry_space_group_name_H-M   'P 1'
_cell_length_a   6.99163900
_cell_length_b   8.00792201
_cell_length_c   8.18432547
_cell_angle_alpha   103.83330289
_cell_angle_beta   110.51251802
_cell_angle_gamma   86.99434170
_symmetry_Int_Tables_number   1
_chemical_formula_structural   CsP2H5O8
_chemical_formula_sum   'Cs2 P4 H10 O16'
_cell_volume   416.47879875
_cell_formula_units_Z   2
loop_
 _symmetry_equiv_pos_site_id
 _symmetry_equiv_pos_as_xyz
  1  'x, y, z'
loop_
 _atom_site_type_symbol
 _atom_site_label
 _atom_site_symmetry_multiplicity
 _atom_site_fract_x
 _atom_site_fract_y
 _atom_site_fract_z
 _atom_site_occupancy
  Cs  Cs0  1  0.89581600  0.70446900  0.66583500  1
  Cs  Cs1  1  0.10418400  0.29553100  0.33416500  1
  P  P2  1  0.61575700  0.17374900  0.79578000  1
  P  P3  1  0.38424300  0.82625100  0.20422000  1
  P  P4  1  0.20536700  0.24328300  0.83155700  1
  P  P5  1  0.79463300  0.75671700  0.16844300  1
  H  H6  1  0.72044200  0.45074700  0.96679300  1
  H  H7  1  0.27955800  0.54925300  0.03320700  1
  H  H8  1  0.81474600  0.22870900  0.65425500  1
  H  H9  1  0.18525400  0.77129100  0.34574500  1
  H  H10  1  0.24455700  0.03669600  0.98171400  1
  H  H11  1  0.75544300  0.96330400  0.01828600  1
  H  H12  1  0.58340900  0.37228200  0.20707300  1
  H  H13  1  0.41659100  0.62771800  0.79292700  1
  H  H14  1  0.58940000  0.31872900  0.37700900  1
  H  H15  1  0.41060000  0.68127100  0.62299100  1
  O  O16  1  0.73626000  0.31604800  0.96318800  1
  O  O17  1  0.26374000  0.68395200  0.03681200  1
  O  O18  1  0.65240400  0.99973900  0.83752800  1
  O  O19  1  0.34759600  0.00026100  0.16247200  1
  O  O20  1  0.66207200  0.19079400  0.62652700  1
  O  O21  1  0.33792800  0.80920600  0.37347300  1
  O  O22  1  0.37696300  0.21450300  0.73372300  1
  O  O23  1  0.62303700  0.78549700  0.26627700  1
  O  O24  1  0.29544900  0.37011200  0.01233500  1
  O  O25  1  0.70455100  0.62988800  0.98766500  1
  O  O26  1  0.02020800  0.29517700  0.69207400  1
  O  O27  1  0.97979200  0.70482300  0.30792600  1
  O  O28  1  0.16330900  0.06241200  0.85736700  1
  O  O29  1  0.83669100  0.93758800  0.14263300  1
  O  O30  1  0.65957000  0.39328700  0.33599900  1
  O  O31  1  0.34043000  0.60671300  0.66400100  1
