# generated using pymatgen
data_Na2H14CO10
_symmetry_space_group_name_H-M   'P 1'
_cell_length_a   7.06586643
_cell_length_b   14.63840995
_cell_length_c   19.42925863
_cell_angle_alpha   90.00000000
_cell_angle_beta   90.00000000
_cell_angle_gamma   90.00000000
_symmetry_Int_Tables_number   1
_chemical_formula_structural   Na2H14CO10
_chemical_formula_sum   'Na16 H112 C8 O80'
_cell_volume   2009.62746874
_cell_formula_units_Z   8
loop_
 _symmetry_equiv_pos_site_id
 _symmetry_equiv_pos_as_xyz
  1  'x, y, z'
loop_
 _atom_site_type_symbol
 _atom_site_label
 _atom_site_symmetry_multiplicity
 _atom_site_fract_x
 _atom_site_fract_y
 _atom_site_fract_z
 _atom_site_occupancy
  Na  Na0  1  0.44801514  0.01141412  0.22849611  1
  Na  Na1  1  0.55198486  0.51141412  0.27150389  1
  Na  Na2  1  0.05198486  0.98858588  0.72849611  1
  Na  Na3  1  0.94801514  0.48858588  0.77150389  1
  Na  Na4  1  0.55198486  0.98858588  0.77150389  1
  Na  Na5  1  0.44801514  0.48858588  0.72849611  1
  Na  Na6  1  0.94801514  0.01141412  0.27150389  1
  Na  Na7  1  0.05198486  0.51141412  0.22849611  1
  Na  Na8  1  0.14759411  0.94800738  0.05532141  1
  Na  Na9  1  0.85240589  0.44800738  0.44467859  1
  Na  Na10  1  0.35240589  0.05199262  0.55532141  1
  Na  Na11  1  0.64759411  0.55199262  0.94467859  1
  Na  Na12  1  0.85240589  0.05199262  0.94467859  1
  Na  Na13  1  0.14759411  0.55199262  0.55532141  1
  Na  Na14  1  0.64759411  0.94800738  0.44467859  1
  Na  Na15  1  0.35240589  0.44800738  0.05532141  1
  H  H16  1  0.50940431  0.03815055  0.07733309  1
  H  H17  1  0.49059569  0.53815055  0.42266691  1
  H  H18  1  0.99059569  0.96184945  0.57733309  1
  H  H19  1  0.00940431  0.46184945  0.92266691  1
  H  H20  1  0.49059569  0.96184945  0.92266691  1
  H  H21  1  0.50940431  0.46184945  0.57733309  1
  H  H22  1  0.00940431  0.03815055  0.42266691  1
  H  H23  1  0.99059569  0.53815055  0.07733309  1
  H  H24  1  0.50947747  0.93206516  0.09713582  1
  H  H25  1  0.49052253  0.43206516  0.40286418  1
  H  H26  1  0.99052253  0.06793484  0.59713582  1
  H  H27  1  0.00947747  0.56793484  0.90286418  1
  H  H28  1  0.49052253  0.06793484  0.90286418  1
  H  H29  1  0.50947747  0.56793484  0.59713582  1
  H  H30  1  0.00947747  0.93206516  0.40286418  1
  H  H31  1  0.99052253  0.43206516  0.09713582  1
  H  H32  1  0.35244288  0.65727962  0.20954736  1
  H  H33  1  0.64755712  0.15727962  0.29045264  1
  H  H34  1  0.14755712  0.34272038  0.70954736  1
  H  H35  1  0.85244288  0.84272038  0.79045264  1
  H  H36  1  0.64755712  0.34272038  0.79045264  1
  H  H37  1  0.35244288  0.84272038  0.70954736  1
  H  H38  1  0.85244288  0.65727962  0.29045264  1
  H  H39  1  0.14755712  0.15727962  0.20954736  1
  H  H40  1  0.72251503  0.16860559  0.21358770  1
  H  H41  1  0.27748497  0.66860559  0.28641230  1
  H  H42  1  0.77748497  0.83139441  0.71358770  1
  H  H43  1  0.22251503  0.33139441  0.78641230  1
  H  H44  1  0.27748497  0.83139441  0.78641230  1
  H  H45  1  0.72251503  0.33139441  0.71358770  1
  H  H46  1  0.22251503  0.16860559  0.28641230  1
  H  H47  1  0.77748497  0.66860559  0.21358770  1
  H  H48  1  0.16812476  0.86802917  0.20987814  1
  H  H49  1  0.83187524  0.36802917  0.29012186  1
  H  H50  1  0.33187524  0.13197083  0.70987814  1
  H  H51  1  0.66812476  0.63197083  0.79012186  1
  H  H52  1  0.83187524  0.13197083  0.79012186  1
  H  H53  1  0.16812476  0.63197083  0.70987814  1
  H  H54  1  0.66812476  0.86802917  0.29012186  1
  H  H55  1  0.33187524  0.36802917  0.20987814  1
  H  H56  1  0.22692668  0.65287929  0.78615640  1
  H  H57  1  0.77307332  0.15287929  0.71384360  1
  H  H58  1  0.27307332  0.34712071  0.28615640  1
  H  H59  1  0.72692668  0.84712071  0.21384360  1
  H  H60  1  0.77307332  0.34712071  0.21384360  1
  H  H61  1  0.22692668  0.84712071  0.28615640  1
  H  H62  1  0.72692668  0.65287929  0.71384360  1
  H  H63  1  0.27307332  0.15287929  0.78615640  1
  H  H64  1  0.23153178  0.76939954  0.12428123  1
  H  H65  1  0.76846822  0.26939954  0.37571877  1
  H  H66  1  0.26846822  0.23060046  0.62428123  1
  H  H67  1  0.73153178  0.73060046  0.87571877  1
  H  H68  1  0.76846822  0.23060046  0.87571877  1
  H  H69  1  0.23153178  0.73060046  0.62428123  1
  H  H70  1  0.73153178  0.76939954  0.37571877  1
  H  H71  1  0.26846822  0.26939954  0.12428123  1
  H  H72  1  0.00625606  0.78551120  0.13137282  1
  H  H73  1  0.99374394  0.28551120  0.36862718  1
  H  H74  1  0.49374394  0.21448880  0.63137282  1
  H  H75  1  0.50625606  0.71448880  0.86862718  1
  H  H76  1  0.99374394  0.21448880  0.86862718  1
  H  H77  1  0.00625606  0.71448880  0.63137282  1
  H  H78  1  0.50625606  0.78551120  0.36862718  1
  H  H79  1  0.49374394  0.28551120  0.13137282  1
  H  H80  1  0.38998351  0.64348294  0.04253963  1
  H  H81  1  0.61001649  0.14348294  0.45746037  1
  H  H82  1  0.11001649  0.35651706  0.54253963  1
  H  H83  1  0.88998351  0.85651706  0.95746037  1
  H  H84  1  0.61001649  0.35651706  0.95746037  1
  H  H85  1  0.38998351  0.85651706  0.54253963  1
  H  H86  1  0.88998351  0.64348294  0.45746037  1
  H  H87  1  0.11001649  0.14348294  0.04253963  1
  H  H88  1  0.27769376  0.62901073  0.97303667  1
  H  H89  1  0.72230624  0.12901073  0.52696333  1
  H  H90  1  0.22230624  0.37098927  0.47303667  1
  H  H91  1  0.77769376  0.87098927  0.02696333  1
  H  H92  1  0.72230624  0.37098927  0.02696333  1
  H  H93  1  0.27769376  0.87098927  0.47303667  1
  H  H94  1  0.77769376  0.62901073  0.52696333  1
  H  H95  1  0.22230624  0.12901073  0.97303667  1
  H  H96  1  0.81496083  0.00408323  0.14642349  1
  H  H97  1  0.18503917  0.50408323  0.35357651  1
  H  H98  1  0.68503917  0.99591677  0.64642349  1
  H  H99  1  0.31496083  0.49591677  0.85357651  1
  H  H100  1  0.18503917  0.99591677  0.85357651  1
  H  H101  1  0.81496083  0.49591677  0.64642349  1
  H  H102  1  0.31496083  0.00408323  0.35357651  1
  H  H103  1  0.68503917  0.50408323  0.14642349  1
  H  H104  1  0.54147082  0.58542664  0.13681718  1
  H  H105  1  0.45852918  0.08542664  0.36318282  1
  H  H106  1  0.95852918  0.41457336  0.63681718  1
  H  H107  1  0.04147082  0.91457336  0.86318282  1
  H  H108  1  0.45852918  0.41457336  0.86318282  1
  H  H109  1  0.54147082  0.91457336  0.63681718  1
  H  H110  1  0.04147082  0.58542664  0.36318282  1
  H  H111  1  0.95852918  0.08542664  0.13681718  1
  H  H112  1  0.84252709  0.66574154  0.06890012  1
  H  H113  1  0.15747291  0.16574154  0.43109988  1
  H  H114  1  0.65747291  0.33425846  0.56890012  1
  H  H115  1  0.34252709  0.83425846  0.93109988  1
  H  H116  1  0.15747291  0.33425846  0.93109988  1
  H  H117  1  0.84252709  0.83425846  0.56890012  1
  H  H118  1  0.34252709  0.66574154  0.43109988  1
  H  H119  1  0.65747291  0.16574154  0.06890012  1
  H  H120  1  0.05338201  0.34712725  0.00365650  1
  H  H121  1  0.94661799  0.84712725  0.49634350  1
  H  H122  1  0.44661799  0.65287275  0.50365650  1
  H  H123  1  0.55338201  0.15287275  0.99634350  1
  H  H124  1  0.94661799  0.65287275  0.99634350  1
  H  H125  1  0.05338201  0.15287275  0.50365650  1
  H  H126  1  0.55338201  0.34712725  0.49634350  1
  H  H127  1  0.44661799  0.84712725  0.00365650  1
  C  C128  1  0.90097960  0.25670819  0.11303423  1
  C  C129  1  0.09902040  0.75670819  0.38696577  1
  C  C130  1  0.59902040  0.74329181  0.61303423  1
  C  C131  1  0.40097960  0.24329181  0.88696577  1
  C  C132  1  0.09902040  0.74329181  0.88696577  1
  C  C133  1  0.90097960  0.24329181  0.61303423  1
  C  C134  1  0.40097960  0.25670819  0.38696577  1
  C  C135  1  0.59902040  0.75670819  0.11303423  1
  O  O136  1  0.45141312  0.99202850  0.10874715  1
  O  O137  1  0.54858688  0.49202850  0.39125285  1
  O  O138  1  0.04858688  0.00797150  0.60874715  1
  O  O139  1  0.95141312  0.50797150  0.89125285  1
  O  O140  1  0.54858688  0.00797150  0.89125285  1
  O  O141  1  0.45141312  0.50797150  0.60874715  1
  O  O142  1  0.95141312  0.99202850  0.39125285  1
  O  O143  1  0.04858688  0.49202850  0.10874715  1
  O  O144  1  0.70039555  0.12326943  0.25123906  1
  O  O145  1  0.29960445  0.62326943  0.24876094  1
  O  O146  1  0.79960445  0.87673057  0.75123906  1
  O  O147  1  0.20039555  0.37673057  0.74876094  1
  O  O148  1  0.29960445  0.87673057  0.74876094  1
  O  O149  1  0.70039555  0.37673057  0.75123906  1
  O  O150  1  0.20039555  0.12326943  0.24876094  1
  O  O151  1  0.79960445  0.62326943  0.25123906  1
  O  O152  1  0.19720553  0.89781240  0.25501453  1
  O  O153  1  0.80279447  0.39781240  0.24498547  1
  O  O154  1  0.30279447  0.10218760  0.75501453  1
  O  O155  1  0.69720553  0.60218760  0.74498547  1
  O  O156  1  0.80279447  0.10218760  0.74498547  1
  O  O157  1  0.19720553  0.60218760  0.75501453  1
  O  O158  1  0.69720553  0.89781240  0.24498547  1
  O  O159  1  0.30279447  0.39781240  0.25501453  1
  O  O160  1  0.13125812  0.81608853  0.13089857  1
  O  O161  1  0.86874188  0.31608853  0.36910143  1
  O  O162  1  0.36874188  0.18391147  0.63089857  1
  O  O163  1  0.63125812  0.68391147  0.86910143  1
  O  O164  1  0.86874188  0.18391147  0.86910143  1
  O  O165  1  0.13125812  0.68391147  0.63089857  1
  O  O166  1  0.63125812  0.81608853  0.36910143  1
  O  O167  1  0.36874188  0.31608853  0.13089857  1
  O  O168  1  0.62837027  0.40014797  0.99576786  1
  O  O169  1  0.37162973  0.90014797  0.50423214  1
  O  O170  1  0.87162973  0.59985203  0.49576786  1
  O  O171  1  0.12837027  0.09985203  0.00423214  1
  O  O172  1  0.37162973  0.59985203  0.00423214  1
  O  O173  1  0.62837027  0.09985203  0.49576786  1
  O  O174  1  0.12837027  0.40014797  0.50423214  1
  O  O175  1  0.87162973  0.90014797  0.99576786  1
  O  O176  1  0.55058388  0.51850691  0.14463073  1
  O  O177  1  0.44941612  0.01850691  0.35536927  1
  O  O178  1  0.94941612  0.48149309  0.64463073  1
  O  O179  1  0.05058388  0.98149309  0.85536927  1
  O  O180  1  0.44941612  0.48149309  0.85536927  1
  O  O181  1  0.55058388  0.98149309  0.64463073  1
  O  O182  1  0.05058388  0.51850691  0.35536927  1
  O  O183  1  0.94941612  0.01850691  0.14463073  1
  O  O184  1  0.13095710  0.37897162  0.96778062  1
  O  O185  1  0.86904290  0.87897162  0.53221938  1
  O  O186  1  0.36904290  0.62102838  0.46778062  1
  O  O187  1  0.63095710  0.12102838  0.03221938  1
  O  O188  1  0.86904290  0.62102838  0.03221938  1
  O  O189  1  0.13095710  0.12102838  0.46778062  1
  O  O190  1  0.63095710  0.37897162  0.53221938  1
  O  O191  1  0.36904290  0.87897162  0.96778062  1
  O  O192  1  0.04568238  0.20288864  0.12285750  1
  O  O193  1  0.95431762  0.70288864  0.37714250  1
  O  O194  1  0.45431762  0.79711136  0.62285750  1
  O  O195  1  0.54568238  0.29711136  0.87714250  1
  O  O196  1  0.95431762  0.79711136  0.87714250  1
  O  O197  1  0.04568238  0.29711136  0.62285750  1
  O  O198  1  0.54568238  0.20288864  0.37714250  1
  O  O199  1  0.45431762  0.70288864  0.12285750  1
  O  O200  1  0.91399362  0.32616510  0.07187765  1
  O  O201  1  0.08600638  0.82616510  0.42812235  1
  O  O202  1  0.58600638  0.67383490  0.57187765  1
  O  O203  1  0.41399362  0.17383490  0.92812235  1
  O  O204  1  0.08600638  0.67383490  0.92812235  1
  O  O205  1  0.91399362  0.17383490  0.57187765  1
  O  O206  1  0.41399362  0.32616510  0.42812235  1
  O  O207  1  0.58600638  0.82616510  0.07187765  1
  O  O208  1  0.24016256  0.25996201  0.85616229  1
  O  O209  1  0.75983744  0.75996201  0.64383771  1
  O  O210  1  0.25983744  0.74003799  0.35616229  1
  O  O211  1  0.74016256  0.24003799  0.14383771  1
  O  O212  1  0.75983744  0.74003799  0.14383771  1
  O  O213  1  0.24016256  0.24003799  0.35616229  1
  O  O214  1  0.74016256  0.25996201  0.64383771  1
  O  O215  1  0.25983744  0.75996201  0.85616229  1
