# generated using pymatgen
data_CuMo3O11
_symmetry_space_group_name_H-M   'P 1'
_cell_length_a   7.70120300
_cell_length_b   8.75064600
_cell_length_c   13.75498200
_cell_angle_alpha   90.00000000
_cell_angle_beta   90.00000000
_cell_angle_gamma   90.00000000
_symmetry_Int_Tables_number   1
_chemical_formula_structural   CuMo3O11
_chemical_formula_sum   'Cu4 Mo12 O44'
_cell_volume   926.95513135
_cell_formula_units_Z   4
loop_
 _symmetry_equiv_pos_site_id
 _symmetry_equiv_pos_as_xyz
  1  'x, y, z'
loop_
 _atom_site_type_symbol
 _atom_site_label
 _atom_site_symmetry_multiplicity
 _atom_site_fract_x
 _atom_site_fract_y
 _atom_site_fract_z
 _atom_site_occupancy
  Cu  Cu0  1  0.75000000  0.94606600  0.65417200  1
  Cu  Cu1  1  0.75000000  0.44606600  0.84582800  1
  Cu  Cu2  1  0.25000000  0.05393400  0.34582800  1
  Cu  Cu3  1  0.25000000  0.55393400  0.15417200  1
  Mo  Mo4  1  0.75000000  0.82793500  0.90366400  1
  Mo  Mo5  1  0.75000000  0.32793500  0.59633600  1
  Mo  Mo6  1  0.25000000  0.17206500  0.09633600  1
  Mo  Mo7  1  0.25000000  0.67206500  0.40366400  1
  Mo  Mo8  1  0.99937500  0.86535000  0.10152700  1
  Mo  Mo9  1  0.50062500  0.36535000  0.39847300  1
  Mo  Mo10  1  0.49937500  0.13465000  0.89847300  1
  Mo  Mo11  1  0.00062500  0.63465000  0.60152700  1
  Mo  Mo12  1  0.00062500  0.13465000  0.89847300  1
  Mo  Mo13  1  0.49937500  0.63465000  0.60152700  1
  Mo  Mo14  1  0.50062500  0.86535000  0.10152700  1
  Mo  Mo15  1  0.99937500  0.36535000  0.39847300  1
  O  O16  1  0.25000000  0.11480300  0.59874700  1
  O  O17  1  0.25000000  0.61480300  0.90125300  1
  O  O18  1  0.75000000  0.88519700  0.40125300  1
  O  O19  1  0.75000000  0.38519700  0.09874700  1
  O  O20  1  0.25000000  0.91758200  0.09132200  1
  O  O21  1  0.25000000  0.41758200  0.40867800  1
  O  O22  1  0.75000000  0.08241800  0.90867800  1
  O  O23  1  0.75000000  0.58241800  0.59132200  1
  O  O24  1  0.75000000  0.86394600  0.06347500  1
  O  O25  1  0.75000000  0.36394600  0.43652500  1
  O  O26  1  0.25000000  0.13605400  0.93652500  1
  O  O27  1  0.25000000  0.63605400  0.56347500  1
  O  O28  1  0.98434200  0.88664500  0.93535200  1
  O  O29  1  0.51565800  0.38664500  0.56464800  1
  O  O30  1  0.48434200  0.11335500  0.06464800  1
  O  O31  1  0.01565800  0.61335500  0.43535200  1
  O  O32  1  0.01565800  0.11335500  0.06464800  1
  O  O33  1  0.48434200  0.61335500  0.43535200  1
  O  O34  1  0.51565800  0.88664500  0.93535200  1
  O  O35  1  0.98434200  0.38664500  0.56464800  1
  O  O36  1  0.75000000  0.62557200  0.91993300  1
  O  O37  1  0.75000000  0.12557200  0.58006700  1
  O  O38  1  0.25000000  0.37442800  0.08006700  1
  O  O39  1  0.25000000  0.87442800  0.41993300  1
  O  O40  1  0.04702400  0.66699600  0.09744300  1
  O  O41  1  0.45297600  0.16699600  0.40255700  1
  O  O42  1  0.54702400  0.33300400  0.90255700  1
  O  O43  1  0.95297600  0.83300400  0.59744300  1
  O  O44  1  0.95297600  0.33300400  0.90255700  1
  O  O45  1  0.54702400  0.83300400  0.59744300  1
  O  O46  1  0.45297600  0.66699600  0.09744300  1
  O  O47  1  0.04702400  0.16699600  0.40255700  1
  O  O48  1  0.75000000  0.84709200  0.77453100  1
  O  O49  1  0.75000000  0.34709200  0.72546900  1
  O  O50  1  0.25000000  0.15290800  0.22546900  1
  O  O51  1  0.25000000  0.65290800  0.27453100  1
  O  O52  1  0.96871500  0.90244300  0.22321900  1
  O  O53  1  0.53128500  0.40244300  0.27678100  1
  O  O54  1  0.46871600  0.09755700  0.77678100  1
  O  O55  1  0.03128500  0.59755700  0.72321900  1
  O  O56  1  0.03128500  0.09755700  0.77678100  1
  O  O57  1  0.46871600  0.59755700  0.72321900  1
  O  O58  1  0.53128500  0.90244300  0.22321900  1
  O  O59  1  0.96871500  0.40244300  0.27678100  1
