# generated using pymatgen
data_In2Bi3Se7I
_symmetry_space_group_name_H-M   'P 1'
_cell_length_a   4.20490200
_cell_length_b   13.71167900
_cell_length_c   27.32682100
_cell_angle_alpha   90.00000000
_cell_angle_beta   90.00000000
_cell_angle_gamma   90.00000000
_symmetry_Int_Tables_number   1
_chemical_formula_structural   In2Bi3Se7I
_chemical_formula_sum   'In8 Bi12 Se28 I4'
_cell_volume   1575.56247282
_cell_formula_units_Z   4
loop_
 _symmetry_equiv_pos_site_id
 _symmetry_equiv_pos_as_xyz
  1  'x, y, z'
loop_
 _atom_site_type_symbol
 _atom_site_label
 _atom_site_symmetry_multiplicity
 _atom_site_fract_x
 _atom_site_fract_y
 _atom_site_fract_z
 _atom_site_occupancy
  In  In0  1  0.25000000  0.91568900  0.53377400  1
  In  In1  1  0.25000000  0.58431100  0.03377400  1
  In  In2  1  0.75000000  0.08431100  0.46622600  1
  In  In3  1  0.75000000  0.41568900  0.96622600  1
  In  In4  1  0.25000000  0.95852800  0.94729900  1
  In  In5  1  0.25000000  0.54147200  0.44729900  1
  In  In6  1  0.75000000  0.04147200  0.05270100  1
  In  In7  1  0.75000000  0.45852800  0.55270100  1
  Bi  Bi8  1  0.25000000  0.07420700  0.68596100  1
  Bi  Bi9  1  0.25000000  0.42579300  0.18596100  1
  Bi  Bi10  1  0.75000000  0.92579300  0.31403900  1
  Bi  Bi11  1  0.75000000  0.57420700  0.81403900  1
  Bi  Bi12  1  0.25000000  0.44942500  0.69203800  1
  Bi  Bi13  1  0.25000000  0.05057500  0.19203800  1
  Bi  Bi14  1  0.75000000  0.55057500  0.30796200  1
  Bi  Bi15  1  0.75000000  0.94942500  0.80796200  1
  Bi  Bi16  1  0.25000000  0.29661400  0.84366300  1
  Bi  Bi17  1  0.25000000  0.20338600  0.34366300  1
  Bi  Bi18  1  0.75000000  0.70338600  0.15633700  1
  Bi  Bi19  1  0.75000000  0.79661400  0.65633700  1
  Se  Se20  1  0.25000000  0.37905800  0.50977600  1
  Se  Se21  1  0.25000000  0.12094200  0.00977600  1
  Se  Se22  1  0.75000000  0.62094200  0.49022400  1
  Se  Se23  1  0.75000000  0.87905800  0.99022400  1
  Se  Se24  1  0.25000000  0.11044000  0.52713400  1
  Se  Se25  1  0.25000000  0.38956000  0.02713400  1
  Se  Se26  1  0.75000000  0.88956000  0.47286600  1
  Se  Se27  1  0.75000000  0.61044000  0.97286600  1
  Se  Se28  1  0.25000000  0.75390700  0.58798100  1
  Se  Se29  1  0.25000000  0.74609300  0.08798100  1
  Se  Se30  1  0.75000000  0.24609300  0.41201900  1
  Se  Se31  1  0.75000000  0.25390700  0.91201900  1
  Se  Se32  1  0.25000000  0.89169300  0.73125400  1
  Se  Se33  1  0.25000000  0.60830700  0.23125400  1
  Se  Se34  1  0.75000000  0.10830700  0.26874600  1
  Se  Se35  1  0.75000000  0.39169300  0.76874600  1
  Se  Se36  1  0.25000000  0.62556800  0.74204800  1
  Se  Se37  1  0.25000000  0.87443200  0.24204800  1
  Se  Se38  1  0.75000000  0.37443200  0.25795200  1
  Se  Se39  1  0.75000000  0.12556800  0.75795200  1
  Se  Se40  1  0.25000000  0.04975100  0.86320500  1
  Se  Se41  1  0.25000000  0.45024900  0.36320500  1
  Se  Se42  1  0.75000000  0.95024900  0.13679500  1
  Se  Se43  1  0.75000000  0.54975100  0.63679500  1
  Se  Se44  1  0.25000000  0.48366300  0.87859500  1
  Se  Se45  1  0.25000000  0.01633700  0.37859500  1
  Se  Se46  1  0.75000000  0.51633700  0.12140500  1
  Se  Se47  1  0.75000000  0.98366300  0.62140500  1
  I  I48  1  0.25000000  0.76649200  0.86612200  1
  I  I49  1  0.25000000  0.73350800  0.36612200  1
  I  I50  1  0.75000000  0.23350800  0.13387800  1
  I  I51  1  0.75000000  0.26649200  0.63387800  1
