# generated using pymatgen
data_CoB10H23C13
_symmetry_space_group_name_H-M   'P 1'
_cell_length_a   8.22851500
_cell_length_b   9.23605835
_cell_length_c   12.25905635
_cell_angle_alpha   98.38645617
_cell_angle_beta   95.77832081
_cell_angle_gamma   101.98520112
_symmetry_Int_Tables_number   1
_chemical_formula_structural   CoB10H23C13
_chemical_formula_sum   'Co2 B20 H46 C26'
_cell_volume   893.32711214
_cell_formula_units_Z   2
loop_
 _symmetry_equiv_pos_site_id
 _symmetry_equiv_pos_as_xyz
  1  'x, y, z'
loop_
 _atom_site_type_symbol
 _atom_site_label
 _atom_site_symmetry_multiplicity
 _atom_site_fract_x
 _atom_site_fract_y
 _atom_site_fract_z
 _atom_site_occupancy
  Co  Co0  1  0.27367000  0.16035900  0.31844000  1
  Co  Co1  1  0.72633000  0.83964100  0.68156000  1
  B  B2  1  0.28306800  0.10162600  0.13963800  1
  B  B3  1  0.71693200  0.89837400  0.86036200  1
  B  B4  1  0.54523300  0.16453500  0.30699500  1
  B  B5  1  0.45476700  0.83546500  0.69300500  1
  B  B6  1  0.53565400  0.18330700  0.14979400  1
  B  B7  1  0.46434600  0.81669300  0.85020600  1
  B  B8  1  0.49421000  0.33928400  0.36432400  1
  B  B9  1  0.50579000  0.66071600  0.63567600  1
  B  B10  1  0.64092100  0.33681400  0.26865100  1
  B  B11  1  0.35907900  0.66318600  0.73134900  1
  B  B12  1  0.36833600  0.26210000  0.07884900  1
  B  B13  1  0.63166400  0.73790000  0.92115100  1
  B  B14  1  0.31205000  0.38463200  0.29234600  1
  B  B15  1  0.68795000  0.61536800  0.70765400  1
  B  B16  1  0.55625200  0.38008500  0.14467800  1
  B  B17  1  0.44374800  0.61991500  0.85532200  1
  B  B18  1  0.36086300  0.42983300  0.16052700  1
  B  B19  1  0.63913700  0.57016700  0.83947300  1
  B  B20  1  0.52023300  0.47303700  0.27576300  1
  B  B21  1  0.47976700  0.52696300  0.72423700  1
  H  H22  1  0.18279300  0.00715800  0.07516300  1
  H  H23  1  0.81720700  0.99284200  0.92483700  1
  H  H24  1  0.63814400  0.11060800  0.36244400  1
  H  H25  1  0.36185600  0.88939200  0.63755600  1
  H  H26  1  0.61561200  0.11861200  0.09158000  1
  H  H27  1  0.38438800  0.88138800  0.90842000  1
  H  H28  1  0.53619000  0.37901200  0.46243700  1
  H  H29  1  0.46381000  0.62098800  0.53756300  1
  H  H30  1  0.78948100  0.37203400  0.29814900  1
  H  H31  1  0.21051900  0.62796600  0.70185100  1
  H  H32  1  0.32000100  0.23814800  0.98133200  1
  H  H33  1  0.67999900  0.76185200  0.01866800  1
  H  H34  1  0.22459600  0.45460000  0.33930800  1
  H  H35  1  0.77540400  0.54540000  0.66069200  1
  H  H36  1  0.48843300  0.86847000  0.12798800  1
  H  H37  1  0.51156700  0.13153000  0.87201200  1
  H  H38  1  0.47989400  0.85355800  0.26992900  1
  H  H39  1  0.52010600  0.14644200  0.73007100  1
  H  H40  1  0.29239600  0.81448300  0.17354400  1
  H  H41  1  0.70760400  0.18551700  0.82645600  1
  H  H42  1  0.64975000  0.43584000  0.08592400  1
  H  H43  1  0.35025000  0.56416000  0.91407600  1
  H  H44  1  0.30425800  0.52304500  0.12177300  1
  H  H45  1  0.69574200  0.47695500  0.87822700  1
  H  H46  1  0.58064100  0.60249700  0.31303500  1
  H  H47  1  0.41935900  0.39750300  0.68696500  1
  H  H48  1  0.97305600  0.24613000  0.35671400  1
  H  H49  1  0.02694400  0.75387000  0.64328600  1
  H  H50  1  0.24049500  0.32532500  0.51920500  1
  H  H51  1  0.75950500  0.67467500  0.48079500  1
  H  H52  1  0.37901100  0.08646900  0.52618600  1
  H  H53  1  0.62098900  0.91353100  0.47381400  1
  H  H54  1  0.26181200  0.76537600  0.41891500  1
  H  H55  1  0.73818800  0.23462400  0.58108500  1
  H  H56  1  0.03927600  0.59305400  0.28010100  1
  H  H57  1  0.96072400  0.40694600  0.71989900  1
  H  H58  1  0.81963200  0.68550200  0.17662900  1
  H  H59  1  0.18036800  0.31449800  0.82337100  1
  H  H60  1  0.80848600  0.95613900  0.21255500  1
  H  H61  1  0.19151400  0.04386100  0.78744500  1
  H  H62  1  0.03679100  0.26189600  0.03243900  1
  H  H63  1  0.96320900  0.73810400  0.96756100  1
  H  H64  1  0.96123400  0.15401400  0.13196600  1
  H  H65  1  0.03876600  0.84598600  0.86803400  1
  H  H66  1  0.99860700  0.35264200  0.16226100  1
  H  H67  1  0.00139300  0.64735800  0.83773900  1
  C  C68  1  0.41242700  0.05301000  0.21856200  1
  C  C69  1  0.58757300  0.94699000  0.78143800  1
  C  C70  1  0.22731100  0.26928200  0.16975500  1
  C  C71  1  0.77268900  0.73071800  0.83024500  1
  C  C72  1  0.41749800  0.88843000  0.19794600  1
  C  C73  1  0.58250200  0.11157000  0.80205400  1
  C  C74  1  0.03102700  0.01594900  0.33710900  1
  C  C75  1  0.96897300  0.98405100  0.66289100  1
  C  C76  1  0.05440200  0.17373300  0.38079900  1
  C  C77  1  0.94559800  0.82626700  0.61920100  1
  C  C78  1  0.19478900  0.21560700  0.46686700  1
  C  C79  1  0.80521100  0.78439300  0.53313300  1
  C  C80  1  0.26948800  0.08939400  0.46968800  1
  C  C81  1  0.73051200  0.91060600  0.53031200  1
  C  C82  1  0.16292100  0.96218200  0.39472100  1
  C  C83  1  0.83707900  0.03781800  0.60527900  1
  C  C84  1  0.16605200  0.80795100  0.37344600  1
  C  C85  1  0.83394800  0.19204900  0.62655400  1
  C  C86  1  0.04144800  0.71265200  0.29611500  1
  C  C87  1  0.95855200  0.28734800  0.70388500  1
  C  C88  1  0.91454900  0.76599200  0.23667500  1
  C  C89  1  0.08545100  0.23400800  0.76332500  1
  C  C90  1  0.90809300  0.91569400  0.25571300  1
  C  C91  1  0.09190700  0.08430600  0.74428700  1
  C  C92  1  0.04555000  0.25843900  0.12197600  1
  C  C93  1  0.95445000  0.74156100  0.87802400  1
