# generated using pymatgen
data_V2H12C4S4O15
_symmetry_space_group_name_H-M   'P 1'
_cell_length_a   6.04472800
_cell_length_b   11.05725085
_cell_length_c   13.67704277
_cell_angle_alpha   86.25570600
_cell_angle_beta   77.23335275
_cell_angle_gamma   74.13702099
_symmetry_Int_Tables_number   1
_chemical_formula_structural   V2H12C4S4O15
_chemical_formula_sum   'V4 H24 C8 S8 O30'
_cell_volume   857.58427336
_cell_formula_units_Z   2
loop_
 _symmetry_equiv_pos_site_id
 _symmetry_equiv_pos_as_xyz
  1  'x, y, z'
loop_
 _atom_site_type_symbol
 _atom_site_label
 _atom_site_symmetry_multiplicity
 _atom_site_fract_x
 _atom_site_fract_y
 _atom_site_fract_z
 _atom_site_occupancy
  V  V0  1  0.03689900  0.31582900  0.62885700  1
  V  V1  1  0.98158500  0.18417100  0.87114300  1
  V  V2  1  0.96310100  0.68417100  0.37114300  1
  V  V3  1  0.01841500  0.81582900  0.12885700  1
  H  H4  1  0.67800800  0.40633100  0.40593200  1
  H  H5  1  0.49027100  0.09366900  0.09406800  1
  H  H6  1  0.32199200  0.59366900  0.59406800  1
  H  H7  1  0.50972900  0.90633100  0.90593200  1
  H  H8  1  0.63396000  0.25042400  0.42881600  1
  H  H9  1  0.31320000  0.24957600  0.07118400  1
  H  H10  1  0.36604000  0.74957600  0.57118400  1
  H  H11  1  0.68680000  0.75042400  0.92881600  1
  H  H12  1  0.66109500  0.31441900  0.30458800  1
  H  H13  1  0.28010200  0.18558100  0.19541200  1
  H  H14  1  0.33890500  0.68558100  0.69541200  1
  H  H15  1  0.71989800  0.81441900  0.80458800  1
  H  H16  1  0.76352200  0.02246300  0.55334700  1
  H  H17  1  0.33933200  0.47753700  0.94665300  1
  H  H18  1  0.23647800  0.97753700  0.44665300  1
  H  H19  1  0.66066800  0.52246300  0.05334700  1
  H  H20  1  0.77763900  0.06311200  0.67778300  1
  H  H21  1  0.51853400  0.43688800  0.82221700  1
  H  H22  1  0.22236100  0.93688800  0.32221700  1
  H  H23  1  0.48146600  0.56311200  0.17778300  1
  H  H24  1  0.75037900  0.90937000  0.65259400  1
  H  H25  1  0.31234300  0.59063000  0.84740600  1
  H  H26  1  0.24962100  0.09063000  0.34740600  1
  H  H27  1  0.68765700  0.40937000  0.15259400  1
  C  C28  1  0.59870500  0.33703300  0.38436600  1
  C  C29  1  0.32010400  0.16296700  0.11563400  1
  C  C30  1  0.40129500  0.66296700  0.61563400  1
  C  C31  1  0.67989600  0.83703300  0.88436600  1
  C  C32  1  0.70546800  0.00984600  0.63417100  1
  C  C33  1  0.34948600  0.49015400  0.86582900  1
  C  C34  1  0.29453200  0.99015400  0.36582900  1
  C  C35  1  0.65051400  0.50984600  0.13417100  1
  S  S36  1  0.28958400  0.39546900  0.40702300  1
  S  S37  1  0.09207600  0.10453100  0.09297700  1
  S  S38  1  0.71041600  0.60453100  0.59297700  1
  S  S39  1  0.90792400  0.89546900  0.90702300  1
  S  S40  1  0.39546600  0.06151600  0.66284100  1
  S  S41  1  0.11982300  0.43848400  0.83716000  1
  S  S42  1  0.60453400  0.93848400  0.33716000  1
  S  S43  1  0.88017700  0.56151600  0.16284100  1
  O  O44  1  0.18949400  0.31337500  0.36333900  1
  O  O45  1  0.86620700  0.18662500  0.13666100  1
  O  O46  1  0.81050600  0.68662500  0.63666100  1
  O  O47  1  0.13379300  0.81337500  0.86333900  1
  O  O48  1  0.31856600  0.06685100  0.77346200  1
  O  O49  1  0.15887800  0.43314900  0.72653800  1
  O  O50  1  0.68143400  0.93314900  0.22653800  1
  O  O51  1  0.84112200  0.56685100  0.27346200  1
  O  O52  1  0.92916300  0.25000000  0.75000000  1
  O  O53  1  0.07083700  0.75000000  0.25000000  1
  O  O54  1  0.24141500  0.52724300  0.36608000  1
  O  O55  1  0.13473800  0.97275700  0.13392000  1
  O  O56  1  0.75858500  0.47275700  0.63392000  1
  O  O57  1  0.86526200  0.02724300  0.86608000  1
  O  O58  1  0.34831800  0.19706500  0.62090300  1
  O  O59  1  0.16628600  0.30293500  0.87909700  1
  O  O60  1  0.65168200  0.80293500  0.37909700  1
  O  O61  1  0.83371400  0.69706500  0.12090300  1
  O  O62  1  0.93528100  0.24107700  0.56020400  1
  O  O63  1  0.73656300  0.25892300  0.93979600  1
  O  O64  1  0.06471900  0.75892300  0.43979600  1
  O  O65  1  0.26343700  0.74107700  0.06020400  1
  O  O66  1  0.21499300  0.40586700  0.52038200  1
  O  O67  1  0.14124200  0.09413300  0.97961800  1
  O  O68  1  0.78500700  0.59413300  0.47961800  1
  O  O69  1  0.85875800  0.90586700  0.02038200  1
  O  O70  1  0.29918400  0.98267900  0.61347100  1
  O  O71  1  0.89533400  0.51732100  0.88652900  1
  O  O72  1  0.70081600  0.01732100  0.38652900  1
  O  O73  1  0.10466600  0.48267900  0.11347100  1
