# generated using pymatgen
data_Mg14MnSnO16
_symmetry_space_group_name_H-M   'P 1'
_cell_length_a   4.38216900
_cell_length_b   8.71545100
_cell_length_c   8.72131700
_cell_angle_alpha   90.00000000
_cell_angle_beta   90.00000000
_cell_angle_gamma   90.00000000
_symmetry_Int_Tables_number   1
_chemical_formula_structural   Mg14MnSnO16
_chemical_formula_sum   'Mg14 Mn1 Sn1 O16'
_cell_volume   333.08959019
_cell_formula_units_Z   1
loop_
 _symmetry_equiv_pos_site_id
 _symmetry_equiv_pos_as_xyz
  1  'x, y, z'
loop_
 _atom_site_type_symbol
 _atom_site_label
 _atom_site_symmetry_multiplicity
 _atom_site_fract_x
 _atom_site_fract_y
 _atom_site_fract_z
 _atom_site_occupancy
  Mg  Mg0  1  0.00000000  0.00000000  0.50000000  1
  Mg  Mg1  1  0.00000000  0.50000000  0.50000000  1
  Mg  Mg2  1  0.50000000  0.75773000  0.00000000  1
  Mg  Mg3  1  0.50000000  0.24227000  0.00000000  1
  Mg  Mg4  1  0.50000000  0.75134200  0.50000000  1
  Mg  Mg5  1  0.50000000  0.24865800  0.50000000  1
  Mg  Mg6  1  0.50000000  0.00000000  0.74628900  1
  Mg  Mg7  1  0.50000000  0.50000000  0.74041800  1
  Mg  Mg8  1  0.50000000  0.00000000  0.25371100  1
  Mg  Mg9  1  0.50000000  0.50000000  0.25958200  1
  Mg  Mg10  1  0.00000000  0.75390800  0.74342200  1
  Mg  Mg11  1  0.00000000  0.24609200  0.74342200  1
  Mg  Mg12  1  0.00000000  0.75390800  0.25657800  1
  Mg  Mg13  1  0.00000000  0.24609200  0.25657800  1
  Mn  Mn14  1  0.00000000  0.00000000  0.00000000  1
  Sn  Sn15  1  0.00000000  0.50000000  0.00000000  1
  O  O16  1  0.00000000  0.00000000  0.73836700  1
  O  O17  1  0.00000000  0.50000000  0.72751800  1
  O  O18  1  0.00000000  0.00000000  0.26163300  1
  O  O19  1  0.00000000  0.50000000  0.27248200  1
  O  O20  1  0.50000000  0.75045500  0.75011600  1
  O  O21  1  0.50000000  0.24954500  0.75011600  1
  O  O22  1  0.50000000  0.75045500  0.24988400  1
  O  O23  1  0.50000000  0.24954500  0.24988400  1
  O  O24  1  0.50000000  0.00000000  0.00000000  1
  O  O25  1  0.50000000  0.50000000  0.00000000  1
  O  O26  1  0.50000000  0.00000000  0.50000000  1
  O  O27  1  0.50000000  0.50000000  0.50000000  1
  O  O28  1  0.00000000  0.76529500  0.00000000  1
  O  O29  1  0.00000000  0.23470500  0.00000000  1
  O  O30  1  0.00000000  0.75283800  0.50000000  1
  O  O31  1  0.00000000  0.24716200  0.50000000  1
