# generated using pymatgen
data_Ba3Mo2(IO9)2
_symmetry_space_group_name_H-M   'P 1'
_cell_length_a   5.05474900
_cell_length_b   7.38700636
_cell_length_c   22.90496348
_cell_angle_alpha   87.83645069
_cell_angle_beta   83.66498305
_cell_angle_gamma   69.99282682
_symmetry_Int_Tables_number   1
_chemical_formula_structural   Ba3Mo2(IO9)2
_chemical_formula_sum   'Ba6 Mo4 I4 O36'
_cell_volume   798.73668931
_cell_formula_units_Z   2
loop_
 _symmetry_equiv_pos_site_id
 _symmetry_equiv_pos_as_xyz
  1  'x, y, z'
loop_
 _atom_site_type_symbol
 _atom_site_label
 _atom_site_symmetry_multiplicity
 _atom_site_fract_x
 _atom_site_fract_y
 _atom_site_fract_z
 _atom_site_occupancy
  Ba  Ba0  1  0.47388400  0.00000000  0.00000000  1
  Ba  Ba1  1  0.22388400  0.50000000  0.50000000  1
  Ba  Ba2  1  0.71814600  0.78705300  0.19224500  1
  Ba  Ba3  1  0.69744300  0.21294700  0.80775500  1
  Ba  Ba4  1  0.25519800  0.71294700  0.69224500  1
  Ba  Ba5  1  0.66039100  0.28705300  0.30775500  1
  Mo  Mo6  1  0.57128100  0.40813800  0.09505700  1
  Mo  Mo7  1  0.07447600  0.59186200  0.90494300  1
  Mo  Mo8  1  0.72941900  0.09186200  0.59505700  1
  Mo  Mo9  1  0.41633800  0.90813800  0.40494300  1
  I  I10  1  0.13450900  0.21969500  0.16124800  1
  I  I11  1  0.51545200  0.78030500  0.83875200  1
  I  I12  1  0.10420400  0.28030500  0.66124800  1
  I  I13  1  0.04575800  0.71969500  0.33875200  1
  O  O14  1  0.56816100  0.64670500  0.09538200  1
  O  O15  1  0.31024800  0.35329500  0.90461800  1
  O  O16  1  0.96486500  0.85329500  0.59538200  1
  O  O17  1  0.41354300  0.14670500  0.40461800  1
  O  O18  1  0.50491800  0.37194700  0.02459300  1
  O  O19  1  0.90145800  0.62805300  0.97540700  1
  O  O20  1  0.62686500  0.12805300  0.52459300  1
  O  O21  1  0.27951100  0.87194700  0.47540700  1
  O  O22  1  0.50254500  0.12480100  0.12044600  1
  O  O23  1  0.74779200  0.87519900  0.87955400  1
  O  O24  1  0.37734600  0.37519900  0.62044600  1
  O  O25  1  0.37299100  0.62480100  0.37955400  1
  O  O26  1  0.19904300  0.46823700  0.14428500  1
  O  O27  1  0.81156500  0.53176300  0.85571500  1
  O  O28  1  0.41728000  0.03176300  0.64428500  1
  O  O29  1  0.09332900  0.96823700  0.35571500  1
  O  O30  1  0.97942100  0.24791700  0.08362900  1
  O  O31  1  0.31096800  0.75208300  0.91637100  1
  O  O32  1  0.97733900  0.25208300  0.58362900  1
  O  O33  1  0.81305000  0.74791700  0.41637100  1
  O  O34  1  0.10712300  0.97644900  0.16883200  1
  O  O35  1  0.25240300  0.02355100  0.83116800  1
  O  O36  1  0.83357100  0.52355100  0.66883200  1
  O  O37  1  0.02595500  0.47644900  0.33116800  1
  O  O38  1  0.24972600  0.19890700  0.23560600  1
  O  O39  1  0.68423900  0.80109300  0.76439400  1
  O  O40  1  0.19863300  0.30109300  0.73560600  1
  O  O41  1  0.23533200  0.69890700  0.26439400  1
  O  O42  1  0.99785500  0.91780400  0.04047500  1
  O  O43  1  0.95613400  0.08219600  0.95952500  1
  O  O44  1  0.66565900  0.58219600  0.54047500  1
  O  O45  1  0.78833000  0.41780400  0.45952500  1
  O  O46  1  0.75300900  0.36876600  0.18580500  1
  O  O47  1  0.30758100  0.63123400  0.81419500  1
  O  O48  1  0.87177500  0.13123400  0.68580500  1
  O  O49  1  0.68881400  0.86876600  0.31419500  1
