# generated using pymatgen
data_CuC32(NF2)8
_symmetry_space_group_name_H-M   'P 1'
_cell_length_a   4.92547800
_cell_length_b   10.31638635
_cell_length_c   14.93054783
_cell_angle_alpha   106.42482171
_cell_angle_beta   87.82759634
_cell_angle_gamma   97.79596794
_symmetry_Int_Tables_number   1
_chemical_formula_structural   CuC32(NF2)8
_chemical_formula_sum   'Cu1 C32 N8 F16'
_cell_volume   720.98187825
_cell_formula_units_Z   1
loop_
 _symmetry_equiv_pos_site_id
 _symmetry_equiv_pos_as_xyz
  1  'x, y, z'
loop_
 _atom_site_type_symbol
 _atom_site_label
 _atom_site_symmetry_multiplicity
 _atom_site_fract_x
 _atom_site_fract_y
 _atom_site_fract_z
 _atom_site_occupancy
  Cu  Cu0  1  0.50000000  0.50000000  0.50000000  1
  C  C1  1  0.08708900  0.36124600  0.13904700  1
  C  C2  1  0.91291100  0.63875400  0.86095300  1
  C  C3  1  0.32576800  0.39739300  0.29985000  1
  C  C4  1  0.67423200  0.60260700  0.70015000  1
  C  C5  1  0.13016200  0.58056600  0.37719600  1
  C  C6  1  0.86983800  0.41943400  0.62280400  1
  C  C7  1  0.93370400  0.16137500  0.39776900  1
  C  C8  1  0.06629600  0.83862500  0.60223100  1
  C  C9  1  0.90231400  0.41406000  0.09461100  1
  C  C10  1  0.09768600  0.58594000  0.90538900  1
  C  C11  1  0.00792400  0.96102300  0.23204300  1
  C  C12  1  0.99207600  0.03897700  0.76795700  1
  C  C13  1  0.62969500  0.26821500  0.33953200  1
  C  C14  1  0.37030500  0.73178500  0.66046800  1
  C  C15  1  0.85258200  0.27804000  0.46991500  1
  C  C16  1  0.14741800  0.72196000  0.53008500  1
  C  C17  1  0.84268500  0.59310200  0.23712700  1
  C  C18  1  0.15731500  0.40689800  0.76287300  1
  C  C19  1  0.79347900  0.15549300  0.31537000  1
  C  C20  1  0.20652100  0.84450700  0.68463000  1
  C  C21  1  0.78187200  0.52931600  0.14321800  1
  C  C22  1  0.21812800  0.47068400  0.85678200  1
  C  C23  1  0.14931900  0.42503300  0.23284200  1
  C  C24  1  0.85068100  0.57496700  0.76715800  1
  C  C25  1  0.11212200  0.06727800  0.39655300  1
  C  C26  1  0.88787800  0.93272200  0.60344700  1
  C  C27  1  0.02541700  0.54072700  0.28192900  1
  C  C28  1  0.97458300  0.45927300  0.71807100  1
  C  C29  1  0.14757400  0.96675800  0.31339000  1
  C  C30  1  0.85242600  0.03324200  0.68661000  1
  C  C31  1  0.83064600  0.05589100  0.23274600  1
  C  C32  1  0.16935400  0.94410900  0.76725400  1
  N  N33  1  0.30935900  0.49302400  0.38473700  1
  N  N34  1  0.69064100  0.50697600  0.61526300  1
  N  N35  1  0.67008100  0.33799700  0.43226400  1
  N  N36  1  0.32991900  0.66200300  0.56773600  1
  N  N37  1  0.47180600  0.29403000  0.27836800  1
  N  N38  1  0.52819400  0.70597000  0.72163200  1
  N  N39  1  0.05339200  0.68487500  0.44335000  1
  N  N40  1  0.94660800  0.31512500  0.55665000  1
  F  F41  1  0.20084500  0.25186400  0.08929300  1
  F  F42  1  0.79915500  0.74813600  0.91070700  1
  F  F43  1  0.83697200  0.35479200  0.00430100  1
  F  F44  1  0.16302800  0.64520800  0.99569900  1
  F  F45  1  0.71905300  0.70276600  0.28104500  1
  F  F46  1  0.28094700  0.29723400  0.71895500  1
  F  F47  1  0.60640700  0.57880300  0.09843000  1
  F  F48  1  0.39359300  0.42119700  0.90157000  1
  F  F49  1  0.70117800  0.04719600  0.15313400  1
  F  F50  1  0.29882200  0.95280400  0.84686600  1
  F  F51  1  0.04753200  0.86303100  0.15355800  1
  F  F52  1  0.95246800  0.13696900  0.84644200  1
  F  F53  1  0.31774200  0.87401400  0.30968200  1
  F  F54  1  0.68225800  0.12598600  0.69031800  1
  F  F55  1  0.25647200  0.06961600  0.47196200  1
  F  F56  1  0.74352800  0.93038400  0.52803800  1
