# generated using pymatgen
data_Cd3S3O20
_symmetry_space_group_name_H-M   'P 1'
_cell_length_a   9.92480082
_cell_length_b   9.92480082
_cell_length_c   9.76193782
_cell_angle_alpha   86.12685998
_cell_angle_beta   86.12685998
_cell_angle_gamma   84.04991365
_symmetry_Int_Tables_number   1
_chemical_formula_structural   Cd3S3O20
_chemical_formula_sum   'Cd6 S6 O40'
_cell_volume   952.42479538
_cell_formula_units_Z   2
loop_
 _symmetry_equiv_pos_site_id
 _symmetry_equiv_pos_as_xyz
  1  'x, y, z'
loop_
 _atom_site_type_symbol
 _atom_site_label
 _atom_site_symmetry_multiplicity
 _atom_site_fract_x
 _atom_site_fract_y
 _atom_site_fract_z
 _atom_site_occupancy
  Cd  Cd0  1  0.01389000  0.98611000  0.75000000  1
  Cd  Cd1  1  0.98611000  0.01389000  0.25000000  1
  Cd  Cd2  1  0.25078400  0.49258800  0.99850900  1
  Cd  Cd3  1  0.50741200  0.74921600  0.50149100  1
  Cd  Cd4  1  0.74921600  0.50741200  0.00149100  1
  Cd  Cd5  1  0.49258800  0.25078400  0.49850900  1
  S  S6  1  0.51001700  0.48998300  0.75000000  1
  S  S7  1  0.48998300  0.51001700  0.25000000  1
  S  S8  1  0.99391000  0.75206600  0.03175900  1
  S  S9  1  0.24793400  0.00609000  0.46824100  1
  S  S10  1  0.00609000  0.24793400  0.96824100  1
  S  S11  1  0.75206600  0.99391000  0.53175900  1
  O  O12  1  0.54985600  0.40016100  0.63500500  1
  O  O13  1  0.59983900  0.45014400  0.86499500  1
  O  O14  1  0.45014400  0.59983900  0.36499500  1
  O  O15  1  0.40016100  0.54985600  0.13500500  1
  O  O16  1  0.36625500  0.47552800  0.79802000  1
  O  O17  1  0.52447200  0.63374500  0.70198000  1
  O  O18  1  0.63374500  0.52447200  0.20198000  1
  O  O19  1  0.47552800  0.36625500  0.29802000  1
  O  O20  1  0.94683700  0.86327400  0.92972800  1
  O  O21  1  0.13672600  0.05316300  0.57027200  1
  O  O22  1  0.05316300  0.13672600  0.07027200  1
  O  O23  1  0.86327400  0.94683700  0.42972800  1
  O  O24  1  0.13027100  0.69058000  0.98205700  1
  O  O25  1  0.30942000  0.86972900  0.51794300  1
  O  O26  1  0.86972900  0.30942000  0.01794300  1
  O  O27  1  0.69058000  0.13027100  0.48205700  1
  O  O28  1  0.00136200  0.80856900  0.16739300  1
  O  O29  1  0.19143100  0.99863800  0.33260700  1
  O  O30  1  0.99863800  0.19143100  0.83260700  1
  O  O31  1  0.80856900  0.00136200  0.66739300  1
  O  O32  1  0.89611700  0.64781200  0.04757200  1
  O  O33  1  0.35218800  0.10388300  0.45242800  1
  O  O34  1  0.10388300  0.35218800  0.95242800  1
  O  O35  1  0.64781200  0.89611700  0.54757200  1
  O  O36  1  0.07533300  0.68980800  0.63206500  1
  O  O37  1  0.31019200  0.92466700  0.86793500  1
  O  O38  1  0.92466700  0.31019200  0.36793500  1
  O  O39  1  0.68980800  0.07533300  0.13206500  1
  O  O40  1  0.20464400  0.33170300  0.63357800  1
  O  O41  1  0.66829700  0.79535600  0.86642200  1
  O  O42  1  0.79535600  0.66829700  0.36642200  1
  O  O43  1  0.33170300  0.20464400  0.13357800  1
  O  O44  1  0.27007300  0.24538000  0.70568200  1
  O  O45  1  0.75462000  0.72992700  0.79431800  1
  O  O46  1  0.72992700  0.75462000  0.29431800  1
  O  O47  1  0.24538000  0.27007300  0.20568200  1
  O  O48  1  0.12164700  0.64735400  0.52118100  1
  O  O49  1  0.35264600  0.87835300  0.97881900  1
  O  O50  1  0.87835300  0.35264600  0.47881900  1
  O  O51  1  0.64735400  0.12164700  0.02118100  1
