# generated using pymatgen
data_K3TaO2F7
_symmetry_space_group_name_H-M   'P 1'
_cell_length_a   7.24531700
_cell_length_b   9.76680700
_cell_length_c   14.06719800
_cell_angle_alpha   90.00000000
_cell_angle_beta   90.00000000
_cell_angle_gamma   90.00000000
_symmetry_Int_Tables_number   1
_chemical_formula_structural   K3TaO2F7
_chemical_formula_sum   'K12 Ta4 O8 F28'
_cell_volume   995.44575235
_cell_formula_units_Z   4
loop_
 _symmetry_equiv_pos_site_id
 _symmetry_equiv_pos_as_xyz
  1  'x, y, z'
loop_
 _atom_site_type_symbol
 _atom_site_label
 _atom_site_symmetry_multiplicity
 _atom_site_fract_x
 _atom_site_fract_y
 _atom_site_fract_z
 _atom_site_occupancy
  K  K0  1  0.26543000  0.75000000  0.17336000  1
  K  K1  1  0.76543000  0.75000000  0.32664000  1
  K  K2  1  0.73457000  0.25000000  0.82664000  1
  K  K3  1  0.23457000  0.25000000  0.67336000  1
  K  K4  1  0.28244600  0.98380800  0.84803200  1
  K  K5  1  0.78244600  0.51619200  0.65196800  1
  K  K6  1  0.71755400  0.48380800  0.15196800  1
  K  K7  1  0.21755400  0.01619200  0.34803200  1
  K  K8  1  0.71755400  0.01619200  0.15196800  1
  K  K9  1  0.21755400  0.48380800  0.34803200  1
  K  K10  1  0.28244600  0.51619200  0.84803200  1
  K  K11  1  0.78244600  0.98380800  0.65196800  1
  Ta  Ta12  1  0.21101200  0.75000000  0.57197200  1
  Ta  Ta13  1  0.71101200  0.75000000  0.92802800  1
  Ta  Ta14  1  0.78898800  0.25000000  0.42802800  1
  Ta  Ta15  1  0.28898800  0.25000000  0.07197200  1
  O  O16  1  0.48709500  0.81923700  0.55552800  1
  O  O17  1  0.98709500  0.68076300  0.94447200  1
  O  O18  1  0.51290500  0.31923700  0.44447200  1
  O  O19  1  0.01290500  0.18076300  0.05552800  1
  O  O20  1  0.51290500  0.18076300  0.44447200  1
  O  O21  1  0.01290500  0.31923700  0.05552800  1
  O  O22  1  0.48709500  0.68076300  0.55552800  1
  O  O23  1  0.98709500  0.81923700  0.94447200  1
  F  F24  1  0.94428000  0.75000000  0.58717600  1
  F  F25  1  0.44428000  0.75000000  0.91282400  1
  F  F26  1  0.05572000  0.25000000  0.41282400  1
  F  F27  1  0.55572000  0.25000000  0.08717600  1
  F  F28  1  0.25420100  0.75000000  0.70669100  1
  F  F29  1  0.75420100  0.75000000  0.79330900  1
  F  F30  1  0.74579900  0.25000000  0.29330900  1
  F  F31  1  0.24579900  0.25000000  0.20669100  1
  F  F32  1  0.16628100  0.94723300  0.56774500  1
  F  F33  1  0.66628100  0.55276700  0.93225500  1
  F  F34  1  0.83371900  0.44723300  0.43225500  1
  F  F35  1  0.33371900  0.05276700  0.06774500  1
  F  F36  1  0.83371900  0.05276700  0.43225500  1
  F  F37  1  0.33371900  0.44723300  0.06774500  1
  F  F38  1  0.16628100  0.55276700  0.56774500  1
  F  F39  1  0.66628100  0.94723300  0.93225500  1
  F  F40  1  0.19571100  0.75000000  0.43462800  1
  F  F41  1  0.69571100  0.75000000  0.06537200  1
  F  F42  1  0.80428900  0.25000000  0.56537200  1
  F  F43  1  0.30428900  0.25000000  0.93462800  1
  F  F44  1  0.50111400  0.41436700  0.72873100  1
  F  F45  1  0.00111400  0.08563300  0.77126900  1
  F  F46  1  0.49888600  0.91436700  0.27126900  1
  F  F47  1  0.99888600  0.58563300  0.22873100  1
  F  F48  1  0.49888600  0.58563300  0.27126900  1
  F  F49  1  0.99888600  0.91436700  0.22873100  1
  F  F50  1  0.50111400  0.08563300  0.72873100  1
  F  F51  1  0.00111400  0.41436700  0.77126900  1
