# generated using pymatgen
data_CaMg14VO16
_symmetry_space_group_name_H-M   'P 1'
_cell_length_a   4.32932600
_cell_length_b   8.59554600
_cell_length_c   8.64099300
_cell_angle_alpha   90.00000000
_cell_angle_beta   90.00000000
_cell_angle_gamma   90.00000000
_symmetry_Int_Tables_number   1
_chemical_formula_structural   CaMg14VO16
_chemical_formula_sum   'Ca1 Mg14 V1 O16'
_cell_volume   321.55658799
_cell_formula_units_Z   1
loop_
 _symmetry_equiv_pos_site_id
 _symmetry_equiv_pos_as_xyz
  1  'x, y, z'
loop_
 _atom_site_type_symbol
 _atom_site_label
 _atom_site_symmetry_multiplicity
 _atom_site_fract_x
 _atom_site_fract_y
 _atom_site_fract_z
 _atom_site_occupancy
  Ca  Ca0  1  0.00000000  0.00000000  0.00000000  1
  Mg  Mg1  1  0.00000000  0.50000000  0.00000000  1
  Mg  Mg2  1  0.00000000  0.50000000  0.50000000  1
  Mg  Mg3  1  0.50000000  0.00000000  0.25435400  1
  Mg  Mg4  1  0.50000000  0.00000000  0.74564600  1
  Mg  Mg5  1  0.50000000  0.50000000  0.25063700  1
  Mg  Mg6  1  0.50000000  0.50000000  0.74936300  1
  Mg  Mg7  1  0.50000000  0.25551500  0.00000000  1
  Mg  Mg8  1  0.50000000  0.25109600  0.50000000  1
  Mg  Mg9  1  0.50000000  0.74448500  0.00000000  1
  Mg  Mg10  1  0.50000000  0.74890400  0.50000000  1
  Mg  Mg11  1  0.00000000  0.25334300  0.25257800  1
  Mg  Mg12  1  0.00000000  0.25334300  0.74742200  1
  Mg  Mg13  1  0.00000000  0.74665700  0.25257800  1
  Mg  Mg14  1  0.00000000  0.74665700  0.74742200  1
  V  V15  1  0.00000000  0.00000000  0.50000000  1
  O  O16  1  0.00000000  0.26408400  0.00000000  1
  O  O17  1  0.00000000  0.25607500  0.50000000  1
  O  O18  1  0.00000000  0.73591600  0.00000000  1
  O  O19  1  0.00000000  0.74392500  0.50000000  1
  O  O20  1  0.50000000  0.24950900  0.25038900  1
  O  O21  1  0.50000000  0.24950900  0.74961100  1
  O  O22  1  0.50000000  0.75049100  0.25038900  1
  O  O23  1  0.50000000  0.75049100  0.74961100  1
  O  O24  1  0.50000000  0.00000000  0.00000000  1
  O  O25  1  0.50000000  0.00000000  0.50000000  1
  O  O26  1  0.50000000  0.50000000  0.00000000  1
  O  O27  1  0.50000000  0.50000000  0.50000000  1
  O  O28  1  0.00000000  0.00000000  0.25730100  1
  O  O29  1  0.00000000  0.00000000  0.74269900  1
  O  O30  1  0.00000000  0.50000000  0.25243700  1
  O  O31  1  0.00000000  0.50000000  0.74756300  1
