# generated using pymatgen
data_ThN3F7
_symmetry_space_group_name_H-M   'P 1'
_cell_length_a   6.75698600
_cell_length_b   7.83859000
_cell_length_c   14.48878900
_cell_angle_alpha   90.00000000
_cell_angle_beta   90.00000000
_cell_angle_gamma   90.00000000
_symmetry_Int_Tables_number   1
_chemical_formula_structural   ThN3F7
_chemical_formula_sum   'Th4 N12 F28'
_cell_volume   767.40222856
_cell_formula_units_Z   4
loop_
 _symmetry_equiv_pos_site_id
 _symmetry_equiv_pos_as_xyz
  1  'x, y, z'
loop_
 _atom_site_type_symbol
 _atom_site_label
 _atom_site_symmetry_multiplicity
 _atom_site_fract_x
 _atom_site_fract_y
 _atom_site_fract_z
 _atom_site_occupancy
  Th  Th0  1  0.25000000  0.47995800  0.56216500  1
  Th  Th1  1  0.25000000  0.02004200  0.06216500  1
  Th  Th2  1  0.75000000  0.52004200  0.43783500  1
  Th  Th3  1  0.75000000  0.97995800  0.93783500  1
  N  N4  1  0.25000000  0.91617000  0.79659800  1
  N  N5  1  0.25000000  0.58383000  0.29659800  1
  N  N6  1  0.75000000  0.08383000  0.20340200  1
  N  N7  1  0.75000000  0.41617000  0.70340200  1
  N  N8  1  0.00840300  0.56842700  0.89693900  1
  N  N9  1  0.49159700  0.93157300  0.39693900  1
  N  N10  1  0.50840300  0.43157300  0.10306100  1
  N  N11  1  0.99159700  0.06842700  0.60306100  1
  N  N12  1  0.99159700  0.43157300  0.10306100  1
  N  N13  1  0.50840300  0.06842700  0.60306100  1
  N  N14  1  0.49159700  0.56842700  0.89693900  1
  N  N15  1  0.00840300  0.93157300  0.39693900  1
  F  F16  1  0.25000000  0.68905800  0.46473300  1
  F  F17  1  0.25000000  0.81094200  0.96473300  1
  F  F18  1  0.75000000  0.31094200  0.53526700  1
  F  F19  1  0.75000000  0.18905800  0.03526700  1
  F  F20  1  0.25000000  0.69161800  0.22712500  1
  F  F21  1  0.25000000  0.80838200  0.72712500  1
  F  F22  1  0.75000000  0.30838200  0.77287500  1
  F  F23  1  0.75000000  0.19161800  0.27287500  1
  F  F24  1  0.25000000  0.40104700  0.09695100  1
  F  F25  1  0.25000000  0.09895300  0.59695100  1
  F  F26  1  0.75000000  0.59895300  0.90304900  1
  F  F27  1  0.75000000  0.90104700  0.40304900  1
  F  F28  1  0.03517200  0.41813200  0.68709100  1
  F  F29  1  0.46482800  0.08186800  0.18709100  1
  F  F30  1  0.53517200  0.58186800  0.31290900  1
  F  F31  1  0.96482800  0.91813200  0.81290900  1
  F  F32  1  0.96482800  0.58186800  0.31290900  1
  F  F33  1  0.53517200  0.91813200  0.81290900  1
  F  F34  1  0.46482800  0.41813200  0.68709100  1
  F  F35  1  0.03517200  0.08186800  0.18709100  1
  F  F36  1  0.05590400  0.36779500  0.44754400  1
  F  F37  1  0.44409600  0.13220500  0.94754400  1
  F  F38  1  0.55590400  0.63220500  0.55245600  1
  F  F39  1  0.94409600  0.86779500  0.05245600  1
  F  F40  1  0.94409600  0.63220500  0.55245600  1
  F  F41  1  0.55590400  0.86779500  0.05245600  1
  F  F42  1  0.44409600  0.36779500  0.44754400  1
  F  F43  1  0.05590400  0.13220500  0.94754400  1
