# generated using pymatgen
data_Fe5(SiO4)3
_symmetry_space_group_name_H-M   'P 1'
_cell_length_a   4.89321100
_cell_length_b   10.40152100
_cell_length_c   17.85261600
_cell_angle_alpha   90.00000000
_cell_angle_beta   90.00000000
_cell_angle_gamma   90.00000000
_symmetry_Int_Tables_number   1
_chemical_formula_structural   Fe5(SiO4)3
_chemical_formula_sum   'Fe20 Si12 O48'
_cell_volume   908.64168611
_cell_formula_units_Z   4
loop_
 _symmetry_equiv_pos_site_id
 _symmetry_equiv_pos_as_xyz
  1  'x, y, z'
loop_
 _atom_site_type_symbol
 _atom_site_label
 _atom_site_symmetry_multiplicity
 _atom_site_fract_x
 _atom_site_fract_y
 _atom_site_fract_z
 _atom_site_occupancy
  Fe  Fe0  1  0.99467200  0.72969900  0.08047600  1
  Fe  Fe1  1  0.50532800  0.22969900  0.41952400  1
  Fe  Fe2  1  0.00532800  0.27030100  0.58047600  1
  Fe  Fe3  1  0.49467200  0.77030100  0.91952400  1
  Fe  Fe4  1  0.00532800  0.27030100  0.91952400  1
  Fe  Fe5  1  0.49467200  0.77030100  0.58047600  1
  Fe  Fe6  1  0.99467200  0.72969900  0.41952400  1
  Fe  Fe7  1  0.50532800  0.22969900  0.08047600  1
  Fe  Fe8  1  0.48256600  0.78311300  0.25000000  1
  Fe  Fe9  1  0.01743400  0.28311300  0.25000000  1
  Fe  Fe10  1  0.51743400  0.21688700  0.75000000  1
  Fe  Fe11  1  0.98256600  0.71688700  0.75000000  1
  Fe  Fe12  1  0.50292900  0.50770200  0.15913200  1
  Fe  Fe13  1  0.99707100  0.00770200  0.34086800  1
  Fe  Fe14  1  0.49707100  0.49229800  0.65913200  1
  Fe  Fe15  1  0.00292900  0.99229800  0.84086800  1
  Fe  Fe16  1  0.49707100  0.49229800  0.84086800  1
  Fe  Fe17  1  0.00292900  0.99229800  0.65913200  1
  Fe  Fe18  1  0.50292900  0.50770200  0.34086800  1
  Fe  Fe19  1  0.99707100  0.00770200  0.15913200  1
  Si  Si20  1  0.93178200  0.60005100  0.25000000  1
  Si  Si21  1  0.56821800  0.10005100  0.25000000  1
  Si  Si22  1  0.06821800  0.39994900  0.75000000  1
  Si  Si23  1  0.43178200  0.89994900  0.75000000  1
  Si  Si24  1  0.06449300  0.40618800  0.08012200  1
  Si  Si25  1  0.43550700  0.90618800  0.41987800  1
  Si  Si26  1  0.93550700  0.59381200  0.58012200  1
  Si  Si27  1  0.56449300  0.09381200  0.91987800  1
  Si  Si28  1  0.93550700  0.59381200  0.91987800  1
  Si  Si29  1  0.56449300  0.09381200  0.58012200  1
  Si  Si30  1  0.06449300  0.40618800  0.41987800  1
  Si  Si31  1  0.43550700  0.90618800  0.08012200  1
  O  O32  1  0.26657300  0.59607200  0.25000000  1
  O  O33  1  0.23342700  0.09607200  0.25000000  1
  O  O34  1  0.73342700  0.40392800  0.75000000  1
  O  O35  1  0.76657300  0.90392800  0.75000000  1
  O  O36  1  0.76628300  0.89419300  0.08656200  1
  O  O37  1  0.73371700  0.39419300  0.41343800  1
  O  O38  1  0.23371700  0.10580700  0.58656200  1
  O  O39  1  0.26628300  0.60580700  0.91343800  1
  O  O40  1  0.23371700  0.10580700  0.91343800  1
  O  O41  1  0.26628300  0.60580700  0.58656200  1
  O  O42  1  0.76628300  0.89419300  0.41343800  1
  O  O43  1  0.73371700  0.39419300  0.08656200  1
  O  O44  1  0.32714900  0.05557100  0.08496800  1
  O  O45  1  0.17285100  0.55557100  0.41503200  1
  O  O46  1  0.67285100  0.94442900  0.58496800  1
  O  O47  1  0.82714900  0.44442900  0.91503200  1
  O  O48  1  0.67285100  0.94442900  0.91503200  1
  O  O49  1  0.82714900  0.44442900  0.58496800  1
  O  O50  1  0.32714900  0.05557100  0.41503200  1
  O  O51  1  0.17285100  0.55557100  0.08496800  1
  O  O52  1  0.29640900  0.82255400  0.01136600  1
  O  O53  1  0.20359100  0.32255400  0.48863400  1
  O  O54  1  0.70359100  0.17744600  0.51136600  1
  O  O55  1  0.79640900  0.67744600  0.98863400  1
  O  O56  1  0.70359100  0.17744600  0.98863400  1
  O  O57  1  0.79640900  0.67744600  0.51136600  1
  O  O58  1  0.29640900  0.82255400  0.48863400  1
  O  O59  1  0.20359100  0.32255400  0.01136600  1
  O  O60  1  0.27049300  0.83382800  0.15104500  1
  O  O61  1  0.22950700  0.33382800  0.34895500  1
  O  O62  1  0.72950700  0.16617200  0.65104500  1
  O  O63  1  0.77049300  0.66617200  0.84895500  1
  O  O64  1  0.72950700  0.16617200  0.84895500  1
  O  O65  1  0.77049300  0.66617200  0.65104500  1
  O  O66  1  0.27049300  0.83382800  0.34895500  1
  O  O67  1  0.22950700  0.33382800  0.15104500  1
  O  O68  1  0.79052900  0.67267400  0.17648400  1
  O  O69  1  0.70947100  0.17267400  0.32351600  1
  O  O70  1  0.20947100  0.32732600  0.67648400  1
  O  O71  1  0.29052900  0.82732600  0.82351600  1
  O  O72  1  0.20947100  0.32732600  0.82351600  1
  O  O73  1  0.29052900  0.82732600  0.67648400  1
  O  O74  1  0.79052900  0.67267400  0.32351600  1
  O  O75  1  0.70947100  0.17267400  0.17648400  1
  O  O76  1  0.21088000  0.54341600  0.75000000  1
  O  O77  1  0.28912000  0.04341600  0.75000000  1
  O  O78  1  0.78912000  0.45658400  0.25000000  1
  O  O79  1  0.71088000  0.95658400  0.25000000  1
