# generated using pymatgen
data_K2UH4C4SNO10
_symmetry_space_group_name_H-M   'P 1'
_cell_length_a   15.12084000
_cell_length_b   8.11668200
_cell_length_c   12.96635760
_cell_angle_alpha   59.70274619
_cell_angle_beta   90.00000000
_cell_angle_gamma   90.00000000
_symmetry_Int_Tables_number   1
_chemical_formula_structural   K2UH4C4SNO10
_chemical_formula_sum   'K8 U4 H16 C16 S4 N4 O40'
_cell_volume   1374.02430010
_cell_formula_units_Z   4
loop_
 _symmetry_equiv_pos_site_id
 _symmetry_equiv_pos_as_xyz
  1  'x, y, z'
loop_
 _atom_site_type_symbol
 _atom_site_label
 _atom_site_symmetry_multiplicity
 _atom_site_fract_x
 _atom_site_fract_y
 _atom_site_fract_z
 _atom_site_occupancy
  K  K0  1  0.19156000  0.71079200  0.24313200  1
  K  K1  1  0.30844000  0.71079200  0.74313200  1
  K  K2  1  0.80844000  0.28920800  0.75686800  1
  K  K3  1  0.69156000  0.28920800  0.25686800  1
  K  K4  1  0.12406100  0.31131100  0.11244400  1
  K  K5  1  0.37593900  0.31131100  0.61244400  1
  K  K6  1  0.87593900  0.68868900  0.88755600  1
  K  K7  1  0.62406100  0.68868900  0.38755600  1
  U  U8  1  0.41869800  0.12253500  0.18145500  1
  U  U9  1  0.08130200  0.12253500  0.68145500  1
  U  U10  1  0.58130200  0.87746500  0.81854500  1
  U  U11  1  0.91869800  0.87746500  0.31854500  1
  H  H12  1  0.25623600  0.27688900  0.32500500  1
  H  H13  1  0.24376400  0.27688900  0.82500500  1
  H  H14  1  0.74376400  0.72311100  0.67499500  1
  H  H15  1  0.75623600  0.72311100  0.17499500  1
  H  H16  1  0.15845100  0.28917100  0.36348900  1
  H  H17  1  0.34154900  0.28917100  0.86348900  1
  H  H18  1  0.84154900  0.71082900  0.63651100  1
  H  H19  1  0.65845100  0.71082900  0.13651100  1
  H  H20  1  0.10019700  0.61998200  0.85127600  1
  H  H21  1  0.39980300  0.61998200  0.35127600  1
  H  H22  1  0.89980300  0.38001800  0.14872400  1
  H  H23  1  0.60019700  0.38001800  0.64872400  1
  H  H24  1  0.11040100  0.44268700  0.83450400  1
  H  H25  1  0.38959900  0.44268700  0.33450400  1
  H  H26  1  0.88959900  0.55731300  0.16549600  1
  H  H27  1  0.61040100  0.55731300  0.66549600  1
  C  C28  1  0.33363900  0.59727900  0.03749900  1
  C  C29  1  0.16636100  0.59727900  0.53749900  1
  C  C30  1  0.66636100  0.40272100  0.96250100  1
  C  C31  1  0.83363900  0.40272100  0.46250100  1
  C  C32  1  0.42345200  0.82730100  0.47283100  1
  C  C33  1  0.07654800  0.82730100  0.97283100  1
  C  C34  1  0.57654800  0.17269900  0.52716900  1
  C  C35  1  0.92345200  0.17269900  0.02716900  1
  C  C36  1  0.38876400  0.01918800  0.45862000  1
  C  C37  1  0.11123600  0.01918800  0.95862000  1
  C  C38  1  0.61123600  0.98081200  0.54138000  1
  C  C39  1  0.88876400  0.98081200  0.04138000  1
  C  C40  1  0.51621800  0.90529100  0.05324900  1
  C  C41  1  0.98378200  0.90529100  0.55324900  1
  C  C42  1  0.48378200  0.09470900  0.94675100  1
  C  C43  1  0.01621800  0.09470900  0.44675100  1
  S  S44  1  0.30521500  0.81672700  0.98003300  1
  S  S45  1  0.19478500  0.81672700  0.48003300  1
  S  S46  1  0.69478500  0.18327300  0.01996700  1
  S  S47  1  0.80521500  0.18327300  0.51996700  1
  N  N48  1  0.35379500  0.43365200  0.07919500  1
  N  N49  1  0.14620500  0.43365200  0.57919500  1
  N  N50  1  0.64620500  0.56634800  0.92080500  1
  N  N51  1  0.85379500  0.56634800  0.42080500  1
  O  O52  1  0.31129100  0.02333100  0.17963300  1
  O  O53  1  0.18870900  0.02333100  0.67963300  1
  O  O54  1  0.68870900  0.97666900  0.82036700  1
  O  O55  1  0.81129100  0.97666900  0.32036700  1
  O  O56  1  0.52628200  0.21827100  0.18425500  1
  O  O57  1  0.97371800  0.21827100  0.68425500  1
  O  O58  1  0.47371800  0.78172900  0.81574500  1
  O  O59  1  0.02628200  0.78172900  0.31574500  1
  O  O60  1  0.44578800  0.84013400  0.37213400  1
  O  O61  1  0.05421200  0.84013400  0.87213400  1
  O  O62  1  0.55421200  0.15986600  0.62786600  1
  O  O63  1  0.94578800  0.15986600  0.12786600  1
  O  O64  1  0.37623900  0.15235300  0.34792800  1
  O  O65  1  0.12376100  0.15235300  0.84792800  1
  O  O66  1  0.62376100  0.84764700  0.65207200  1
  O  O67  1  0.87623900  0.84764700  0.15207200  1
  O  O68  1  0.42745800  0.68113300  0.57268500  1
  O  O69  1  0.07254200  0.68113300  0.07268500  1
  O  O70  1  0.57254200  0.31886700  0.42731500  1
  O  O71  1  0.92745800  0.31886700  0.92731500  1
  O  O72  1  0.37520000  0.03534500  0.54724000  1
  O  O73  1  0.12480000  0.03534500  0.04724000  1
  O  O74  1  0.62480000  0.96465500  0.45276000  1
  O  O75  1  0.87520000  0.96465500  0.95276000  1
  O  O76  1  0.49825000  0.87364800  0.15679100  1
  O  O77  1  0.00175000  0.87364800  0.65679100  1
  O  O78  1  0.50175000  0.12635200  0.84320900  1
  O  O79  1  0.99825000  0.12635200  0.34320900  1
  O  O80  1  0.44031100  0.20379400  0.97238400  1
  O  O81  1  0.05968900  0.20379400  0.47238400  1
  O  O82  1  0.55968900  0.79620600  0.02761600  1
  O  O83  1  0.94031100  0.79620600  0.52761600  1
  O  O84  1  0.19831700  0.33594200  0.29445400  1
  O  O85  1  0.30168300  0.33594200  0.79445400  1
  O  O86  1  0.80168300  0.66405800  0.70554600  1
  O  O87  1  0.69831700  0.66405800  0.20554600  1
  O  O88  1  0.14213700  0.52226500  0.85906900  1
  O  O89  1  0.35786300  0.52226500  0.35906900  1
  O  O90  1  0.85786300  0.47773500  0.14093100  1
  O  O91  1  0.64213700  0.47773500  0.64093100  1
