# generated using pymatgen
data_Ba2H14Cl4O15
_symmetry_space_group_name_H-M   'P 1'
_cell_length_a   11.63535599
_cell_length_b   11.63535599
_cell_length_c   6.79362823
_cell_angle_alpha   75.54528369
_cell_angle_beta   75.54528369
_cell_angle_gamma   72.49110649
_symmetry_Int_Tables_number   1
_chemical_formula_structural   Ba2H14Cl4O15
_chemical_formula_sum   'Ba4 H28 Cl8 O30'
_cell_volume   834.05149711
_cell_formula_units_Z   2
loop_
 _symmetry_equiv_pos_site_id
 _symmetry_equiv_pos_as_xyz
  1  'x, y, z'
loop_
 _atom_site_type_symbol
 _atom_site_label
 _atom_site_symmetry_multiplicity
 _atom_site_fract_x
 _atom_site_fract_y
 _atom_site_fract_z
 _atom_site_occupancy
  Ba  Ba0  1  0.86873700  0.61743300  0.75700300  1
  Ba  Ba1  1  0.38256700  0.13126300  0.74299700  1
  Ba  Ba2  1  0.13126300  0.38256700  0.24299700  1
  Ba  Ba3  1  0.61743300  0.86873700  0.25700300  1
  H  H4  1  0.90803400  0.32291900  0.05178900  1
  H  H5  1  0.67708100  0.09196600  0.44821100  1
  H  H6  1  0.09196600  0.67708100  0.94821100  1
  H  H7  1  0.32291900  0.90803400  0.55178900  1
  H  H8  1  0.02473600  0.31908400  0.87069600  1
  H  H9  1  0.68091600  0.97526400  0.62930400  1
  H  H10  1  0.97526400  0.68091600  0.12930400  1
  H  H11  1  0.31908400  0.02473600  0.37069600  1
  H  H12  1  0.72616900  0.38317900  0.84880800  1
  H  H13  1  0.61682100  0.27383100  0.65119200  1
  H  H14  1  0.27383100  0.61682100  0.15119200  1
  H  H15  1  0.38317900  0.72616900  0.34880800  1
  H  H16  1  0.62073700  0.50178300  0.81969200  1
  H  H17  1  0.49821700  0.37926300  0.68030800  1
  H  H18  1  0.37926300  0.49821700  0.18030800  1
  H  H19  1  0.50178300  0.62073700  0.31969200  1
  H  H20  1  0.76220300  0.16947100  0.85463100  1
  H  H21  1  0.83052900  0.23779700  0.64536900  1
  H  H22  1  0.23779700  0.83052900  0.14536900  1
  H  H23  1  0.16947100  0.76220300  0.35463100  1
  H  H24  1  0.59565800  0.46035800  0.13209300  1
  H  H25  1  0.53964200  0.40434200  0.36790700  1
  H  H26  1  0.40434200  0.53964200  0.86790700  1
  H  H27  1  0.46035800  0.59565800  0.63209300  1
  H  H28  1  0.86343700  0.17710700  0.33581800  1
  H  H29  1  0.82289300  0.13656300  0.16418200  1
  H  H30  1  0.13656300  0.82289300  0.66418200  1
  H  H31  1  0.17710700  0.86343700  0.83581800  1
  Cl  Cl32  1  0.77227900  0.51428800  0.34226000  1
  Cl  Cl33  1  0.48571200  0.22772100  0.15774000  1
  Cl  Cl34  1  0.22772100  0.48571200  0.65774000  1
  Cl  Cl35  1  0.51428800  0.77227900  0.84226000  1
  Cl  Cl36  1  0.94155300  0.87113700  0.35674000  1
  Cl  Cl37  1  0.12886300  0.05844700  0.14326000  1
  Cl  Cl38  1  0.05844700  0.12886300  0.64326000  1
  Cl  Cl39  1  0.87113700  0.94155300  0.85674000  1
  O  O40  1  0.89051600  0.49700500  0.43266600  1
  O  O41  1  0.50299500  0.10948400  0.06733400  1
  O  O42  1  0.10948400  0.50299500  0.56733400  1
  O  O43  1  0.49700500  0.89051600  0.93266600  1
  O  O44  1  0.75137500  0.63389100  0.16746400  1
  O  O45  1  0.36610900  0.24862500  0.33253600  1
  O  O46  1  0.24862500  0.36610900  0.83253600  1
  O  O47  1  0.63389100  0.75137500  0.66746400  1
  O  O48  1  0.87859300  0.77558900  0.32457600  1
  O  O49  1  0.22441100  0.12140700  0.17542400  1
  O  O50  1  0.12140700  0.22441100  0.67542400  1
  O  O51  1  0.77558900  0.87859300  0.82457600  1
  O  O52  1  0.03045500  0.80140900  0.51757000  1
  O  O53  1  0.19859100  0.96954500  0.98243000  1
  O  O54  1  0.96954500  0.19859100  0.48243000  1
  O  O55  1  0.80140900  0.03045500  0.01757000  1
  O  O56  1  0.97100400  0.36700300  0.97749600  1
  O  O57  1  0.63299700  0.02899600  0.52250400  1
  O  O58  1  0.02899600  0.63299700  0.02250400  1
  O  O59  1  0.36700300  0.97100400  0.47749600  1
  O  O60  1  0.69467400  0.46632200  0.88508900  1
  O  O61  1  0.53367800  0.30532600  0.61491100  1
  O  O62  1  0.30532600  0.53367800  0.11491100  1
  O  O63  1  0.46632200  0.69467400  0.38508900  1
  O  O64  1  0.75211500  0.24788500  0.75000000  1
  O  O65  1  0.24788500  0.75211500  0.25000000  1
  O  O66  1  0.52547100  0.47452900  0.25000000  1
  O  O67  1  0.47452900  0.52547100  0.75000000  1
  O  O68  1  0.80041400  0.19958600  0.25000000  1
  O  O69  1  0.19958600  0.80041400  0.75000000  1
