# generated using pymatgen
data_Mg2Cd(ClO2)6
_symmetry_space_group_name_H-M   'P 1'
_cell_length_a   9.37149170
_cell_length_b   9.37149170
_cell_length_c   10.66847288
_cell_angle_alpha   89.17256469
_cell_angle_beta   89.17256469
_cell_angle_gamma   114.77053250
_symmetry_Int_Tables_number   1
_chemical_formula_structural   Mg2Cd(ClO2)6
_chemical_formula_sum   'Mg4 Cd2 Cl12 O24'
_cell_volume   850.44515755
_cell_formula_units_Z   2
loop_
 _symmetry_equiv_pos_site_id
 _symmetry_equiv_pos_as_xyz
  1  'x, y, z'
loop_
 _atom_site_type_symbol
 _atom_site_label
 _atom_site_symmetry_multiplicity
 _atom_site_fract_x
 _atom_site_fract_y
 _atom_site_fract_z
 _atom_site_occupancy
  Mg  Mg0  1  0.67914400  0.30796900  0.34272300  1
  Mg  Mg1  1  0.30796900  0.67914400  0.84272300  1
  Mg  Mg2  1  0.92257700  0.06177200  0.02788800  1
  Mg  Mg3  1  0.06177200  0.92257700  0.52788800  1
  Cd  Cd4  1  0.32415000  0.65954100  0.37515700  1
  Cd  Cd5  1  0.65954100  0.32415000  0.87515700  1
  Cl  Cl6  1  0.57598400  0.69671800  0.04405900  1
  Cl  Cl7  1  0.29310800  0.87844100  0.06661700  1
  Cl  Cl8  1  0.11501000  0.44173400  0.06678100  1
  Cl  Cl9  1  0.69671800  0.57598400  0.54405900  1
  Cl  Cl10  1  0.87844100  0.29310800  0.56661700  1
  Cl  Cl11  1  0.44173400  0.11501000  0.56678100  1
  Cl  Cl12  1  0.16720300  0.81879200  0.35730300  1
  Cl  Cl13  1  0.20130200  0.38149200  0.36342000  1
  Cl  Cl14  1  0.59912100  0.81444100  0.34261000  1
  Cl  Cl15  1  0.81879200  0.16720300  0.85730300  1
  Cl  Cl16  1  0.38149200  0.20130200  0.86342000  1
  Cl  Cl17  1  0.81444100  0.59912100  0.84261000  1
  O  O18  1  0.48563300  0.28210900  0.19833200  1
  O  O19  1  0.74859500  0.21569900  0.18151800  1
  O  O20  1  0.81351600  0.53437300  0.18217800  1
  O  O21  1  0.28210900  0.48563300  0.69833200  1
  O  O22  1  0.21569900  0.74859500  0.68151800  1
  O  O23  1  0.53437300  0.81351600  0.68217800  1
  O  O24  1  0.87900700  0.38287800  0.43756500  1
  O  O25  1  0.62547400  0.47716000  0.42741000  1
  O  O26  1  0.52279600  0.11965800  0.43722300  1
  O  O27  1  0.38287800  0.87900700  0.93756500  1
  O  O28  1  0.47716000  0.62547400  0.92741000  1
  O  O29  1  0.11965800  0.52279600  0.93722300  1
  O  O30  1  0.05194000  0.94287900  0.01429800  1
  O  O31  1  0.11210300  0.27685600  0.05404800  1
  O  O32  1  0.71660600  0.85182500  0.01624200  1
  O  O33  1  0.94287900  0.05194000  0.51429800  1
  O  O34  1  0.27685600  0.11210300  0.55404800  1
  O  O35  1  0.85182500  0.71660600  0.51624200  1
  O  O36  1  0.34398800  0.19270000  0.20788400  1
  O  O37  1  0.81813100  0.12243700  0.19372800  1
  O  O38  1  0.86677300  0.67836600  0.19456400  1
  O  O39  1  0.19270000  0.34398800  0.70788400  1
  O  O40  1  0.12243700  0.81813100  0.69372800  1
  O  O41  1  0.67836600  0.86677300  0.69456400  1
