# generated using pymatgen
data_TlVPO6
_symmetry_space_group_name_H-M   'P 1'
_cell_length_a   6.82714800
_cell_length_b   9.69264000
_cell_length_c   18.06332000
_cell_angle_alpha   90.00000000
_cell_angle_beta   90.00000000
_cell_angle_gamma   90.00000000
_symmetry_Int_Tables_number   1
_chemical_formula_structural   TlVPO6
_chemical_formula_sum   'Tl8 V8 P8 O48'
_cell_volume   1195.30566015
_cell_formula_units_Z   8
loop_
 _symmetry_equiv_pos_site_id
 _symmetry_equiv_pos_as_xyz
  1  'x, y, z'
loop_
 _atom_site_type_symbol
 _atom_site_label
 _atom_site_symmetry_multiplicity
 _atom_site_fract_x
 _atom_site_fract_y
 _atom_site_fract_z
 _atom_site_occupancy
  Tl  Tl0  1  0.77205400  0.30298800  0.09900500  1
  Tl  Tl1  1  0.22794600  0.80298800  0.40099500  1
  Tl  Tl2  1  0.72794600  0.69701200  0.59900500  1
  Tl  Tl3  1  0.27205400  0.19701200  0.90099500  1
  Tl  Tl4  1  0.22794600  0.69701200  0.90099500  1
  Tl  Tl5  1  0.77205400  0.19701200  0.59900500  1
  Tl  Tl6  1  0.27205400  0.30298800  0.40099500  1
  Tl  Tl7  1  0.72794600  0.80298800  0.09900500  1
  V  V8  1  0.47604400  0.54608300  0.24197800  1
  V  V9  1  0.52395600  0.04608300  0.25802200  1
  V  V10  1  0.02395600  0.45391700  0.74197800  1
  V  V11  1  0.97604400  0.95391700  0.75802200  1
  V  V12  1  0.52395600  0.45391700  0.75802200  1
  V  V13  1  0.47604400  0.95391700  0.74197800  1
  V  V14  1  0.97604400  0.54608300  0.25802200  1
  V  V15  1  0.02395600  0.04608300  0.24197800  1
  P  P16  1  0.20061200  0.60209400  0.10011800  1
  P  P17  1  0.79938800  0.10209400  0.39988200  1
  P  P18  1  0.29938800  0.39790600  0.60011800  1
  P  P19  1  0.70061200  0.89790600  0.89988200  1
  P  P20  1  0.79938800  0.39790600  0.89988200  1
  P  P21  1  0.20061200  0.89790600  0.60011800  1
  P  P22  1  0.70061200  0.60209400  0.39988200  1
  P  P23  1  0.29938800  0.10209400  0.10011800  1
  O  O24  1  0.14055200  0.73442000  0.05871900  1
  O  O25  1  0.85944800  0.23442000  0.44128100  1
  O  O26  1  0.35944800  0.26558000  0.55871900  1
  O  O27  1  0.64055200  0.76558000  0.94128100  1
  O  O28  1  0.85944800  0.26558000  0.94128100  1
  O  O29  1  0.14055200  0.76558000  0.55871900  1
  O  O30  1  0.64055200  0.73442000  0.44128100  1
  O  O31  1  0.35944800  0.23442000  0.05871900  1
  O  O32  1  0.23089800  0.50435800  0.03384100  1
  O  O33  1  0.76910200  0.00435800  0.46615900  1
  O  O34  1  0.26910200  0.49564200  0.53384100  1
  O  O35  1  0.73089800  0.99564200  0.96615900  1
  O  O36  1  0.76910200  0.49564200  0.96615900  1
  O  O37  1  0.23089800  0.99564200  0.53384100  1
  O  O38  1  0.73089800  0.50435800  0.46615900  1
  O  O39  1  0.26910200  0.00435800  0.03384100  1
  O  O40  1  0.39173000  0.62121400  0.14645300  1
  O  O41  1  0.60827000  0.12121400  0.35354700  1
  O  O42  1  0.10827000  0.37878600  0.64645300  1
  O  O43  1  0.89173000  0.87878600  0.85354700  1
  O  O44  1  0.60827000  0.37878600  0.85354700  1
  O  O45  1  0.39173000  0.87878600  0.64645300  1
  O  O46  1  0.89173000  0.62121400  0.35354700  1
  O  O47  1  0.10827000  0.12121400  0.14645300  1
  O  O48  1  0.47037500  0.38069200  0.22732700  1
  O  O49  1  0.52962500  0.88069200  0.27267300  1
  O  O50  1  0.02962500  0.61930800  0.72732700  1
  O  O51  1  0.97037500  0.11930800  0.77267300  1
  O  O52  1  0.52962500  0.61930800  0.77267300  1
  O  O53  1  0.47037500  0.11930800  0.72732700  1
  O  O54  1  0.97037500  0.38069200  0.27267300  1
  O  O55  1  0.02962500  0.88069200  0.22732700  1
  O  O56  1  0.72119200  0.60124300  0.22458800  1
  O  O57  1  0.27880800  0.10124300  0.27541200  1
  O  O58  1  0.77880800  0.39875700  0.72458800  1
  O  O59  1  0.22119200  0.89875700  0.77541200  1
  O  O60  1  0.27880800  0.39875700  0.77541200  1
  O  O61  1  0.72119200  0.89875700  0.72458800  1
  O  O62  1  0.22119200  0.60124300  0.27541200  1
  O  O63  1  0.77880800  0.10124300  0.22458800  1
  O  O64  1  0.53384600  0.54951000  0.34846400  1
  O  O65  1  0.46615400  0.04951000  0.15153600  1
  O  O66  1  0.96615400  0.45049000  0.84846400  1
  O  O67  1  0.03384600  0.95049000  0.65153600  1
  O  O68  1  0.46615400  0.45049000  0.65153600  1
  O  O69  1  0.53384600  0.95049000  0.84846400  1
  O  O70  1  0.03384600  0.54951000  0.15153600  1
  O  O71  1  0.96615400  0.04951000  0.34846400  1
