# generated using pymatgen
data_CdCO3
_symmetry_space_group_name_H-M   'P 1'
_cell_length_a   5.98767200
_cell_length_b   7.47577200
_cell_length_c   14.43415550
_cell_angle_alpha   60.63000805
_cell_angle_beta   90.00000000
_cell_angle_gamma   90.00000000
_symmetry_Int_Tables_number   1
_chemical_formula_structural   CdCO3
_chemical_formula_sum   'Cd8 C8 O24'
_cell_volume   563.06465678
_cell_formula_units_Z   8
loop_
 _symmetry_equiv_pos_site_id
 _symmetry_equiv_pos_as_xyz
  1  'x, y, z'
loop_
 _atom_site_type_symbol
 _atom_site_label
 _atom_site_symmetry_multiplicity
 _atom_site_fract_x
 _atom_site_fract_y
 _atom_site_fract_z
 _atom_site_occupancy
  Cd  Cd0  1  0.75599000  0.56315500  0.66250200  1
  Cd  Cd1  1  0.74401000  0.56315500  0.16250200  1
  Cd  Cd2  1  0.24401000  0.43684500  0.33749800  1
  Cd  Cd3  1  0.25599000  0.43684500  0.83749800  1
  Cd  Cd4  1  0.72972800  0.06810400  0.41150200  1
  Cd  Cd5  1  0.77027200  0.06810400  0.91150200  1
  Cd  Cd6  1  0.27027200  0.93189600  0.58849800  1
  Cd  Cd7  1  0.22972800  0.93189600  0.08849800  1
  C  C8  1  0.92655200  0.25584200  0.58217600  1
  C  C9  1  0.57344800  0.25584200  0.08217600  1
  C  C10  1  0.07344800  0.74415800  0.41782400  1
  C  C11  1  0.42655200  0.74415800  0.91782400  1
  C  C12  1  0.09396400  0.21286200  0.67687500  1
  C  C13  1  0.40603600  0.21286200  0.17687500  1
  C  C14  1  0.90603600  0.78713800  0.32312500  1
  C  C15  1  0.59396400  0.78713800  0.82312500  1
  O  O16  1  0.04282500  0.29768600  0.73167300  1
  O  O17  1  0.45717500  0.29768600  0.23167300  1
  O  O18  1  0.95717500  0.70231400  0.26832700  1
  O  O19  1  0.54282500  0.70231400  0.76832700  1
  O  O20  1  0.77480300  0.38466700  0.56234800  1
  O  O21  1  0.72519700  0.38466700  0.06234800  1
  O  O22  1  0.22519700  0.61533300  0.43765200  1
  O  O23  1  0.27480300  0.61533300  0.93765200  1
  O  O24  1  0.26055000  0.10172000  0.69022900  1
  O  O25  1  0.23945000  0.10172000  0.19022900  1
  O  O26  1  0.73945000  0.89828000  0.30977100  1
  O  O27  1  0.76055000  0.89828000  0.80977100  1
  O  O28  1  0.96495000  0.15797200  0.53237500  1
  O  O29  1  0.53505000  0.15797200  0.03237500  1
  O  O30  1  0.03505000  0.84202800  0.46762500  1
  O  O31  1  0.46495000  0.84202800  0.96762500  1
  O  O32  1  0.54169200  0.80288200  0.53651800  1
  O  O33  1  0.95830800  0.80288200  0.03651800  1
  O  O34  1  0.45830800  0.19711800  0.46348200  1
  O  O35  1  0.04169200  0.19711800  0.96348200  1
  O  O36  1  0.94219200  0.31356200  0.29467400  1
  O  O37  1  0.55780800  0.31356200  0.79467400  1
  O  O38  1  0.05780800  0.68643800  0.70532600  1
  O  O39  1  0.44219200  0.68643800  0.20532600  1
