# generated using pymatgen
data_La6Fe13Sn
_symmetry_space_group_name_H-M   'P 1'
_cell_length_a   8.09441300
_cell_length_b   8.09441300
_cell_length_c   13.46767248
_cell_angle_alpha   107.48840137
_cell_angle_beta   107.48840137
_cell_angle_gamma   90.00000000
_symmetry_Int_Tables_number   1
_chemical_formula_structural   La6Fe13Sn
_chemical_formula_sum   'La12 Fe26 Sn2'
_cell_volume   798.74298680
_cell_formula_units_Z   2
loop_
 _symmetry_equiv_pos_site_id
 _symmetry_equiv_pos_as_xyz
  1  'x, y, z'
loop_
 _atom_site_type_symbol
 _atom_site_label
 _atom_site_symmetry_multiplicity
 _atom_site_fract_x
 _atom_site_fract_y
 _atom_site_fract_z
 _atom_site_occupancy
  La  La0  1  0.60432400  0.60432400  0.20864700  1
  La  La1  1  0.10432400  0.10432400  0.20864700  1
  La  La2  1  0.39567600  0.39567600  0.79135300  1
  La  La3  1  0.89567600  0.89567600  0.79135300  1
  La  La4  1  0.97988700  0.47988700  0.63483600  1
  La  La5  1  0.65495000  0.15495000  0.63483600  1
  La  La6  1  0.15495000  0.97988700  0.63483600  1
  La  La7  1  0.47988700  0.65495000  0.63483600  1
  La  La8  1  0.02011300  0.52011300  0.36516400  1
  La  La9  1  0.34505000  0.84505000  0.36516400  1
  La  La10  1  0.84505000  0.02011300  0.36516400  1
  La  La11  1  0.52011300  0.34505000  0.36516400  1
  Fe  Fe12  1  0.00000000  0.50000000  0.00000000  1
  Fe  Fe13  1  0.50000000  0.00000000  0.00000000  1
  Fe  Fe14  1  0.70902400  0.56717000  0.00000000  1
  Fe  Fe15  1  0.29097600  0.43283000  0.00000000  1
  Fe  Fe16  1  0.79097600  0.06717000  0.00000000  1
  Fe  Fe17  1  0.20902400  0.93283000  0.00000000  1
  Fe  Fe18  1  0.56717000  0.29097600  0.00000000  1
  Fe  Fe19  1  0.43283000  0.70902400  0.00000000  1
  Fe  Fe20  1  0.06717000  0.20902400  0.00000000  1
  Fe  Fe21  1  0.93283000  0.79097600  0.00000000  1
  Fe  Fe22  1  0.12128000  0.62128000  0.88611500  1
  Fe  Fe23  1  0.76483600  0.26483600  0.88611500  1
  Fe  Fe24  1  0.26483600  0.12128000  0.88611500  1
  Fe  Fe25  1  0.62128000  0.76483600  0.88611500  1
  Fe  Fe26  1  0.87872000  0.37872000  0.11388500  1
  Fe  Fe27  1  0.23516400  0.73516400  0.11388500  1
  Fe  Fe28  1  0.73516400  0.87872000  0.11388500  1
  Fe  Fe29  1  0.37872000  0.23516400  0.11388500  1
  Fe  Fe30  1  0.29679200  0.79679200  0.81954700  1
  Fe  Fe31  1  0.52275500  0.02275500  0.81954700  1
  Fe  Fe32  1  0.02275500  0.29679200  0.81954700  1
  Fe  Fe33  1  0.79679200  0.52275500  0.81954700  1
  Fe  Fe34  1  0.70320800  0.20320800  0.18045300  1
  Fe  Fe35  1  0.47724500  0.97724500  0.18045300  1
  Fe  Fe36  1  0.97724500  0.70320800  0.18045300  1
  Fe  Fe37  1  0.20320800  0.47724500  0.18045300  1
  Sn  Sn38  1  0.25000000  0.25000000  0.50000000  1
  Sn  Sn39  1  0.75000000  0.75000000  0.50000000  1
