# generated using pymatgen
data_NaV5H18N2O19
_symmetry_space_group_name_H-M   'P 1'
_cell_length_a   8.58823700
_cell_length_b   10.54526819
_cell_length_c   11.51974270
_cell_angle_alpha   111.30603809
_cell_angle_beta   87.49942309
_cell_angle_gamma   113.51244323
_symmetry_Int_Tables_number   1
_chemical_formula_structural   NaV5H18N2O19
_chemical_formula_sum   'Na2 V10 H36 N4 O38'
_cell_volume   884.99086870
_cell_formula_units_Z   2
loop_
 _symmetry_equiv_pos_site_id
 _symmetry_equiv_pos_as_xyz
  1  'x, y, z'
loop_
 _atom_site_type_symbol
 _atom_site_label
 _atom_site_symmetry_multiplicity
 _atom_site_fract_x
 _atom_site_fract_y
 _atom_site_fract_z
 _atom_site_occupancy
  Na  Na0  1  0.57398600  0.16689900  0.12652600  1
  Na  Na1  1  0.42601400  0.83310100  0.87347400  1
  V  V2  1  0.03231300  0.70855700  0.23776700  1
  V  V3  1  0.96768700  0.29144300  0.76223300  1
  V  V4  1  0.18805500  0.99764600  0.48070000  1
  V  V5  1  0.81194500  0.00235400  0.51930000  1
  V  V6  1  0.97376000  0.99823100  0.26116500  1
  V  V7  1  0.02624000  0.00176900  0.73883500  1
  V  V8  1  0.12481500  0.28642300  0.50528600  1
  V  V9  1  0.87518500  0.71357700  0.49471400  1
  V  V10  1  0.33310900  0.28497000  0.72314800  1
  V  V11  1  0.66689100  0.71503000  0.27685200  1
  H  H12  1  0.89386400  0.42955600  0.28832700  1
  H  H13  1  0.10613600  0.57044400  0.71167300  1
  H  H14  1  0.92724600  0.28700000  0.26272100  1
  H  H15  1  0.07275400  0.71300000  0.73727900  1
  H  H16  1  0.34488900  0.57010200  0.92287700  1
  H  H17  1  0.65511100  0.42989800  0.07712300  1
  H  H18  1  0.84940600  0.74668000  0.88055700  1
  H  H19  1  0.15059400  0.25332000  0.11944300  1
  H  H20  1  0.40697000  0.70046500  0.05437000  1
  H  H21  1  0.59303000  0.29953500  0.94563000  1
  H  H22  1  0.42084700  0.95893800  0.27711700  1
  H  H23  1  0.57915300  0.04106200  0.72288300  1
  H  H24  1  0.35972300  0.27187100  0.32506600  1
  H  H25  1  0.64027700  0.72812900  0.67493400  1
  H  H26  1  0.59880200  0.96369000  0.23664500  1
  H  H27  1  0.40119800  0.03631000  0.76335500  1
  H  H28  1  0.25662300  0.76710600  0.56010900  1
  H  H29  1  0.74337700  0.23289400  0.43989100  1
  H  H30  1  0.50936000  0.42535100  0.33253400  1
  H  H31  1  0.49064000  0.57464900  0.66746600  1
  H  H32  1  0.66560300  0.68854400  0.94817500  1
  H  H33  1  0.33439700  0.31145600  0.05182500  1
  H  H34  1  0.41405700  0.76199200  0.46784400  1
  H  H35  1  0.58594300  0.23800800  0.53215600  1
  H  H36  1  0.22379000  0.94642700  0.07473300  1
  H  H37  1  0.77621000  0.05357300  0.92526700  1
  H  H38  1  0.75766600  0.57020200  0.88114300  1
  H  H39  1  0.24233400  0.42979800  0.11885700  1
  H  H40  1  0.24994100  0.59996100  0.46084800  1
  H  H41  1  0.75005900  0.40003900  0.53915200  1
  H  H42  1  0.39781100  0.70278500  0.58823800  1
  H  H43  1  0.60218900  0.29721500  0.41176200  1
  H  H44  1  0.20774300  0.97892900  0.95546400  1
  H  H45  1  0.79225700  0.02107100  0.04453600  1
  H  H46  1  0.85625300  0.71903200  0.01498400  1
  H  H47  1  0.14374700  0.28096800  0.98501600  1
  N  N48  1  0.32882500  0.70794400  0.51842700  1
  N  N49  1  0.67117500  0.29205600  0.48157300  1
  N  N50  1  0.78300300  0.68130400  0.93077600  1
  N  N51  1  0.21699700  0.31869600  0.06922400  1
  O  O52  1  0.23801800  0.86994900  0.35655000  1
  O  O53  1  0.76198200  0.13005100  0.64345000  1
  O  O54  1  0.93405200  0.88037900  0.39778900  1
  O  O55  1  0.06594800  0.11962100  0.60221100  1
  O  O56  1  0.05848400  0.86209100  0.17362200  1
  O  O57  1  0.94151600  0.13790900  0.82637800  1
  O  O58  1  0.98121400  0.63005800  0.36432200  1
  O  O59  1  0.01878600  0.36994200  0.63567800  1
  O  O60  1  0.11460800  0.60458600  0.13895000  1
  O  O61  1  0.88539200  0.39541400  0.86105000  1
  O  O62  1  0.20193800  0.37740700  0.82065200  1
  O  O63  1  0.79806200  0.62259300  0.17934800  1
  O  O64  1  0.37674100  0.12702500  0.57560200  1
  O  O65  1  0.62325900  0.87297500  0.42439800  1
  O  O66  1  0.10518700  0.87759000  0.58016400  1
  O  O67  1  0.89481300  0.12241000  0.41983600  1
  O  O68  1  0.18262400  0.11965900  0.38700500  1
  O  O69  1  0.81737600  0.88034100  0.61299500  1
  O  O70  1  0.00498000  0.10331100  0.17649800  1
  O  O71  1  0.99502000  0.89668900  0.82350200  1
  O  O72  1  0.25149100  0.13094300  0.78795700  1
  O  O73  1  0.74850900  0.86905700  0.21204300  1
  O  O74  1  0.15890800  0.38640900  0.41753000  1
  O  O75  1  0.84109200  0.61359100  0.58247000  1
  O  O76  1  0.32974100  0.36725300  0.60266800  1
  O  O77  1  0.67025900  0.63274700  0.39733200  1
  O  O78  1  0.52836000  0.38667700  0.79377100  1
  O  O79  1  0.47164000  0.61332300  0.20622900  1
  O  O80  1  0.29269100  0.99085900  0.01760300  1
  O  O81  1  0.70730900  0.00914100  0.98239700  1
  O  O82  1  0.51634100  0.00702300  0.23578400  1
  O  O83  1  0.48365900  0.99297700  0.76421600  1
  O  O84  1  0.47529800  0.31667200  0.30360200  1
  O  O85  1  0.52470200  0.68332800  0.69639800  1
  O  O86  1  0.84168200  0.31983400  0.24627000  1
  O  O87  1  0.15831800  0.68016600  0.75373000  1
  O  O88  1  0.43268700  0.67243200  0.96748900  1
  O  O89  1  0.56731300  0.32756800  0.03251100  1
