# generated using pymatgen
data_Cu2PC2SO13
_symmetry_space_group_name_H-M   'P 1'
_cell_length_a   6.87501000
_cell_length_b   13.20232600
_cell_length_c   16.50724537
_cell_angle_alpha   56.42527072
_cell_angle_beta   90.00000000
_cell_angle_gamma   90.00000000
_symmetry_Int_Tables_number   1
_chemical_formula_structural   Cu2PC2SO13
_chemical_formula_sum   'Cu8 P4 C8 S4 O52'
_cell_volume   1248.33036487
_cell_formula_units_Z   4
loop_
 _symmetry_equiv_pos_site_id
 _symmetry_equiv_pos_as_xyz
  1  'x, y, z'
loop_
 _atom_site_type_symbol
 _atom_site_label
 _atom_site_symmetry_multiplicity
 _atom_site_fract_x
 _atom_site_fract_y
 _atom_site_fract_z
 _atom_site_occupancy
  Cu  Cu0  1  0.94887200  0.99701100  0.25250800  1
  Cu  Cu1  1  0.55112800  0.99701100  0.75250800  1
  Cu  Cu2  1  0.05112800  0.00298900  0.74749200  1
  Cu  Cu3  1  0.44887200  0.00298900  0.24749200  1
  Cu  Cu4  1  0.30303700  0.19560500  0.74683100  1
  Cu  Cu5  1  0.19696300  0.19560500  0.24683100  1
  Cu  Cu6  1  0.69696300  0.80439500  0.25316900  1
  Cu  Cu7  1  0.80303700  0.80439500  0.75316900  1
  P  P8  1  0.70159600  0.04953700  0.08838200  1
  P  P9  1  0.79840400  0.04953700  0.58838200  1
  P  P10  1  0.29840400  0.95046300  0.91161800  1
  P  P11  1  0.20159600  0.95046300  0.41161800  1
  C  C12  1  0.72842200  0.13701300  0.96284200  1
  C  C13  1  0.77157800  0.13701300  0.46284200  1
  C  C14  1  0.27157800  0.86298700  0.03715800  1
  C  C15  1  0.22842200  0.86298700  0.53715800  1
  C  C16  1  0.76682900  0.18809500  0.87649100  1
  C  C17  1  0.73317100  0.18809500  0.37649100  1
  C  C18  1  0.23317100  0.81190500  0.12350900  1
  C  C19  1  0.26682900  0.81190500  0.62350900  1
  S  S20  1  0.79933700  0.25150700  0.75390700  1
  S  S21  1  0.70066300  0.25150700  0.25390700  1
  S  S22  1  0.20066300  0.74849300  0.24609300  1
  S  S23  1  0.29933700  0.74849300  0.74609300  1
  O  O24  1  0.51201300  0.08926100  0.11465900  1
  O  O25  1  0.98798700  0.08926100  0.61465900  1
  O  O26  1  0.48798700  0.91073900  0.88534100  1
  O  O27  1  0.01201300  0.91073900  0.38534100  1
  O  O28  1  0.69368000  0.91599800  0.11757300  1
  O  O29  1  0.80632000  0.91599800  0.61757300  1
  O  O30  1  0.30632000  0.08400200  0.88242700  1
  O  O31  1  0.19368000  0.08400200  0.38242700  1
  O  O32  1  0.89058100  0.08233300  0.12109100  1
  O  O33  1  0.60941900  0.08233300  0.62109100  1
  O  O34  1  0.10941900  0.91766700  0.87890900  1
  O  O35  1  0.39058100  0.91766700  0.37890900  1
  O  O36  1  0.97516800  0.19267600  0.74786500  1
  O  O37  1  0.52483200  0.19267600  0.24786500  1
  O  O38  1  0.02483200  0.80732400  0.25213500  1
  O  O39  1  0.47516800  0.80732400  0.75213500  1
  O  O40  1  0.81283800  0.38106800  0.70818300  1
  O  O41  1  0.68716200  0.38106800  0.20818300  1
  O  O42  1  0.18716200  0.61893200  0.29181700  1
  O  O43  1  0.31283800  0.61893200  0.79181700  1
  O  O44  1  0.62801500  0.20897500  0.72733000  1
  O  O45  1  0.87198500  0.20897500  0.22733000  1
  O  O46  1  0.37198500  0.79102500  0.27267000  1
  O  O47  1  0.12801500  0.79102500  0.77267000  1
  O  O48  1  0.19724800  0.07717300  0.21740600  1
  O  O49  1  0.30275200  0.07717300  0.71740600  1
  O  O50  1  0.80275200  0.92282700  0.78259400  1
  O  O51  1  0.69724800  0.92282700  0.28259400  1
  O  O52  1  0.28710700  0.36474300  0.63311300  1
  O  O53  1  0.21289300  0.36474300  0.13311300  1
  O  O54  1  0.71289300  0.63525700  0.36688700  1
  O  O55  1  0.78710700  0.63525700  0.86688700  1
  O  O56  1  0.28924800  0.36115000  0.71215300  1
  O  O57  1  0.21075200  0.36115000  0.21215300  1
  O  O58  1  0.71075200  0.63885000  0.28784700  1
  O  O59  1  0.78924800  0.63885000  0.78784700  1
  O  O60  1  0.96668300  0.43385100  0.87031400  1
  O  O61  1  0.53331700  0.43385100  0.37031400  1
  O  O62  1  0.03331700  0.56614900  0.12968600  1
  O  O63  1  0.46668300  0.56614900  0.62968600  1
  O  O64  1  0.38298000  0.36709600  0.98575100  1
  O  O65  1  0.11702000  0.36709600  0.48575100  1
  O  O66  1  0.61702000  0.63290400  0.01424900  1
  O  O67  1  0.88298000  0.63290400  0.51424900  1
  O  O68  1  0.93512800  0.41171100  0.95154000  1
  O  O69  1  0.56487200  0.41171100  0.45154000  1
  O  O70  1  0.06487200  0.58828900  0.04846000  1
  O  O71  1  0.43512800  0.58828900  0.54846000  1
  O  O72  1  0.65151900  0.67499600  0.06299500  1
  O  O73  1  0.84848100  0.67499600  0.56299500  1
  O  O74  1  0.34848100  0.32500400  0.93700500  1
  O  O75  1  0.15151900  0.32500400  0.43700500  1
