# generated using pymatgen
data_YbP3(HO)6
_symmetry_space_group_name_H-M   'P 1'
_cell_length_a   8.02201260
_cell_length_b   8.02201260
_cell_length_c   12.63868421
_cell_angle_alpha   59.61803790
_cell_angle_beta   59.61803790
_cell_angle_gamma   42.97085454
_symmetry_Int_Tables_number   1
_chemical_formula_structural   YbP3(HO)6
_chemical_formula_sum   'Yb2 P6 H12 O12'
_cell_volume   465.34804535
_cell_formula_units_Z   2
loop_
 _symmetry_equiv_pos_site_id
 _symmetry_equiv_pos_as_xyz
  1  'x, y, z'
loop_
 _atom_site_type_symbol
 _atom_site_label
 _atom_site_symmetry_multiplicity
 _atom_site_fract_x
 _atom_site_fract_y
 _atom_site_fract_z
 _atom_site_occupancy
  Yb  Yb0  1  0.50000000  0.50000000  0.00000000  1
  Yb  Yb1  1  0.50000000  0.50000000  0.50000000  1
  P  P2  1  0.82259100  0.82259100  0.08747800  1
  P  P3  1  0.17740900  0.17740900  0.91252200  1
  P  P4  1  0.90713700  0.90713700  0.71420700  1
  P  P5  1  0.09286300  0.09286300  0.28579300  1
  P  P6  1  0.65829600  0.65829600  0.64549500  1
  P  P7  1  0.34170400  0.34170400  0.35450500  1
  H  H8  1  0.72083700  0.72083700  0.10211200  1
  H  H9  1  0.27916300  0.27916300  0.89788800  1
  H  H10  1  0.79625100  0.79625100  0.21439300  1
  H  H11  1  0.20374900  0.20374900  0.78560700  1
  H  H12  1  0.98921600  0.98921600  0.73941500  1
  H  H13  1  0.01078400  0.01078400  0.26058500  1
  H  H14  1  0.81176500  0.81176500  0.83696300  1
  H  H15  1  0.18823500  0.18823500  0.16303700  1
  H  H16  1  0.53584600  0.91800000  0.61869900  1
  H  H17  1  0.91800000  0.53584600  0.61869900  1
  H  H18  1  0.46415400  0.08200000  0.38130100  1
  H  H19  1  0.08200000  0.46415400  0.38130100  1
  O  O20  1  0.10229400  0.65186200  0.02870500  1
  O  O21  1  0.65186200  0.10229400  0.02870500  1
  O  O22  1  0.89770600  0.34813800  0.97129500  1
  O  O23  1  0.34813800  0.89770600  0.97129500  1
  O  O24  1  0.68725100  0.13606800  0.65190800  1
  O  O25  1  0.13606800  0.68725100  0.65190800  1
  O  O26  1  0.31274900  0.86393200  0.34809200  1
  O  O27  1  0.86393200  0.31274900  0.34809200  1
  O  O28  1  0.57299700  0.57299700  0.78501500  1
  O  O29  1  0.42700300  0.42700300  0.21498500  1
  O  O30  1  0.63184900  0.63184900  0.54502300  1
  O  O31  1  0.36815100  0.36815100  0.45497700  1
