# generated using pymatgen
data_CaU2Si2O17
_symmetry_space_group_name_H-M   'P 1'
_cell_length_a   14.35401500
_cell_length_b   6.76480600
_cell_length_c   14.08009985
_cell_angle_alpha   89.23932867
_cell_angle_beta   90.00000000
_cell_angle_gamma   90.00000000
_symmetry_Int_Tables_number   1
_chemical_formula_structural   CaU2Si2O17
_chemical_formula_sum   'Ca4 U8 Si8 O68'
_cell_volume   1367.08715176
_cell_formula_units_Z   4
loop_
 _symmetry_equiv_pos_site_id
 _symmetry_equiv_pos_as_xyz
  1  'x, y, z'
loop_
 _atom_site_type_symbol
 _atom_site_label
 _atom_site_symmetry_multiplicity
 _atom_site_fract_x
 _atom_site_fract_y
 _atom_site_fract_z
 _atom_site_occupancy
  Ca  Ca0  1  0.02776300  0.74738100  0.70742200  1
  Ca  Ca1  1  0.52776300  0.25261900  0.79257800  1
  Ca  Ca2  1  0.97223700  0.25261900  0.29257800  1
  Ca  Ca3  1  0.47223700  0.74738100  0.20742200  1
  U  U4  1  0.24491100  0.76331900  0.53058800  1
  U  U5  1  0.74491100  0.23668100  0.96941200  1
  U  U6  1  0.75508900  0.23668100  0.46941200  1
  U  U7  1  0.25508900  0.76331900  0.03058800  1
  U  U8  1  0.76916600  0.51301400  0.71812100  1
  U  U9  1  0.26916600  0.48698600  0.78187900  1
  U  U10  1  0.23083400  0.48698600  0.28187900  1
  U  U11  1  0.73083400  0.51301400  0.21812100  1
  Si  Si12  1  0.28053100  0.30056800  0.52854900  1
  Si  Si13  1  0.78053100  0.69943200  0.97145100  1
  Si  Si14  1  0.71946900  0.69943200  0.47145100  1
  Si  Si15  1  0.21946900  0.30056800  0.02854900  1
  Si  Si16  1  0.31499700  0.95478700  0.77575000  1
  Si  Si17  1  0.81499700  0.04521300  0.72425000  1
  Si  Si18  1  0.68500300  0.04521300  0.22425000  1
  Si  Si19  1  0.18500300  0.95478700  0.27575000  1
  O  O20  1  0.14135500  0.53892000  0.77452400  1
  O  O21  1  0.64135500  0.46108000  0.72547600  1
  O  O22  1  0.85864500  0.46108000  0.22547600  1
  O  O23  1  0.35864500  0.53892000  0.27452400  1
  O  O24  1  0.36796500  0.78328300  0.50243900  1
  O  O25  1  0.86796500  0.21671700  0.99756100  1
  O  O26  1  0.63203500  0.21671700  0.49756100  1
  O  O27  1  0.13203500  0.78328300  0.00243900  1
  O  O28  1  0.60216700  0.54823300  0.20747900  1
  O  O29  1  0.10216700  0.45176700  0.29252100  1
  O  O30  1  0.39783300  0.45176700  0.79252100  1
  O  O31  1  0.89783300  0.54823300  0.70747900  1
  O  O32  1  0.12164200  0.72634000  0.56893700  1
  O  O33  1  0.62164200  0.27366000  0.93106300  1
  O  O34  1  0.87835800  0.27366000  0.43106300  1
  O  O35  1  0.37835800  0.72634000  0.06893700  1
  O  O36  1  0.27485000  0.80825200  0.69138400  1
  O  O37  1  0.77485000  0.19174800  0.80861600  1
  O  O38  1  0.72515000  0.19174800  0.30861600  1
  O  O39  1  0.22515000  0.80825200  0.19138400  1
  O  O40  1  0.72346200  0.55909500  0.38045700  1
  O  O41  1  0.22346200  0.44090500  0.11954300  1
  O  O42  1  0.27653800  0.44090500  0.61954300  1
  O  O43  1  0.77653800  0.55909500  0.88045700  1
  O  O44  1  0.29674300  0.80380500  0.86833300  1
  O  O45  1  0.79674300  0.19619500  0.63166700  1
  O  O46  1  0.70325700  0.19619500  0.13166700  1
  O  O47  1  0.20325700  0.80380500  0.36833300  1
  O  O48  1  0.75265100  0.55328900  0.05788700  1
  O  O49  1  0.25265100  0.44671100  0.44211300  1
  O  O50  1  0.24734900  0.44671100  0.94211300  1
  O  O51  1  0.74734900  0.55328900  0.55788700  1
  O  O52  1  0.76413600  0.91302200  0.46874300  1
  O  O53  1  0.26413600  0.08697800  0.03125700  1
  O  O54  1  0.23586400  0.08697800  0.53125700  1
  O  O55  1  0.73586400  0.91302200  0.96874300  1
  O  O56  1  0.74235100  0.83538300  0.21637600  1
  O  O57  1  0.24235100  0.16461700  0.28362400  1
  O  O58  1  0.25764900  0.16461700  0.78362400  1
  O  O59  1  0.75764900  0.83538300  0.71637600  1
  O  O60  1  0.59287200  0.74786400  0.49137600  1
  O  O61  1  0.09287200  0.25213600  0.00862400  1
  O  O62  1  0.40712800  0.25213600  0.50862400  1
  O  O63  1  0.90712800  0.74786400  0.99137600  1
  O  O64  1  0.57498300  0.98673900  0.24244200  1
  O  O65  1  0.07498300  0.01326100  0.25755800  1
  O  O66  1  0.42501700  0.01326100  0.75755800  1
  O  O67  1  0.92501700  0.98673900  0.74244200  1
  O  O68  1  0.52742400  0.96005200  0.02788900  1
  O  O69  1  0.02742400  0.03994800  0.47211100  1
  O  O70  1  0.47257600  0.03994800  0.97211100  1
  O  O71  1  0.97257600  0.96005200  0.52788900  1
  O  O72  1  0.96295300  0.70624000  0.92319800  1
  O  O73  1  0.46295300  0.29376000  0.57680200  1
  O  O74  1  0.03704700  0.29376000  0.07680200  1
  O  O75  1  0.53704700  0.70624000  0.42319800  1
  O  O76  1  0.91288100  0.83129100  0.33249800  1
  O  O77  1  0.41288100  0.16870900  0.16750200  1
  O  O78  1  0.08711900  0.16870900  0.66750200  1
  O  O79  1  0.58711900  0.83129100  0.83249800  1
  O  O80  1  0.95261600  0.69406100  0.37434400  1
  O  O81  1  0.45261600  0.30593900  0.12565600  1
  O  O82  1  0.04738400  0.30593900  0.62565600  1
  O  O83  1  0.54738400  0.69406100  0.87434400  1
  O  O84  1  0.47605600  0.80175000  0.65994700  1
  O  O85  1  0.97605600  0.19825000  0.84005300  1
  O  O86  1  0.52394400  0.19825000  0.34005300  1
  O  O87  1  0.02394400  0.80175000  0.15994700  1
