# generated using pymatgen
data_YbAlB14
_symmetry_space_group_name_H-M   'P 1'
_cell_length_a   7.27997855
_cell_length_b   7.27997855
_cell_length_c   7.27997855
_cell_angle_alpha   132.22527425
_cell_angle_beta   110.92228875
_cell_angle_gamma   88.32966615
_symmetry_Int_Tables_number   1
_chemical_formula_structural   YbAlB14
_chemical_formula_sum   'Yb2 Al2 B28'
_cell_volume   254.16819511
_cell_formula_units_Z   2
loop_
 _symmetry_equiv_pos_site_id
 _symmetry_equiv_pos_as_xyz
  1  'x, y, z'
loop_
 _atom_site_type_symbol
 _atom_site_label
 _atom_site_symmetry_multiplicity
 _atom_site_fract_x
 _atom_site_fract_y
 _atom_site_fract_z
 _atom_site_occupancy
  Yb  Yb0  1  0.60137700  0.25000000  0.35137700  1
  Yb  Yb1  1  0.39862300  0.75000000  0.64862300  1
  Al  Al2  1  0.00000000  0.00000000  0.50000000  1
  Al  Al3  1  0.00000000  0.50000000  0.00000000  1
  B  B4  1  0.63128900  0.66668300  0.96460600  1
  B  B5  1  0.36871100  0.33331700  0.03539400  1
  B  B6  1  0.20207700  0.16668300  0.03539400  1
  B  B7  1  0.79792300  0.83331700  0.96460600  1
  B  B8  1  0.77072100  0.14553300  0.62518700  1
  B  B9  1  0.22927900  0.85446700  0.37481300  1
  B  B10  1  0.02034600  0.64553300  0.37481300  1
  B  B11  1  0.97965400  0.35446700  0.62518700  1
  B  B12  1  0.92164400  0.08892600  0.83271800  1
  B  B13  1  0.07835600  0.91107400  0.16728200  1
  B  B14  1  0.75620900  0.58892600  0.16728200  1
  B  B15  1  0.24379100  0.41107400  0.83271800  1
  B  B16  1  0.39819600  0.39724500  0.67526600  1
  B  B17  1  0.60180400  0.27707000  0.99905000  1
  B  B18  1  0.22197900  0.89724500  0.99905000  1
  B  B19  1  0.77802100  0.77707000  0.67526600  1
  B  B20  1  0.60180400  0.60275500  0.32473400  1
  B  B21  1  0.39819600  0.72293000  0.00095000  1
  B  B22  1  0.77802100  0.10275500  0.00095000  1
  B  B23  1  0.22197900  0.22293000  0.32473400  1
  B  B24  1  0.03229700  0.83142900  0.70464300  1
  B  B25  1  0.96770300  0.67234600  0.79913200  1
  B  B26  1  0.62678600  0.33142900  0.79913200  1
  B  B27  1  0.37321400  0.17234600  0.70464300  1
  B  B28  1  0.96770300  0.16857100  0.29535700  1
  B  B29  1  0.03229700  0.32765400  0.20086800  1
  B  B30  1  0.37321400  0.66857100  0.20086800  1
  B  B31  1  0.62678600  0.82765400  0.29535700  1
