# generated using pymatgen
data_CoAs2S4(O2F3)4
_symmetry_space_group_name_H-M   'P 1'
_cell_length_a   14.01171400
_cell_length_b   8.81908900
_cell_length_c   15.34401104
_cell_angle_alpha   81.24192968
_cell_angle_beta   90.00000000
_cell_angle_gamma   90.00000000
_symmetry_Int_Tables_number   1
_chemical_formula_structural   CoAs2S4(O2F3)4
_chemical_formula_sum   'Co4 As8 S16 O32 F48'
_cell_volume   1873.95991397
_cell_formula_units_Z   4
loop_
 _symmetry_equiv_pos_site_id
 _symmetry_equiv_pos_as_xyz
  1  'x, y, z'
loop_
 _atom_site_type_symbol
 _atom_site_label
 _atom_site_symmetry_multiplicity
 _atom_site_fract_x
 _atom_site_fract_y
 _atom_site_fract_z
 _atom_site_occupancy
  Co  Co0  1  0.81303900  0.22558800  0.25727200  1
  Co  Co1  1  0.31303900  0.77441200  0.24272800  1
  Co  Co2  1  0.18696100  0.77441200  0.74272800  1
  Co  Co3  1  0.68696100  0.22558800  0.75727200  1
  As  As4  1  0.61394500  0.41030000  0.36837800  1
  As  As5  1  0.11394500  0.58970000  0.13162200  1
  As  As6  1  0.38605500  0.58970000  0.63162200  1
  As  As7  1  0.88605500  0.41030000  0.86837800  1
  As  As8  1  0.64695200  0.03629200  0.10927200  1
  As  As9  1  0.14695200  0.96370800  0.39072800  1
  As  As10  1  0.35304800  0.96370800  0.89072800  1
  As  As11  1  0.85304800  0.03629200  0.60927200  1
  S  S12  1  0.79867300  0.57519400  0.11263100  1
  S  S13  1  0.29867300  0.42480600  0.38736900  1
  S  S14  1  0.20132700  0.42480600  0.88736900  1
  S  S15  1  0.70132700  0.57519400  0.61263100  1
  S  S16  1  0.97386100  0.37458200  0.39307200  1
  S  S17  1  0.47386100  0.62541800  0.10692800  1
  S  S18  1  0.02613900  0.62541800  0.60692800  1
  S  S19  1  0.52613900  0.37458200  0.89307200  1
  S  S20  1  0.82767400  0.84652200  0.34288900  1
  S  S21  1  0.32767400  0.15347800  0.15711100  1
  S  S22  1  0.17232600  0.15347800  0.65711100  1
  S  S23  1  0.67232600  0.84652200  0.84288900  1
  S  S24  1  0.96774800  0.09105000  0.10539000  1
  S  S25  1  0.46774800  0.90895000  0.39461000  1
  S  S26  1  0.03225200  0.90895000  0.89461000  1
  S  S27  1  0.53225200  0.09105000  0.60539000  1
  O  O28  1  0.81472800  0.44219500  0.18024800  1
  O  O29  1  0.31472800  0.55780500  0.31975200  1
  O  O30  1  0.18527200  0.55780500  0.81975200  1
  O  O31  1  0.68527200  0.44219500  0.68024800  1
  O  O32  1  0.70797100  0.58645800  0.06815400  1
  O  O33  1  0.20797100  0.41354200  0.43184600  1
  O  O34  1  0.29202900  0.41354200  0.93184600  1
  O  O35  1  0.79202900  0.58645800  0.56815400  1
  O  O36  1  0.92265500  0.28683200  0.33419000  1
  O  O37  1  0.42265500  0.71316800  0.16581000  1
  O  O38  1  0.07734500  0.71316800  0.66581000  1
  O  O39  1  0.57734500  0.28683200  0.83419000  1
  O  O40  1  0.93156700  0.51682600  0.40840000  1
  O  O41  1  0.43156700  0.48317400  0.09160000  1
  O  O42  1  0.06843300  0.48317400  0.59160000  1
  O  O43  1  0.56843300  0.51682600  0.90840000  1
  O  O44  1  0.81065500  0.01170200  0.33758300  1
  O  O45  1  0.31065500  0.98829800  0.16241700  1
  O  O46  1  0.18934500  0.98829800  0.66241700  1
  O  O47  1  0.68934500  0.01170200  0.83758300  1
  O  O48  1  0.85713500  0.79262900  0.26299600  1
  O  O49  1  0.35713500  0.20737100  0.23700400  1
  O  O50  1  0.14286500  0.20737100  0.73700400  1
  O  O51  1  0.64286500  0.79262900  0.76299600  1
  O  O52  1  0.92069000  0.15754300  0.17575500  1
  O  O53  1  0.42069000  0.84245700  0.32424500  1
  O  O54  1  0.07931000  0.84245700  0.82424500  1
  O  O55  1  0.57931000  0.15754300  0.67575500  1
  O  O56  1  0.06756900  0.12481400  0.09219500  1
  O  O57  1  0.56756900  0.87518600  0.40780500  1
  O  O58  1  0.93243100  0.87518600  0.90780500  1
  O  O59  1  0.43243100  0.12481400  0.59219500  1
  F  F60  1  0.71425500  0.28635900  0.34482000  1
  F  F61  1  0.21425500  0.71364100  0.15518000  1
  F  F62  1  0.28574500  0.71364100  0.65518000  1
  F  F63  1  0.78574500  0.28635900  0.84482000  1
  F  F64  1  0.64153200  0.36123500  0.48186700  1
  F  F65  1  0.14153200  0.63876500  0.01813300  1
  F  F66  1  0.35846800  0.63876500  0.51813300  1
  F  F67  1  0.85846800  0.36123500  0.98186700  1
  F  F68  1  0.51865000  0.52681600  0.39126500  1
  F  F69  1  0.01865000  0.47318400  0.10873500  1
  F  F70  1  0.48135000  0.47318400  0.60873500  1
  F  F71  1  0.98135000  0.52681600  0.89126500  1
  F  F72  1  0.69537900  0.56389600  0.36058400  1
  F  F73  1  0.19537900  0.43610400  0.13941600  1
  F  F74  1  0.30462100  0.43610400  0.63941600  1
  F  F75  1  0.80462100  0.56389600  0.86058400  1
  F  F76  1  0.53946900  0.24703400  0.37688800  1
  F  F77  1  0.03946900  0.75296600  0.12311200  1
  F  F78  1  0.46053100  0.75296600  0.62311200  1
  F  F79  1  0.96053100  0.24703400  0.87688800  1
  F  F80  1  0.59243700  0.44986400  0.25370300  1
  F  F81  1  0.09243700  0.55013600  0.24629700  1
  F  F82  1  0.40756300  0.55013600  0.74629700  1
  F  F83  1  0.90756300  0.44986400  0.75370300  1
  F  F84  1  0.64287700  0.20048600  0.02790800  1
  F  F85  1  0.14287700  0.79951400  0.47209200  1
  F  F86  1  0.35712300  0.79951400  0.97209200  1
  F  F87  1  0.85712300  0.20048600  0.52790800  1
  F  F88  1  0.70466500  0.15776400  0.18328400  1
  F  F89  1  0.20466500  0.84223600  0.31671600  1
  F  F90  1  0.29533500  0.84223600  0.81671600  1
  F  F91  1  0.79533500  0.15776400  0.68328400  1
  F  F92  1  0.65381900  0.88167800  0.19666000  1
  F  F93  1  0.15381900  0.11832200  0.30334000  1
  F  F94  1  0.34618100  0.11832200  0.80334000  1
  F  F95  1  0.84618100  0.88167800  0.69666000  1
  F  F96  1  0.59351800  0.92135900  0.03904700  1
  F  F97  1  0.09351800  0.07864100  0.46095300  1
  F  F98  1  0.40648200  0.07864100  0.96095300  1
  F  F99  1  0.90648200  0.92135900  0.53904700  1
  F  F100  1  0.76244300  0.99281200  0.07434900  1
  F  F101  1  0.26244300  0.00718800  0.42565100  1
  F  F102  1  0.23755700  0.00718800  0.92565100  1
  F  F103  1  0.73755700  0.99281200  0.57434900  1
  F  F104  1  0.53599500  0.08887400  0.15013100  1
  F  F105  1  0.03599500  0.91112600  0.34986900  1
  F  F106  1  0.46400500  0.91112600  0.84986900  1
  F  F107  1  0.96400500  0.08887400  0.65013100  1
