# generated using pymatgen
data_CaMg14CoO16
_symmetry_space_group_name_H-M   'P 1'
_cell_length_a   4.32004800
_cell_length_b   8.57241500
_cell_length_c   8.62382000
_cell_angle_alpha   90.00000000
_cell_angle_beta   90.00000000
_cell_angle_gamma   90.00000000
_symmetry_Int_Tables_number   1
_chemical_formula_structural   CaMg14CoO16
_chemical_formula_sum   'Ca1 Mg14 Co1 O16'
_cell_volume   319.36803265
_cell_formula_units_Z   1
loop_
 _symmetry_equiv_pos_site_id
 _symmetry_equiv_pos_as_xyz
  1  'x, y, z'
loop_
 _atom_site_type_symbol
 _atom_site_label
 _atom_site_symmetry_multiplicity
 _atom_site_fract_x
 _atom_site_fract_y
 _atom_site_fract_z
 _atom_site_occupancy
  Ca  Ca0  1  0.00000000  0.00000000  0.00000000  1
  Mg  Mg1  1  0.00000000  0.00000000  0.50000000  1
  Mg  Mg2  1  0.00000000  0.50000000  0.50000000  1
  Mg  Mg3  1  0.50000000  0.74425500  0.00000000  1
  Mg  Mg4  1  0.50000000  0.25574500  0.00000000  1
  Mg  Mg5  1  0.50000000  0.74886800  0.50000000  1
  Mg  Mg6  1  0.50000000  0.25113200  0.50000000  1
  Mg  Mg7  1  0.50000000  0.00000000  0.74400100  1
  Mg  Mg8  1  0.50000000  0.50000000  0.74952600  1
  Mg  Mg9  1  0.50000000  0.00000000  0.25599900  1
  Mg  Mg10  1  0.50000000  0.50000000  0.25047400  1
  Mg  Mg11  1  0.00000000  0.74559800  0.74650300  1
  Mg  Mg12  1  0.00000000  0.25440200  0.74650300  1
  Mg  Mg13  1  0.00000000  0.74559800  0.25349700  1
  Mg  Mg14  1  0.00000000  0.25440200  0.25349700  1
  Co  Co15  1  0.00000000  0.50000000  0.00000000  1
  O  O16  1  0.00000000  0.00000000  0.73678900  1
  O  O17  1  0.00000000  0.50000000  0.74236400  1
  O  O18  1  0.00000000  0.00000000  0.26321100  1
  O  O19  1  0.00000000  0.50000000  0.25763600  1
  O  O20  1  0.50000000  0.74971400  0.75107700  1
  O  O21  1  0.50000000  0.25028600  0.75107700  1
  O  O22  1  0.50000000  0.74971400  0.24892300  1
  O  O23  1  0.50000000  0.25028600  0.24892300  1
  O  O24  1  0.50000000  0.00000000  0.00000000  1
  O  O25  1  0.50000000  0.50000000  0.00000000  1
  O  O26  1  0.50000000  0.00000000  0.50000000  1
  O  O27  1  0.50000000  0.50000000  0.50000000  1
  O  O28  1  0.00000000  0.73684500  0.00000000  1
  O  O29  1  0.00000000  0.26315500  0.00000000  1
  O  O30  1  0.00000000  0.74819400  0.50000000  1
  O  O31  1  0.00000000  0.25180600  0.50000000  1
