# generated using pymatgen
data_Gd2Zn17
_symmetry_space_group_name_H-M   'P 1'
_cell_length_a   8.69767500
_cell_length_b   9.08188606
_cell_length_c   9.08188606
_cell_angle_alpha   119.99565866
_cell_angle_beta   90.00000000
_cell_angle_gamma   90.00000000
_symmetry_Int_Tables_number   1
_chemical_formula_structural   Gd2Zn17
_chemical_formula_sum   'Gd4 Zn34'
_cell_volume   621.30507679
_cell_formula_units_Z   2
loop_
 _symmetry_equiv_pos_site_id
 _symmetry_equiv_pos_as_xyz
  1  'x, y, z'
loop_
 _atom_site_type_symbol
 _atom_site_label
 _atom_site_symmetry_multiplicity
 _atom_site_fract_x
 _atom_site_fract_y
 _atom_site_fract_z
 _atom_site_occupancy
  Gd  Gd0  1  0.25000000  0.00015800  0.99984200  1
  Gd  Gd1  1  0.75000000  0.99984200  0.00015800  1
  Gd  Gd2  1  0.75000000  0.66679100  0.33320900  1
  Gd  Gd3  1  0.25000000  0.33320900  0.66679100  1
  Zn  Zn4  1  0.09814300  0.66666300  0.33333700  1
  Zn  Zn5  1  0.90185700  0.33333700  0.66666300  1
  Zn  Zn6  1  0.59814300  0.33333700  0.66666300  1
  Zn  Zn7  1  0.40185700  0.66666300  0.33333700  1
  Zn  Zn8  1  0.00000000  0.50000000  0.00000000  1
  Zn  Zn9  1  0.00000000  0.50000000  0.50000000  1
  Zn  Zn10  1  0.00000000  0.00000000  0.50000000  1
  Zn  Zn11  1  0.50000000  0.50000000  0.00000000  1
  Zn  Zn12  1  0.50000000  0.50000000  0.50000000  1
  Zn  Zn13  1  0.50000000  0.00000000  0.50000000  1
  Zn  Zn14  1  0.25000000  0.67077000  0.03497500  1
  Zn  Zn15  1  0.25000000  0.36471000  0.33000400  1
  Zn  Zn16  1  0.25000000  0.96532900  0.63573000  1
  Zn  Zn17  1  0.25000000  0.36427000  0.03467100  1
  Zn  Zn18  1  0.25000000  0.96502500  0.32923000  1
  Zn  Zn19  1  0.25000000  0.66999600  0.63529000  1
  Zn  Zn20  1  0.75000000  0.32923000  0.96502500  1
  Zn  Zn21  1  0.75000000  0.63529000  0.66999600  1
  Zn  Zn22  1  0.75000000  0.03467100  0.36427000  1
  Zn  Zn23  1  0.75000000  0.63573000  0.96532900  1
  Zn  Zn24  1  0.75000000  0.03497500  0.67077000  1
  Zn  Zn25  1  0.75000000  0.33000400  0.36471000  1
  Zn  Zn26  1  0.98247900  0.83804800  0.67597200  1
  Zn  Zn27  1  0.98261600  0.83811900  0.16188100  1
  Zn  Zn28  1  0.98247900  0.32402800  0.16195200  1
  Zn  Zn29  1  0.01752100  0.16195200  0.32402800  1
  Zn  Zn30  1  0.01738400  0.16188100  0.83811900  1
  Zn  Zn31  1  0.01752100  0.67597200  0.83804800  1
  Zn  Zn32  1  0.48247900  0.16195200  0.32402800  1
  Zn  Zn33  1  0.48261600  0.16188100  0.83811900  1
  Zn  Zn34  1  0.48247900  0.67597200  0.83804800  1
  Zn  Zn35  1  0.51752100  0.83804800  0.67597200  1
  Zn  Zn36  1  0.51738400  0.83811900  0.16188100  1
  Zn  Zn37  1  0.51752100  0.32402800  0.16195200  1
