# generated using pymatgen
data_Cs2B12H2OF12
_symmetry_space_group_name_H-M   'P 1'
_cell_length_a   10.27667800
_cell_length_b   10.62635200
_cell_length_c   15.37803000
_cell_angle_alpha   90.00000000
_cell_angle_beta   90.00000000
_cell_angle_gamma   90.00000000
_symmetry_Int_Tables_number   1
_chemical_formula_structural   Cs2B12H2OF12
_chemical_formula_sum   'Cs8 B48 H8 O4 F48'
_cell_volume   1679.33620336
_cell_formula_units_Z   4
loop_
 _symmetry_equiv_pos_site_id
 _symmetry_equiv_pos_as_xyz
  1  'x, y, z'
loop_
 _atom_site_type_symbol
 _atom_site_label
 _atom_site_symmetry_multiplicity
 _atom_site_fract_x
 _atom_site_fract_y
 _atom_site_fract_z
 _atom_site_occupancy
  Cs  Cs0  1  0.96056600  0.99888900  0.11222200  1
  Cs  Cs1  1  0.53943400  0.00111100  0.61222200  1
  Cs  Cs2  1  0.46056600  0.50111100  0.88777800  1
  Cs  Cs3  1  0.03943400  0.49888900  0.38777800  1
  Cs  Cs4  1  0.39020400  0.66074100  0.19454700  1
  Cs  Cs5  1  0.10979600  0.33925900  0.69454700  1
  Cs  Cs6  1  0.89020400  0.83925900  0.80545300  1
  Cs  Cs7  1  0.60979600  0.16074100  0.30545300  1
  B  B8  1  0.04866200  0.99306500  0.55151700  1
  B  B9  1  0.45133800  0.00693500  0.05151700  1
  B  B10  1  0.54866200  0.50693500  0.44848300  1
  B  B11  1  0.95133800  0.49306500  0.94848300  1
  B  B12  1  0.18874100  0.08026700  0.51561900  1
  B  B13  1  0.31125900  0.91973300  0.01561900  1
  B  B14  1  0.68874100  0.41973300  0.48438100  1
  B  B15  1  0.81125900  0.58026700  0.98438100  1
  B  B16  1  0.19419700  0.91224200  0.51700800  1
  B  B17  1  0.30580300  0.08775800  0.01700800  1
  B  B18  1  0.69419700  0.58775800  0.48299200  1
  B  B19  1  0.80580300  0.41224200  0.98299200  1
  B  B20  1  0.03710900  0.85486800  0.48507300  1
  B  B21  1  0.46289100  0.14513200  0.98507300  1
  B  B22  1  0.53710900  0.64513200  0.51492700  1
  B  B23  1  0.96289100  0.35486800  0.01492700  1
  B  B24  1  0.93304500  0.98925300  0.46414800  1
  B  B25  1  0.56695500  0.01074700  0.96414800  1
  B  B26  1  0.43304500  0.51074700  0.53585200  1
  B  B27  1  0.06695500  0.48925300  0.03585200  1
  B  B28  1  0.02926300  0.12857200  0.48297600  1
  B  B29  1  0.47073700  0.87142800  0.98297600  1
  B  B30  1  0.52926300  0.37142800  0.51702400  1
  B  B31  1  0.97073700  0.62857200  0.01702400  1
  B  B32  1  0.26349700  0.99785100  0.42687500  1
  B  B33  1  0.23650300  0.00214900  0.92687500  1
  B  B34  1  0.76349700  0.50214900  0.57312500  1
  B  B35  1  0.73650300  0.49785100  0.07312500  1
  B  B36  1  0.16883300  0.85809600  0.40768600  1
  B  B37  1  0.33116700  0.14190400  0.90768600  1
  B  B38  1  0.66883300  0.64190400  0.59231400  1
  B  B39  1  0.83116700  0.35809600  0.09231400  1
  B  B40  1  0.00826100  0.90551900  0.37558200  1
  B  B41  1  0.49173900  0.09448100  0.87558200  1
  B  B42  1  0.50826100  0.59448100  0.62441800  1
  B  B43  1  0.99173900  0.40551900  0.12441800  1
  B  B44  1  0.00315300  0.07389300  0.37415400  1
  B  B45  1  0.49684700  0.92610700  0.87415400  1
  B  B46  1  0.50315300  0.42610700  0.62584600  1
  B  B47  1  0.99684700  0.57389300  0.12584600  1
  B  B48  1  0.16045600  0.13176600  0.40581400  1
  B  B49  1  0.33954400  0.86823400  0.90581400  1
  B  B50  1  0.66045600  0.36823400  0.59418600  1
  B  B51  1  0.83954400  0.63176600  0.09418600  1
  B  B52  1  0.14813400  0.99359500  0.33944000  1
  B  B53  1  0.35186600  0.00640500  0.83944000  1
  B  B54  1  0.64813400  0.50640500  0.66056000  1
  B  B55  1  0.85186600  0.49359500  0.16056000  1
  H  H56  1  0.73794000  0.83904000  0.31558000  1
  H  H57  1  0.76206000  0.16096000  0.81558000  1
  H  H58  1  0.23794000  0.66096000  0.68442000  1
  H  H59  1  0.26206000  0.33904000  0.18442000  1
  H  H60  1  0.59141300  0.83395800  0.33608500  1
  H  H61  1  0.90858700  0.16604200  0.83608500  1
  H  H62  1  0.09141300  0.66604200  0.66391500  1
  H  H63  1  0.40858700  0.33395800  0.16391500  1
  O  O64  1  0.65407700  0.87536400  0.29827000  1
  O  O65  1  0.84592300  0.12463600  0.79827000  1
  O  O66  1  0.15407700  0.62463600  0.70173000  1
  O  O67  1  0.34592300  0.37536400  0.20173000  1
  F  F68  1  0.01114500  0.99202800  0.63866200  1
  F  F69  1  0.48885500  0.00797200  0.13866200  1
  F  F70  1  0.51114500  0.50797200  0.36133800  1
  F  F71  1  0.98885500  0.49202800  0.86133800  1
  F  F72  1  0.25960900  0.15254800  0.57507700  1
  F  F73  1  0.24039100  0.84745200  0.07507700  1
  F  F74  1  0.75960900  0.34745200  0.42492300  1
  F  F75  1  0.74039100  0.65254800  0.92492300  1
  F  F76  1  0.26826500  0.84703400  0.57787400  1
  F  F77  1  0.23173500  0.15296600  0.07787400  1
  F  F78  1  0.76826500  0.65296600  0.42212600  1
  F  F79  1  0.73173500  0.34703400  0.92212600  1
  F  F80  1  0.99501600  0.74057700  0.51963700  1
  F  F81  1  0.50498400  0.25942300  0.01963700  1
  F  F82  1  0.49501600  0.75942300  0.48036300  1
  F  F83  1  0.00498400  0.24057700  0.98036300  1
  F  F84  1  0.79857100  0.98864800  0.47676000  1
  F  F85  1  0.70142900  0.01135200  0.97676000  1
  F  F86  1  0.29857100  0.51135200  0.52324000  1
  F  F87  1  0.20142900  0.48864800  0.02324000  1
  F  F88  1  0.98132200  0.24292700  0.51444400  1
  F  F89  1  0.51867800  0.75707300  0.01444400  1
  F  F90  1  0.48132200  0.25707300  0.48555600  1
  F  F91  1  0.01867800  0.74292700  0.98555600  1
  F  F92  1  0.39770800  0.00242100  0.41166900  1
  F  F93  1  0.10229200  0.99757900  0.91166900  1
  F  F94  1  0.89770800  0.49757900  0.58833100  1
  F  F95  1  0.60229200  0.50242100  0.08833100  1
  F  F96  1  0.22313600  0.74690900  0.37468100  1
  F  F97  1  0.27686400  0.25309100  0.87468100  1
  F  F98  1  0.72313600  0.75309100  0.62531900  1
  F  F99  1  0.77686400  0.24690900  0.12531900  1
  F  F100  1  0.93569800  0.83674800  0.31484800  1
  F  F101  1  0.56430200  0.16325200  0.81484800  1
  F  F102  1  0.43569800  0.66325200  0.68515200  1
  F  F103  1  0.06430200  0.33674800  0.18515200  1
  F  F104  1  0.20744600  0.24660700  0.37568300  1
  F  F105  1  0.29255400  0.75339300  0.87568300  1
  F  F106  1  0.70744600  0.25339300  0.62431700  1
  F  F107  1  0.79255400  0.74660700  0.12431700  1
  F  F108  1  0.92346300  0.13559800  0.31365100  1
  F  F109  1  0.57653700  0.86440200  0.81365100  1
  F  F110  1  0.42346300  0.36440200  0.68634900  1
  F  F111  1  0.07653700  0.63559800  0.18634900  1
  F  F112  1  0.18557100  0.99042000  0.25236800  1
  F  F113  1  0.31442900  0.00958000  0.75236800  1
  F  F114  1  0.68557100  0.50958000  0.74763200  1
  F  F115  1  0.81442900  0.49042000  0.24763200  1
