# generated using pymatgen
data_K2ZrSi2O7
_symmetry_space_group_name_H-M   'P 1'
_cell_length_a   11.44391996
_cell_length_b   11.44391996
_cell_length_c   14.55737998
_cell_angle_alpha   67.02485077
_cell_angle_beta   67.02485077
_cell_angle_gamma   59.45449480
_symmetry_Int_Tables_number   1
_chemical_formula_structural   K2ZrSi2O7
_chemical_formula_sum   'K16 Zr8 Si16 O56'
_cell_volume   1466.69915265
_cell_formula_units_Z   8
loop_
 _symmetry_equiv_pos_site_id
 _symmetry_equiv_pos_as_xyz
  1  'x, y, z'
loop_
 _atom_site_type_symbol
 _atom_site_label
 _atom_site_symmetry_multiplicity
 _atom_site_fract_x
 _atom_site_fract_y
 _atom_site_fract_z
 _atom_site_occupancy
  K  K0  1  0.37872400  0.88580200  0.60409400  1
  K  K1  1  0.88580200  0.37872400  0.60409400  1
  K  K2  1  0.62127600  0.11419800  0.39590600  1
  K  K3  1  0.11419800  0.62127600  0.39590600  1
  K  K4  1  0.58471600  0.10736500  0.93678500  1
  K  K5  1  0.10736500  0.58471600  0.93678500  1
  K  K6  1  0.41528400  0.89263500  0.06321500  1
  K  K7  1  0.89263500  0.41528400  0.06321500  1
  K  K8  1  0.39028200  0.39028200  0.57243300  1
  K  K9  1  0.60971800  0.60971800  0.42756700  1
  K  K10  1  0.12055500  0.12055500  0.93248800  1
  K  K11  1  0.87944500  0.87944500  0.06751200  1
  K  K12  1  0.62137800  0.62137800  0.90097600  1
  K  K13  1  0.37862200  0.37862200  0.09902400  1
  K  K14  1  0.89133800  0.89133800  0.57822900  1
  K  K15  1  0.10866200  0.10866200  0.42177100  1
  Zr  Zr16  1  0.98709500  0.98709500  0.76967900  1
  Zr  Zr17  1  0.01290500  0.01290500  0.23032100  1
  Zr  Zr18  1  0.50821200  0.50821200  0.72964500  1
  Zr  Zr19  1  0.49178800  0.49178800  0.27035500  1
  Zr  Zr20  1  0.50432900  0.00381800  0.74930200  1
  Zr  Zr21  1  0.00381800  0.50432900  0.74930200  1
  Zr  Zr22  1  0.49567100  0.99618200  0.25069800  1
  Zr  Zr23  1  0.99618200  0.49567100  0.25069800  1
  Si  Si24  1  0.20547600  0.71707000  0.62349500  1
  Si  Si25  1  0.71707000  0.20547600  0.62349500  1
  Si  Si26  1  0.79452400  0.28293000  0.37650500  1
  Si  Si27  1  0.28293000  0.79452400  0.37650500  1
  Si  Si28  1  0.32653500  0.77693600  0.88149200  1
  Si  Si29  1  0.77693600  0.32653500  0.88149200  1
  Si  Si30  1  0.67346500  0.22306400  0.11850800  1
  Si  Si31  1  0.22306400  0.67346500  0.11850800  1
  Si  Si32  1  0.19967000  0.19967000  0.63354800  1
  Si  Si33  1  0.80033000  0.80033000  0.36645200  1
  Si  Si34  1  0.29845100  0.29845100  0.87580600  1
  Si  Si35  1  0.70154900  0.70154900  0.12419400  1
  Si  Si36  1  0.71498600  0.71498600  0.61534000  1
  Si  Si37  1  0.28501400  0.28501400  0.38466000  1
  Si  Si38  1  0.78041200  0.78041200  0.85973500  1
  Si  Si39  1  0.21958800  0.21958800  0.14026500  1
  O  O40  1  0.87040600  0.87040600  0.83441300  1
  O  O41  1  0.12959400  0.12959400  0.16558700  1
  O  O42  1  0.16654700  0.90073400  0.87299800  1
  O  O43  1  0.90073400  0.16654700  0.87299800  1
  O  O44  1  0.83345300  0.09926600  0.12700200  1
  O  O45  1  0.09926600  0.83345300  0.12700200  1
  O  O46  1  0.66910000  0.39775400  0.80925900  1
  O  O47  1  0.39775400  0.66910000  0.80925900  1
  O  O48  1  0.33090000  0.60224600  0.19074100  1
  O  O49  1  0.60224600  0.33090000  0.19074100  1
  O  O50  1  0.62517500  0.36778700  0.63321200  1
  O  O51  1  0.36778700  0.62517500  0.63321200  1
  O  O52  1  0.37482500  0.63221300  0.36678800  1
  O  O53  1  0.63221300  0.37482500  0.36678800  1
  O  O54  1  0.20775100  0.79224900  0.50000000  1
  O  O55  1  0.79224900  0.20775100  0.50000000  1
  O  O56  1  0.32340700  0.67659300  0.00000000  1
  O  O57  1  0.67659300  0.32340700  0.00000000  1
  O  O58  1  0.39157800  0.39157800  0.82362400  1
  O  O59  1  0.60842200  0.60842200  0.17637600  1
  O  O60  1  0.62957700  0.62957700  0.62493600  1
  O  O61  1  0.37042300  0.37042300  0.37506400  1
  O  O62  1  0.40656400  0.87138200  0.86034900  1
  O  O63  1  0.87138200  0.40656400  0.86034900  1
  O  O64  1  0.59343600  0.12861800  0.13965100  1
  O  O65  1  0.12861800  0.59343600  0.13965100  1
  O  O66  1  0.62117100  0.11925600  0.66123000  1
  O  O67  1  0.11925600  0.62117100  0.66123000  1
  O  O68  1  0.37882900  0.88074400  0.33877000  1
  O  O69  1  0.88074400  0.37882900  0.33877000  1
  O  O70  1  0.82882700  0.07627300  0.89465100  1
  O  O71  1  0.07627300  0.82882700  0.89465100  1
  O  O72  1  0.17117300  0.92372700  0.10534900  1
  O  O73  1  0.92372700  0.17117300  0.10534900  1
  O  O74  1  0.85377200  0.61557000  0.66245300  1
  O  O75  1  0.61557000  0.85377200  0.66245300  1
  O  O76  1  0.14622800  0.38443000  0.33754700  1
  O  O77  1  0.38443000  0.14622800  0.33754700  1
  O  O78  1  0.38555200  0.14571700  0.84616800  1
  O  O79  1  0.14571700  0.38555200  0.84616800  1
  O  O80  1  0.61444800  0.85428300  0.15383200  1
  O  O81  1  0.85428300  0.61444800  0.15383200  1
  O  O82  1  0.11568800  0.35472600  0.65915900  1
  O  O83  1  0.35472600  0.11568800  0.65915900  1
  O  O84  1  0.88431200  0.64527400  0.34084100  1
  O  O85  1  0.64527400  0.88431200  0.34084100  1
  O  O86  1  0.22314900  0.22314900  0.50788900  1
  O  O87  1  0.77685100  0.77685100  0.49211100  1
  O  O88  1  0.26986600  0.26986600  0.00162400  1
  O  O89  1  0.73013400  0.73013400  0.99837600  1
  O  O90  1  0.84969000  0.12485900  0.67396300  1
  O  O91  1  0.12485900  0.84969000  0.67396300  1
  O  O92  1  0.15031000  0.87514100  0.32603700  1
  O  O93  1  0.87514100  0.15031000  0.32603700  1
  O  O94  1  0.10880000  0.10880000  0.68426000  1
  O  O95  1  0.89120000  0.89120000  0.31574000  1
