# generated using pymatgen
data_CuN8
_symmetry_space_group_name_H-M   'P 1'
_cell_length_a   6.73813900
_cell_length_b   7.62812100
_cell_length_c   12.36076700
_cell_angle_alpha   90.00000000
_cell_angle_beta   90.00000000
_cell_angle_gamma   90.00000000
_symmetry_Int_Tables_number   1
_chemical_formula_structural   CuN8
_chemical_formula_sum   'Cu4 N32'
_cell_volume   635.33526083
_cell_formula_units_Z   4
loop_
 _symmetry_equiv_pos_site_id
 _symmetry_equiv_pos_as_xyz
  1  'x, y, z'
loop_
 _atom_site_type_symbol
 _atom_site_label
 _atom_site_symmetry_multiplicity
 _atom_site_fract_x
 _atom_site_fract_y
 _atom_site_fract_z
 _atom_site_occupancy
  Cu  Cu0  1  0.72988400  0.25000000  0.13885900  1
  Cu  Cu1  1  0.22988400  0.25000000  0.36114100  1
  Cu  Cu2  1  0.27011600  0.75000000  0.86114100  1
  Cu  Cu3  1  0.77011600  0.75000000  0.63885900  1
  N  N4  1  0.84495000  0.25000000  0.28052500  1
  N  N5  1  0.34495000  0.25000000  0.21947500  1
  N  N6  1  0.15505000  0.75000000  0.71947500  1
  N  N7  1  0.65505000  0.75000000  0.78052500  1
  N  N8  1  0.72685200  0.25000000  0.35494300  1
  N  N9  1  0.22685200  0.25000000  0.14505700  1
  N  N10  1  0.27314800  0.75000000  0.64505700  1
  N  N11  1  0.77314800  0.75000000  0.85494300  1
  N  N12  1  0.62113600  0.25000000  0.42902600  1
  N  N13  1  0.12113600  0.25000000  0.07097400  1
  N  N14  1  0.37886400  0.75000000  0.57097400  1
  N  N15  1  0.87886400  0.75000000  0.92902600  1
  N  N16  1  0.62707800  0.25000000  0.99780100  1
  N  N17  1  0.12707800  0.25000000  0.50219900  1
  N  N18  1  0.37292200  0.75000000  0.00219900  1
  N  N19  1  0.87292200  0.75000000  0.49780100  1
  N  N20  1  0.74279600  0.25000000  0.92186800  1
  N  N21  1  0.24279600  0.25000000  0.57813200  1
  N  N22  1  0.25720400  0.75000000  0.07813200  1
  N  N23  1  0.75720400  0.75000000  0.42186800  1
  N  N24  1  0.83917400  0.25000000  0.84407900  1
  N  N25  1  0.33917400  0.25000000  0.65592100  1
  N  N26  1  0.16082600  0.75000000  0.15592100  1
  N  N27  1  0.66082600  0.75000000  0.34407900  1
  N  N28  1  0.73042500  0.49923400  0.13851300  1
  N  N29  1  0.23042500  0.00076600  0.36148700  1
  N  N30  1  0.26957500  0.99923400  0.86148700  1
  N  N31  1  0.76957500  0.50076600  0.63851300  1
  N  N32  1  0.26957500  0.50076600  0.86148700  1
  N  N33  1  0.76957500  0.99923400  0.63851300  1
  N  N34  1  0.73042500  0.00076600  0.13851300  1
  N  N35  1  0.23042500  0.49923400  0.36148700  1
