# generated using pymatgen
data_NaH8C2S2NO5
_symmetry_space_group_name_H-M   'P 1'
_cell_length_a   13.20679641
_cell_length_b   13.20679641
_cell_length_c   15.62705510
_cell_angle_alpha   72.65090392
_cell_angle_beta   72.65090392
_cell_angle_gamma   42.12175276
_symmetry_Int_Tables_number   1
_chemical_formula_structural   NaH8C2S2NO5
_chemical_formula_sum   'Na8 H64 C16 S16 N8 O40'
_cell_volume   1732.28206235
_cell_formula_units_Z   8
loop_
 _symmetry_equiv_pos_site_id
 _symmetry_equiv_pos_as_xyz
  1  'x, y, z'
loop_
 _atom_site_type_symbol
 _atom_site_label
 _atom_site_symmetry_multiplicity
 _atom_site_fract_x
 _atom_site_fract_y
 _atom_site_fract_z
 _atom_site_occupancy
  Na  Na0  1  0.65626100  0.63880000  0.61950500  1
  Na  Na1  1  0.36120000  0.34373900  0.88049500  1
  Na  Na2  1  0.34373900  0.36120000  0.38049500  1
  Na  Na3  1  0.63880000  0.65626100  0.11950500  1
  Na  Na4  1  0.63876200  0.36123800  0.75000000  1
  Na  Na5  1  0.36123800  0.63876200  0.25000000  1
  Na  Na6  1  0.50000000  0.00000000  0.50000000  1
  Na  Na7  1  0.00000000  0.50000000  0.00000000  1
  H  H8  1  0.57364300  0.54871100  0.54020300  1
  H  H9  1  0.45128900  0.42635700  0.95979700  1
  H  H10  1  0.42635700  0.45128900  0.45979700  1
  H  H11  1  0.54871100  0.57364300  0.04020300  1
  H  H12  1  0.43105900  0.64713800  0.60848200  1
  H  H13  1  0.35286200  0.56894100  0.89151800  1
  H  H14  1  0.56894100  0.35286200  0.39151800  1
  H  H15  1  0.64713800  0.43105900  0.10848200  1
  H  H16  1  0.79292600  0.77892500  0.51261100  1
  H  H17  1  0.22107500  0.20707400  0.98738900  1
  H  H18  1  0.20707400  0.22107500  0.48738900  1
  H  H19  1  0.77892500  0.79292600  0.01261100  1
  H  H20  1  0.75232300  0.77313300  0.61750900  1
  H  H21  1  0.22686700  0.24767700  0.88249100  1
  H  H22  1  0.24767700  0.22686700  0.38249100  1
  H  H23  1  0.77313300  0.75232300  0.11750900  1
  H  H24  1  0.10632200  0.00079900  0.76067500  1
  H  H25  1  0.99920100  0.89367800  0.73932500  1
  H  H26  1  0.89367800  0.99920100  0.23932500  1
  H  H27  1  0.00079900  0.10632200  0.26067500  1
  H  H28  1  0.23880900  0.00993400  0.75363100  1
  H  H29  1  0.99006600  0.76119100  0.74636900  1
  H  H30  1  0.76119100  0.99006600  0.24636900  1
  H  H31  1  0.00993400  0.23880900  0.25363100  1
  H  H32  1  0.30655200  0.82778200  0.76324100  1
  H  H33  1  0.17221800  0.69344800  0.73675900  1
  H  H34  1  0.69344800  0.17221800  0.23675900  1
  H  H35  1  0.82778200  0.30655200  0.26324100  1
  H  H36  1  0.00700400  0.08982600  0.49178600  1
  H  H37  1  0.91017400  0.99299600  0.00821400  1
  H  H38  1  0.99299600  0.91017400  0.50821400  1
  H  H39  1  0.08982600  0.00700400  0.99178600  1
  H  H40  1  0.99689000  0.23351100  0.42452500  1
  H  H41  1  0.76648900  0.00311000  0.07547500  1
  H  H42  1  0.00311000  0.76648900  0.57547500  1
  H  H43  1  0.23351100  0.99689000  0.92452500  1
  H  H44  1  0.82419600  0.28535300  0.47663300  1
  H  H45  1  0.71464700  0.17580400  0.02336700  1
  H  H46  1  0.17580400  0.71464700  0.52336700  1
  H  H47  1  0.28535300  0.82419600  0.97663300  1
  H  H48  1  0.54365500  0.84892200  0.91640900  1
  H  H49  1  0.15107800  0.45634500  0.58359100  1
  H  H50  1  0.45634500  0.15107800  0.08359100  1
  H  H51  1  0.84892200  0.54365500  0.41640900  1
  H  H52  1  0.50606800  0.96030500  0.80738400  1
  H  H53  1  0.03969500  0.49393200  0.69261600  1
  H  H54  1  0.49393200  0.03969500  0.19261600  1
  H  H55  1  0.96030500  0.50606800  0.30738400  1
  H  H56  1  0.61875900  0.92800200  0.87582500  1
  H  H57  1  0.07199800  0.38124100  0.62417500  1
  H  H58  1  0.38124100  0.07199800  0.12417500  1
  H  H59  1  0.92800200  0.61875900  0.37582500  1
  H  H60  1  0.90151900  0.38557900  0.90179600  1
  H  H61  1  0.61442100  0.09848200  0.59820400  1
  H  H62  1  0.09848100  0.61442100  0.09820400  1
  H  H63  1  0.38557900  0.90151900  0.40179600  1
  H  H64  1  0.92985200  0.32643800  0.79979400  1
  H  H65  1  0.67356200  0.07014800  0.70020600  1
  H  H66  1  0.07014800  0.67356200  0.20020600  1
  H  H67  1  0.32643800  0.92985200  0.29979400  1
  H  H68  1  0.83029400  0.31035100  0.90212800  1
  H  H69  1  0.68964900  0.16970600  0.59787200  1
  H  H70  1  0.16970600  0.68964900  0.09787200  1
  H  H71  1  0.31035100  0.83029400  0.40212800  1
  C  C72  1  0.22213500  0.94850700  0.73674100  1
  C  C73  1  0.05149300  0.77786500  0.76325900  1
  C  C74  1  0.77786500  0.05149300  0.26325900  1
  C  C75  1  0.94850700  0.22213500  0.23674100  1
  C  C76  1  0.94384000  0.20965300  0.48313100  1
  C  C77  1  0.79034700  0.05616000  0.01686900  1
  C  C78  1  0.05616000  0.79034700  0.51686900  1
  C  C79  1  0.20965300  0.94384000  0.98313100  1
  C  C80  1  0.58829600  0.88059000  0.85656400  1
  C  C81  1  0.11941000  0.41170400  0.64343600  1
  C  C82  1  0.41170400  0.11941000  0.14343600  1
  C  C83  1  0.88059000  0.58829600  0.35656400  1
  C  C84  1  0.85415500  0.37565400  0.86199500  1
  C  C85  1  0.62434600  0.14584500  0.63800500  1
  C  C86  1  0.14584500  0.62434600  0.13800500  1
  C  C87  1  0.37565400  0.85415500  0.36199500  1
  S  S88  1  0.24921400  0.95905600  0.61740000  1
  S  S89  1  0.04094400  0.75078600  0.88260000  1
  S  S90  1  0.75078600  0.04094400  0.38260000  1
  S  S91  1  0.95905600  0.24921400  0.11740000  1
  S  S92  1  0.95386900  0.24330500  0.58091500  1
  S  S93  1  0.75669500  0.04613100  0.91908500  1
  S  S94  1  0.04613100  0.75669500  0.41908500  1
  S  S95  1  0.24330500  0.95386900  0.08091500  1
  S  S96  1  0.75711200  0.71531500  0.80546100  1
  S  S97  1  0.28468500  0.24288800  0.69453900  1
  S  S98  1  0.24288800  0.28468500  0.19453900  1
  S  S99  1  0.71531500  0.75711200  0.30546100  1
  S  S100  1  0.67732600  0.56062700  0.83186900  1
  S  S101  1  0.43937300  0.32267400  0.66813100  1
  S  S102  1  0.32267400  0.43937300  0.16813100  1
  S  S103  1  0.56062700  0.67732600  0.33186900  1
  N  N104  1  0.13172800  0.13701200  0.58019200  1
  N  N105  1  0.86298800  0.86827200  0.91980800  1
  N  N106  1  0.86827200  0.86298800  0.41980800  1
  N  N107  1  0.13701200  0.13172800  0.08019200  1
  N  N108  1  0.71073300  0.65460100  0.76746500  1
  N  N109  1  0.34539900  0.28926700  0.73253500  1
  N  N110  1  0.28926700  0.34539900  0.23253500  1
  N  N111  1  0.65460100  0.71073300  0.26746500  1
  O  O112  1  0.54147000  0.55764900  0.60529500  1
  O  O113  1  0.44235100  0.45853000  0.89470500  1
  O  O114  1  0.45853000  0.44235100  0.39470500  1
  O  O115  1  0.55764900  0.54147000  0.10529500  1
  O  O116  1  0.72944900  0.77428900  0.56255700  1
  O  O117  1  0.22571100  0.27055100  0.93744300  1
  O  O118  1  0.27055100  0.22571100  0.43744300  1
  O  O119  1  0.77428900  0.72944900  0.06255700  1
  O  O120  1  0.40148900  0.89652900  0.58624100  1
  O  O121  1  0.10347100  0.59851100  0.91375900  1
  O  O122  1  0.59851100  0.10347100  0.41375900  1
  O  O123  1  0.89652900  0.40148900  0.08624100  1
  O  O124  1  0.22586400  0.87781100  0.59487500  1
  O  O125  1  0.12218900  0.77413600  0.90512500  1
  O  O126  1  0.77413600  0.12218900  0.40512500  1
  O  O127  1  0.87781100  0.22586400  0.09487500  1
  O  O128  1  0.88045800  0.39934900  0.56682900  1
  O  O129  1  0.60065100  0.11954200  0.93317100  1
  O  O130  1  0.11954200  0.60065100  0.43317100  1
  O  O131  1  0.39934900  0.88045800  0.06682900  1
  O  O132  1  0.88802800  0.20587800  0.65952000  1
  O  O133  1  0.79412200  0.11197200  0.84048000  1
  O  O134  1  0.11197200  0.79412200  0.34048000  1
  O  O135  1  0.20587800  0.88802800  0.15952000  1
  O  O136  1  0.81170500  0.76201800  0.72447500  1
  O  O137  1  0.23798200  0.18829500  0.77552500  1
  O  O138  1  0.18829500  0.23798200  0.27552500  1
  O  O139  1  0.76201800  0.81170500  0.22447500  1
  O  O140  1  0.86115200  0.60666000  0.87422800  1
  O  O141  1  0.39334000  0.13884800  0.62577200  1
  O  O142  1  0.13884800  0.39334000  0.12577200  1
  O  O143  1  0.60666000  0.86115200  0.37422800  1
  O  O144  1  0.62367400  0.54325600  0.77295900  1
  O  O145  1  0.45674400  0.37632600  0.72704100  1
  O  O146  1  0.37632600  0.45674400  0.22704100  1
  O  O147  1  0.54325600  0.62367400  0.27295900  1
  O  O148  1  0.57701700  0.62624500  0.91509300  1
  O  O149  1  0.37375500  0.42298300  0.58490700  1
  O  O150  1  0.42298300  0.37375500  0.08490700  1
  O  O151  1  0.62624500  0.57701700  0.41509300  1
