# generated using pymatgen
data_Y2C3O11
_symmetry_space_group_name_H-M   'P 1'
_cell_length_a   8.10310005
_cell_length_b   8.10310005
_cell_length_c   9.26610400
_cell_angle_alpha   90.00000000
_cell_angle_beta   90.00000000
_cell_angle_gamma   136.56753273
_symmetry_Int_Tables_number   1
_chemical_formula_structural   Y2C3O11
_chemical_formula_sum   'Y4 C6 O22'
_cell_volume   418.28445075
_cell_formula_units_Z   2
loop_
 _symmetry_equiv_pos_site_id
 _symmetry_equiv_pos_as_xyz
  1  'x, y, z'
loop_
 _atom_site_type_symbol
 _atom_site_label
 _atom_site_symmetry_multiplicity
 _atom_site_fract_x
 _atom_site_fract_y
 _atom_site_fract_z
 _atom_site_occupancy
  Y  Y0  1  0.83918600  0.15448900  0.50459200  1
  Y  Y1  1  0.15448900  0.83918600  0.50459200  1
  Y  Y2  1  0.16081400  0.84551100  0.00459200  1
  Y  Y3  1  0.84551100  0.16081400  0.00459200  1
  C  C4  1  0.45190400  0.06425000  0.75235000  1
  C  C5  1  0.06425000  0.45190400  0.75235000  1
  C  C6  1  0.54809600  0.93575000  0.25235000  1
  C  C7  1  0.93575000  0.54809600  0.25235000  1
  C  C8  1  0.76867800  0.76867800  0.57123000  1
  C  C9  1  0.23132200  0.23132200  0.07123000  1
  O  O10  1  0.55260500  0.11227400  0.62976800  1
  O  O11  1  0.11227400  0.55260500  0.62976800  1
  O  O12  1  0.44739500  0.88772600  0.12976800  1
  O  O13  1  0.88772600  0.44739500  0.12976800  1
  O  O14  1  0.23828900  0.97386200  0.75334100  1
  O  O15  1  0.97386200  0.23828900  0.75334100  1
  O  O16  1  0.76171100  0.02613800  0.25334100  1
  O  O17  1  0.02613800  0.76171100  0.25334100  1
  O  O18  1  0.54190100  0.08679400  0.87533400  1
  O  O19  1  0.08679400  0.54190100  0.87533400  1
  O  O20  1  0.45809900  0.91320600  0.37533400  1
  O  O21  1  0.91320600  0.45809900  0.37533400  1
  O  O22  1  0.97440000  0.97440000  0.50984200  1
  O  O23  1  0.02560000  0.02560000  0.00984200  1
  O  O24  1  0.60847800  0.76098500  0.59615100  1
  O  O25  1  0.76098500  0.60847800  0.59615100  1
  O  O26  1  0.39152200  0.23901500  0.09615100  1
  O  O27  1  0.23901500  0.39152200  0.09615100  1
  O  O28  1  0.58683000  0.76131800  0.91092800  1
  O  O29  1  0.76131800  0.58683000  0.91092800  1
  O  O30  1  0.41317000  0.23868200  0.41092800  1
  O  O31  1  0.23868200  0.41317000  0.41092800  1
