# generated using pymatgen
data_Hg4H9C4S3O14F9
_symmetry_space_group_name_H-M   'P 1'
_cell_length_a   7.74096700
_cell_length_b   25.42022600
_cell_length_c   14.44778906
_cell_angle_alpha   90.00000000
_cell_angle_beta   117.41091112
_cell_angle_gamma   90.00000000
_symmetry_Int_Tables_number   1
_chemical_formula_structural   Hg4H9C4S3O14F9
_chemical_formula_sum   'Hg16 H36 C16 S12 O56 F36'
_cell_volume   2523.80503425
_cell_formula_units_Z   4
loop_
 _symmetry_equiv_pos_site_id
 _symmetry_equiv_pos_as_xyz
  1  'x, y, z'
loop_
 _atom_site_type_symbol
 _atom_site_label
 _atom_site_symmetry_multiplicity
 _atom_site_fract_x
 _atom_site_fract_y
 _atom_site_fract_z
 _atom_site_occupancy
  Hg  Hg0  1  0.74374900  0.26592100  0.69825300  1
  Hg  Hg1  1  0.74374900  0.23407900  0.19825300  1
  Hg  Hg2  1  0.25625100  0.73407900  0.30174700  1
  Hg  Hg3  1  0.25625100  0.76592100  0.80174700  1
  Hg  Hg4  1  0.73792500  0.24962900  0.94047800  1
  Hg  Hg5  1  0.73792500  0.25037100  0.44047800  1
  Hg  Hg6  1  0.26207500  0.75037100  0.05952200  1
  Hg  Hg7  1  0.26207500  0.74962900  0.55952200  1
  Hg  Hg8  1  0.49754000  0.34825600  0.77223200  1
  Hg  Hg9  1  0.49754000  0.15174400  0.27223200  1
  Hg  Hg10  1  0.50246000  0.65174400  0.22776800  1
  Hg  Hg11  1  0.50246000  0.84825600  0.72776800  1
  Hg  Hg12  1  0.34459800  0.21869300  0.70872100  1
  Hg  Hg13  1  0.34459800  0.28130700  0.20872100  1
  Hg  Hg14  1  0.65540200  0.78130700  0.29127900  1
  Hg  Hg15  1  0.65540200  0.71869300  0.79127900  1
  H  H16  1  0.96407200  0.29847900  0.61969100  1
  H  H17  1  0.96407200  0.20152100  0.11969100  1
  H  H18  1  0.03592800  0.70152100  0.38030900  1
  H  H19  1  0.03592800  0.79847900  0.88030900  1
  H  H20  1  0.34200000  0.44258400  0.77273800  1
  H  H21  1  0.34200000  0.05741600  0.27273800  1
  H  H22  1  0.65800000  0.55741600  0.22726200  1
  H  H23  1  0.65800000  0.94258400  0.72726200  1
  H  H24  1  0.56941100  0.45345400  0.79604900  1
  H  H25  1  0.56941100  0.04654600  0.29604900  1
  H  H26  1  0.43058900  0.54654600  0.20395100  1
  H  H27  1  0.43058900  0.95345400  0.70395100  1
  H  H28  1  0.99296900  0.16710200  0.62226100  1
  H  H29  1  0.99296900  0.33289800  0.12226100  1
  H  H30  1  0.00703100  0.83289800  0.37773900  1
  H  H31  1  0.00703100  0.66710200  0.87773900  1
  H  H32  1  0.13158100  0.13123400  0.59236900  1
  H  H33  1  0.13158100  0.36876600  0.09236900  1
  H  H34  1  0.86841900  0.86876600  0.40763100  1
  H  H35  1  0.86841900  0.63123400  0.90763100  1
  H  H36  1  0.20408600  0.09002500  0.48295100  1
  H  H37  1  0.20408600  0.40997500  0.98295100  1
  H  H38  1  0.79591400  0.90997500  0.51704900  1
  H  H39  1  0.79591400  0.59002500  0.01704900  1
  H  H40  1  0.99856000  0.06771500  0.46341000  1
  H  H41  1  0.99856000  0.43228500  0.96341000  1
  H  H42  1  0.00144000  0.93228500  0.53659000  1
  H  H43  1  0.00144000  0.56771500  0.03659000  1
  H  H44  1  0.20853900  0.01737600  0.60318100  1
  H  H45  1  0.20853900  0.48262400  0.10318100  1
  H  H46  1  0.79146100  0.98262400  0.39681900  1
  H  H47  1  0.79146100  0.51737600  0.89681900  1
  H  H48  1  0.14474800  0.99058500  0.68045700  1
  H  H49  1  0.14474800  0.50941500  0.18045700  1
  H  H50  1  0.85525200  0.00941500  0.31954300  1
  H  H51  1  0.85525200  0.49058500  0.81954300  1
  C  C52  1  0.58249800  0.26941900  0.78213300  1
  C  C53  1  0.58249800  0.23058100  0.28213300  1
  C  C54  1  0.41750200  0.73058100  0.21786700  1
  C  C55  1  0.41750200  0.76941900  0.71786700  1
  C  C56  1  0.70098400  0.06180100  0.61368800  1
  C  C57  1  0.70098400  0.43819900  0.11368800  1
  C  C58  1  0.29901600  0.93819900  0.38631200  1
  C  C59  1  0.29901600  0.56180100  0.88631200  1
  C  C60  1  0.18765800  0.13941600  0.93439900  1
  C  C61  1  0.18765800  0.36058400  0.43439900  1
  C  C62  1  0.81234200  0.86058400  0.06560100  1
  C  C63  1  0.81234200  0.63941600  0.56560100  1
  C  C64  1  0.81416900  0.43294000  0.57489700  1
  C  C65  1  0.81416900  0.06706000  0.07489700  1
  C  C66  1  0.18583100  0.56706000  0.42510300  1
  C  C67  1  0.18583100  0.93294000  0.92510300  1
  S  S68  1  0.58244800  0.12656500  0.56109500  1
  S  S69  1  0.58244800  0.37343500  0.06109500  1
  S  S70  1  0.41755200  0.87343500  0.43890500  1
  S  S71  1  0.41755200  0.62656500  0.93890500  1
  S  S72  1  0.23151400  0.21198000  0.93903900  1
  S  S73  1  0.23151400  0.28802000  0.43903900  1
  S  S74  1  0.76848600  0.78802000  0.06096100  1
  S  S75  1  0.76848600  0.71198000  0.56096100  1
  S  S76  1  0.97401100  0.40112200  0.70322500  1
  S  S77  1  0.97401100  0.09887800  0.20322500  1
  S  S78  1  0.02598900  0.59887800  0.29677500  1
  S  S79  1  0.02598900  0.90112200  0.79677500  1
  O  O80  1  0.89240300  0.26462200  0.60485900  1
  O  O81  1  0.89240300  0.23537800  0.10485900  1
  O  O82  1  0.10759700  0.73537800  0.39514100  1
  O  O83  1  0.10759700  0.76462200  0.89514100  1
  O  O84  1  0.44793500  0.43203900  0.75578600  1
  O  O85  1  0.44793500  0.06796100  0.25578600  1
  O  O86  1  0.55206500  0.56796100  0.24421400  1
  O  O87  1  0.55206500  0.93203900  0.74421400  1
  O  O88  1  0.12999000  0.15748600  0.64455500  1
  O  O89  1  0.12999000  0.34251400  0.14455500  1
  O  O90  1  0.87001000  0.84251400  0.35544500  1
  O  O91  1  0.87001000  0.65748600  0.85544500  1
  O  O92  1  0.54116800  0.14669700  0.64316800  1
  O  O93  1  0.54116800  0.35330300  0.14316800  1
  O  O94  1  0.45883200  0.85330300  0.35683200  1
  O  O95  1  0.45883200  0.64669700  0.85683200  1
  O  O96  1  0.73261000  0.15545900  0.54645400  1
  O  O97  1  0.73261000  0.34454100  0.04645400  1
  O  O98  1  0.26739000  0.84454100  0.45354600  1
  O  O99  1  0.26739000  0.65545900  0.95354600  1
  O  O100  1  0.41197500  0.11340700  0.46299600  1
  O  O101  1  0.41197500  0.38659300  0.96299600  1
  O  O102  1  0.58802500  0.88659300  0.53700400  1
  O  O103  1  0.58802500  0.61340700  0.03700400  1
  O  O104  1  0.44379700  0.21608900  0.98788400  1
  O  O105  1  0.44379700  0.28391100  0.48788400  1
  O  O106  1  0.55620300  0.78391100  0.01211600  1
  O  O107  1  0.55620300  0.71608900  0.51211600  1
  O  O108  1  0.14441300  0.23227200  0.00296300  1
  O  O109  1  0.14441300  0.26772800  0.50296300  1
  O  O110  1  0.85558700  0.76772800  0.99703700  1
  O  O111  1  0.85558700  0.73227200  0.49703700  1
  O  O112  1  0.13212700  0.22789900  0.82953000  1
  O  O113  1  0.13212700  0.27210100  0.32953000  1
  O  O114  1  0.86787300  0.77210100  0.17047000  1
  O  O115  1  0.86787300  0.72789900  0.67047000  1
  O  O116  1  0.09799500  0.44408900  0.76667900  1
  O  O117  1  0.09799500  0.05591100  0.26667900  1
  O  O118  1  0.90200500  0.55591100  0.23332100  1
  O  O119  1  0.90200500  0.94408900  0.73332100  1
  O  O120  1  0.07940600  0.36052400  0.67653200  1
  O  O121  1  0.07940600  0.13947600  0.17653200  1
  O  O122  1  0.92059400  0.63947600  0.32346800  1
  O  O123  1  0.92059400  0.86052400  0.82346800  1
  O  O124  1  0.83780800  0.38060600  0.73836600  1
  O  O125  1  0.83780800  0.11939400  0.23836600  1
  O  O126  1  0.16219200  0.61939400  0.26163400  1
  O  O127  1  0.16219200  0.88060600  0.76163400  1
  O  O128  1  0.12420800  0.08054400  0.51796200  1
  O  O129  1  0.12420800  0.41945600  0.01796200  1
  O  O130  1  0.87579200  0.91945600  0.48203800  1
  O  O131  1  0.87579200  0.58054400  0.98203800  1
  O  O132  1  0.21146900  0.98369600  0.63840400  1
  O  O133  1  0.21146900  0.51630400  0.13840400  1
  O  O134  1  0.78853100  0.01630400  0.36159600  1
  O  O135  1  0.78853100  0.48369600  0.86159600  1
  F  F136  1  0.74672300  0.03717400  0.54437000  1
  F  F137  1  0.74672300  0.46282600  0.04437000  1
  F  F138  1  0.25327700  0.96282600  0.45563000  1
  F  F139  1  0.25327700  0.53717400  0.95563000  1
  F  F140  1  0.86600000  0.06805000  0.70375800  1
  F  F141  1  0.86600000  0.43195000  0.20375800  1
  F  F142  1  0.13400000  0.93195000  0.29624200  1
  F  F143  1  0.13400000  0.56805000  0.79624200  1
  F  F144  1  0.57755200  0.03037800  0.63151900  1
  F  F145  1  0.57755200  0.46962200  0.13151900  1
  F  F146  1  0.42244800  0.96962200  0.36848100  1
  F  F147  1  0.42244800  0.53037800  0.86848100  1
  F  F148  1  0.24793000  0.11567200  0.87049600  1
  F  F149  1  0.24793000  0.38432800  0.37049600  1
  F  F150  1  0.75207000  0.88432800  0.12950400  1
  F  F151  1  0.75207000  0.61567200  0.62950400  1
  F  F152  1  0.28623900  0.11795900  0.03078900  1
  F  F153  1  0.28623900  0.38204100  0.53078900  1
  F  F154  1  0.71376100  0.88204100  0.96921100  1
  F  F155  1  0.71376100  0.61795900  0.46921100  1
  F  F156  1  0.99536500  0.12961100  0.89876300  1
  F  F157  1  0.99536500  0.37038900  0.39876300  1
  F  F158  1  0.00463500  0.87038900  0.10123700  1
  F  F159  1  0.00463500  0.62961100  0.60123700  1
  F  F160  1  0.70149500  0.39623300  0.50493700  1
  F  F161  1  0.70149500  0.10376700  0.00493700  1
  F  F162  1  0.29850500  0.60376700  0.49506300  1
  F  F163  1  0.29850500  0.89623300  0.99506300  1
  F  F164  1  0.69613800  0.46880900  0.58674000  1
  F  F165  1  0.69613800  0.03119100  0.08674000  1
  F  F166  1  0.30386200  0.53119100  0.41326000  1
  F  F167  1  0.30386200  0.96880900  0.91326000  1
  F  F168  1  0.92247100  0.45747300  0.53674100  1
  F  F169  1  0.92247100  0.04252700  0.03674100  1
  F  F170  1  0.07752900  0.54252700  0.46325900  1
  F  F171  1  0.07752900  0.95747300  0.96325900  1
