# generated using pymatgen
data_Na3U2H5(Se2O9)2
_symmetry_space_group_name_H-M   'P 1'
_cell_length_a   9.77071100
_cell_length_b   9.92097038
_cell_length_c   11.73219677
_cell_angle_alpha   84.08636313
_cell_angle_beta   66.14164661
_cell_angle_gamma   62.35587390
_symmetry_Int_Tables_number   1
_chemical_formula_structural   Na3U2H5(Se2O9)2
_chemical_formula_sum   'Na6 U4 H10 Se8 O36'
_cell_volume   916.30825698
_cell_formula_units_Z   2
loop_
 _symmetry_equiv_pos_site_id
 _symmetry_equiv_pos_as_xyz
  1  'x, y, z'
loop_
 _atom_site_type_symbol
 _atom_site_label
 _atom_site_symmetry_multiplicity
 _atom_site_fract_x
 _atom_site_fract_y
 _atom_site_fract_z
 _atom_site_occupancy
  Na  Na0  1  0.65892500  0.28004800  0.50129700  1
  Na  Na1  1  0.34107500  0.71995200  0.49870300  1
  Na  Na2  1  0.23666400  0.42473000  0.48638000  1
  Na  Na3  1  0.76333600  0.57527000  0.51362000  1
  Na  Na4  1  0.91295000  0.86804900  0.51706300  1
  Na  Na5  1  0.08705000  0.13195100  0.48293700  1
  U  U6  1  0.84192600  0.64811900  0.80242300  1
  U  U7  1  0.15807400  0.35188100  0.19757700  1
  U  U8  1  0.36783500  0.80834200  0.80041000  1
  U  U9  1  0.63216500  0.19165800  0.19959000  1
  H  H10  1  0.90638100  0.73368100  0.33105500  1
  H  H11  1  0.09361900  0.26631900  0.66894500  1
  H  H12  1  0.71620600  0.85643700  0.38232300  1
  H  H13  1  0.28379400  0.14356300  0.61767700  1
  H  H14  1  0.95878300  0.29583800  0.89821600  1
  H  H15  1  0.04121700  0.70416200  0.10178400  1
  H  H16  1  0.15751700  0.18052500  0.89247400  1
  H  H17  1  0.84248300  0.81947500  0.10752600  1
  H  H18  1  0.00045200  0.30188900  0.02302600  1
  H  H19  1  0.99954800  0.69811100  0.97697400  1
  Se  Se20  1  0.95161100  0.98507300  0.75867000  1
  Se  Se21  1  0.04838900  0.01492700  0.24133000  1
  Se  Se22  1  0.51887000  0.05917200  0.79278000  1
  Se  Se23  1  0.48113000  0.94082800  0.20722000  1
  Se  Se24  1  0.71893600  0.38572000  0.77695100  1
  Se  Se25  1  0.28106400  0.61428000  0.22304900  1
  Se  Se26  1  0.30400400  0.46124500  0.76007300  1
  Se  Se27  1  0.69599600  0.53875500  0.23992700  1
  O  O28  1  0.94768200  0.62211600  0.62851100  1
  O  O29  1  0.05231800  0.37788400  0.37148900  1
  O  O30  1  0.73292500  0.66688900  0.97230500  1
  O  O31  1  0.26707500  0.33311100  0.02769500  1
  O  O32  1  0.45421700  0.77289100  0.62806700  1
  O  O33  1  0.54578300  0.22710900  0.37193300  1
  O  O34  1  0.29782300  0.83770600  0.96867400  1
  O  O35  1  0.70217700  0.16229400  0.03132600  1
  O  O36  1  0.89751700  0.36787600  0.79593700  1
  O  O37  1  0.10248300  0.63212400  0.20406300  1
  O  O38  1  0.08692400  0.51676300  0.82689600  1
  O  O39  1  0.91307600  0.48323700  0.17310400  1
  O  O40  1  0.89126400  0.84224000  0.81907600  1
  O  O41  1  0.10873600  0.15776000  0.18092400  1
  O  O42  1  0.60502600  0.85619200  0.78115300  1
  O  O43  1  0.39497400  0.14380800  0.21884700  1
  O  O44  1  0.63174200  0.58668600  0.78405000  1
  O  O45  1  0.36825800  0.41331400  0.21595000  1
  O  O46  1  0.30052700  0.61524600  0.82295800  1
  O  O47  1  0.69947300  0.38475400  0.17704200  1
  O  O48  1  0.10498900  0.95132200  0.81180100  1
  O  O49  1  0.89501100  0.04867800  0.18819900  1
  O  O50  1  0.32919200  0.08362100  0.78965800  1
  O  O51  1  0.67080800  0.91637900  0.21034200  1
  O  O52  1  0.06362400  0.92405900  0.60422100  1
  O  O53  1  0.93637600  0.07594100  0.39577900  1
  O  O54  1  0.63131000  0.08623200  0.64914500  1
  O  O55  1  0.36869000  0.91376800  0.35085500  1
  O  O56  1  0.79426600  0.33672600  0.62247100  1
  O  O57  1  0.20573400  0.66327400  0.37752900  1
  O  O58  1  0.35322600  0.48462200  0.60636700  1
  O  O59  1  0.64677400  0.51537800  0.39363300  1
  O  O60  1  0.80316100  0.78257400  0.40973900  1
  O  O61  1  0.19683900  0.21742600  0.59026100  1
  O  O62  1  0.02779500  0.23649100  0.95129100  1
  O  O63  1  0.97220500  0.76350900  0.04870900  1
