# generated using pymatgen
data_Cu3TePbO7
_symmetry_space_group_name_H-M   'P 1'
_cell_length_a   6.42067600
_cell_length_b   8.89775400
_cell_length_c   10.66654300
_cell_angle_alpha   90.00000000
_cell_angle_beta   90.00000000
_cell_angle_gamma   90.00000000
_symmetry_Int_Tables_number   1
_chemical_formula_structural   Cu3TePbO7
_chemical_formula_sum   'Cu12 Te4 Pb4 O28'
_cell_volume   609.37528763
_cell_formula_units_Z   4
loop_
 _symmetry_equiv_pos_site_id
 _symmetry_equiv_pos_as_xyz
  1  'x, y, z'
loop_
 _atom_site_type_symbol
 _atom_site_label
 _atom_site_symmetry_multiplicity
 _atom_site_fract_x
 _atom_site_fract_y
 _atom_site_fract_z
 _atom_site_occupancy
  Cu  Cu0  1  0.00908000  0.87607600  0.88821800  1
  Cu  Cu1  1  0.49092000  0.62392400  0.38821800  1
  Cu  Cu2  1  0.50908000  0.12392400  0.11178200  1
  Cu  Cu3  1  0.99092000  0.37607600  0.61178200  1
  Cu  Cu4  1  0.99092000  0.12392400  0.11178200  1
  Cu  Cu5  1  0.50908000  0.37607600  0.61178200  1
  Cu  Cu6  1  0.49092000  0.87607600  0.88821800  1
  Cu  Cu7  1  0.00908000  0.62392400  0.38821800  1
  Cu  Cu8  1  0.25000000  0.59475500  0.74707600  1
  Cu  Cu9  1  0.25000000  0.90524500  0.24707600  1
  Cu  Cu10  1  0.75000000  0.40524500  0.25292400  1
  Cu  Cu11  1  0.75000000  0.09475500  0.75292400  1
  Te  Te12  1  0.25000000  0.20238600  0.88530000  1
  Te  Te13  1  0.25000000  0.29761400  0.38530000  1
  Te  Te14  1  0.75000000  0.79761400  0.11470000  1
  Te  Te15  1  0.75000000  0.70238600  0.61470000  1
  Pb  Pb16  1  0.25000000  0.95461300  0.60716500  1
  Pb  Pb17  1  0.25000000  0.54538700  0.10716500  1
  Pb  Pb18  1  0.75000000  0.04538700  0.39283500  1
  Pb  Pb19  1  0.75000000  0.45461300  0.89283500  1
  O  O20  1  0.25000000  0.36077000  0.76466700  1
  O  O21  1  0.25000000  0.13923000  0.26466700  1
  O  O22  1  0.75000000  0.63923000  0.23533300  1
  O  O23  1  0.75000000  0.86077000  0.73533300  1
  O  O24  1  0.25000000  0.79842500  0.79752500  1
  O  O25  1  0.25000000  0.70157500  0.29752500  1
  O  O26  1  0.75000000  0.20157500  0.20247500  1
  O  O27  1  0.75000000  0.29842500  0.70247500  1
  O  O28  1  0.25000000  0.04507500  0.01880900  1
  O  O29  1  0.25000000  0.45492500  0.51880900  1
  O  O30  1  0.75000000  0.95492500  0.98119100  1
  O  O31  1  0.75000000  0.54507500  0.48119100  1
  O  O32  1  0.95558200  0.57284900  0.70936900  1
  O  O33  1  0.54441800  0.92715100  0.20936900  1
  O  O34  1  0.45558200  0.42715100  0.29063100  1
  O  O35  1  0.04441800  0.07284900  0.79063100  1
  O  O36  1  0.04441800  0.42715100  0.29063100  1
  O  O37  1  0.45558200  0.07284900  0.79063100  1
  O  O38  1  0.54441800  0.57284900  0.70936900  1
  O  O39  1  0.95558200  0.92715100  0.20936900  1
  O  O40  1  0.97268300  0.71034200  0.01244500  1
  O  O41  1  0.52731700  0.78965800  0.51244500  1
  O  O42  1  0.47268300  0.28965800  0.98755500  1
  O  O43  1  0.02731700  0.21034200  0.48755500  1
  O  O44  1  0.02731700  0.28965800  0.98755500  1
  O  O45  1  0.47268300  0.21034200  0.48755500  1
  O  O46  1  0.52731700  0.71034200  0.01244500  1
  O  O47  1  0.97268300  0.78965800  0.51244500  1
