# generated using pymatgen
data_Rb3La(Cl3O)2
_symmetry_space_group_name_H-M   'P 1'
_cell_length_a   12.44648235
_cell_length_b   12.44648235
_cell_length_c   16.87581200
_cell_angle_alpha   90.00000000
_cell_angle_beta   90.00000000
_cell_angle_gamma   120.00000184
_symmetry_Int_Tables_number   1
_chemical_formula_structural   Rb3La(Cl3O)2
_chemical_formula_sum   'Rb18 La6 Cl36 O12'
_cell_volume   2264.06325954
_cell_formula_units_Z   6
loop_
 _symmetry_equiv_pos_site_id
 _symmetry_equiv_pos_as_xyz
  1  'x, y, z'
loop_
 _atom_site_type_symbol
 _atom_site_label
 _atom_site_symmetry_multiplicity
 _atom_site_fract_x
 _atom_site_fract_y
 _atom_site_fract_z
 _atom_site_occupancy
  Rb  Rb0  1  0.37789800  0.93421500  0.11463000  1
  Rb  Rb1  1  0.06578500  0.44368300  0.11463000  1
  Rb  Rb2  1  0.55631700  0.62210200  0.11463000  1
  Rb  Rb3  1  0.62210200  0.06578500  0.61463000  1
  Rb  Rb4  1  0.93421500  0.55631700  0.61463000  1
  Rb  Rb5  1  0.44368300  0.37789800  0.61463000  1
  Rb  Rb6  1  0.62210200  0.06578500  0.88537000  1
  Rb  Rb7  1  0.93421500  0.55631700  0.88537000  1
  Rb  Rb8  1  0.44368300  0.37789800  0.88537000  1
  Rb  Rb9  1  0.37789800  0.93421500  0.38537000  1
  Rb  Rb10  1  0.06578500  0.44368300  0.38537000  1
  Rb  Rb11  1  0.55631700  0.62210200  0.38537000  1
  Rb  Rb12  1  0.33333300  0.66666700  0.60924400  1
  Rb  Rb13  1  0.66666700  0.33333300  0.10924400  1
  Rb  Rb14  1  0.66666700  0.33333300  0.39075600  1
  Rb  Rb15  1  0.33333300  0.66666700  0.89075600  1
  Rb  Rb16  1  0.00000000  0.00000000  0.50000000  1
  Rb  Rb17  1  0.00000000  0.00000000  0.00000000  1
  La  La18  1  0.19454700  0.96207600  0.75000000  1
  La  La19  1  0.03792400  0.23247100  0.75000000  1
  La  La20  1  0.76752900  0.80545300  0.75000000  1
  La  La21  1  0.80545300  0.03792400  0.25000000  1
  La  La22  1  0.96207600  0.76752900  0.25000000  1
  La  La23  1  0.23247100  0.19454700  0.25000000  1
  Cl  Cl24  1  0.46297500  0.12753000  0.75000000  1
  Cl  Cl25  1  0.87247000  0.33544500  0.75000000  1
  Cl  Cl26  1  0.66455500  0.53702500  0.75000000  1
  Cl  Cl27  1  0.53702500  0.87247000  0.25000000  1
  Cl  Cl28  1  0.12753000  0.66455500  0.25000000  1
  Cl  Cl29  1  0.33544500  0.46297500  0.25000000  1
  Cl  Cl30  1  0.17337600  0.72015700  0.75000000  1
  Cl  Cl31  1  0.27984300  0.45322000  0.75000000  1
  Cl  Cl32  1  0.54678000  0.82662400  0.75000000  1
  Cl  Cl33  1  0.82662400  0.27984300  0.25000000  1
  Cl  Cl34  1  0.72015700  0.54678000  0.25000000  1
  Cl  Cl35  1  0.45322000  0.17337600  0.25000000  1
  Cl  Cl36  1  0.17626500  0.14708900  0.65093500  1
  Cl  Cl37  1  0.85291100  0.02917600  0.65093500  1
  Cl  Cl38  1  0.97082400  0.82373500  0.65093500  1
  Cl  Cl39  1  0.82373500  0.85291100  0.15093500  1
  Cl  Cl40  1  0.14708900  0.97082400  0.15093500  1
  Cl  Cl41  1  0.02917600  0.17626500  0.15093500  1
  Cl  Cl42  1  0.82373500  0.85291100  0.34906500  1
  Cl  Cl43  1  0.14708900  0.97082400  0.34906500  1
  Cl  Cl44  1  0.02917600  0.17626500  0.34906500  1
  Cl  Cl45  1  0.17626500  0.14708900  0.84906500  1
  Cl  Cl46  1  0.85291100  0.02917600  0.84906500  1
  Cl  Cl47  1  0.97082400  0.82373500  0.84906500  1
  Cl  Cl48  1  0.12581600  0.70410600  0.03157200  1
  Cl  Cl49  1  0.29589400  0.42171000  0.03157200  1
  Cl  Cl50  1  0.57829000  0.87418400  0.03157200  1
  Cl  Cl51  1  0.87418400  0.29589400  0.53157200  1
  Cl  Cl52  1  0.70410600  0.57829000  0.53157200  1
  Cl  Cl53  1  0.42171000  0.12581600  0.53157200  1
  Cl  Cl54  1  0.87418400  0.29589400  0.96842800  1
  Cl  Cl55  1  0.70410600  0.57829000  0.96842800  1
  Cl  Cl56  1  0.42171000  0.12581600  0.96842800  1
  Cl  Cl57  1  0.12581600  0.70410600  0.46842800  1
  Cl  Cl58  1  0.29589400  0.42171000  0.46842800  1
  Cl  Cl59  1  0.57829000  0.87418400  0.46842800  1
  O  O60  1  0.33747000  0.97297400  0.64023000  1
  O  O61  1  0.02702600  0.36449600  0.64023000  1
  O  O62  1  0.63550400  0.66253000  0.64023000  1
  O  O63  1  0.66253000  0.02702600  0.14023000  1
  O  O64  1  0.97297400  0.63550400  0.14023000  1
  O  O65  1  0.36449600  0.33747000  0.14023000  1
  O  O66  1  0.66253000  0.02702600  0.35977000  1
  O  O67  1  0.97297400  0.63550400  0.35977000  1
  O  O68  1  0.36449600  0.33747000  0.35977000  1
  O  O69  1  0.33747000  0.97297400  0.85977000  1
  O  O70  1  0.02702600  0.36449600  0.85977000  1
  O  O71  1  0.63550400  0.66253000  0.85977000  1
