# generated using pymatgen
data_PuUP4H4(CO8)2
_symmetry_space_group_name_H-M   'P 1'
_cell_length_a   20.33854000
_cell_length_b   5.62213000
_cell_length_c   7.21333165
_cell_angle_alpha   80.03725998
_cell_angle_beta   90.00000000
_cell_angle_gamma   90.00000000
_symmetry_Int_Tables_number   1
_chemical_formula_structural   PuUP4H4(CO8)2
_chemical_formula_sum   'Pu2 U2 P8 H8 C4 O32'
_cell_volume   812.37719151
_cell_formula_units_Z   2
loop_
 _symmetry_equiv_pos_site_id
 _symmetry_equiv_pos_as_xyz
  1  'x, y, z'
loop_
 _atom_site_type_symbol
 _atom_site_label
 _atom_site_symmetry_multiplicity
 _atom_site_fract_x
 _atom_site_fract_y
 _atom_site_fract_z
 _atom_site_occupancy
  Pu  Pu0  1  0.25000000  0.68396700  0.84713500  1
  Pu  Pu1  1  0.75000000  0.31603300  0.15286500  1
  U  U2  1  0.50000000  0.50000000  0.50000000  1
  U  U3  1  0.00000000  0.50000000  0.50000000  1
  P  P4  1  0.37836200  0.90482500  0.18087300  1
  P  P5  1  0.87836200  0.09517500  0.81912700  1
  P  P6  1  0.62163800  0.09517500  0.81912700  1
  P  P7  1  0.12163800  0.90482500  0.18087300  1
  P  P8  1  0.36487700  0.19665500  0.78440400  1
  P  P9  1  0.86487700  0.80334500  0.21559600  1
  P  P10  1  0.63512300  0.80334500  0.21559600  1
  P  P11  1  0.13512300  0.19665500  0.78440400  1
  H  H12  1  0.45149200  0.95079300  0.91392400  1
  H  H13  1  0.95149200  0.04920700  0.08607600  1
  H  H14  1  0.54850800  0.04920700  0.08607600  1
  H  H15  1  0.04850800  0.95079300  0.91392400  1
  H  H16  1  0.44774300  0.22002500  0.01703200  1
  H  H17  1  0.94774300  0.77997500  0.98296800  1
  H  H18  1  0.55225700  0.77997500  0.98296800  1
  H  H19  1  0.05225700  0.22002500  0.01703200  1
  C  C20  1  0.41881900  0.07332600  0.97435800  1
  C  C21  1  0.91881900  0.92667400  0.02564200  1
  C  C22  1  0.58118100  0.92667400  0.02564200  1
  C  C23  1  0.08118100  0.07332600  0.97435800  1
  O  O24  1  0.31856900  0.99452100  0.74700600  1
  O  O25  1  0.81856900  0.00547900  0.25299400  1
  O  O26  1  0.68143100  0.00547900  0.25299400  1
  O  O27  1  0.18143100  0.99452100  0.74700600  1
  O  O28  1  0.48928000  0.68871900  0.67750800  1
  O  O29  1  0.98928000  0.31128100  0.32249200  1
  O  O30  1  0.51072000  0.31128100  0.32249200  1
  O  O31  1  0.01072000  0.68871900  0.67750800  1
  O  O32  1  0.43147200  0.74316300  0.28848300  1
  O  O33  1  0.93147200  0.25683700  0.71151700  1
  O  O34  1  0.56852800  0.25683700  0.71151700  1
  O  O35  1  0.06852800  0.74316300  0.28848300  1
  O  O36  1  0.25000000  0.68509700  0.59704000  1
  O  O37  1  0.75000000  0.31490300  0.40296000  1
  O  O38  1  0.25000000  0.46583600  0.13399900  1
  O  O39  1  0.75000000  0.53416400  0.86600100  1
  O  O40  1  0.32133900  0.76406900  0.10484200  1
  O  O41  1  0.82133900  0.23593100  0.89515800  1
  O  O42  1  0.67866100  0.23593100  0.89515800  1
  O  O43  1  0.17866100  0.76406900  0.10484200  1
  O  O44  1  0.34574800  0.07435800  0.29775400  1
  O  O45  1  0.84574800  0.92564200  0.70224600  1
  O  O46  1  0.65425200  0.92564200  0.70224600  1
  O  O47  1  0.15425200  0.07435800  0.29775400  1
  O  O48  1  0.40836500  0.29062200  0.61483700  1
  O  O49  1  0.90836500  0.70937800  0.38516300  1
  O  O50  1  0.59163500  0.70937800  0.38516300  1
  O  O51  1  0.09163500  0.29062200  0.61483700  1
  O  O52  1  0.32502300  0.40483800  0.84797400  1
  O  O53  1  0.82502300  0.59516200  0.15202600  1
  O  O54  1  0.67497700  0.59516200  0.15202600  1
  O  O55  1  0.17497700  0.40483800  0.84797400  1
