# generated using pymatgen
data_Cs2V5H5O16
_symmetry_space_group_name_H-M   'P 1'
_cell_length_a   14.42927800
_cell_length_b   10.28245600
_cell_length_c   11.80445492
_cell_angle_alpha   72.13948650
_cell_angle_beta   90.00000000
_cell_angle_gamma   90.00000000
_symmetry_Int_Tables_number   1
_chemical_formula_structural   Cs2V5H5O16
_chemical_formula_sum   'Cs8 V20 H20 O64'
_cell_volume   1667.00090641
_cell_formula_units_Z   4
loop_
 _symmetry_equiv_pos_site_id
 _symmetry_equiv_pos_as_xyz
  1  'x, y, z'
loop_
 _atom_site_type_symbol
 _atom_site_label
 _atom_site_symmetry_multiplicity
 _atom_site_fract_x
 _atom_site_fract_y
 _atom_site_fract_z
 _atom_site_occupancy
  Cs  Cs0  1  0.12914300  0.31059900  0.04666900  1
  Cs  Cs1  1  0.62914300  0.68940100  0.45333100  1
  Cs  Cs2  1  0.87085700  0.68940100  0.95333100  1
  Cs  Cs3  1  0.37085700  0.31059900  0.54666900  1
  Cs  Cs4  1  0.77139900  0.07206800  0.08936900  1
  Cs  Cs5  1  0.27139900  0.92793200  0.41063100  1
  Cs  Cs6  1  0.22860100  0.92793200  0.91063100  1
  Cs  Cs7  1  0.72860100  0.07206800  0.58936900  1
  V  V8  1  0.39914300  0.31371600  0.92588000  1
  V  V9  1  0.89914300  0.68628400  0.57412000  1
  V  V10  1  0.60085700  0.68628400  0.07412000  1
  V  V11  1  0.10085700  0.31371600  0.42588000  1
  V  V12  1  0.38881200  0.33464900  0.18021300  1
  V  V13  1  0.88881200  0.66535100  0.31978700  1
  V  V14  1  0.61118800  0.66535100  0.81978700  1
  V  V15  1  0.11118800  0.33464900  0.68021300  1
  V  V16  1  0.58707000  0.37556300  0.77802200  1
  V  V17  1  0.08707000  0.62443700  0.72197800  1
  V  V18  1  0.41293000  0.62443700  0.22197800  1
  V  V19  1  0.91293000  0.37556300  0.27802200  1
  V  V20  1  0.58536100  0.39241500  0.03818200  1
  V  V21  1  0.08536100  0.60758500  0.46181800  1
  V  V22  1  0.41463900  0.60758500  0.96181800  1
  V  V23  1  0.91463900  0.39241500  0.53818200  1
  V  V24  1  0.42940500  0.60053200  0.70347200  1
  V  V25  1  0.92940500  0.39946800  0.79652800  1
  V  V26  1  0.57059500  0.39946800  0.29652800  1
  V  V27  1  0.07059500  0.60053200  0.20347200  1
  H  H28  1  0.52087500  0.08733400  0.13592600  1
  H  H29  1  0.02087500  0.91266600  0.36407400  1
  H  H30  1  0.47912500  0.91266600  0.86407400  1
  H  H31  1  0.97912500  0.08733400  0.63592600  1
  H  H32  1  0.56753100  0.00543100  0.32544600  1
  H  H33  1  0.06753100  0.99456900  0.17455400  1
  H  H34  1  0.43246900  0.99456900  0.67455400  1
  H  H35  1  0.93246900  0.00543100  0.82544600  1
  H  H36  1  0.46675500  0.07396100  0.83712300  1
  H  H37  1  0.96675500  0.92603900  0.66287700  1
  H  H38  1  0.53324500  0.92603900  0.16287700  1
  H  H39  1  0.03324500  0.07396100  0.33712300  1
  H  H40  1  0.27610900  0.45452400  0.76850900  1
  H  H41  1  0.77610900  0.54547600  0.73149100  1
  H  H42  1  0.72389100  0.54547600  0.23149100  1
  H  H43  1  0.22389100  0.45452400  0.26850900  1
  H  H44  1  0.53091000  0.07015900  0.41892200  1
  H  H45  1  0.03091000  0.92984100  0.08107800  1
  H  H46  1  0.46909000  0.92984100  0.58107800  1
  H  H47  1  0.96909000  0.07015900  0.91892200  1
  O  O48  1  0.31769800  0.19754000  0.95734600  1
  O  O49  1  0.81769800  0.80246000  0.54265400  1
  O  O50  1  0.68230200  0.80246000  0.04265400  1
  O  O51  1  0.18230200  0.19754000  0.45734600  1
  O  O52  1  0.48369100  0.25323000  0.84267100  1
  O  O53  1  0.98369100  0.74677000  0.65732900  1
  O  O54  1  0.51630900  0.74677000  0.15732900  1
  O  O55  1  0.01630900  0.25323000  0.34267100  1
  O  O56  1  0.34513600  0.44172100  0.78005800  1
  O  O57  1  0.84513600  0.55827900  0.71994200  1
  O  O58  1  0.65486400  0.55827900  0.21994200  1
  O  O59  1  0.15486400  0.44172100  0.28005800  1
  O  O60  1  0.47227500  0.26825600  0.07146400  1
  O  O61  1  0.97227500  0.73174400  0.42853600  1
  O  O62  1  0.52772500  0.73174400  0.92853600  1
  O  O63  1  0.02772500  0.26825600  0.57146400  1
  O  O64  1  0.34626700  0.44196400  0.01509600  1
  O  O65  1  0.84626700  0.55803600  0.48490400  1
  O  O66  1  0.65373300  0.55803600  0.98490400  1
  O  O67  1  0.15373300  0.44196400  0.51509600  1
  O  O68  1  0.49916600  0.49451800  0.88987300  1
  O  O69  1  0.99916600  0.50548200  0.61012700  1
  O  O70  1  0.50083400  0.50548200  0.11012700  1
  O  O71  1  0.00083400  0.49451800  0.38987300  1
  O  O72  1  0.31014300  0.21410100  0.21480400  1
  O  O73  1  0.81014300  0.78589900  0.28519600  1
  O  O74  1  0.68985700  0.78589900  0.78519600  1
  O  O75  1  0.18985700  0.21410100  0.71480400  1
  O  O76  1  0.47437800  0.27845700  0.30148400  1
  O  O77  1  0.97437800  0.72154300  0.19851600  1
  O  O78  1  0.52562200  0.72154300  0.69851600  1
  O  O79  1  0.02562200  0.27845700  0.80148400  1
  O  O80  1  0.33890900  0.46669400  0.23980500  1
  O  O81  1  0.83890900  0.53330600  0.26019500  1
  O  O82  1  0.66109100  0.53330600  0.76019500  1
  O  O83  1  0.16109100  0.46669400  0.73980500  1
  O  O84  1  0.64569000  0.28691900  0.71000400  1
  O  O85  1  0.14569000  0.71308100  0.78999600  1
  O  O86  1  0.35431000  0.71308100  0.28999600  1
  O  O87  1  0.85431000  0.28691900  0.21000400  1
  O  O88  1  0.50628200  0.47991900  0.66172800  1
  O  O89  1  0.00628200  0.52008100  0.83827200  1
  O  O90  1  0.49371800  0.52008100  0.33827200  1
  O  O91  1  0.99371800  0.47991900  0.16172800  1
  O  O92  1  0.63402500  0.31083100  0.94305100  1
  O  O93  1  0.13402500  0.68916900  0.55694900  1
  O  O94  1  0.36597500  0.68916900  0.05694900  1
  O  O95  1  0.86597500  0.31083100  0.44305100  1
  O  O96  1  0.36817300  0.67874200  0.82252600  1
  O  O97  1  0.86817300  0.32125800  0.67747400  1
  O  O98  1  0.63182700  0.32125800  0.17747400  1
  O  O99  1  0.13182700  0.67874200  0.32252600  1
  O  O100  1  0.37216100  0.67202400  0.58136000  1
  O  O101  1  0.87216100  0.32797600  0.91864000  1
  O  O102  1  0.62783900  0.32797600  0.41864000  1
  O  O103  1  0.12783900  0.67202400  0.08136000  1
  O  O104  1  0.05974600  0.99195800  0.32263800  1
  O  O105  1  0.55974600  0.00804200  0.17736200  1
  O  O106  1  0.94025400  0.00804200  0.67736200  1
  O  O107  1  0.44025400  0.99195800  0.82263800  1
  O  O108  1  0.57061500  0.99595000  0.41201000  1
  O  O109  1  0.07061500  0.00405000  0.08799000  1
  O  O110  1  0.42938500  0.00405000  0.58799000  1
  O  O111  1  0.92938500  0.99595000  0.91201000  1
