# generated using pymatgen
data_Yb5(Ni2Ge5)2
_symmetry_space_group_name_H-M   'P 1'
_cell_length_a   12.84024200
_cell_length_b   12.84024200
_cell_length_c   4.19464200
_cell_angle_alpha   90.00000000
_cell_angle_beta   90.00000000
_cell_angle_gamma   90.00000000
_symmetry_Int_Tables_number   1
_chemical_formula_structural   Yb5(Ni2Ge5)2
_chemical_formula_sum   'Yb10 Ni8 Ge20'
_cell_volume   691.57823822
_cell_formula_units_Z   2
loop_
 _symmetry_equiv_pos_site_id
 _symmetry_equiv_pos_as_xyz
  1  'x, y, z'
loop_
 _atom_site_type_symbol
 _atom_site_label
 _atom_site_symmetry_multiplicity
 _atom_site_fract_x
 _atom_site_fract_y
 _atom_site_fract_z
 _atom_site_occupancy
  Yb  Yb0  1  0.50000000  0.50000000  0.00000000  1
  Yb  Yb1  1  0.00000000  0.00000000  0.00000000  1
  Yb  Yb2  1  0.82124500  0.32124500  0.50000000  1
  Yb  Yb3  1  0.17875500  0.67875500  0.50000000  1
  Yb  Yb4  1  0.32124500  0.17875500  0.50000000  1
  Yb  Yb5  1  0.67875500  0.82124500  0.50000000  1
  Yb  Yb6  1  0.88927100  0.61072900  0.50000000  1
  Yb  Yb7  1  0.11072900  0.38927100  0.50000000  1
  Yb  Yb8  1  0.38927100  0.88927100  0.50000000  1
  Yb  Yb9  1  0.61072900  0.11072900  0.50000000  1
  Ni  Ni10  1  0.74690600  0.47169500  0.00000000  1
  Ni  Ni11  1  0.25309400  0.52830500  0.00000000  1
  Ni  Ni12  1  0.24690600  0.02830500  0.00000000  1
  Ni  Ni13  1  0.75309400  0.97169500  0.00000000  1
  Ni  Ni14  1  0.52830500  0.74690600  0.00000000  1
  Ni  Ni15  1  0.47169500  0.25309400  0.00000000  1
  Ni  Ni16  1  0.97169500  0.24690600  0.00000000  1
  Ni  Ni17  1  0.02830500  0.75309400  0.00000000  1
  Ge  Ge18  1  0.93350200  0.43350200  0.00000000  1
  Ge  Ge19  1  0.06649800  0.56649800  0.00000000  1
  Ge  Ge20  1  0.43350200  0.06649800  0.00000000  1
  Ge  Ge21  1  0.56649800  0.93350200  0.00000000  1
  Ge  Ge22  1  0.69806400  0.65188500  0.00000000  1
  Ge  Ge23  1  0.30193600  0.34811500  0.00000000  1
  Ge  Ge24  1  0.19806400  0.84811500  0.00000000  1
  Ge  Ge25  1  0.80193600  0.15188500  0.00000000  1
  Ge  Ge26  1  0.34811500  0.69806400  0.00000000  1
  Ge  Ge27  1  0.65188500  0.30193600  0.00000000  1
  Ge  Ge28  1  0.15188500  0.19806400  0.00000000  1
  Ge  Ge29  1  0.84811500  0.80193600  0.00000000  1
  Ge  Ge30  1  0.00309200  0.83942400  0.50000000  1
  Ge  Ge31  1  0.99690800  0.16057600  0.50000000  1
  Ge  Ge32  1  0.50309200  0.66057600  0.50000000  1
  Ge  Ge33  1  0.49690800  0.33942400  0.50000000  1
  Ge  Ge34  1  0.16057600  0.00309200  0.50000000  1
  Ge  Ge35  1  0.83942400  0.99690800  0.50000000  1
  Ge  Ge36  1  0.33942400  0.50309200  0.50000000  1
  Ge  Ge37  1  0.66057600  0.49690800  0.50000000  1
