# generated using pymatgen
data_Zn(BrO6)2
_symmetry_space_group_name_H-M   'P 1'
_cell_length_a   9.57972400
_cell_length_b   9.57972400
_cell_length_c   9.57972400
_cell_angle_alpha   90.00000000
_cell_angle_beta   90.00000000
_cell_angle_gamma   90.00000000
_symmetry_Int_Tables_number   1
_chemical_formula_structural   Zn(BrO6)2
_chemical_formula_sum   'Zn4 Br8 O48'
_cell_volume   879.14192333
_cell_formula_units_Z   4
loop_
 _symmetry_equiv_pos_site_id
 _symmetry_equiv_pos_as_xyz
  1  'x, y, z'
loop_
 _atom_site_type_symbol
 _atom_site_label
 _atom_site_symmetry_multiplicity
 _atom_site_fract_x
 _atom_site_fract_y
 _atom_site_fract_z
 _atom_site_occupancy
  Zn  Zn0  1  0.50000000  0.50000000  0.00000000  1
  Zn  Zn1  1  0.50000000  0.00000000  0.50000000  1
  Zn  Zn2  1  0.00000000  0.50000000  0.50000000  1
  Zn  Zn3  1  0.00000000  0.00000000  0.00000000  1
  Br  Br4  1  0.24139200  0.75860800  0.25860800  1
  Br  Br5  1  0.75860800  0.25860800  0.24139200  1
  Br  Br6  1  0.25860800  0.24139200  0.75860800  1
  Br  Br7  1  0.74139200  0.74139200  0.74139200  1
  Br  Br8  1  0.75860800  0.24139200  0.74139200  1
  Br  Br9  1  0.24139200  0.74139200  0.75860800  1
  Br  Br10  1  0.74139200  0.75860800  0.24139200  1
  Br  Br11  1  0.25860800  0.25860800  0.25860800  1
  O  O12  1  0.53946700  0.69782200  0.04681200  1
  O  O13  1  0.46053300  0.19782200  0.45318800  1
  O  O14  1  0.96053300  0.30217800  0.54681200  1
  O  O15  1  0.03946700  0.80217800  0.95318800  1
  O  O16  1  0.04681200  0.53946700  0.69782200  1
  O  O17  1  0.45318800  0.46053300  0.19782200  1
  O  O18  1  0.54681200  0.96053300  0.30217800  1
  O  O19  1  0.95318800  0.03946700  0.80217800  1
  O  O20  1  0.69782200  0.04681200  0.53946700  1
  O  O21  1  0.19782200  0.45318800  0.46053300  1
  O  O22  1  0.30217800  0.54681200  0.96053300  1
  O  O23  1  0.80217800  0.95318800  0.03946700  1
  O  O24  1  0.46053300  0.30217800  0.95318800  1
  O  O25  1  0.53946700  0.80217800  0.54681200  1
  O  O26  1  0.03946700  0.69782200  0.45318800  1
  O  O27  1  0.96053300  0.19782200  0.04681200  1
  O  O28  1  0.95318800  0.46053300  0.30217800  1
  O  O29  1  0.54681200  0.53946700  0.80217800  1
  O  O30  1  0.45318800  0.03946700  0.69782200  1
  O  O31  1  0.04681200  0.96053300  0.19782200  1
  O  O32  1  0.30217800  0.95318800  0.46053300  1
  O  O33  1  0.80217800  0.54681200  0.53946700  1
  O  O34  1  0.69782200  0.45318800  0.03946700  1
  O  O35  1  0.19782200  0.04681200  0.96053300  1
  O  O36  1  0.15901200  0.68235900  0.12021300  1
  O  O37  1  0.84098800  0.18235900  0.37978700  1
  O  O38  1  0.34098800  0.31764100  0.62021300  1
  O  O39  1  0.65901200  0.81764100  0.87978700  1
  O  O40  1  0.12021300  0.15901200  0.68235900  1
  O  O41  1  0.37978700  0.84098800  0.18235900  1
  O  O42  1  0.62021300  0.34098800  0.31764100  1
  O  O43  1  0.87978700  0.65901200  0.81764100  1
  O  O44  1  0.68235900  0.12021300  0.15901200  1
  O  O45  1  0.18235900  0.37978700  0.84098800  1
  O  O46  1  0.31764100  0.62021300  0.34098800  1
  O  O47  1  0.81764100  0.87978700  0.65901200  1
  O  O48  1  0.84098800  0.31764100  0.87978700  1
  O  O49  1  0.15901200  0.81764100  0.62021300  1
  O  O50  1  0.65901200  0.68235900  0.37978700  1
  O  O51  1  0.34098800  0.18235900  0.12021300  1
  O  O52  1  0.87978700  0.84098800  0.31764100  1
  O  O53  1  0.62021300  0.15901200  0.81764100  1
  O  O54  1  0.37978700  0.65901200  0.68235900  1
  O  O55  1  0.12021300  0.34098800  0.18235900  1
  O  O56  1  0.31764100  0.87978700  0.84098800  1
  O  O57  1  0.81764100  0.62021300  0.15901200  1
  O  O58  1  0.68235900  0.37978700  0.65901200  1
  O  O59  1  0.18235900  0.12021300  0.34098800  1
