# generated using pymatgen
data_MoH8(NO2)2
_symmetry_space_group_name_H-M   'P 1'
_cell_length_a   7.94285800
_cell_length_b   6.29084000
_cell_length_c   12.11507408
_cell_angle_alpha   67.84782840
_cell_angle_beta   90.00000000
_cell_angle_gamma   90.00000000
_symmetry_Int_Tables_number   1
_chemical_formula_structural   MoH8(NO2)2
_chemical_formula_sum   'Mo4 H32 N8 O16'
_cell_volume   560.67290531
_cell_formula_units_Z   4
loop_
 _symmetry_equiv_pos_site_id
 _symmetry_equiv_pos_as_xyz
  1  'x, y, z'
loop_
 _atom_site_type_symbol
 _atom_site_label
 _atom_site_symmetry_multiplicity
 _atom_site_fract_x
 _atom_site_fract_y
 _atom_site_fract_z
 _atom_site_occupancy
  Mo  Mo0  1  0.87036700  0.41653400  0.31318700  1
  Mo  Mo1  1  0.62963300  0.41653400  0.81318700  1
  Mo  Mo2  1  0.12963300  0.58346600  0.68681300  1
  Mo  Mo3  1  0.37036700  0.58346600  0.18681300  1
  H  H4  1  0.59534900  0.72548800  0.41435100  1
  H  H5  1  0.90465100  0.72548800  0.91435100  1
  H  H6  1  0.40465100  0.27451200  0.58564900  1
  H  H7  1  0.09534900  0.27451200  0.08564900  1
  H  H8  1  0.52325700  0.73025800  0.54357200  1
  H  H9  1  0.97674300  0.73025800  0.04357200  1
  H  H10  1  0.47674300  0.26974200  0.45642800  1
  H  H11  1  0.02325700  0.26974200  0.95642800  1
  H  H12  1  0.73321000  0.69109400  0.52899500  1
  H  H13  1  0.76679000  0.69109400  0.02899500  1
  H  H14  1  0.26679000  0.30890600  0.47100500  1
  H  H15  1  0.23321000  0.30890600  0.97100500  1
  H  H16  1  0.64743500  0.95078800  0.45281700  1
  H  H17  1  0.85256500  0.95078800  0.95281700  1
  H  H18  1  0.35256500  0.04921200  0.54718300  1
  H  H19  1  0.14743500  0.04921200  0.04718300  1
  H  H20  1  0.72653700  0.21173700  0.15335100  1
  H  H21  1  0.77346300  0.21173700  0.65335100  1
  H  H22  1  0.27346300  0.78826300  0.84664900  1
  H  H23  1  0.22653700  0.78826300  0.34664900  1
  H  H24  1  0.52347600  0.13512600  0.19672200  1
  H  H25  1  0.97652400  0.13512600  0.69672200  1
  H  H26  1  0.47652400  0.86487400  0.80327800  1
  H  H27  1  0.02347600  0.86487400  0.30327800  1
  H  H28  1  0.58370900  0.16028700  0.06051200  1
  H  H29  1  0.91629100  0.16028700  0.56051200  1
  H  H30  1  0.41629100  0.83971300  0.93948800  1
  H  H31  1  0.08370900  0.83971300  0.43948800  1
  H  H32  1  0.66644900  0.94071900  0.18151600  1
  H  H33  1  0.83355100  0.94071900  0.68151600  1
  H  H34  1  0.33355100  0.05928100  0.81848400  1
  H  H35  1  0.16644900  0.05928100  0.31848400  1
  N  N36  1  0.62507700  0.77356300  0.48501200  1
  N  N37  1  0.87492300  0.77356300  0.98501200  1
  N  N38  1  0.37492300  0.22643700  0.51498800  1
  N  N39  1  0.12507700  0.22643700  0.01498800  1
  N  N40  1  0.62439700  0.10989500  0.14795800  1
  N  N41  1  0.87560300  0.10989500  0.64795800  1
  N  N42  1  0.37560300  0.89010500  0.85204200  1
  N  N43  1  0.12439700  0.89010500  0.35204200  1
  O  O44  1  0.83847900  0.72201600  0.26379900  1
  O  O45  1  0.66152100  0.72201600  0.76379900  1
  O  O46  1  0.16152100  0.27798400  0.73620100  1
  O  O47  1  0.33847900  0.27798400  0.23620100  1
  O  O48  1  0.04669800  0.33482100  0.41314400  1
  O  O49  1  0.45330200  0.33482100  0.91314400  1
  O  O50  1  0.95330200  0.66517900  0.58685600  1
  O  O51  1  0.54669800  0.66517900  0.08685600  1
  O  O52  1  0.90849900  0.33522000  0.18768600  1
  O  O53  1  0.59150100  0.33522000  0.68768600  1
  O  O54  1  0.09150100  0.66478000  0.81231400  1
  O  O55  1  0.40849900  0.66478000  0.31231400  1
  O  O56  1  0.68956500  0.25971400  0.39375800  1
  O  O57  1  0.81043500  0.25971400  0.89375800  1
  O  O58  1  0.31043500  0.74028600  0.60624200  1
  O  O59  1  0.18956500  0.74028600  0.10624200  1
