# generated using pymatgen
data_Fe2S3O17
_symmetry_space_group_name_H-M   'P 1'
_cell_length_a   11.64152100
_cell_length_b   5.53014900
_cell_length_c   10.92319023
_cell_angle_alpha   84.89757921
_cell_angle_beta   90.00000000
_cell_angle_gamma   90.00000000
_symmetry_Int_Tables_number   1
_chemical_formula_structural   Fe2S3O17
_chemical_formula_sum   'Fe4 S6 O34'
_cell_volume   700.44116536
_cell_formula_units_Z   2
loop_
 _symmetry_equiv_pos_site_id
 _symmetry_equiv_pos_as_xyz
  1  'x, y, z'
loop_
 _atom_site_type_symbol
 _atom_site_label
 _atom_site_symmetry_multiplicity
 _atom_site_fract_x
 _atom_site_fract_y
 _atom_site_fract_z
 _atom_site_occupancy
  Fe  Fe0  1  0.00000000  0.50000000  0.50000000  1
  Fe  Fe1  1  0.50000000  0.50000000  0.50000000  1
  Fe  Fe2  1  0.75000000  0.11159600  0.12921700  1
  Fe  Fe3  1  0.25000000  0.88840400  0.87078300  1
  S  S4  1  0.75000000  0.80590900  0.40198600  1
  S  S5  1  0.25000000  0.19409100  0.59801400  1
  S  S6  1  0.50668100  0.32364100  0.22470800  1
  S  S7  1  0.00668100  0.67635900  0.77529200  1
  S  S8  1  0.49331900  0.67635900  0.77529200  1
  S  S9  1  0.99331900  0.32364100  0.22470800  1
  O  O10  1  0.75000000  0.02422100  0.46559700  1
  O  O11  1  0.25000000  0.97577900  0.53440300  1
  O  O12  1  0.75000000  0.85371100  0.26372000  1
  O  O13  1  0.25000000  0.14628900  0.73628000  1
  O  O14  1  0.00898000  0.29101000  0.36392500  1
  O  O15  1  0.50898000  0.70899000  0.63607500  1
  O  O16  1  0.99102000  0.70899000  0.63607500  1
  O  O17  1  0.49102000  0.29101000  0.36392500  1
  O  O18  1  0.44642700  0.12290100  0.17485100  1
  O  O19  1  0.94642700  0.87709900  0.82514900  1
  O  O20  1  0.55357300  0.87709900  0.82514900  1
  O  O21  1  0.05357300  0.12290100  0.17485100  1
  O  O22  1  0.46358300  0.55984000  0.17340300  1
  O  O23  1  0.96358300  0.44016000  0.82659700  1
  O  O24  1  0.53641700  0.44016000  0.82659700  1
  O  O25  1  0.03641700  0.55984000  0.17340300  1
  O  O26  1  0.64872800  0.64650300  0.43105100  1
  O  O27  1  0.14872800  0.35349700  0.56894900  1
  O  O28  1  0.35127200  0.35349700  0.56894900  1
  O  O29  1  0.85127200  0.64650300  0.43105100  1
  O  O30  1  0.86492600  0.31293100  0.20394600  1
  O  O31  1  0.36492600  0.68706900  0.79605400  1
  O  O32  1  0.13507400  0.68706900  0.79605400  1
  O  O33  1  0.63507400  0.31293100  0.20394600  1
  O  O34  1  0.07821200  0.74711300  0.40982000  1
  O  O35  1  0.57821200  0.25288700  0.59018000  1
  O  O36  1  0.92178800  0.25288700  0.59018000  1
  O  O37  1  0.42178800  0.74711300  0.40982000  1
  O  O38  1  0.75000000  0.26355000  0.97959900  1
  O  O39  1  0.25000000  0.73645000  0.02040100  1
  O  O40  1  0.65658000  0.94120800  0.04251900  1
  O  O41  1  0.15658000  0.05879200  0.95748100  1
  O  O42  1  0.34342000  0.05879200  0.95748100  1
  O  O43  1  0.84342000  0.94120800  0.04251900  1
