# generated using pymatgen
data_CoH18Br2N6ClO3
_symmetry_space_group_name_H-M   'P 1'
_cell_length_a   7.66636600
_cell_length_b   12.39632600
_cell_length_c   14.02336939
_cell_angle_alpha   71.95169976
_cell_angle_beta   90.00000000
_cell_angle_gamma   90.00000000
_symmetry_Int_Tables_number   1
_chemical_formula_structural   CoH18Br2N6ClO3
_chemical_formula_sum   'Co4 H72 Br8 N24 Cl4 O12'
_cell_volume   1267.13273484
_cell_formula_units_Z   4
loop_
 _symmetry_equiv_pos_site_id
 _symmetry_equiv_pos_as_xyz
  1  'x, y, z'
loop_
 _atom_site_type_symbol
 _atom_site_label
 _atom_site_symmetry_multiplicity
 _atom_site_fract_x
 _atom_site_fract_y
 _atom_site_fract_z
 _atom_site_occupancy
  Co  Co0  1  0.00000000  0.00000000  0.00000000  1
  Co  Co1  1  0.50000000  0.50000000  0.00000000  1
  Co  Co2  1  0.50000000  0.00000000  0.50000000  1
  Co  Co3  1  0.00000000  0.50000000  0.50000000  1
  H  H4  1  0.13784600  0.88979400  0.16821600  1
  H  H5  1  0.63784600  0.61020600  0.83178400  1
  H  H6  1  0.86215400  0.11020600  0.83178400  1
  H  H7  1  0.36215400  0.38979400  0.16821600  1
  H  H8  1  0.29423200  0.93428300  0.08417900  1
  H  H9  1  0.79423200  0.56571700  0.91582100  1
  H  H10  1  0.70576800  0.06571700  0.91582100  1
  H  H11  1  0.20576800  0.43428300  0.08417900  1
  H  H12  1  0.17648900  0.82140500  0.08756900  1
  H  H13  1  0.67648900  0.67859500  0.91243100  1
  H  H14  1  0.82351100  0.17859500  0.91243100  1
  H  H15  1  0.32351100  0.32140500  0.08756900  1
  H  H16  1  0.87510300  0.08156700  0.13028700  1
  H  H17  1  0.37510300  0.41843300  0.86971300  1
  H  H18  1  0.12489700  0.91843300  0.86971300  1
  H  H19  1  0.62489700  0.58156700  0.13028700  1
  H  H20  1  0.98860200  0.18161000  0.04684300  1
  H  H21  1  0.48860200  0.31839000  0.95315700  1
  H  H22  1  0.01139800  0.81839000  0.95315700  1
  H  H23  1  0.51139800  0.68161000  0.04684300  1
  H  H24  1  0.08932700  0.08564100  0.13914200  1
  H  H25  1  0.58932700  0.41435900  0.86085800  1
  H  H26  1  0.91067300  0.91435900  0.86085800  1
  H  H27  1  0.41067300  0.58564100  0.13914200  1
  H  H28  1  0.21173500  0.16620500  0.94392400  1
  H  H29  1  0.71173500  0.33379500  0.05607600  1
  H  H30  1  0.78826500  0.83379500  0.05607600  1
  H  H31  1  0.28826500  0.66620500  0.94392400  1
  H  H32  1  0.16380700  0.12122800  0.84657300  1
  H  H33  1  0.66380700  0.37877200  0.15342700  1
  H  H34  1  0.83619300  0.87877200  0.15342700  1
  H  H35  1  0.33619300  0.62122800  0.84657300  1
  H  H36  1  0.30724400  0.05137400  0.93144600  1
  H  H37  1  0.80724400  0.44862600  0.06855400  1
  H  H38  1  0.69275600  0.94862600  0.06855400  1
  H  H39  1  0.19275600  0.55137400  0.93144600  1
  H  H40  1  0.68450300  0.02006300  0.34246800  1
  H  H41  1  0.18450300  0.47993700  0.65753200  1
  H  H42  1  0.31549700  0.97993700  0.65753200  1
  H  H43  1  0.81549700  0.52006300  0.34246800  1
  H  H44  1  0.61825700  0.14834900  0.34297500  1
  H  H45  1  0.11825700  0.35165100  0.65702500  1
  H  H46  1  0.38174300  0.85165100  0.65702500  1
  H  H47  1  0.88174300  0.64834900  0.34297500  1
  H  H48  1  0.48694600  0.06556500  0.30590700  1
  H  H49  1  0.98694600  0.43443500  0.69409300  1
  H  H50  1  0.51305400  0.93443500  0.69409300  1
  H  H51  1  0.01305400  0.56556500  0.30590700  1
  H  H52  1  0.43149800  0.21284200  0.43242000  1
  H  H53  1  0.93149800  0.28715800  0.56758000  1
  H  H54  1  0.56850200  0.78715800  0.56758000  1
  H  H55  1  0.06850200  0.71284200  0.43242000  1
  H  H56  1  0.41344900  0.17003400  0.55546100  1
  H  H57  1  0.91344900  0.32996600  0.44453900  1
  H  H58  1  0.58655100  0.82996600  0.44453900  1
  H  H59  1  0.08655100  0.67003400  0.55546100  1
  H  H60  1  0.25455000  0.14362100  0.48730300  1
  H  H61  1  0.75455000  0.35637900  0.51269700  1
  H  H62  1  0.74545000  0.85637900  0.51269700  1
  H  H63  1  0.24545000  0.64362100  0.48730300  1
  H  H64  1  0.80753600  0.08842000  0.49384100  1
  H  H65  1  0.30753600  0.41158000  0.50615900  1
  H  H66  1  0.19246400  0.91158000  0.50615900  1
  H  H67  1  0.69246400  0.58842000  0.49384100  1
  H  H68  1  0.78513700  0.98252000  0.59828100  1
  H  H69  1  0.28513700  0.51748000  0.40171900  1
  H  H70  1  0.21486300  0.01748000  0.40171900  1
  H  H71  1  0.71486300  0.48252000  0.59828100  1
  H  H72  1  0.69575000  0.10445200  0.59031300  1
  H  H73  1  0.19575000  0.39554800  0.40968700  1
  H  H74  1  0.30425000  0.89554800  0.40968700  1
  H  H75  1  0.80425000  0.60445200  0.59031300  1
  Br  Br76  1  0.58457300  0.37309900  0.31726800  1
  Br  Br77  1  0.08457300  0.12690100  0.68273200  1
  Br  Br78  1  0.41542700  0.62690100  0.68273200  1
  Br  Br79  1  0.91542700  0.87309900  0.31726800  1
  Br  Br80  1  0.01740900  0.36606100  0.91824800  1
  Br  Br81  1  0.51740900  0.13393900  0.08175200  1
  Br  Br82  1  0.98259100  0.63393900  0.08175200  1
  Br  Br83  1  0.48259100  0.86606100  0.91824800  1
  N  N84  1  0.17002700  0.90147000  0.09414400  1
  N  N85  1  0.67002700  0.59853000  0.90585600  1
  N  N86  1  0.82997300  0.09853000  0.90585600  1
  N  N87  1  0.32997300  0.40147000  0.09414400  1
  N  N88  1  0.98815300  0.09659400  0.08897400  1
  N  N89  1  0.48815300  0.40340600  0.91102600  1
  N  N90  1  0.01184700  0.90340600  0.91102600  1
  N  N91  1  0.51184700  0.59659400  0.08897400  1
  N  N92  1  0.19110900  0.09517100  0.92288500  1
  N  N93  1  0.69110900  0.40482900  0.07711500  1
  N  N94  1  0.80889100  0.90482900  0.07711500  1
  N  N95  1  0.30889100  0.59517100  0.92288500  1
  N  N96  1  0.58072100  0.06483100  0.35842500  1
  N  N97  1  0.08072100  0.43516900  0.64157500  1
  N  N98  1  0.41927900  0.93516900  0.64157500  1
  N  N99  1  0.91927900  0.56483100  0.35842500  1
  N  N100  1  0.38826500  0.14642000  0.49287500  1
  N  N101  1  0.88826500  0.35358000  0.50712500  1
  N  N102  1  0.61173500  0.85358000  0.50712500  1
  N  N103  1  0.11173500  0.64642000  0.49287500  1
  N  N104  1  0.71944400  0.04962700  0.54965900  1
  N  N105  1  0.21944400  0.45037300  0.45034100  1
  N  N106  1  0.28055600  0.95037300  0.45034100  1
  N  N107  1  0.78055600  0.54962700  0.54965900  1
  Cl  Cl108  1  0.02838000  0.22926400  0.29499900  1
  Cl  Cl109  1  0.52838000  0.27073600  0.70500100  1
  Cl  Cl110  1  0.97162000  0.77073600  0.70500100  1
  Cl  Cl111  1  0.47162000  0.72926400  0.29499900  1
  O  O112  1  0.08006900  0.34670800  0.29321200  1
  O  O113  1  0.58006900  0.15329200  0.70678800  1
  O  O114  1  0.91993100  0.65329200  0.70678800  1
  O  O115  1  0.41993100  0.84670800  0.29321200  1
  O  O116  1  0.18215600  0.17498800  0.26139600  1
  O  O117  1  0.68215600  0.32501200  0.73860400  1
  O  O118  1  0.81784400  0.82501200  0.73860400  1
  O  O119  1  0.31784400  0.67498800  0.26139600  1
  O  O120  1  0.99621800  0.16197700  0.40437900  1
  O  O121  1  0.49621800  0.33802300  0.59562100  1
  O  O122  1  0.00378200  0.83802300  0.59562100  1
  O  O123  1  0.50378200  0.66197700  0.40437900  1
