# generated using pymatgen
data_HfMg14AlO16
_symmetry_space_group_name_H-M   'P 1'
_cell_length_a   4.29650800
_cell_length_b   8.63041800
_cell_length_c   8.64905000
_cell_angle_alpha   90.00000000
_cell_angle_beta   90.00000000
_cell_angle_gamma   90.00000000
_symmetry_Int_Tables_number   1
_chemical_formula_structural   HfMg14AlO16
_chemical_formula_sum   'Hf1 Mg14 Al1 O16'
_cell_volume   320.71248220
_cell_formula_units_Z   1
loop_
 _symmetry_equiv_pos_site_id
 _symmetry_equiv_pos_as_xyz
  1  'x, y, z'
loop_
 _atom_site_type_symbol
 _atom_site_label
 _atom_site_symmetry_multiplicity
 _atom_site_fract_x
 _atom_site_fract_y
 _atom_site_fract_z
 _atom_site_occupancy
  Hf  Hf0  1  0.00000000  0.50000000  0.00000000  1
  Mg  Mg1  1  0.00000000  0.00000000  0.50000000  1
  Mg  Mg2  1  0.00000000  0.50000000  0.50000000  1
  Mg  Mg3  1  0.50000000  0.75506700  0.00000000  1
  Mg  Mg4  1  0.50000000  0.24493300  0.00000000  1
  Mg  Mg5  1  0.50000000  0.75025300  0.50000000  1
  Mg  Mg6  1  0.50000000  0.24974700  0.50000000  1
  Mg  Mg7  1  0.50000000  0.00000000  0.74788300  1
  Mg  Mg8  1  0.50000000  0.50000000  0.74259900  1
  Mg  Mg9  1  0.50000000  0.00000000  0.25211700  1
  Mg  Mg10  1  0.50000000  0.50000000  0.25740100  1
  Mg  Mg11  1  0.00000000  0.75004200  0.74694800  1
  Mg  Mg12  1  0.00000000  0.24995800  0.74694800  1
  Mg  Mg13  1  0.00000000  0.75004200  0.25305200  1
  Mg  Mg14  1  0.00000000  0.24995800  0.25305200  1
  Al  Al15  1  0.00000000  0.00000000  0.00000000  1
  O  O16  1  0.00000000  0.00000000  0.76231400  1
  O  O17  1  0.00000000  0.50000000  0.73559400  1
  O  O18  1  0.00000000  0.00000000  0.23768600  1
  O  O19  1  0.00000000  0.50000000  0.26440600  1
  O  O20  1  0.50000000  0.75108500  0.74917100  1
  O  O21  1  0.50000000  0.24891500  0.74917100  1
  O  O22  1  0.50000000  0.75108500  0.25082900  1
  O  O23  1  0.50000000  0.24891500  0.25082900  1
  O  O24  1  0.50000000  0.00000000  0.00000000  1
  O  O25  1  0.50000000  0.50000000  0.00000000  1
  O  O26  1  0.50000000  0.00000000  0.50000000  1
  O  O27  1  0.50000000  0.50000000  0.50000000  1
  O  O28  1  0.00000000  0.78199500  0.00000000  1
  O  O29  1  0.00000000  0.21800500  0.00000000  1
  O  O30  1  0.00000000  0.75470300  0.50000000  1
  O  O31  1  0.00000000  0.24529700  0.50000000  1
