# generated using pymatgen
data_HC2N3
_symmetry_space_group_name_H-M   'P 1'
_cell_length_a   8.36245183
_cell_length_b   9.52726512
_cell_length_c   12.63658646
_cell_angle_alpha   89.96086998
_cell_angle_beta   89.94020996
_cell_angle_gamma   116.84659688
_symmetry_Int_Tables_number   1
_chemical_formula_structural   HC2N3
_chemical_formula_sum   'H12 C24 N36'
_cell_volume   898.26078932
_cell_formula_units_Z   12
loop_
 _symmetry_equiv_pos_site_id
 _symmetry_equiv_pos_as_xyz
  1  'x, y, z'
loop_
 _atom_site_type_symbol
 _atom_site_label
 _atom_site_symmetry_multiplicity
 _atom_site_fract_x
 _atom_site_fract_y
 _atom_site_fract_z
 _atom_site_occupancy
  H  H0  1  0.40138900  0.84267700  0.95051700  1
  H  H1  1  0.32988600  0.74782300  0.82458600  1
  H  H2  1  0.59971100  0.15523600  0.05673900  1
  H  H3  1  0.66981100  0.24960800  0.18264100  1
  H  H4  1  0.34944100  0.76401400  0.61413500  1
  H  H5  1  0.64809500  0.23598200  0.39566000  1
  H  H6  1  0.10151200  0.16011100  0.44585700  1
  H  H7  1  0.16928700  0.24809400  0.31794400  1
  H  H8  1  0.90207600  0.84839700  0.55701200  1
  H  H9  1  0.83068000  0.75065300  0.68210100  1
  H  H10  1  0.15006700  0.23520400  0.11234400  1
  H  H11  1  0.84978600  0.76004100  0.89495700  1
  C  C12  1  0.14975000  0.32471500  0.96633000  1
  C  C13  1  0.03324600  0.14772600  0.83108400  1
  C  C14  1  0.17180000  0.43246400  0.80386600  1
  C  C15  1  0.08892800  0.25861100  0.65216400  1
  C  C16  1  0.22644200  0.52518900  0.63342600  1
  C  C17  1  0.35097000  0.67697000  0.46637600  1
  C  C18  1  0.46720400  0.85302600  0.33047300  1
  C  C19  1  0.27366600  0.47491300  0.13399000  1
  C  C20  1  0.41131700  0.74165600  0.15209800  1
  C  C21  1  0.54744300  0.00800000  0.18107900  1
  C  C22  1  0.45189400  0.98944400  0.82641700  1
  C  C23  1  0.58863800  0.25525200  0.85646200  1
  C  C24  1  0.72633000  0.52158500  0.87530400  1
  C  C25  1  0.53049900  0.14545900  0.67763100  1
  C  C26  1  0.66974300  0.43012800  0.70514300  1
  C  C27  1  0.64649000  0.32316400  0.54268500  1
  C  C28  1  0.77184000  0.47475600  0.37558800  1
  C  C29  1  0.90964300  0.74148700  0.35609900  1
  C  C30  1  0.82814400  0.56599800  0.20496500  1
  C  C31  1  0.96724300  0.85019500  0.17662400  1
  C  C32  1  0.85118500  0.67277600  0.04209900  1
  C  C33  1  0.95295100  0.99270300  0.68208500  1
  C  C34  1  0.32829700  0.56785200  0.30416700  1
  C  C35  1  0.04685300  0.00708600  0.32459600  1
  N  N36  1  0.19626000  0.45468700  0.90743400  1
  N  N37  1  0.06459800  0.17386900  0.93466400  1
  N  N38  1  0.09330400  0.28000900  0.76244000  1
  N  N39  1  0.22922300  0.55594800  0.73831900  1
  N  N40  1  0.02109100  0.11603500  0.61259000  1
  N  N41  1  0.15904000  0.38433000  0.58803800  1
  N  N42  1  0.30820100  0.66023900  0.57296400  1
  N  N43  1  0.30409400  0.54661000  0.40797900  1
  N  N44  1  0.43615700  0.82758000  0.43429700  1
  N  N45  1  0.54578300  0.99671500  0.28903400  1
  N  N46  1  0.40704800  0.72047100  0.26239700  1
  N  N47  1  0.27088200  0.44421000  0.23898900  1
  N  N48  1  0.19210800  0.34054200  0.07293900  1
  N  N49  1  0.34122900  0.61602600  0.08843600  1
  N  N50  1  0.47926600  0.88447000  0.11203500  1
  N  N51  1  0.61599100  0.14969700  0.13695500  1
  N  N52  1  0.38398900  0.84764600  0.87036700  1
  N  N53  1  0.52120300  0.11232100  0.89587800  1
  N  N54  1  0.65979100  0.38029600  0.92064300  1
  N  N55  1  0.80843100  0.65586100  0.93575300  1
  N  N56  1  0.45188700  0.00124500  0.71855400  1
  N  N57  1  0.59145500  0.27727600  0.74637900  1
  N  N58  1  0.72791900  0.55316100  0.77063400  1
  N  N59  1  0.56106300  0.17217200  0.57404500  1
  N  N60  1  0.69332300  0.45291800  0.60150500  1
  N  N61  1  0.68952400  0.34021600  0.43619600  1
  N  N62  1  0.83838100  0.61615500  0.42059000  1
  N  N63  1  0.97741000  0.88463300  0.39489700  1
  N  N64  1  0.77040100  0.44308500  0.27097200  1
  N  N65  1  0.90621500  0.71870500  0.24597600  1
  N  N66  1  0.80438200  0.54303100  0.10147700  1
  N  N67  1  0.93657800  0.82356800  0.07315700  1
  N  N68  1  0.04630700  0.99426400  0.21683600  1
  N  N69  1  0.88482200  0.85160000  0.63736700  1
  N  N70  1  0.95447800  0.00379200  0.79003400  1
  N  N71  1  0.11605800  0.15012100  0.36608500  1
