# generated using pymatgen
data_ZnH7C3NO7
_symmetry_space_group_name_H-M   'P 1'
_cell_length_a   7.77668300
_cell_length_b   7.77797400
_cell_length_c   13.46625200
_cell_angle_alpha   90.00000000
_cell_angle_beta   90.00000000
_cell_angle_gamma   90.00000000
_symmetry_Int_Tables_number   1
_chemical_formula_structural   ZnH7C3NO7
_chemical_formula_sum   'Zn4 H28 C12 N4 O28'
_cell_volume   814.53100562
_cell_formula_units_Z   4
loop_
 _symmetry_equiv_pos_site_id
 _symmetry_equiv_pos_as_xyz
  1  'x, y, z'
loop_
 _atom_site_type_symbol
 _atom_site_label
 _atom_site_symmetry_multiplicity
 _atom_site_fract_x
 _atom_site_fract_y
 _atom_site_fract_z
 _atom_site_occupancy
  Zn  Zn0  1  0.45056500  0.99521400  0.41799200  1
  Zn  Zn1  1  0.04943500  0.00478600  0.91799200  1
  Zn  Zn2  1  0.95056500  0.50478600  0.58200800  1
  Zn  Zn3  1  0.54943500  0.49521400  0.08200800  1
  H  H4  1  0.45134800  0.67249000  0.27642300  1
  H  H5  1  0.04865200  0.32751000  0.77642300  1
  H  H6  1  0.95134800  0.82751000  0.72357700  1
  H  H7  1  0.54865200  0.17249000  0.22357700  1
  H  H8  1  0.63447300  0.27831000  0.54296400  1
  H  H9  1  0.86552700  0.72169000  0.04296400  1
  H  H10  1  0.13447300  0.22169000  0.45703600  1
  H  H11  1  0.36552700  0.77831000  0.95703600  1
  H  H12  1  0.76769000  0.77440800  0.46889500  1
  H  H13  1  0.73231000  0.22559200  0.96889500  1
  H  H14  1  0.26769000  0.72559200  0.53110500  1
  H  H15  1  0.23231000  0.27440800  0.03110500  1
  H  H16  1  0.79928400  0.97437200  0.29028400  1
  H  H17  1  0.70071600  0.02562800  0.79028400  1
  H  H18  1  0.29928400  0.52562800  0.70971600  1
  H  H19  1  0.20071600  0.47437200  0.20971600  1
  H  H20  1  0.90844100  0.77000400  0.22467600  1
  H  H21  1  0.59155900  0.22999600  0.72467600  1
  H  H22  1  0.40844100  0.72999600  0.77532400  1
  H  H23  1  0.09155900  0.27000400  0.27532400  1
  H  H24  1  0.09226800  0.82773600  0.28867200  1
  H  H25  1  0.40773200  0.17226400  0.78867200  1
  H  H26  1  0.59226800  0.67226400  0.71132800  1
  H  H27  1  0.90773200  0.32773600  0.21132800  1
  H  H28  1  0.05961400  0.88881700  0.16612000  1
  H  H29  1  0.44038600  0.11118300  0.66612000  1
  H  H30  1  0.55961400  0.61118300  0.83388000  1
  H  H31  1  0.94038600  0.38881700  0.33388000  1
  C  C32  1  0.57788700  0.73048000  0.26142300  1
  C  C33  1  0.92211300  0.26952000  0.76142300  1
  C  C34  1  0.07788700  0.76952000  0.73857700  1
  C  C35  1  0.42211300  0.23048000  0.23857700  1
  C  C36  1  0.70783900  0.26943200  0.47289800  1
  C  C37  1  0.79216100  0.73056800  0.97289800  1
  C  C38  1  0.20783900  0.23056800  0.52710200  1
  C  C39  1  0.29216100  0.76943200  0.02710200  1
  C  C40  1  0.68614100  0.76591800  0.53584100  1
  C  C41  1  0.81385900  0.23408200  0.03584100  1
  C  C42  1  0.18614100  0.73408200  0.46415900  1
  C  C43  1  0.31385900  0.26591800  0.96415900  1
  N  N44  1  0.00074300  0.86543800  0.23496700  1
  N  N45  1  0.49925700  0.13456200  0.73496700  1
  N  N46  1  0.50074300  0.63456200  0.76503300  1
  N  N47  1  0.99925700  0.36543800  0.26503300  1
  O  O48  1  0.61688400  0.86560800  0.31083200  1
  O  O49  1  0.88311600  0.13439200  0.81083200  1
  O  O50  1  0.11688400  0.63439200  0.68916800  1
  O  O51  1  0.38311600  0.36560800  0.18916800  1
  O  O52  1  0.67582700  0.66072200  0.19781300  1
  O  O53  1  0.82417300  0.33927800  0.69781300  1
  O  O54  1  0.17582700  0.83927800  0.80218700  1
  O  O55  1  0.32417300  0.16072200  0.30218700  1
  O  O56  1  0.65728100  0.16585200  0.40704000  1
  O  O57  1  0.84271900  0.83414800  0.90704000  1
  O  O58  1  0.15728100  0.33414800  0.59296000  1
  O  O59  1  0.34271900  0.66585200  0.09296000  1
  O  O60  1  0.83880200  0.36673500  0.46307600  1
  O  O61  1  0.66119800  0.63326500  0.96307600  1
  O  O62  1  0.33880200  0.13326500  0.53692400  1
  O  O63  1  0.16119800  0.86673500  0.03692400  1
  O  O64  1  0.54763100  0.84948500  0.53901100  1
  O  O65  1  0.95236900  0.15051500  0.03901100  1
  O  O66  1  0.04763100  0.65051500  0.46098900  1
  O  O67  1  0.45236900  0.34948500  0.96098900  1
  O  O68  1  0.73989200  0.66973200  0.60680500  1
  O  O69  1  0.76010800  0.33026800  0.10680500  1
  O  O70  1  0.23989200  0.83026800  0.39319500  1
  O  O71  1  0.26010800  0.16973200  0.89319500  1
  O  O72  1  0.91761500  0.01630000  0.26995400  1
  O  O73  1  0.58238500  0.98370000  0.76995400  1
  O  O74  1  0.41761500  0.48370000  0.73004600  1
  O  O75  1  0.08238500  0.51630000  0.23004600  1
