# generated using pymatgen
data_LaNb2CuClO7
_symmetry_space_group_name_H-M   'P 1'
_cell_length_a   7.89044500
_cell_length_b   7.90240600
_cell_length_c   11.83527100
_cell_angle_alpha   90.00000000
_cell_angle_beta   90.00000000
_cell_angle_gamma   90.00000000
_symmetry_Int_Tables_number   1
_chemical_formula_structural   LaNb2CuClO7
_chemical_formula_sum   'La4 Nb8 Cu4 Cl4 O28'
_cell_volume   737.97056924
_cell_formula_units_Z   4
loop_
 _symmetry_equiv_pos_site_id
 _symmetry_equiv_pos_as_xyz
  1  'x, y, z'
loop_
 _atom_site_type_symbol
 _atom_site_label
 _atom_site_symmetry_multiplicity
 _atom_site_fract_x
 _atom_site_fract_y
 _atom_site_fract_z
 _atom_site_occupancy
  La  La0  1  0.99999700  0.23756400  0.00000000  1
  La  La1  1  0.00000300  0.76243600  0.00000000  1
  La  La2  1  0.49999700  0.26243600  0.00000000  1
  La  La3  1  0.50000300  0.73756400  0.00000000  1
  Nb  Nb4  1  0.75202400  0.49997600  0.19052300  1
  Nb  Nb5  1  0.24797600  0.50002400  0.19052300  1
  Nb  Nb6  1  0.25202400  0.00002400  0.80947700  1
  Nb  Nb7  1  0.74797600  0.99997600  0.80947700  1
  Nb  Nb8  1  0.24797600  0.50002400  0.80947700  1
  Nb  Nb9  1  0.75202400  0.49997600  0.80947700  1
  Nb  Nb10  1  0.74797600  0.99997600  0.19052300  1
  Nb  Nb11  1  0.25202400  0.00002400  0.19052300  1
  Cu  Cu12  1  0.77075600  0.49249300  0.50000000  1
  Cu  Cu13  1  0.22924400  0.50750700  0.50000000  1
  Cu  Cu14  1  0.27075600  0.00750700  0.50000000  1
  Cu  Cu15  1  0.72924400  0.99249300  0.50000000  1
  Cl  Cl16  1  0.91628300  0.22902900  0.50000000  1
  Cl  Cl17  1  0.08371700  0.77097100  0.50000000  1
  Cl  Cl18  1  0.41628300  0.27097100  0.50000000  1
  Cl  Cl19  1  0.58371700  0.72902900  0.50000000  1
  O  O20  1  0.00000000  0.50000000  0.13403000  1
  O  O21  1  0.50000000  0.00000000  0.86597000  1
  O  O22  1  0.00000000  0.50000000  0.86597000  1
  O  O23  1  0.50000000  0.00000000  0.13403000  1
  O  O24  1  0.50000000  0.50000000  0.18391900  1
  O  O25  1  0.00000000  0.00000000  0.81608100  1
  O  O26  1  0.50000000  0.50000000  0.81608100  1
  O  O27  1  0.00000000  0.00000000  0.18391900  1
  O  O28  1  0.74980200  0.24991500  0.15235500  1
  O  O29  1  0.25019800  0.75008500  0.15235500  1
  O  O30  1  0.24980200  0.25008500  0.84764500  1
  O  O31  1  0.75019800  0.74991500  0.84764500  1
  O  O32  1  0.25019800  0.75008500  0.84764500  1
  O  O33  1  0.74980200  0.24991500  0.84764500  1
  O  O34  1  0.75019800  0.74991500  0.15235500  1
  O  O35  1  0.24980200  0.25008500  0.15235500  1
  O  O36  1  0.69950800  0.49987000  0.00000000  1
  O  O37  1  0.30049200  0.50013000  0.00000000  1
  O  O38  1  0.19950800  0.00013000  0.00000000  1
  O  O39  1  0.80049200  0.99987000  0.00000000  1
  O  O40  1  0.78200100  0.49905500  0.34202600  1
  O  O41  1  0.21799900  0.50094500  0.34202600  1
  O  O42  1  0.28200100  0.00094500  0.65797400  1
  O  O43  1  0.71799900  0.99905500  0.65797400  1
  O  O44  1  0.21799900  0.50094500  0.65797400  1
  O  O45  1  0.78200100  0.49905500  0.65797400  1
  O  O46  1  0.71799900  0.99905500  0.34202600  1
  O  O47  1  0.28200100  0.00094500  0.34202600  1
