# generated using pymatgen
data_CaHgC4S4N4O3
_symmetry_space_group_name_H-M   'P 1'
_cell_length_a   23.39792800
_cell_length_b   7.34608700
_cell_length_c   9.76813641
_cell_angle_alpha   87.89343637
_cell_angle_beta   90.00000000
_cell_angle_gamma   90.00000000
_symmetry_Int_Tables_number   1
_chemical_formula_structural   CaHgC4S4N4O3
_chemical_formula_sum   'Ca4 Hg4 C16 S16 N16 O12'
_cell_volume   1677.84401628
_cell_formula_units_Z   4
loop_
 _symmetry_equiv_pos_site_id
 _symmetry_equiv_pos_as_xyz
  1  'x, y, z'
loop_
 _atom_site_type_symbol
 _atom_site_label
 _atom_site_symmetry_multiplicity
 _atom_site_fract_x
 _atom_site_fract_y
 _atom_site_fract_z
 _atom_site_occupancy
  Ca  Ca0  1  0.06509900  0.33788400  0.09880500  1
  Ca  Ca1  1  0.56509900  0.16211600  0.90119500  1
  Ca  Ca2  1  0.93490100  0.66211600  0.90119500  1
  Ca  Ca3  1  0.43490100  0.83788400  0.09880500  1
  Hg  Hg4  1  0.66422200  0.61000100  0.38482700  1
  Hg  Hg5  1  0.16422200  0.88999900  0.61517300  1
  Hg  Hg6  1  0.33577800  0.38999900  0.61517300  1
  Hg  Hg7  1  0.83577800  0.11000100  0.38482700  1
  C  C8  1  0.62854100  0.99064100  0.20923500  1
  C  C9  1  0.12854100  0.50935900  0.79076500  1
  C  C10  1  0.37145900  0.00935900  0.79076500  1
  C  C11  1  0.87145900  0.49064100  0.20923500  1
  C  C12  1  0.53127600  0.59528700  0.31397100  1
  C  C13  1  0.03127600  0.90471300  0.68602900  1
  C  C14  1  0.46872400  0.40471300  0.68602900  1
  C  C15  1  0.96872400  0.09528700  0.31397100  1
  C  C16  1  0.65180900  0.48270700  0.06334500  1
  C  C17  1  0.15180900  0.01729300  0.93665500  1
  C  C18  1  0.34819100  0.51729300  0.93665500  1
  C  C19  1  0.84819100  0.98270700  0.06334500  1
  C  C20  1  0.16820300  0.12466000  0.32910000  1
  C  C21  1  0.66820300  0.37534000  0.67090000  1
  C  C22  1  0.83179700  0.87534000  0.67090000  1
  C  C23  1  0.33179700  0.62466000  0.32910000  1
  S  S24  1  0.65064300  0.96786700  0.36788100  1
  S  S25  1  0.15064300  0.53213300  0.63211900  1
  S  S26  1  0.34935700  0.03213300  0.63211900  1
  S  S27  1  0.84935700  0.46786700  0.36788100  1
  S  S28  1  0.06608800  0.05709300  0.59129400  1
  S  S29  1  0.56608800  0.44290700  0.40870600  1
  S  S30  1  0.93391200  0.94290700  0.40870600  1
  S  S31  1  0.43391200  0.55709300  0.59129400  1
  S  S32  1  0.70810400  0.55363600  0.14766000  1
  S  S33  1  0.20810400  0.94636400  0.85234000  1
  S  S34  1  0.29189600  0.44636400  0.85234000  1
  S  S35  1  0.79189600  0.05363600  0.14766000  1
  S  S36  1  0.28646600  0.46716200  0.38460900  1
  S  S37  1  0.78646600  0.03283800  0.61539100  1
  S  S38  1  0.71353400  0.53283800  0.61539100  1
  S  S39  1  0.21353400  0.96716200  0.38460900  1
  N  N40  1  0.61361300  0.01489800  0.09448400  1
  N  N41  1  0.11361300  0.48510200  0.90551600  1
  N  N42  1  0.38638700  0.98510200  0.90551600  1
  N  N43  1  0.88638700  0.51489800  0.09448400  1
  N  N44  1  0.50426500  0.70222900  0.24851100  1
  N  N45  1  0.00426500  0.79777100  0.75148900  1
  N  N46  1  0.49573500  0.29777100  0.75148900  1
  N  N47  1  0.99573500  0.20222900  0.24851100  1
  N  N48  1  0.11329800  0.07214300  0.00131000  1
  N  N49  1  0.61329800  0.42785700  0.99869000  1
  N  N50  1  0.88670200  0.92785700  0.99869000  1
  N  N51  1  0.38670200  0.57214300  0.00131000  1
  N  N52  1  0.13678700  0.23736300  0.28402300  1
  N  N53  1  0.63678700  0.26263700  0.71597700  1
  N  N54  1  0.86321300  0.76263700  0.71597700  1
  N  N55  1  0.36321300  0.73736300  0.28402300  1
  O  O56  1  0.00175400  0.59786600  0.07870000  1
  O  O57  1  0.50175400  0.90213400  0.92130000  1
  O  O58  1  0.99824600  0.40213400  0.92130000  1
  O  O59  1  0.49824600  0.09786600  0.07870000  1
  O  O60  1  0.59028900  0.84761400  0.71939600  1
  O  O61  1  0.09028900  0.65238600  0.28060400  1
  O  O62  1  0.40971100  0.15238600  0.28060400  1
  O  O63  1  0.90971100  0.34761400  0.71939600  1
  O  O64  1  0.63442900  0.85419500  0.78875800  1
  O  O65  1  0.13442900  0.64580500  0.21124200  1
  O  O66  1  0.36557100  0.14580500  0.21124200  1
  O  O67  1  0.86557100  0.35419500  0.78875800  1
