# generated using pymatgen
data_TeH3N(OF)2
_symmetry_space_group_name_H-M   'P 1'
_cell_length_a   6.25755903
_cell_length_b   6.45515300
_cell_length_c   10.69754929
_cell_angle_alpha   90.00000000
_cell_angle_beta   97.55251428
_cell_angle_gamma   90.00000000
_symmetry_Int_Tables_number   1
_chemical_formula_structural   TeH3N(OF)2
_chemical_formula_sum   'Te4 H12 N4 O8 F8'
_cell_volume   428.36281884
_cell_formula_units_Z   4
loop_
 _symmetry_equiv_pos_site_id
 _symmetry_equiv_pos_as_xyz
  1  'x, y, z'
loop_
 _atom_site_type_symbol
 _atom_site_label
 _atom_site_symmetry_multiplicity
 _atom_site_fract_x
 _atom_site_fract_y
 _atom_site_fract_z
 _atom_site_occupancy
  Te  Te0  1  0.26148200  0.55544900  0.36174700  1
  Te  Te1  1  0.76148200  0.94455100  0.86174700  1
  Te  Te2  1  0.73851800  0.44455100  0.63825300  1
  Te  Te3  1  0.23851800  0.05544900  0.13825300  1
  H  H4  1  0.94242500  0.11242300  0.38854900  1
  H  H5  1  0.44242500  0.38757700  0.88854900  1
  H  H6  1  0.05757500  0.88757700  0.61145100  1
  H  H7  1  0.55757500  0.61242300  0.11145100  1
  H  H8  1  0.65424900  0.05108500  0.31809000  1
  H  H9  1  0.15424900  0.44891500  0.81809000  1
  H  H10  1  0.34575100  0.94891500  0.68191000  1
  H  H11  1  0.84575100  0.55108500  0.18191000  1
  H  H12  1  0.81285000  0.53506600  0.41650600  1
  H  H13  1  0.31285000  0.96493400  0.91650600  1
  H  H14  1  0.18715000  0.46493400  0.58349400  1
  H  H15  1  0.68715000  0.03506600  0.08349400  1
  N  N16  1  0.80249400  0.01777500  0.37377500  1
  N  N17  1  0.30249400  0.48222500  0.87377500  1
  N  N18  1  0.19750600  0.98222500  0.62622500  1
  N  N19  1  0.69750600  0.51777500  0.12622500  1
  O  O20  1  0.97134100  0.64550100  0.32723300  1
  O  O21  1  0.47134100  0.85449900  0.82723300  1
  O  O22  1  0.02865900  0.35449900  0.67276700  1
  O  O23  1  0.52865900  0.14550100  0.17276700  1
  O  O24  1  0.70605400  0.44253600  0.45541500  1
  O  O25  1  0.20605400  0.05746400  0.95541500  1
  O  O26  1  0.29394600  0.55746400  0.54458500  1
  O  O27  1  0.79394600  0.94253600  0.04458500  1
  F  F28  1  0.14692600  0.25118600  0.38006100  1
  F  F29  1  0.64692600  0.24881400  0.88006100  1
  F  F30  1  0.85307400  0.74881400  0.61993900  1
  F  F31  1  0.35307400  0.75118600  0.11993900  1
  F  F32  1  0.36332700  0.84848000  0.38248600  1
  F  F33  1  0.86332700  0.65152000  0.88248600  1
  F  F34  1  0.63667300  0.15152000  0.61751400  1
  F  F35  1  0.13667300  0.34848000  0.11751400  1
