# generated using pymatgen
data_FeH12C8S2(N3O)2
_symmetry_space_group_name_H-M   'P 1'
_cell_length_a   8.19786520
_cell_length_b   9.56841362
_cell_length_c   10.51727800
_cell_angle_alpha   90.00000000
_cell_angle_beta   90.00000000
_cell_angle_gamma   96.77857853
_symmetry_Int_Tables_number   1
_chemical_formula_structural   FeH12C8S2(N3O)2
_chemical_formula_sum   'Fe2 H24 C16 S4 N12 O4'
_cell_volume   819.21436883
_cell_formula_units_Z   2
loop_
 _symmetry_equiv_pos_site_id
 _symmetry_equiv_pos_as_xyz
  1  'x, y, z'
loop_
 _atom_site_type_symbol
 _atom_site_label
 _atom_site_symmetry_multiplicity
 _atom_site_fract_x
 _atom_site_fract_y
 _atom_site_fract_z
 _atom_site_occupancy
  Fe  Fe0  1  0.50000000  0.00000000  0.00000000  1
  Fe  Fe1  1  0.00000000  0.50000000  0.50000000  1
  H  H2  1  0.76548600  0.05185600  0.71096800  1
  H  H3  1  0.26548600  0.55185600  0.78903200  1
  H  H4  1  0.23451400  0.94814400  0.28903200  1
  H  H5  1  0.73451400  0.44814400  0.21096800  1
  H  H6  1  0.90683700  0.93940800  0.64894100  1
  H  H7  1  0.40683700  0.43940800  0.85105900  1
  H  H8  1  0.09316300  0.06059200  0.35105900  1
  H  H9  1  0.59316300  0.56059200  0.14894100  1
  H  H10  1  0.96994100  0.06079500  0.77732100  1
  H  H11  1  0.46994100  0.56079500  0.72267900  1
  H  H12  1  0.03005900  0.93920500  0.22267900  1
  H  H13  1  0.53005900  0.43920500  0.27732100  1
  H  H14  1  0.95716100  0.71735900  0.96321700  1
  H  H15  1  0.45716100  0.21735900  0.53678300  1
  H  H16  1  0.04283900  0.28264100  0.03678300  1
  H  H17  1  0.54283900  0.78264100  0.46321700  1
  H  H18  1  0.06695100  0.88830900  0.92360400  1
  H  H19  1  0.56695100  0.38830900  0.57639600  1
  H  H20  1  0.93304900  0.11169100  0.07639600  1
  H  H21  1  0.43304900  0.61169100  0.42360400  1
  H  H22  1  0.02875900  0.75013300  0.80415700  1
  H  H23  1  0.52875900  0.25013300  0.69584300  1
  H  H24  1  0.97124100  0.24986700  0.19584300  1
  H  H25  1  0.47124100  0.74986700  0.30415700  1
  C  C26  1  0.64110500  0.05139000  0.29606400  1
  C  C27  1  0.14110500  0.55139000  0.20393600  1
  C  C28  1  0.35889500  0.94861000  0.70393600  1
  C  C29  1  0.85889500  0.44861000  0.79606400  1
  C  C30  1  0.81052200  0.18545200  0.43310900  1
  C  C31  1  0.31052200  0.68545200  0.06689100  1
  C  C32  1  0.18947800  0.81454800  0.56689100  1
  C  C33  1  0.68947800  0.31454800  0.93310900  1
  C  C34  1  0.86763500  0.99217100  0.73455100  1
  C  C35  1  0.36763500  0.49217100  0.76544900  1
  C  C36  1  0.13236500  0.00782900  0.26544900  1
  C  C37  1  0.63236500  0.50782900  0.23455100  1
  C  C38  1  0.98218000  0.79838500  0.88948100  1
  C  C39  1  0.48218000  0.29838500  0.61051900  1
  C  C40  1  0.01782000  0.20161500  0.11051900  1
  C  C41  1  0.51782000  0.70161500  0.38948100  1
  S  S42  1  0.78951200  0.85854900  0.84772800  1
  S  S43  1  0.28951200  0.35854900  0.65227200  1
  S  S44  1  0.21048800  0.14145100  0.15227200  1
  S  S45  1  0.71048800  0.64145100  0.34772800  1
  N  N46  1  0.56603800  0.02257600  0.20219500  1
  N  N47  1  0.06603800  0.52257600  0.29780500  1
  N  N48  1  0.43396200  0.97742400  0.79780500  1
  N  N49  1  0.93396200  0.47742400  0.70219500  1
  N  N50  1  0.89937200  0.28373900  0.46835400  1
  N  N51  1  0.39937200  0.78373900  0.03164600  1
  N  N52  1  0.10062800  0.71626100  0.53164600  1
  N  N53  1  0.60062800  0.21626100  0.96835400  1
  N  N54  1  0.71655500  0.07089900  0.40423200  1
  N  N55  1  0.21655500  0.57089900  0.09576800  1
  N  N56  1  0.28344500  0.92910100  0.59576800  1
  N  N57  1  0.78344500  0.42910100  0.90423200  1
  O  O58  1  0.74229200  0.93813200  0.96626400  1
  O  O59  1  0.24229200  0.43813200  0.53373600  1
  O  O60  1  0.25770800  0.06186800  0.03373600  1
  O  O61  1  0.75770800  0.56186800  0.46626400  1
