# generated using pymatgen
data_BaV2P4O17
_symmetry_space_group_name_H-M   'P 1'
_cell_length_a   7.85490600
_cell_length_b   9.49695600
_cell_length_c   9.55746980
_cell_angle_alpha   61.47879958
_cell_angle_beta   90.00000000
_cell_angle_gamma   90.00000000
_symmetry_Int_Tables_number   1
_chemical_formula_structural   BaV2P4O17
_chemical_formula_sum   'Ba2 V4 P8 O34'
_cell_volume   626.44012557
_cell_formula_units_Z   2
loop_
 _symmetry_equiv_pos_site_id
 _symmetry_equiv_pos_as_xyz
  1  'x, y, z'
loop_
 _atom_site_type_symbol
 _atom_site_label
 _atom_site_symmetry_multiplicity
 _atom_site_fract_x
 _atom_site_fract_y
 _atom_site_fract_z
 _atom_site_occupancy
  Ba  Ba0  1  0.24429000  0.84707700  0.83671500  1
  Ba  Ba1  1  0.74429000  0.15292300  0.16328500  1
  V  V2  1  0.25797000  0.25363000  0.25591800  1
  V  V3  1  0.75797000  0.74637000  0.74408200  1
  V  V4  1  0.99764200  0.74212800  0.25073900  1
  V  V5  1  0.49764200  0.25787200  0.74926100  1
  P  P6  1  0.07012500  0.91776000  0.47540400  1
  P  P7  1  0.57012500  0.08224000  0.52459600  1
  P  P8  1  0.18018500  0.09095000  0.02356100  1
  P  P9  1  0.68018500  0.90905000  0.97643900  1
  P  P10  1  0.32512000  0.49537500  0.41394300  1
  P  P11  1  0.82512000  0.50462500  0.58605700  1
  P  P12  1  0.94495000  0.51461200  0.07527800  1
  P  P13  1  0.44495000  0.48538800  0.92472200  1
  O  O14  1  0.08407800  0.10609200  0.38283000  1
  O  O15  1  0.58407800  0.89390800  0.61717000  1
  O  O16  1  0.93066300  0.87975300  0.60754400  1
  O  O17  1  0.43066300  0.12024700  0.39245600  1
  O  O18  1  0.23342700  0.83823800  0.55033600  1
  O  O19  1  0.73342700  0.16176200  0.44966400  1
  O  O20  1  0.98598300  0.87350600  0.35261400  1
  O  O21  1  0.48598300  0.12649400  0.64738600  1
  O  O22  1  0.27807700  0.12898400  0.14450400  1
  O  O23  1  0.77807700  0.87101600  0.85549600  1
  O  O24  1  0.01038500  0.17300400  0.97915600  1
  O  O25  1  0.51038500  0.82699600  0.02084400  1
  O  O26  1  0.30657300  0.13354500  0.88131800  1
  O  O27  1  0.80657300  0.86645500  0.11868200  1
  O  O28  1  0.15562500  0.90360300  0.09869900  1
  O  O29  1  0.65562500  0.09639700  0.90130100  1
  O  O30  1  0.01942600  0.63897800  0.12403000  1
  O  O31  1  0.51942600  0.36102200  0.87597000  1
  O  O32  1  0.78272600  0.43630500  0.15432600  1
  O  O33  1  0.28272600  0.56369500  0.84567400  1
  O  O34  1  0.93145600  0.61065700  0.88906800  1
  O  O35  1  0.43145600  0.38934300  0.11093200  1
  O  O36  1  0.08902800  0.38514800  0.11636700  1
  O  O37  1  0.58902800  0.61485200  0.88363300  1
  O  O38  1  0.17702900  0.62069900  0.37685600  1
  O  O39  1  0.67702900  0.37930100  0.62314400  1
  O  O40  1  0.48778600  0.56646000  0.33233600  1
  O  O41  1  0.98778600  0.43354000  0.66766400  1
  O  O42  1  0.24961100  0.36838300  0.36720400  1
  O  O43  1  0.74961100  0.63161700  0.63279600  1
  O  O44  1  0.34345800  0.39937600  0.60199800  1
  O  O45  1  0.84345800  0.60062400  0.39800200  1
  O  O46  1  0.99438700  0.11286600  0.71814400  1
  O  O47  1  0.49438700  0.88713400  0.28185600  1
