# generated using pymatgen
data_ZnSnP14
_symmetry_space_group_name_H-M   'P 1'
_cell_length_a   9.87380400
_cell_length_b   10.63485100
_cell_length_c   12.86020300
_cell_angle_alpha   90.00000000
_cell_angle_beta   90.00000000
_cell_angle_gamma   90.00000000
_symmetry_Int_Tables_number   1
_chemical_formula_structural   ZnSnP14
_chemical_formula_sum   'Zn4 Sn4 P56'
_cell_volume   1350.40406196
_cell_formula_units_Z   4
loop_
 _symmetry_equiv_pos_site_id
 _symmetry_equiv_pos_as_xyz
  1  'x, y, z'
loop_
 _atom_site_type_symbol
 _atom_site_label
 _atom_site_symmetry_multiplicity
 _atom_site_fract_x
 _atom_site_fract_y
 _atom_site_fract_z
 _atom_site_occupancy
  Zn  Zn0  1  0.25000000  0.49574200  0.67864900  1
  Zn  Zn1  1  0.25000000  0.00425800  0.17864900  1
  Zn  Zn2  1  0.75000000  0.50425800  0.32135100  1
  Zn  Zn3  1  0.75000000  0.99574200  0.82135100  1
  Sn  Sn4  1  0.25000000  0.90164200  0.82902000  1
  Sn  Sn5  1  0.25000000  0.59835800  0.32902000  1
  Sn  Sn6  1  0.75000000  0.09835800  0.17098000  1
  Sn  Sn7  1  0.75000000  0.40164200  0.67098000  1
  P  P8  1  0.25000000  0.65654600  0.53504100  1
  P  P9  1  0.25000000  0.84345400  0.03504100  1
  P  P10  1  0.75000000  0.34345400  0.46495900  1
  P  P11  1  0.75000000  0.15654600  0.96495900  1
  P  P12  1  0.25000000  0.28014100  0.94381600  1
  P  P13  1  0.25000000  0.21985900  0.44381700  1
  P  P14  1  0.75000000  0.71985900  0.05618400  1
  P  P15  1  0.75000000  0.78014100  0.55618400  1
  P  P16  1  0.25000000  0.09711200  0.58542300  1
  P  P17  1  0.25000000  0.40288800  0.08542300  1
  P  P18  1  0.75000000  0.90288800  0.41457700  1
  P  P19  1  0.75000000  0.59711200  0.91457700  1
  P  P20  1  0.25000000  0.64404300  0.82518200  1
  P  P21  1  0.25000000  0.85595700  0.32518200  1
  P  P22  1  0.75000000  0.35595700  0.17481800  1
  P  P23  1  0.75000000  0.14404300  0.67481800  1
  P  P24  1  0.07747200  0.14974200  0.97060800  1
  P  P25  1  0.42252800  0.35025800  0.47060800  1
  P  P26  1  0.57747200  0.85025800  0.02939200  1
  P  P27  1  0.92252800  0.64974200  0.52939200  1
  P  P28  1  0.92252800  0.85025800  0.02939200  1
  P  P29  1  0.57747200  0.64974200  0.52939200  1
  P  P30  1  0.42252800  0.14974200  0.97060800  1
  P  P31  1  0.07747200  0.35025800  0.47060800  1
  P  P32  1  0.08273700  0.79009100  0.56783500  1
  P  P33  1  0.41726300  0.70990900  0.06783500  1
  P  P34  1  0.58273700  0.20990900  0.43216500  1
  P  P35  1  0.91726300  0.29009100  0.93216500  1
  P  P36  1  0.91726300  0.20990900  0.43216500  1
  P  P37  1  0.58273700  0.29009100  0.93216500  1
  P  P38  1  0.41726300  0.79009100  0.56783500  1
  P  P39  1  0.08273700  0.70990900  0.06783500  1
  P  P40  1  0.07946800  0.58105100  0.92475600  1
  P  P41  1  0.42053200  0.91894900  0.42475600  1
  P  P42  1  0.57946800  0.41894900  0.07524400  1
  P  P43  1  0.92053200  0.08105100  0.57524400  1
  P  P44  1  0.92053200  0.41894900  0.07524400  1
  P  P45  1  0.57946800  0.08105100  0.57524400  1
  P  P46  1  0.42053200  0.58105100  0.92475600  1
  P  P47  1  0.07946800  0.91894900  0.42475600  1
  P  P48  1  0.07673200  0.16628300  0.67944600  1
  P  P49  1  0.42326800  0.33371700  0.17944600  1
  P  P50  1  0.57673200  0.83371700  0.32055400  1
  P  P51  1  0.92326800  0.66628300  0.82055400  1
  P  P52  1  0.92326800  0.83371700  0.32055400  1
  P  P53  1  0.57673200  0.66628300  0.82055400  1
  P  P54  1  0.42326800  0.16628300  0.67944600  1
  P  P55  1  0.07673200  0.33371700  0.17944600  1
  P  P56  1  0.05066700  0.36673200  0.64033500  1
  P  P57  1  0.44933300  0.13326800  0.14033500  1
  P  P58  1  0.55066700  0.63326800  0.35966500  1
  P  P59  1  0.94933300  0.86673200  0.85966500  1
  P  P60  1  0.94933300  0.63326800  0.35966500  1
  P  P61  1  0.55066700  0.86673200  0.85966500  1
  P  P62  1  0.44933300  0.36673200  0.64033500  1
  P  P63  1  0.05066700  0.13326800  0.14033500  1
