# generated using pymatgen
data_Rb2UMo2O11
_symmetry_space_group_name_H-M   'P 1'
_cell_length_a   8.18704148
_cell_length_b   11.15066000
_cell_length_c   13.81123134
_cell_angle_alpha   90.00000000
_cell_angle_beta   97.01613501
_cell_angle_gamma   90.00000000
_symmetry_Int_Tables_number   1
_chemical_formula_structural   Rb2UMo2O11
_chemical_formula_sum   'Rb8 U4 Mo8 O44'
_cell_volume   1251.39852925
_cell_formula_units_Z   4
loop_
 _symmetry_equiv_pos_site_id
 _symmetry_equiv_pos_as_xyz
  1  'x, y, z'
loop_
 _atom_site_type_symbol
 _atom_site_label
 _atom_site_symmetry_multiplicity
 _atom_site_fract_x
 _atom_site_fract_y
 _atom_site_fract_z
 _atom_site_occupancy
  Rb  Rb0  1  0.76385100  0.07456200  0.62459400  1
  Rb  Rb1  1  0.23614900  0.57456200  0.87540600  1
  Rb  Rb2  1  0.23614900  0.92543800  0.37540600  1
  Rb  Rb3  1  0.76385100  0.42543800  0.12459400  1
  Rb  Rb4  1  0.05619300  0.33511200  0.41628500  1
  Rb  Rb5  1  0.94380700  0.83511200  0.08371500  1
  Rb  Rb6  1  0.94380700  0.66488800  0.58371500  1
  Rb  Rb7  1  0.05619300  0.16488800  0.91628500  1
  U  U8  1  0.52381400  0.26394500  0.35098200  1
  U  U9  1  0.47618600  0.76394500  0.14901800  1
  U  U10  1  0.47618600  0.73605500  0.64901800  1
  U  U11  1  0.52381400  0.23605500  0.85098200  1
  Mo  Mo12  1  0.49292800  0.39573400  0.59349500  1
  Mo  Mo13  1  0.50707200  0.89573400  0.90650500  1
  Mo  Mo14  1  0.50707200  0.60426600  0.40650500  1
  Mo  Mo15  1  0.49292800  0.10426600  0.09349500  1
  Mo  Mo16  1  0.24041000  0.46103400  0.14883300  1
  Mo  Mo17  1  0.75959000  0.96103400  0.35116700  1
  Mo  Mo18  1  0.75959000  0.53896600  0.85116700  1
  Mo  Mo19  1  0.24041000  0.03896600  0.64883300  1
  O  O20  1  0.09079800  0.50167800  0.22564100  1
  O  O21  1  0.90920200  0.00167800  0.27435900  1
  O  O22  1  0.90920200  0.49832200  0.77435900  1
  O  O23  1  0.09079800  0.99832200  0.72564100  1
  O  O24  1  0.40250000  0.36811800  0.21469000  1
  O  O25  1  0.59750000  0.86811800  0.28531000  1
  O  O26  1  0.59750000  0.63188200  0.78531000  1
  O  O27  1  0.40250000  0.13188200  0.71469000  1
  O  O28  1  0.33074300  0.59072500  0.09254800  1
  O  O29  1  0.66925700  0.09072500  0.40745200  1
  O  O30  1  0.66925700  0.40927500  0.90745200  1
  O  O31  1  0.33074300  0.90927500  0.59254800  1
  O  O32  1  0.13446100  0.37903300  0.05135500  1
  O  O33  1  0.86553900  0.87903300  0.44864500  1
  O  O34  1  0.86553900  0.62096700  0.94864500  1
  O  O35  1  0.13446100  0.12096700  0.55135500  1
  O  O36  1  0.27904400  0.39159400  0.58663200  1
  O  O37  1  0.72095600  0.89159400  0.91336800  1
  O  O38  1  0.72095600  0.60840600  0.41336800  1
  O  O39  1  0.27904400  0.10840600  0.08663200  1
  O  O40  1  0.57880000  0.27698300  0.52302500  1
  O  O41  1  0.42120000  0.77698300  0.97697500  1
  O  O42  1  0.42120000  0.72301700  0.47697500  1
  O  O43  1  0.57880000  0.22301700  0.02302500  1
  O  O44  1  0.56840300  0.35622100  0.71764300  1
  O  O45  1  0.43159700  0.85622100  0.78235700  1
  O  O46  1  0.43159700  0.64377900  0.28235700  1
  O  O47  1  0.56840300  0.14377900  0.21764300  1
  O  O48  1  0.57296500  0.55085500  0.58378400  1
  O  O49  1  0.42703500  0.05085500  0.91621600  1
  O  O50  1  0.42703500  0.44914500  0.41621600  1
  O  O51  1  0.57296500  0.94914500  0.08378400  1
  O  O52  1  0.71820700  0.33962000  0.33595300  1
  O  O53  1  0.28179300  0.83962000  0.16404700  1
  O  O54  1  0.28179300  0.66038000  0.66404700  1
  O  O55  1  0.71820700  0.16038000  0.83595300  1
  O  O56  1  0.32668400  0.19082500  0.36187800  1
  O  O57  1  0.67331600  0.69082500  0.13812200  1
  O  O58  1  0.67331600  0.80917500  0.63812200  1
  O  O59  1  0.32668400  0.30917500  0.86187800  1
  O  O60  1  0.96812700  0.31395100  0.65822300  1
  O  O61  1  0.03187300  0.81395100  0.84177700  1
  O  O62  1  0.03187300  0.68604900  0.34177700  1
  O  O63  1  0.96812700  0.18604900  0.15822300  1
