# generated using pymatgen
data_KInH8(CO3)4
_symmetry_space_group_name_H-M   'P 1'
_cell_length_a   9.16126167
_cell_length_b   9.16126167
_cell_length_c   9.16126167
_cell_angle_alpha   103.92240499
_cell_angle_beta   103.92240499
_cell_angle_gamma   121.25077167
_symmetry_Int_Tables_number   1
_chemical_formula_structural   KInH8(CO3)4
_chemical_formula_sum   'K2 In2 H16 C8 O24'
_cell_volume   572.81816316
_cell_formula_units_Z   2
loop_
 _symmetry_equiv_pos_site_id
 _symmetry_equiv_pos_as_xyz
  1  'x, y, z'
loop_
 _atom_site_type_symbol
 _atom_site_label
 _atom_site_symmetry_multiplicity
 _atom_site_fract_x
 _atom_site_fract_y
 _atom_site_fract_z
 _atom_site_occupancy
  K  K0  1  0.50000000  0.50000000  0.00000000  1
  K  K1  1  0.75000000  0.25000000  0.50000000  1
  In  In2  1  0.00000000  0.00000000  0.00000000  1
  In  In3  1  0.25000000  0.75000000  0.50000000  1
  H  H4  1  0.11526700  0.19489100  0.58305100  1
  H  H5  1  0.61184000  0.53221600  0.41694900  1
  H  H6  1  0.78221600  0.86526700  0.42037600  1
  H  H7  1  0.44489100  0.36184000  0.57962400  1
  H  H8  1  0.13473300  0.55510900  0.91694900  1
  H  H9  1  0.63816000  0.21778400  0.08305100  1
  H  H10  1  0.46778400  0.88473300  0.07962400  1
  H  H11  1  0.80510900  0.38816000  0.92037600  1
  H  H12  1  0.84466900  0.99242900  0.32501500  1
  H  H13  1  0.66741400  0.51965400  0.67498500  1
  H  H14  1  0.76965400  0.59466900  0.35224000  1
  H  H15  1  0.24242900  0.41741400  0.64776000  1
  H  H16  1  0.40533100  0.75757100  0.17498500  1
  H  H17  1  0.58258600  0.23034600  0.82501500  1
  H  H18  1  0.48034600  0.15533100  0.14776000  1
  H  H19  1  0.00757100  0.33258600  0.85224000  1
  C  C20  1  0.02173900  0.79714000  0.22968900  1
  C  C21  1  0.56745100  0.79205000  0.77031100  1
  C  C22  1  0.04205000  0.77173900  0.72459900  1
  C  C23  1  0.04714000  0.31745100  0.27540100  1
  C  C24  1  0.22826100  0.95286000  0.27031100  1
  C  C25  1  0.68254900  0.95795000  0.72968900  1
  C  C26  1  0.20795000  0.97826100  0.77540100  1
  C  C27  1  0.20286000  0.43254900  0.22459900  1
  O  O28  1  0.89366700  0.78467400  0.12413000  1
  O  O29  1  0.66054400  0.76953600  0.87587000  1
  O  O30  1  0.01953600  0.64366700  0.60899200  1
  O  O31  1  0.03467400  0.41054400  0.39100800  1
  O  O32  1  0.35633300  0.96532600  0.37586900  1
  O  O33  1  0.58945600  0.98046400  0.62413000  1
  O  O34  1  0.23046400  0.10633300  0.89100800  1
  O  O35  1  0.21532600  0.33945600  0.10899200  1
  O  O36  1  0.99533900  0.69285800  0.30611200  1
  O  O37  1  0.38674500  0.68922700  0.69388800  1
  O  O38  1  0.93922700  0.74533900  0.80248100  1
  O  O39  1  0.94285800  0.13674500  0.19751900  1
  O  O40  1  0.25466100  0.05714200  0.19388800  1
  O  O41  1  0.86325500  0.06077300  0.80611200  1
  O  O42  1  0.31077300  0.00466100  0.69751900  1
  O  O43  1  0.30714200  0.61325500  0.30248100  1
  O  O44  1  0.24801600  0.31286500  0.64583400  1
  O  O45  1  0.66703100  0.60218200  0.35416600  1
  O  O46  1  0.85218200  0.99801600  0.43515000  1
  O  O47  1  0.56286500  0.41703100  0.56485000  1
  O  O48  1  0.00198400  0.43713500  0.85416600  1
  O  O49  1  0.58296900  0.14781800  0.14583400  1
  O  O50  1  0.39781800  0.75198400  0.06485000  1
  O  O51  1  0.68713500  0.33296900  0.93515000  1
