# generated using pymatgen
data_K3Al5P8(H21O25)2
_symmetry_space_group_name_H-M   'P 1'
_cell_length_a   8.77184646
_cell_length_b   8.77184600
_cell_length_c   32.41032825
_cell_angle_alpha   82.22259486
_cell_angle_beta   82.22259472
_cell_angle_gamma   60.00000172
_symmetry_Int_Tables_number   1
_chemical_formula_structural   K3Al5P8(H21O25)2
_chemical_formula_sum   'K6 Al10 P16 H84 O100'
_cell_volume   2133.18332592
_cell_formula_units_Z   2
loop_
 _symmetry_equiv_pos_site_id
 _symmetry_equiv_pos_as_xyz
  1  'x, y, z'
loop_
 _atom_site_type_symbol
 _atom_site_label
 _atom_site_symmetry_multiplicity
 _atom_site_fract_x
 _atom_site_fract_y
 _atom_site_fract_z
 _atom_site_occupancy
  K  K0  1  0.75000000  0.17243900  0.75000000  1
  K  K1  1  0.32756100  0.75000000  0.75000000  1
  K  K2  1  0.17243900  0.32756100  0.75000000  1
  K  K3  1  0.67243900  0.25000000  0.25000000  1
  K  K4  1  0.82756100  0.67243900  0.25000000  1
  K  K5  1  0.25000000  0.82756100  0.25000000  1
  Al  Al6  1  0.75000000  0.75000000  0.75000000  1
  Al  Al7  1  0.25000000  0.25000000  0.25000000  1
  Al  Al8  1  0.04887700  0.04887700  0.85336800  1
  Al  Al9  1  0.54887700  0.54887700  0.35336800  1
  Al  Al10  1  0.95112300  0.95112300  0.14663200  1
  Al  Al11  1  0.45112300  0.45112300  0.64663200  1
  Al  Al12  1  0.70270200  0.70270200  0.89189500  1
  Al  Al13  1  0.20270200  0.20270200  0.39189500  1
  Al  Al14  1  0.29729800  0.29729800  0.10810500  1
  Al  Al15  1  0.79729800  0.79729800  0.60810500  1
  P  P16  1  0.77535100  0.44373900  0.81932400  1
  P  P17  1  0.96158500  0.77535100  0.81932400  1
  P  P18  1  0.44373900  0.96158500  0.81932400  1
  P  P19  1  0.94373900  0.27535100  0.31932400  1
  P  P20  1  0.46158500  0.94373900  0.31932400  1
  P  P21  1  0.27535100  0.46158500  0.31932400  1
  P  P22  1  0.22464900  0.55626100  0.18067600  1
  P  P23  1  0.03841500  0.22464900  0.18067600  1
  P  P24  1  0.55626100  0.03841500  0.18067600  1
  P  P25  1  0.05626100  0.72464900  0.68067600  1
  P  P26  1  0.53841500  0.05626100  0.68067600  1
  P  P27  1  0.72464900  0.53841500  0.68067600  1
  P  P28  1  0.36478400  0.36478400  0.90564700  1
  P  P29  1  0.86478400  0.86478400  0.40564700  1
  P  P30  1  0.63521600  0.63521600  0.09435300  1
  P  P31  1  0.13521600  0.13521600  0.59435300  1
  H  H32  1  0.43555700  0.21418500  0.83166800  1
  H  H33  1  0.51859000  0.43555700  0.83166800  1
  H  H34  1  0.21418500  0.51859000  0.83166800  1
  H  H35  1  0.71418500  0.93555700  0.33166800  1
  H  H36  1  0.01859000  0.71418500  0.33166800  1
  H  H37  1  0.93555700  0.01859000  0.33166800  1
  H  H38  1  0.56444300  0.78581500  0.16833200  1
  H  H39  1  0.48141000  0.56444300  0.16833200  1
  H  H40  1  0.78581500  0.48141000  0.16833200  1
  H  H41  1  0.28581500  0.06444300  0.66833200  1
  H  H42  1  0.98141000  0.28581500  0.66833200  1
  H  H43  1  0.06444300  0.98141000  0.66833200  1
  H  H44  1  0.17173100  0.19034800  0.90041200  1
  H  H45  1  0.73750900  0.17173100  0.90041200  1
  H  H46  1  0.19034800  0.73750900  0.90041200  1
  H  H47  1  0.69034800  0.67173100  0.40041200  1
  H  H48  1  0.23750900  0.69034800  0.40041200  1
  H  H49  1  0.67173100  0.23750900  0.40041200  1
  H  H50  1  0.82826900  0.80965200  0.09958800  1
  H  H51  1  0.26249100  0.82826900  0.09958800  1
  H  H52  1  0.80965200  0.26249100  0.09958800  1
  H  H53  1  0.30965200  0.32826900  0.59958800  1
  H  H54  1  0.76249100  0.30965200  0.59958800  1
  H  H55  1  0.32826900  0.76249100  0.59958800  1
  H  H56  1  0.97283600  0.32425100  0.88758500  1
  H  H57  1  0.81532800  0.97283600  0.88758500  1
  H  H58  1  0.32425100  0.81532800  0.88758500  1
  H  H59  1  0.82425100  0.47283600  0.38758500  1
  H  H60  1  0.31532800  0.82425100  0.38758500  1
  H  H61  1  0.47283600  0.31532800  0.38758500  1
  H  H62  1  0.02716400  0.67574900  0.11241500  1
  H  H63  1  0.18467200  0.02716400  0.11241500  1
  H  H64  1  0.67574900  0.18467200  0.11241500  1
  H  H65  1  0.17574900  0.52716400  0.61241500  1
  H  H66  1  0.68467200  0.17574900  0.61241500  1
  H  H67  1  0.52716400  0.68467200  0.61241500  1
  H  H68  1  0.67602500  0.87881400  0.95504900  1
  H  H69  1  0.49011200  0.67602500  0.95504900  1
  H  H70  1  0.87881400  0.49011200  0.95504900  1
  H  H71  1  0.37881400  0.17602500  0.45504900  1
  H  H72  1  0.99011200  0.37881400  0.45504900  1
  H  H73  1  0.17602500  0.99011200  0.45504900  1
  H  H74  1  0.32397500  0.12118600  0.04495100  1
  H  H75  1  0.50988800  0.32397500  0.04495100  1
  H  H76  1  0.12118600  0.50988800  0.04495100  1
  H  H77  1  0.62118600  0.82397500  0.54495100  1
  H  H78  1  0.00988800  0.62118600  0.54495100  1
  H  H79  1  0.82397500  0.00988800  0.54495100  1
  H  H80  1  0.51644600  0.00979400  0.92382500  1
  H  H81  1  0.54993500  0.51644600  0.92382500  1
  H  H82  1  0.00979400  0.54993500  0.92382500  1
  H  H83  1  0.50979400  0.01644600  0.42382500  1
  H  H84  1  0.04993500  0.50979400  0.42382500  1
  H  H85  1  0.01644600  0.04993500  0.42382500  1
  H  H86  1  0.48355400  0.99020600  0.07617500  1
  H  H87  1  0.45006500  0.48355400  0.07617500  1
  H  H88  1  0.99020600  0.45006500  0.07617500  1
  H  H89  1  0.49020600  0.98355400  0.57617500  1
  H  H90  1  0.95006500  0.49020600  0.57617500  1
  H  H91  1  0.98355400  0.95006500  0.57617500  1
  H  H92  1  0.28163900  0.15975900  0.97264300  1
  H  H93  1  0.58595900  0.28163900  0.97264300  1
  H  H94  1  0.15975900  0.58595900  0.97264300  1
  H  H95  1  0.65975900  0.78163900  0.47264300  1
  H  H96  1  0.08595900  0.65975900  0.47264300  1
  H  H97  1  0.78163900  0.08595900  0.47264300  1
  H  H98  1  0.71836100  0.84024100  0.02735700  1
  H  H99  1  0.41404100  0.71836100  0.02735700  1
  H  H100  1  0.84024100  0.41404100  0.02735700  1
  H  H101  1  0.34024100  0.21836100  0.52735700  1
  H  H102  1  0.91404100  0.34024100  0.52735700  1
  H  H103  1  0.21836100  0.91404100  0.52735700  1
  H  H104  1  0.31039500  0.89104000  0.99819300  1
  H  H105  1  0.80037200  0.31039500  0.99819300  1
  H  H106  1  0.89104000  0.80037200  0.99819300  1
  H  H107  1  0.39104000  0.81039500  0.49819300  1
  H  H108  1  0.30037200  0.39104000  0.49819300  1
  H  H109  1  0.81039500  0.30037200  0.49819300  1
  H  H110  1  0.68960500  0.10896000  0.00180700  1
  H  H111  1  0.19962800  0.68960500  0.00180700  1
  H  H112  1  0.10896000  0.19962800  0.00180700  1
  H  H113  1  0.60896000  0.18960500  0.50180700  1
  H  H114  1  0.69962800  0.60896000  0.50180700  1
  H  H115  1  0.18960500  0.69962800  0.50180700  1
  O  O116  1  0.83807400  0.53320400  0.78313100  1
  O  O117  1  0.84559100  0.83807400  0.78313100  1
  O  O118  1  0.53320400  0.84559100  0.78313100  1
  O  O119  1  0.03320400  0.33807400  0.28313100  1
  O  O120  1  0.34559100  0.03320400  0.28313100  1
  O  O121  1  0.33807400  0.34559100  0.28313100  1
  O  O122  1  0.16192600  0.46679600  0.21686900  1
  O  O123  1  0.15440900  0.16192600  0.21686900  1
  O  O124  1  0.46679600  0.15440900  0.21686900  1
  O  O125  1  0.96679600  0.66192600  0.71686900  1
  O  O126  1  0.65440900  0.96679600  0.71686900  1
  O  O127  1  0.66192600  0.65440900  0.71686900  1
  O  O128  1  0.76600000  0.50826000  0.86192500  1
  O  O129  1  0.86381400  0.76600000  0.86192500  1
  O  O130  1  0.50826000  0.86381400  0.86192500  1
  O  O131  1  0.00826000  0.26600000  0.36192500  1
  O  O132  1  0.36381400  0.00826000  0.36192500  1
  O  O133  1  0.26600000  0.36381400  0.36192500  1
  O  O134  1  0.23400000  0.49174000  0.13807500  1
  O  O135  1  0.13618600  0.23400000  0.13807500  1
  O  O136  1  0.49174000  0.13618600  0.13807500  1
  O  O137  1  0.99174000  0.73400000  0.63807500  1
  O  O138  1  0.63618600  0.99174000  0.63807500  1
  O  O139  1  0.73400000  0.63618600  0.63807500  1
  O  O140  1  0.58606000  0.47929800  0.80954500  1
  O  O141  1  0.12509700  0.58606000  0.80954500  1
  O  O142  1  0.47929800  0.12509700  0.80954500  1
  O  O143  1  0.97929800  0.08606000  0.30954500  1
  O  O144  1  0.62509700  0.97929800  0.30954500  1
  O  O145  1  0.08606000  0.62509700  0.30954500  1
  O  O146  1  0.41394000  0.52070200  0.19045500  1
  O  O147  1  0.87490300  0.41394000  0.19045500  1
  O  O148  1  0.52070200  0.87490300  0.19045500  1
  O  O149  1  0.02070200  0.91394000  0.69045500  1
  O  O150  1  0.37490300  0.02070200  0.69045500  1
  O  O151  1  0.91394000  0.37490300  0.69045500  1
  O  O152  1  0.89978900  0.24395700  0.82004300  1
  O  O153  1  0.03621100  0.89978900  0.82004300  1
  O  O154  1  0.24395700  0.03621100  0.82004300  1
  O  O155  1  0.74395700  0.39978900  0.32004300  1
  O  O156  1  0.53621100  0.74395700  0.32004300  1
  O  O157  1  0.39978900  0.53621100  0.32004300  1
  O  O158  1  0.10021100  0.75604300  0.17995700  1
  O  O159  1  0.96378900  0.10021100  0.17995700  1
  O  O160  1  0.75604300  0.96378900  0.17995700  1
  O  O161  1  0.25604300  0.60021100  0.67995700  1
  O  O162  1  0.46378900  0.25604300  0.67995700  1
  O  O163  1  0.60021100  0.46378900  0.67995700  1
  O  O164  1  0.38120600  0.38120600  0.85638100  1
  O  O165  1  0.88120600  0.88120600  0.35638100  1
  O  O166  1  0.61879400  0.61879400  0.14361900  1
  O  O167  1  0.11879400  0.11879400  0.64361900  1
  O  O168  1  0.20252500  0.53787400  0.92098400  1
  O  O169  1  0.33861700  0.20252500  0.92098400  1
  O  O170  1  0.53787400  0.33861700  0.92098400  1
  O  O171  1  0.03787400  0.70252500  0.42098400  1
  O  O172  1  0.83861700  0.03787400  0.42098400  1
  O  O173  1  0.70252500  0.83861700  0.42098400  1
  O  O174  1  0.79747500  0.46212600  0.07901600  1
  O  O175  1  0.66138300  0.79747500  0.07901600  1
  O  O176  1  0.46212600  0.66138300  0.07901600  1
  O  O177  1  0.96212600  0.29747500  0.57901600  1
  O  O178  1  0.16138300  0.96212600  0.57901600  1
  O  O179  1  0.29747500  0.16138300  0.57901600  1
  O  O180  1  0.06377400  0.19824800  0.89067200  1
  O  O181  1  0.84730600  0.06377400  0.89067200  1
  O  O182  1  0.19824800  0.84730600  0.89067200  1
  O  O183  1  0.69824800  0.56377400  0.39067200  1
  O  O184  1  0.34730600  0.69824800  0.39067200  1
  O  O185  1  0.56377400  0.34730600  0.39067200  1
  O  O186  1  0.93622600  0.80175200  0.10932800  1
  O  O187  1  0.15269400  0.93622600  0.10932800  1
  O  O188  1  0.80175200  0.15269400  0.10932800  1
  O  O189  1  0.30175200  0.43622600  0.60932800  1
  O  O190  1  0.65269400  0.30175200  0.60932800  1
  O  O191  1  0.43622600  0.65269400  0.60932800  1
  O  O192  1  0.62715400  0.89121600  0.92774000  1
  O  O193  1  0.55389000  0.62715400  0.92774000  1
  O  O194  1  0.89121600  0.55389000  0.92774000  1
  O  O195  1  0.39121600  0.12715400  0.42774000  1
  O  O196  1  0.05389000  0.39121600  0.42774000  1
  O  O197  1  0.12715400  0.05389000  0.42774000  1
  O  O198  1  0.37284600  0.10878400  0.07226000  1
  O  O199  1  0.44611000  0.37284600  0.07226000  1
  O  O200  1  0.10878400  0.44611000  0.07226000  1
  O  O201  1  0.60878400  0.87284600  0.57226000  1
  O  O202  1  0.94611000  0.60878400  0.57226000  1
  O  O203  1  0.87284600  0.94611000  0.57226000  1
  O  O204  1  0.23971300  0.12243900  0.00045100  1
  O  O205  1  0.63739700  0.23971300  0.00045100  1
  O  O206  1  0.12243900  0.63739700  0.00045100  1
  O  O207  1  0.62243900  0.73971300  0.50045100  1
  O  O208  1  0.13739700  0.62243900  0.50045100  1
  O  O209  1  0.73971300  0.13739700  0.50045100  1
  O  O210  1  0.76028700  0.87756100  0.99954900  1
  O  O211  1  0.36260300  0.76028700  0.99954900  1
  O  O212  1  0.87756100  0.36260300  0.99954900  1
  O  O213  1  0.37756100  0.26028700  0.49954900  1
  O  O214  1  0.86260300  0.37756100  0.49954900  1
  O  O215  1  0.26028700  0.86260300  0.49954900  1
