# generated using pymatgen
data_SrSn2H10Cl6O5
_symmetry_space_group_name_H-M   'P 1'
_cell_length_a   9.69510611
_cell_length_b   9.69510611
_cell_length_c   9.29470169
_cell_angle_alpha   69.59383709
_cell_angle_beta   69.59383709
_cell_angle_gamma   76.55197117
_symmetry_Int_Tables_number   1
_chemical_formula_structural   SrSn2H10Cl6O5
_chemical_formula_sum   'Sr2 Sn4 H20 Cl12 O10'
_cell_volume   761.29280729
_cell_formula_units_Z   2
loop_
 _symmetry_equiv_pos_site_id
 _symmetry_equiv_pos_as_xyz
  1  'x, y, z'
loop_
 _atom_site_type_symbol
 _atom_site_label
 _atom_site_symmetry_multiplicity
 _atom_site_fract_x
 _atom_site_fract_y
 _atom_site_fract_z
 _atom_site_occupancy
  Sr  Sr0  1  0.99154800  0.00845200  0.25000000  1
  Sr  Sr1  1  0.00845200  0.99154800  0.75000000  1
  Sn  Sn2  1  0.47430700  0.26040800  0.97904700  1
  Sn  Sn3  1  0.73959200  0.52569300  0.52095300  1
  Sn  Sn4  1  0.52569300  0.73959200  0.02095300  1
  Sn  Sn5  1  0.26040800  0.47430700  0.47904700  1
  H  H6  1  0.07759900  0.34161800  0.09565500  1
  H  H7  1  0.65838200  0.92240100  0.40434500  1
  H  H8  1  0.92240100  0.65838200  0.90434500  1
  H  H9  1  0.34161800  0.07759900  0.59565500  1
  H  H10  1  0.06606500  0.29722000  0.27703600  1
  H  H11  1  0.70278000  0.93393500  0.22296400  1
  H  H12  1  0.93393500  0.70278000  0.72296400  1
  H  H13  1  0.29722000  0.06606500  0.77703600  1
  H  H14  1  0.23059800  0.88647500  0.45356000  1
  H  H15  1  0.11352500  0.76940200  0.04644000  1
  H  H16  1  0.76940200  0.11352500  0.54644000  1
  H  H17  1  0.88647500  0.23059800  0.95356000  1
  H  H18  1  0.24686700  0.05340000  0.37999000  1
  H  H19  1  0.94660000  0.75313300  0.12001000  1
  H  H20  1  0.75313300  0.94660000  0.62001000  1
  H  H21  1  0.05340000  0.24686700  0.87999000  1
  H  H22  1  0.78471600  0.32419400  0.23801900  1
  H  H23  1  0.67580600  0.21528400  0.26198100  1
  H  H24  1  0.21528400  0.67580600  0.76198100  1
  H  H25  1  0.32419400  0.78471600  0.73801900  1
  Cl  Cl26  1  0.44600700  0.17498000  0.29300100  1
  Cl  Cl27  1  0.82502000  0.55399300  0.20699900  1
  Cl  Cl28  1  0.55399300  0.82502000  0.70699900  1
  Cl  Cl29  1  0.17498000  0.44600700  0.79300100  1
  Cl  Cl30  1  0.68908400  0.41967300  0.90242600  1
  Cl  Cl31  1  0.58032700  0.31091600  0.59757400  1
  Cl  Cl32  1  0.31091600  0.58032700  0.09757400  1
  Cl  Cl33  1  0.41967300  0.68908400  0.40242600  1
  Cl  Cl34  1  0.68524400  0.02601900  0.96925300  1
  Cl  Cl35  1  0.97398100  0.31475600  0.53074700  1
  Cl  Cl36  1  0.31475600  0.97398100  0.03074700  1
  Cl  Cl37  1  0.02601900  0.68524400  0.46925300  1
  O  O38  1  0.09418300  0.25672700  0.18604100  1
  O  O39  1  0.74327300  0.90581700  0.31395900  1
  O  O40  1  0.90581700  0.74327300  0.81395900  1
  O  O41  1  0.25672700  0.09418300  0.68604100  1
  O  O42  1  0.17063100  0.98461500  0.43641000  1
  O  O43  1  0.01538500  0.82936900  0.06359000  1
  O  O44  1  0.82936900  0.01538500  0.56359000  1
  O  O45  1  0.98461500  0.17063100  0.93641000  1
  O  O46  1  0.77939300  0.22060700  0.25000000  1
  O  O47  1  0.22060700  0.77939300  0.75000000  1
