# generated using pymatgen
data_P2H32C9(N3O2)6
_symmetry_space_group_name_H-M   'P 1'
_cell_length_a   11.63555100
_cell_length_b   11.91622194
_cell_length_c   12.30275936
_cell_angle_alpha   65.48079469
_cell_angle_beta   69.50309325
_cell_angle_gamma   63.19162230
_symmetry_Int_Tables_number   1
_chemical_formula_structural   P2H32C9(N3O2)6
_chemical_formula_sum   'P4 H64 C18 N36 O24'
_cell_volume   1356.97892822
_cell_formula_units_Z   2
loop_
 _symmetry_equiv_pos_site_id
 _symmetry_equiv_pos_as_xyz
  1  'x, y, z'
loop_
 _atom_site_type_symbol
 _atom_site_label
 _atom_site_symmetry_multiplicity
 _atom_site_fract_x
 _atom_site_fract_y
 _atom_site_fract_z
 _atom_site_occupancy
  P  P0  1  0.11512700  0.60978400  0.99080900  1
  P  P1  1  0.88487300  0.39021600  0.00919100  1
  P  P2  1  0.41235500  0.20647900  0.98678100  1
  P  P3  1  0.58764500  0.79352100  0.01321900  1
  H  H4  1  0.28021200  0.41340200  0.04815500  1
  H  H5  1  0.71978800  0.58659800  0.95184500  1
  H  H6  1  0.95963000  0.51698300  0.09656100  1
  H  H7  1  0.04037000  0.48301700  0.90343900  1
  H  H8  1  0.29258700  0.21540700  0.22475200  1
  H  H9  1  0.70741300  0.78459300  0.77524800  1
  H  H10  1  0.00030500  0.42626200  0.36674200  1
  H  H11  1  0.99969500  0.57373800  0.63325800  1
  H  H12  1  0.10703400  0.40361200  0.23020500  1
  H  H13  1  0.89296600  0.59638800  0.76979500  1
  H  H14  1  0.52566700  0.90570100  0.36249000  1
  H  H15  1  0.47433300  0.09429900  0.63751000  1
  H  H16  1  0.48378300  0.03411500  0.22556400  1
  H  H17  1  0.51621700  0.96588500  0.77443600  1
  H  H18  1  0.24525800  0.95985300  0.73310600  1
  H  H19  1  0.75474200  0.04014700  0.26689400  1
  H  H20  1  0.09783100  0.09812400  0.73283500  1
  H  H21  1  0.90216900  0.90187600  0.26716500  1
  H  H22  1  0.57418100  0.00672300  0.04616100  1
  H  H23  1  0.42581900  0.99327700  0.95383900  1
  H  H24  1  0.83082100  0.35491500  0.25413300  1
  H  H25  1  0.16917900  0.64508500  0.74586700  1
  H  H26  1  0.53923700  0.39318200  0.87821900  1
  H  H27  1  0.46076300  0.60681800  0.12178100  1
  H  H28  1  0.62240300  0.44270600  0.92079000  1
  H  H29  1  0.37759700  0.55729400  0.07921000  1
  H  H30  1  0.52126000  0.55673900  0.39049600  1
  H  H31  1  0.47874000  0.44326100  0.60950400  1
  H  H32  1  0.63056400  0.54126500  0.25325600  1
  H  H33  1  0.36943600  0.45873500  0.74674400  1
  H  H34  1  0.89817900  0.08914000  0.87393300  1
  H  H35  1  0.10182100  0.91086000  0.12606700  1
  H  H36  1  0.92651900  0.18503600  0.91301500  1
  H  H37  1  0.07348100  0.81496400  0.08698500  1
  H  H38  1  0.04235800  0.03188800  0.39235500  1
  H  H39  1  0.95764200  0.96811200  0.60764500  1
  H  H40  1  0.00724800  0.15754800  0.25650800  1
  H  H41  1  0.99275200  0.84245200  0.74349200  1
  H  H42  1  0.94718500  0.86964500  0.92341500  1
  H  H43  1  0.05281500  0.13035500  0.07658500  1
  H  H44  1  0.79304500  0.90783900  0.94487300  1
  H  H45  1  0.20695500  0.09216100  0.05512700  1
  H  H46  1  0.75646900  0.08972200  0.75642800  1
  H  H47  1  0.24353100  0.91027800  0.24357200  1
  H  H48  1  0.60775200  0.22529300  0.76043200  1
  H  H49  1  0.39224800  0.77470700  0.23956800  1
  H  H50  1  0.25603200  0.78178500  0.90115100  1
  H  H51  1  0.74396800  0.21821500  0.09884900  1
  H  H52  1  0.36601900  0.83054700  0.89551700  1
  H  H53  1  0.63398100  0.16945300  0.10448300  1
  H  H54  1  0.64745000  0.51416400  0.72153000  1
  H  H55  1  0.35255000  0.48583600  0.27847000  1
  H  H56  1  0.96391100  0.32170600  0.58466000  1
  H  H57  1  0.03608900  0.67829400  0.41534000  1
  H  H58  1  0.85009900  0.33067500  0.72011900  1
  H  H59  1  0.14990100  0.66932500  0.27988100  1
  H  H60  1  0.43536300  0.83789800  0.58344600  1
  H  H61  1  0.56463700  0.16210200  0.41655400  1
  H  H62  1  0.46770900  0.71226200  0.72051600  1
  H  H63  1  0.53229100  0.28773800  0.27948400  1
  H  H64  1  0.72156700  0.78013600  0.21588900  1
  H  H65  1  0.27843300  0.21986400  0.78411100  1
  H  H66  1  0.87253400  0.65231100  0.21790000  1
  H  H67  1  0.12746600  0.34768900  0.78210000  1
  C  C68  1  0.16023500  0.25156400  0.38545300  1
  C  C69  1  0.83976500  0.74843600  0.61454700  1
  C  C70  1  0.35416300  0.06174900  0.38407500  1
  C  C71  1  0.64583700  0.93825100  0.61592500  1
  C  C72  1  0.21296400  0.09064100  0.56349600  1
  C  C73  1  0.78703600  0.90935900  0.43650400  1
  C  C74  1  0.68176700  0.38489500  0.40960300  1
  C  C75  1  0.31823300  0.61510500  0.59039700  1
  C  C76  1  0.87361500  0.19287100  0.41205700  1
  C  C77  1  0.12638500  0.80712900  0.58794300  1
  C  C78  1  0.72597600  0.22022200  0.58892500  1
  C  C79  1  0.27402400  0.77977800  0.41107500  1
  C  C80  1  0.80007500  0.49076200  0.56542200  1
  C  C81  1  0.19992500  0.50923800  0.43457800  1
  C  C82  1  0.60409000  0.67830200  0.56426100  1
  C  C83  1  0.39591000  0.32169800  0.43573900  1
  C  C84  1  0.75368200  0.65610200  0.38731900  1
  C  C85  1  0.24631800  0.34389800  0.61268100  1
  N  N86  1  0.12827800  0.20909000  0.50674700  1
  N  N87  1  0.87172200  0.79091000  0.49325300  1
  N  N88  1  0.27140400  0.17943800  0.32167500  1
  N  N89  1  0.72859600  0.82056200  0.67832500  1
  N  N90  1  0.32599400  0.01504200  0.50566500  1
  N  N91  1  0.67400600  0.98495800  0.49433500  1
  N  N92  1  0.08432900  0.36730000  0.32257200  1
  N  N93  1  0.91567100  0.63270000  0.67742800  1
  N  N94  1  0.46291300  0.99658700  0.31927100  1
  N  N95  1  0.53708700  0.00341300  0.68072900  1
  N  N96  1  0.18300100  0.04620500  0.68454900  1
  N  N97  1  0.81699900  0.95379500  0.31545100  1
  N  N98  1  0.64399600  0.33920900  0.53063300  1
  N  N99  1  0.35600400  0.66079100  0.46936700  1
  N  N100  1  0.79667600  0.31358100  0.34840800  1
  N  N101  1  0.20332400  0.68641900  0.65159200  1
  N  N102  1  0.84032700  0.14386400  0.53285100  1
  N  N103  1  0.15967300  0.85613600  0.46714900  1
  N  N104  1  0.60853900  0.50141700  0.34604200  1
  N  N105  1  0.39146100  0.49858300  0.65395800  1
  N  N106  1  0.98392700  0.12579600  0.34931400  1
  N  N107  1  0.01607300  0.87420400  0.65068600  1
  N  N108  1  0.69226300  0.17401800  0.70994700  1
  N  N109  1  0.30773700  0.82598200  0.29005300  1
  N  N110  1  0.83847800  0.53876900  0.44469400  1
  N  N111  1  0.16152200  0.46123100  0.55530600  1
  N  N112  1  0.68240000  0.55795800  0.62693100  1
  N  N113  1  0.31760000  0.44204200  0.37306900  1
  N  N114  1  0.63765900  0.72949100  0.44354500  1
  N  N115  1  0.36234100  0.27050900  0.55645500  1
  N  N116  1  0.87567200  0.37576000  0.62871900  1
  N  N117  1  0.12432800  0.62424000  0.37128100  1
  N  N118  1  0.49271300  0.74367300  0.62739900  1
  N  N119  1  0.50728700  0.25632700  0.37260100  1
  N  N120  1  0.78757700  0.70350700  0.26616500  1
  N  N121  1  0.21242300  0.29649300  0.73383500  1
  O  O122  1  0.24931300  0.51893000  0.03376500  1
  O  O123  1  0.75068700  0.48107000  0.96623500  1
  O  O124  1  0.00112800  0.57386200  0.10280900  1
  O  O125  1  0.99887200  0.42613800  0.89719100  1
  O  O126  1  0.09824700  0.75206800  0.96645700  1
  O  O127  1  0.90175300  0.24793200  0.03354300  1
  O  O128  1  0.10544700  0.58035400  0.88468600  1
  O  O129  1  0.89455300  0.41964600  0.11531400  1
  O  O130  1  0.31248100  0.28119300  0.07897600  1
  O  O131  1  0.68751900  0.71880700  0.92102400  1
  O  O132  1  0.35337800  0.12948200  0.96073500  1
  O  O133  1  0.64662200  0.87051800  0.03926500  1
  O  O134  1  0.46915600  0.29796500  0.87220500  1
  O  O135  1  0.53084400  0.70203500  0.12779500  1
  O  O136  1  0.52971500  0.09952100  0.05999300  1
  O  O137  1  0.47028500  0.90047900  0.94000700  1
  O  O138  1  0.57979600  0.46011100  0.85660100  1
  O  O139  1  0.42020400  0.53988900  0.14339900  1
  O  O140  1  0.93252900  0.16137300  0.84241400  1
  O  O141  1  0.06747100  0.83862700  0.15758600  1
  O  O142  1  0.86718500  0.93755600  0.89106600  1
  O  O143  1  0.13281500  0.06244400  0.10893400  1
  O  O144  1  0.33254500  0.80703300  0.84811600  1
  O  O145  1  0.66745500  0.19296700  0.15188400  1
