# generated using pymatgen
data_DyFe3(BO3)4
_symmetry_space_group_name_H-M   'P 1'
_cell_length_a   9.61802390
_cell_length_b   9.61802390
_cell_length_c   7.66837500
_cell_angle_alpha   90.00000000
_cell_angle_beta   90.00000000
_cell_angle_gamma   119.99999930
_symmetry_Int_Tables_number   1
_chemical_formula_structural   DyFe3(BO3)4
_chemical_formula_sum   'Dy3 Fe9 B12 O36'
_cell_volume   614.33559743
_cell_formula_units_Z   3
loop_
 _symmetry_equiv_pos_site_id
 _symmetry_equiv_pos_as_xyz
  1  'x, y, z'
loop_
 _atom_site_type_symbol
 _atom_site_label
 _atom_site_symmetry_multiplicity
 _atom_site_fract_x
 _atom_site_fract_y
 _atom_site_fract_z
 _atom_site_occupancy
  Dy  Dy0  1  0.33581900  0.33581900  0.00000000  1
  Dy  Dy1  1  0.00000000  0.66418100  0.66666700  1
  Dy  Dy2  1  0.66418100  0.00000000  0.33333300  1
  Fe  Fe3  1  0.88435400  0.88435400  0.00000000  1
  Fe  Fe4  1  0.00000000  0.11564600  0.66666700  1
  Fe  Fe5  1  0.11564600  0.00000000  0.33333300  1
  Fe  Fe6  1  0.78629800  0.33470900  0.98945900  1
  Fe  Fe7  1  0.54841100  0.21370200  0.65612600  1
  Fe  Fe8  1  0.66529100  0.45158900  0.32279200  1
  Fe  Fe9  1  0.45158900  0.66529100  0.67720800  1
  Fe  Fe10  1  0.21370200  0.54841100  0.34387400  1
  Fe  Fe11  1  0.33470900  0.78629800  0.01054100  1
  B  B12  1  0.33244400  0.33244400  0.50000000  1
  B  B13  1  0.00000000  0.66755600  0.16666700  1
  B  B14  1  0.66755600  0.00000000  0.83333300  1
  B  B15  1  0.55186700  0.67555200  0.18010400  1
  B  B16  1  0.12368400  0.44813300  0.84677100  1
  B  B17  1  0.32444800  0.87631600  0.51343700  1
  B  B18  1  0.87631600  0.32444800  0.48656300  1
  B  B19  1  0.44813300  0.12368400  0.15322900  1
  B  B20  1  0.67555200  0.55186700  0.81989600  1
  B  B21  1  0.77921400  0.77921400  0.50000000  1
  B  B22  1  0.00000000  0.22078600  0.16666700  1
  B  B23  1  0.22078600  0.00000000  0.83333300  1
  O  O24  1  0.92295700  0.92295700  0.50000000  1
  O  O25  1  0.00000000  0.07704300  0.16666700  1
  O  O26  1  0.07704300  0.00000000  0.83333300  1
  O  O27  1  0.41820300  0.69265100  0.20390700  1
  O  O28  1  0.27444900  0.58179700  0.87057300  1
  O  O29  1  0.30734900  0.72555100  0.53724000  1
  O  O30  1  0.72555100  0.30734900  0.46276000  1
  O  O31  1  0.58179700  0.27444900  0.12942700  1
  O  O32  1  0.69265100  0.41820300  0.79609300  1
  O  O33  1  0.87659300  0.18258700  0.51337000  1
  O  O34  1  0.30599400  0.12340700  0.18003700  1
  O  O35  1  0.81741300  0.69400600  0.84670400  1
  O  O36  1  0.69400600  0.81741300  0.15329600  1
  O  O37  1  0.12340700  0.30599400  0.81996300  1
  O  O38  1  0.18258700  0.87659300  0.48663000  1
  O  O39  1  0.85226000  0.21310700  0.15121300  1
  O  O40  1  0.36084800  0.14774000  0.81788000  1
  O  O41  1  0.78689300  0.63915200  0.48454600  1
  O  O42  1  0.63915200  0.78689300  0.51545400  1
  O  O43  1  0.14774000  0.36084800  0.18212000  1
  O  O44  1  0.21310700  0.85226000  0.84878700  1
  O  O45  1  0.47515500  0.33055800  0.49105300  1
  O  O46  1  0.85540300  0.52484500  0.15772000  1
  O  O47  1  0.66944200  0.14459700  0.82438700  1
  O  O48  1  0.14459700  0.66944200  0.17561300  1
  O  O49  1  0.52484500  0.85540300  0.84228000  1
  O  O50  1  0.33055800  0.47515500  0.50894700  1
  O  O51  1  0.18839700  0.18839700  0.50000000  1
  O  O52  1  0.00000000  0.81160300  0.16666700  1
  O  O53  1  0.81160300  0.00000000  0.83333300  1
  O  O54  1  0.47534900  0.01023700  0.51852400  1
  O  O55  1  0.53488800  0.52465100  0.18519100  1
  O  O56  1  0.98976300  0.46511200  0.85185700  1
  O  O57  1  0.46511200  0.98976300  0.14814300  1
  O  O58  1  0.52465100  0.53488800  0.81480900  1
  O  O59  1  0.01023700  0.47534900  0.48147600  1
