# generated using pymatgen
data_BiP4NO12
_symmetry_space_group_name_H-M   'P 1'
_cell_length_a   9.08725900
_cell_length_b   10.52480700
_cell_length_c   12.94161952
_cell_angle_alpha   55.01804965
_cell_angle_beta   90.00000000
_cell_angle_gamma   90.00000000
_symmetry_Int_Tables_number   1
_chemical_formula_structural   BiP4NO12
_chemical_formula_sum   'Bi4 P16 N4 O48'
_cell_volume   1014.13544025
_cell_formula_units_Z   4
loop_
 _symmetry_equiv_pos_site_id
 _symmetry_equiv_pos_as_xyz
  1  'x, y, z'
loop_
 _atom_site_type_symbol
 _atom_site_label
 _atom_site_symmetry_multiplicity
 _atom_site_fract_x
 _atom_site_fract_y
 _atom_site_fract_z
 _atom_site_occupancy
  Bi  Bi0  1  0.71998100  0.80957600  0.68961400  1
  Bi  Bi1  1  0.78001900  0.80957600  0.18961400  1
  Bi  Bi2  1  0.28001900  0.19042400  0.31038600  1
  Bi  Bi3  1  0.21998100  0.19042400  0.81038600  1
  P  P4  1  0.02819200  0.52319700  0.22759400  1
  P  P5  1  0.47180800  0.52319700  0.72759400  1
  P  P6  1  0.97180800  0.47680300  0.77240600  1
  P  P7  1  0.52819200  0.47680300  0.27240600  1
  P  P8  1  0.10646800  0.30340800  0.01943600  1
  P  P9  1  0.39353200  0.30340800  0.51943600  1
  P  P10  1  0.89353200  0.69659200  0.98056400  1
  P  P11  1  0.60646800  0.69659200  0.48056400  1
  P  P12  1  0.90910500  0.11546600  0.24099500  1
  P  P13  1  0.59089500  0.11546600  0.74099500  1
  P  P14  1  0.09089500  0.88453400  0.75900500  1
  P  P15  1  0.40910500  0.88453400  0.25900500  1
  P  P16  1  0.32497800  0.82066700  0.63780900  1
  P  P17  1  0.17502200  0.82066700  0.13780900  1
  P  P18  1  0.67502200  0.17933300  0.36219100  1
  P  P19  1  0.82497800  0.17933300  0.86219100  1
  N  N20  1  0.93192400  0.26026200  0.54471500  1
  N  N21  1  0.56807600  0.26026200  0.04471500  1
  N  N22  1  0.06807600  0.73973800  0.45528500  1
  N  N23  1  0.43192400  0.73973800  0.95528500  1
  O  O24  1  0.41717200  0.43522800  0.20973000  1
  O  O25  1  0.08282800  0.43522800  0.70973000  1
  O  O26  1  0.58282800  0.56477200  0.79027000  1
  O  O27  1  0.91717200  0.56477200  0.29027000  1
  O  O28  1  0.59735000  0.63398700  0.19334300  1
  O  O29  1  0.90265000  0.63398700  0.69334300  1
  O  O30  1  0.40265000  0.36601300  0.80665700  1
  O  O31  1  0.09735000  0.36601300  0.30665700  1
  O  O32  1  0.65738600  0.34755600  0.33586100  1
  O  O33  1  0.84261400  0.34755600  0.83586100  1
  O  O34  1  0.34261400  0.65244400  0.66413900  1
  O  O35  1  0.15738600  0.65244400  0.16413900  1
  O  O36  1  0.45466300  0.46127700  0.39417700  1
  O  O37  1  0.04533700  0.46127700  0.89417700  1
  O  O38  1  0.54533700  0.53872300  0.60582300  1
  O  O39  1  0.95466300  0.53872300  0.10582300  1
  O  O40  1  0.15304000  0.19464600  0.98554200  1
  O  O41  1  0.34696000  0.19464600  0.48554200  1
  O  O42  1  0.84696000  0.80535400  0.01445800  1
  O  O43  1  0.65304000  0.80535400  0.51445800  1
  O  O44  1  0.78801900  0.65800000  0.91329700  1
  O  O45  1  0.71198100  0.65800000  0.41329700  1
  O  O46  1  0.21198100  0.34200000  0.08670300  1
  O  O47  1  0.28801900  0.34200000  0.58670300  1
  O  O48  1  0.95282400  0.23919400  0.09697800  1
  O  O49  1  0.54717600  0.23919400  0.59697800  1
  O  O50  1  0.04717600  0.76080600  0.90302200  1
  O  O51  1  0.45282400  0.76080600  0.40302200  1
  O  O52  1  0.82187100  0.98468600  0.25648600  1
  O  O53  1  0.67812900  0.98468600  0.75648600  1
  O  O54  1  0.17812900  0.01531400  0.74351400  1
  O  O55  1  0.32187100  0.01531400  0.24351400  1
  O  O56  1  0.45862700  0.06938300  0.82659200  1
  O  O57  1  0.04137300  0.06938300  0.32659200  1
  O  O58  1  0.54137300  0.93061700  0.17340800  1
  O  O59  1  0.95862700  0.93061700  0.67340800  1
  O  O60  1  0.29976200  0.77729400  0.24182500  1
  O  O61  1  0.20023800  0.77729400  0.74182500  1
  O  O62  1  0.70023800  0.22270600  0.75817500  1
  O  O63  1  0.79976200  0.22270600  0.25817500  1
  O  O64  1  0.26299900  0.92703500  0.50695100  1
  O  O65  1  0.23700100  0.92703500  0.00695100  1
  O  O66  1  0.73700100  0.07296500  0.49304900  1
  O  O67  1  0.76299900  0.07296500  0.99304900  1
  O  O68  1  0.53775600  0.13119200  0.32756000  1
  O  O69  1  0.96224400  0.13119200  0.82756000  1
  O  O70  1  0.46224400  0.86880800  0.67244000  1
  O  O71  1  0.03775600  0.86880800  0.17244000  1
