# generated using pymatgen
data_K9Fe2O7
_symmetry_space_group_name_H-M   'P 1'
_cell_length_a   11.13899300
_cell_length_b   11.13899300
_cell_length_c   11.13899300
_cell_angle_alpha   90.00000000
_cell_angle_beta   90.00000000
_cell_angle_gamma   90.00000000
_symmetry_Int_Tables_number   1
_chemical_formula_structural   K9Fe2O7
_chemical_formula_sum   'K36 Fe8 O28'
_cell_volume   1382.09467300
_cell_formula_units_Z   4
loop_
 _symmetry_equiv_pos_site_id
 _symmetry_equiv_pos_as_xyz
  1  'x, y, z'
loop_
 _atom_site_type_symbol
 _atom_site_label
 _atom_site_symmetry_multiplicity
 _atom_site_fract_x
 _atom_site_fract_y
 _atom_site_fract_z
 _atom_site_occupancy
  K  K0  1  0.09709800  0.59709800  0.90290200  1
  K  K1  1  0.59709800  0.90290200  0.09709800  1
  K  K2  1  0.90290200  0.09709800  0.59709800  1
  K  K3  1  0.40290200  0.40290200  0.40290200  1
  K  K4  1  0.26329900  0.76329900  0.73670100  1
  K  K5  1  0.76329900  0.73670100  0.26329900  1
  K  K6  1  0.73670100  0.26329900  0.76329900  1
  K  K7  1  0.23670100  0.23670100  0.23670100  1
  K  K8  1  0.42544100  0.92544100  0.57455900  1
  K  K9  1  0.92544100  0.57455900  0.42544100  1
  K  K10  1  0.57455900  0.42544100  0.92544100  1
  K  K11  1  0.07455900  0.07455900  0.07455900  1
  K  K12  1  0.21505700  0.16224300  0.50907400  1
  K  K13  1  0.49092600  0.71505700  0.33775700  1
  K  K14  1  0.66224300  0.99092600  0.78494300  1
  K  K15  1  0.71505700  0.33775700  0.49092600  1
  K  K16  1  0.99092600  0.78494300  0.66224300  1
  K  K17  1  0.16224300  0.50907400  0.21505700  1
  K  K18  1  0.78494300  0.66224300  0.99092600  1
  K  K19  1  0.50907400  0.21505700  0.16224300  1
  K  K20  1  0.33775700  0.49092600  0.71505700  1
  K  K21  1  0.28494300  0.83775700  0.00907400  1
  K  K22  1  0.00907400  0.28494300  0.83775700  1
  K  K23  1  0.83775700  0.00907400  0.28494300  1
  K  K24  1  0.71808800  0.83550100  0.53098400  1
  K  K25  1  0.46901600  0.21808800  0.66449900  1
  K  K26  1  0.33550100  0.96901600  0.28191200  1
  K  K27  1  0.21808800  0.66449900  0.46901600  1
  K  K28  1  0.96901600  0.28191200  0.33550100  1
  K  K29  1  0.83550100  0.53098400  0.71808800  1
  K  K30  1  0.28191200  0.33550100  0.96901600  1
  K  K31  1  0.53098400  0.71808800  0.83550100  1
  K  K32  1  0.66449900  0.46901600  0.21808800  1
  K  K33  1  0.78191200  0.16449900  0.03098400  1
  K  K34  1  0.03098400  0.78191200  0.16449900  1
  K  K35  1  0.16449900  0.03098400  0.78191200  1
  Fe  Fe36  1  0.92798000  0.42798000  0.07202000  1
  Fe  Fe37  1  0.42798000  0.07202000  0.92798000  1
  Fe  Fe38  1  0.07202000  0.92798000  0.42798000  1
  Fe  Fe39  1  0.57202000  0.57202000  0.57202000  1
  Fe  Fe40  1  0.59506200  0.09506200  0.40493800  1
  Fe  Fe41  1  0.09506200  0.40493800  0.59506200  1
  Fe  Fe42  1  0.40493800  0.59506200  0.09506200  1
  Fe  Fe43  1  0.90493800  0.90493800  0.90493800  1
  O  O44  1  0.66047000  0.08837500  0.56635300  1
  O  O45  1  0.43364700  0.16047000  0.41162500  1
  O  O46  1  0.58837500  0.93364700  0.33953000  1
  O  O47  1  0.16047000  0.41162500  0.43364700  1
  O  O48  1  0.93364700  0.33953000  0.58837500  1
  O  O49  1  0.08837500  0.56635300  0.66047000  1
  O  O50  1  0.33953000  0.58837500  0.93364700  1
  O  O51  1  0.56635300  0.66047000  0.08837500  1
  O  O52  1  0.41162500  0.43364700  0.16047000  1
  O  O53  1  0.83953000  0.91162500  0.06635300  1
  O  O54  1  0.06635300  0.83953000  0.91162500  1
  O  O55  1  0.91162500  0.06635300  0.83953000  1
  O  O56  1  0.18040700  0.91512700  0.56070600  1
  O  O57  1  0.43929400  0.68040700  0.58487300  1
  O  O58  1  0.41512700  0.93929400  0.81959300  1
  O  O59  1  0.68040700  0.58487300  0.43929400  1
  O  O60  1  0.93929400  0.81959300  0.41512700  1
  O  O61  1  0.91512700  0.56070600  0.18040700  1
  O  O62  1  0.81959300  0.41512700  0.93929400  1
  O  O63  1  0.56070600  0.18040700  0.91512700  1
  O  O64  1  0.58487300  0.43929400  0.68040700  1
  O  O65  1  0.31959300  0.08487300  0.06070600  1
  O  O66  1  0.06070600  0.31959300  0.08487300  1
  O  O67  1  0.08487300  0.06070600  0.31959300  1
  O  O68  1  0.69598000  0.19598000  0.30402000  1
  O  O69  1  0.19598000  0.30402000  0.69598000  1
  O  O70  1  0.30402000  0.69598000  0.19598000  1
  O  O71  1  0.80402000  0.80402000  0.80402000  1
