# generated using pymatgen
data_Ba3Ti2(O3F5)2
_symmetry_space_group_name_H-M   'P 1'
_cell_length_a   12.73208700
_cell_length_b   12.73208700
_cell_length_c   8.42726500
_cell_angle_alpha   90.00000000
_cell_angle_beta   90.00000000
_cell_angle_gamma   90.00000000
_symmetry_Int_Tables_number   1
_chemical_formula_structural   Ba3Ti2(O3F5)2
_chemical_formula_sum   'Ba12 Ti8 O24 F40'
_cell_volume   1366.11055192
_cell_formula_units_Z   4
loop_
 _symmetry_equiv_pos_site_id
 _symmetry_equiv_pos_as_xyz
  1  'x, y, z'
loop_
 _atom_site_type_symbol
 _atom_site_label
 _atom_site_symmetry_multiplicity
 _atom_site_fract_x
 _atom_site_fract_y
 _atom_site_fract_z
 _atom_site_occupancy
  Ba  Ba0  1  0.80281700  0.49301700  0.50000000  1
  Ba  Ba1  1  0.50698300  0.80281700  0.00000000  1
  Ba  Ba2  1  0.30281700  0.00698300  0.50000000  1
  Ba  Ba3  1  0.99301700  0.30281700  0.00000000  1
  Ba  Ba4  1  0.19718300  0.50698300  0.50000000  1
  Ba  Ba5  1  0.49301700  0.19718300  0.00000000  1
  Ba  Ba6  1  0.69718300  0.99301700  0.50000000  1
  Ba  Ba7  1  0.00698300  0.69718300  0.00000000  1
  Ba  Ba8  1  0.50000000  0.50000000  0.75000000  1
  Ba  Ba9  1  0.50000000  0.50000000  0.25000000  1
  Ba  Ba10  1  0.00000000  0.00000000  0.75000000  1
  Ba  Ba11  1  0.00000000  0.00000000  0.25000000  1
  Ti  Ti12  1  0.26090900  0.45257900  0.00000000  1
  Ti  Ti13  1  0.54742100  0.26090900  0.50000000  1
  Ti  Ti14  1  0.76090900  0.04742100  0.00000000  1
  Ti  Ti15  1  0.95257900  0.76090900  0.50000000  1
  Ti  Ti16  1  0.73909100  0.54742100  0.00000000  1
  Ti  Ti17  1  0.45257900  0.73909100  0.50000000  1
  Ti  Ti18  1  0.23909100  0.95257900  0.00000000  1
  Ti  Ti19  1  0.04742100  0.23909100  0.50000000  1
  O  O20  1  0.99583200  0.37528000  0.58482400  1
  O  O21  1  0.62472000  0.99583200  0.08482400  1
  O  O22  1  0.49583200  0.12472000  0.58482400  1
  O  O23  1  0.87528000  0.49583200  0.08482400  1
  O  O24  1  0.99583200  0.37528000  0.41517600  1
  O  O25  1  0.62472000  0.99583200  0.91517600  1
  O  O26  1  0.49583200  0.12472000  0.41517600  1
  O  O27  1  0.87528000  0.49583200  0.91517600  1
  O  O28  1  0.00416800  0.62472000  0.41517600  1
  O  O29  1  0.37528000  0.00416800  0.91517600  1
  O  O30  1  0.50416800  0.87528000  0.41517600  1
  O  O31  1  0.12472000  0.50416800  0.91517600  1
  O  O32  1  0.00416800  0.62472000  0.58482400  1
  O  O33  1  0.37528000  0.00416800  0.08482400  1
  O  O34  1  0.50416800  0.87528000  0.58482400  1
  O  O35  1  0.12472000  0.50416800  0.08482400  1
  O  O36  1  0.84928600  0.34928600  0.75000000  1
  O  O37  1  0.65071400  0.84928600  0.25000000  1
  O  O38  1  0.34928600  0.15071400  0.75000000  1
  O  O39  1  0.84928600  0.34928600  0.25000000  1
  O  O40  1  0.65071400  0.84928600  0.75000000  1
  O  O41  1  0.34928600  0.15071400  0.25000000  1
  O  O42  1  0.15071400  0.65071400  0.25000000  1
  O  O43  1  0.15071400  0.65071400  0.75000000  1
  F  F44  1  0.05608600  0.20828600  0.72906100  1
  F  F45  1  0.79171400  0.05608600  0.22906100  1
  F  F46  1  0.55608600  0.29171400  0.72906100  1
  F  F47  1  0.70828600  0.55608600  0.22906100  1
  F  F48  1  0.05608600  0.20828600  0.27093900  1
  F  F49  1  0.79171400  0.05608600  0.77093900  1
  F  F50  1  0.55608600  0.29171400  0.27093900  1
  F  F51  1  0.70828600  0.55608600  0.77093900  1
  F  F52  1  0.94391400  0.79171400  0.27093900  1
  F  F53  1  0.20828600  0.94391400  0.77093900  1
  F  F54  1  0.44391400  0.70828600  0.27093900  1
  F  F55  1  0.29171400  0.44391400  0.77093900  1
  F  F56  1  0.94391400  0.79171400  0.72906100  1
  F  F57  1  0.20828600  0.94391400  0.22906100  1
  F  F58  1  0.44391400  0.70828600  0.72906100  1
  F  F59  1  0.29171400  0.44391400  0.22906100  1
  F  F60  1  0.18520400  0.28975500  0.50000000  1
  F  F61  1  0.71024500  0.18520400  0.00000000  1
  F  F62  1  0.68520400  0.21024500  0.50000000  1
  F  F63  1  0.78975500  0.68520400  0.00000000  1
  F  F64  1  0.81479600  0.71024500  0.50000000  1
  F  F65  1  0.28975500  0.81479600  0.00000000  1
  F  F66  1  0.31479600  0.78975500  0.50000000  1
  F  F67  1  0.21024500  0.31479600  0.00000000  1
  F  F68  1  0.92434200  0.15602700  0.50000000  1
  F  F69  1  0.84397300  0.92434200  0.00000000  1
  F  F70  1  0.42434200  0.34397300  0.50000000  1
  F  F71  1  0.65602700  0.42434200  0.00000000  1
  F  F72  1  0.07565800  0.84397300  0.50000000  1
  F  F73  1  0.15602700  0.07565800  0.00000000  1
  F  F74  1  0.57565800  0.65602700  0.50000000  1
  F  F75  1  0.34397300  0.57565800  0.00000000  1
  F  F76  1  0.11228100  0.08612100  0.50000000  1
  F  F77  1  0.91387900  0.11228100  0.00000000  1
  F  F78  1  0.61228100  0.41387900  0.50000000  1
  F  F79  1  0.58612100  0.61228100  0.00000000  1
  F  F80  1  0.88771900  0.91387900  0.50000000  1
  F  F81  1  0.08612100  0.88771900  0.00000000  1
  F  F82  1  0.38771900  0.58612100  0.50000000  1
  F  F83  1  0.41387900  0.38771900  0.00000000  1
