# generated using pymatgen
data_ZnH12C2S2N4(ClO2)2
_symmetry_space_group_name_H-M   'P 1'
_cell_length_a   14.47210800
_cell_length_b   4.93624800
_cell_length_c   9.39123100
_cell_angle_alpha   90.00000000
_cell_angle_beta   90.00000000
_cell_angle_gamma   90.00000000
_symmetry_Int_Tables_number   1
_chemical_formula_structural   ZnH12C2S2N4(ClO2)2
_chemical_formula_sum   'Zn2 H24 C4 S4 N8 Cl4 O8'
_cell_volume   670.88995414
_cell_formula_units_Z   2
loop_
 _symmetry_equiv_pos_site_id
 _symmetry_equiv_pos_as_xyz
  1  'x, y, z'
loop_
 _atom_site_type_symbol
 _atom_site_label
 _atom_site_symmetry_multiplicity
 _atom_site_fract_x
 _atom_site_fract_y
 _atom_site_fract_z
 _atom_site_occupancy
  Zn  Zn0  1  0.00000000  0.41001900  0.33705600  1
  Zn  Zn1  1  0.50000000  0.58998100  0.83705600  1
  H  H2  1  0.63026000  0.24392100  0.26814500  1
  H  H3  1  0.36974000  0.24392100  0.26814500  1
  H  H4  1  0.86974000  0.75607900  0.76814500  1
  H  H5  1  0.13026000  0.75607900  0.76814500  1
  H  H6  1  0.58740400  0.01040000  0.40185500  1
  H  H7  1  0.41259600  0.01040000  0.40185500  1
  H  H8  1  0.91259600  0.98960000  0.90185500  1
  H  H9  1  0.08740400  0.98960000  0.90185500  1
  H  H10  1  0.66927000  0.26465000  0.45136200  1
  H  H11  1  0.33073000  0.26465000  0.45136200  1
  H  H12  1  0.83073000  0.73535000  0.95136200  1
  H  H13  1  0.16927000  0.73535000  0.95136200  1
  H  H14  1  0.83382700  0.15353000  0.19342000  1
  H  H15  1  0.16617300  0.15353000  0.19342000  1
  H  H16  1  0.66617300  0.84647000  0.69342000  1
  H  H17  1  0.33382700  0.84647000  0.69342000  1
  H  H18  1  0.83322800  0.36303300  0.43720100  1
  H  H19  1  0.16677200  0.36303300  0.43720100  1
  H  H20  1  0.66677200  0.63696700  0.93720100  1
  H  H21  1  0.33322800  0.63696700  0.93720100  1
  H  H22  1  0.89233300  0.08199900  0.48049000  1
  H  H23  1  0.10766700  0.08199900  0.48049000  1
  H  H24  1  0.60766700  0.91800100  0.98049000  1
  H  H25  1  0.39233300  0.91800100  0.98049000  1
  C  C26  1  0.64668600  0.13027300  0.36518100  1
  C  C27  1  0.35331400  0.13027300  0.36518100  1
  C  C28  1  0.85331400  0.86972700  0.86518100  1
  C  C29  1  0.14668600  0.86972700  0.86518100  1
  S  S30  1  0.73532800  0.89223600  0.32736700  1
  S  S31  1  0.26467200  0.89223600  0.32736700  1
  S  S32  1  0.76467200  0.10776400  0.82736700  1
  S  S33  1  0.23532800  0.10776400  0.82736700  1
  N  N34  1  0.83355200  0.05607600  0.28980300  1
  N  N35  1  0.16644800  0.05607600  0.28980300  1
  N  N36  1  0.66644800  0.94392400  0.78980300  1
  N  N37  1  0.33355200  0.94392400  0.78980300  1
  N  N38  1  0.87609500  0.21289800  0.39877800  1
  N  N39  1  0.12390500  0.21289800  0.39877800  1
  N  N40  1  0.62390500  0.78710200  0.89877800  1
  N  N41  1  0.37609500  0.78710200  0.89877800  1
  Cl  Cl42  1  0.00000000  0.71778400  0.51672400  1
  Cl  Cl43  1  0.50000000  0.28221600  0.01672400  1
  Cl  Cl44  1  0.00000000  0.41885900  0.10078400  1
  Cl  Cl45  1  0.50000000  0.58114100  0.60078400  1
  O  O46  1  0.71349000  0.74710500  0.19826600  1
  O  O47  1  0.28651000  0.74710500  0.19826600  1
  O  O48  1  0.78651000  0.25289500  0.69826600  1
  O  O49  1  0.21349000  0.25289500  0.69826600  1
  O  O50  1  0.75380600  0.74302800  0.45785500  1
  O  O51  1  0.24619400  0.74302800  0.45785500  1
  O  O52  1  0.74619400  0.25697200  0.95785500  1
  O  O53  1  0.25380600  0.25697200  0.95785500  1
