# generated using pymatgen
data_PuP2H6CO8
_symmetry_space_group_name_H-M   'P 1'
_cell_length_a   5.33755400
_cell_length_b   8.57338300
_cell_length_c   17.09959249
_cell_angle_alpha   90.00000000
_cell_angle_beta   103.99888518
_cell_angle_gamma   90.00000000
_symmetry_Int_Tables_number   1
_chemical_formula_structural   PuP2H6CO8
_chemical_formula_sum   'Pu4 P8 H24 C4 O32'
_cell_volume   759.25295897
_cell_formula_units_Z   4
loop_
 _symmetry_equiv_pos_site_id
 _symmetry_equiv_pos_as_xyz
  1  'x, y, z'
loop_
 _atom_site_type_symbol
 _atom_site_label
 _atom_site_symmetry_multiplicity
 _atom_site_fract_x
 _atom_site_fract_y
 _atom_site_fract_z
 _atom_site_occupancy
  Pu  Pu0  1  0.21180100  0.64722500  0.86353100  1
  Pu  Pu1  1  0.21180100  0.85277500  0.36353100  1
  Pu  Pu2  1  0.78819900  0.35277500  0.13646900  1
  Pu  Pu3  1  0.78819900  0.14722500  0.63646900  1
  P  P4  1  0.38190100  0.32149800  0.75557000  1
  P  P5  1  0.38190100  0.17850200  0.25557000  1
  P  P6  1  0.61809900  0.67850200  0.24443000  1
  P  P7  1  0.61809900  0.82149800  0.74443000  1
  P  P8  1  0.75548800  0.39337200  0.92105000  1
  P  P9  1  0.75548800  0.10662800  0.42105000  1
  P  P10  1  0.24451200  0.60662800  0.07895000  1
  P  P11  1  0.24451200  0.89337200  0.57895000  1
  H  H12  1  0.41292900  0.21333300  0.88661100  1
  H  H13  1  0.41292900  0.28666700  0.38661100  1
  H  H14  1  0.58707100  0.78666700  0.11338900  1
  H  H15  1  0.58707100  0.71333300  0.61338900  1
  H  H16  1  0.67400400  0.15308700  0.84561800  1
  H  H17  1  0.67400400  0.34691300  0.34561800  1
  H  H18  1  0.32599600  0.84691300  0.15438200  1
  H  H19  1  0.32599600  0.65308700  0.65438200  1
  H  H20  1  0.31163500  0.06854400  0.06209000  1
  H  H21  1  0.31163500  0.43145600  0.56209000  1
  H  H22  1  0.68836500  0.93145600  0.93791000  1
  H  H23  1  0.68836500  0.56854400  0.43791000  1
  H  H24  1  0.21459200  0.21888700  0.01700600  1
  H  H25  1  0.21459200  0.28111300  0.51700600  1
  H  H26  1  0.78540800  0.78111300  0.98299400  1
  H  H27  1  0.78540800  0.71888700  0.48299400  1
  H  H28  1  0.19102700  0.99843700  0.93351200  1
  H  H29  1  0.19102700  0.50156300  0.43351200  1
  H  H30  1  0.80897300  0.00156300  0.06648800  1
  H  H31  1  0.80897300  0.49843700  0.56648800  1
  H  H32  1  0.05801600  0.99408400  0.83932000  1
  H  H33  1  0.05801600  0.50591600  0.33932000  1
  H  H34  1  0.94198400  0.00591600  0.16068000  1
  H  H35  1  0.94198400  0.49408400  0.66068000  1
  C  C36  1  0.55584500  0.25349200  0.85435800  1
  C  C37  1  0.55584500  0.24650800  0.35435800  1
  C  C38  1  0.44415500  0.74650800  0.14564200  1
  C  C39  1  0.44415500  0.75349200  0.64564200  1
  O  O40  1  0.43764900  0.81927600  0.80209200  1
  O  O41  1  0.43764900  0.68072400  0.30209200  1
  O  O42  1  0.56235100  0.18072400  0.19790800  1
  O  O43  1  0.56235100  0.31927600  0.69790800  1
  O  O44  1  0.58615400  0.54051000  0.92321400  1
  O  O45  1  0.58615400  0.95949000  0.42321400  1
  O  O46  1  0.41384600  0.45949000  0.07678600  1
  O  O47  1  0.41384600  0.04051000  0.57678600  1
  O  O48  1  0.99008300  0.43489300  0.88692200  1
  O  O49  1  0.99008300  0.06510700  0.38692200  1
  O  O50  1  0.00991700  0.56510700  0.11307800  1
  O  O51  1  0.00991700  0.93489300  0.61307800  1
  O  O52  1  0.27906100  0.48795100  0.76428700  1
  O  O53  1  0.27906100  0.01204900  0.26428700  1
  O  O54  1  0.72093900  0.51204900  0.23571300  1
  O  O55  1  0.72093900  0.98795100  0.73571300  1
  O  O56  1  0.84816800  0.70735000  0.77273100  1
  O  O57  1  0.84816800  0.79265000  0.27273100  1
  O  O58  1  0.15183200  0.29265000  0.22726900  1
  O  O59  1  0.15183200  0.20735000  0.72726900  1
  O  O60  1  0.08374400  0.93423300  0.88954900  1
  O  O61  1  0.08374400  0.56576700  0.38954900  1
  O  O62  1  0.91625600  0.06576700  0.11045100  1
  O  O63  1  0.91625600  0.43423300  0.61045100  1
  O  O64  1  0.15971000  0.68485400  0.99609800  1
  O  O65  1  0.15971000  0.81514600  0.49609800  1
  O  O66  1  0.84029000  0.31514600  0.00390200  1
  O  O67  1  0.84029000  0.18485400  0.50390200  1
  O  O68  1  0.33177500  0.13054500  0.01611500  1
  O  O69  1  0.33177500  0.36945500  0.51611500  1
  O  O70  1  0.66822500  0.86945500  0.98388500  1
  O  O71  1  0.66822500  0.63054500  0.48388500  1
