# generated using pymatgen
data_HgC6(IN2)2
_symmetry_space_group_name_H-M   'P 1'
_cell_length_a   6.90788100
_cell_length_b   12.86481900
_cell_length_c   15.91106600
_cell_angle_alpha   90.00000000
_cell_angle_beta   90.00000000
_cell_angle_gamma   90.00000000
_symmetry_Int_Tables_number   1
_chemical_formula_structural   HgC6(IN2)2
_chemical_formula_sum   'Hg4 C24 I8 N16'
_cell_volume   1413.99477630
_cell_formula_units_Z   4
loop_
 _symmetry_equiv_pos_site_id
 _symmetry_equiv_pos_as_xyz
  1  'x, y, z'
loop_
 _atom_site_type_symbol
 _atom_site_label
 _atom_site_symmetry_multiplicity
 _atom_site_fract_x
 _atom_site_fract_y
 _atom_site_fract_z
 _atom_site_occupancy
  Hg  Hg0  1  0.25000000  0.80267000  0.77407400  1
  Hg  Hg1  1  0.25000000  0.30267000  0.72592600  1
  Hg  Hg2  1  0.75000000  0.19733000  0.22592600  1
  Hg  Hg3  1  0.75000000  0.69733000  0.27407400  1
  C  C4  1  0.58223200  0.52349500  0.77103800  1
  C  C5  1  0.91776800  0.02349500  0.72896200  1
  C  C6  1  0.08223200  0.47650500  0.22896200  1
  C  C7  1  0.41776800  0.97650500  0.27103800  1
  C  C8  1  0.41776800  0.47650500  0.22896200  1
  C  C9  1  0.08223200  0.97650500  0.27103800  1
  C  C10  1  0.91776800  0.52349500  0.77103800  1
  C  C11  1  0.58223200  0.02349500  0.72896200  1
  C  C12  1  0.75000000  0.43335500  0.87993400  1
  C  C13  1  0.75000000  0.93335500  0.62006600  1
  C  C14  1  0.25000000  0.56664500  0.12006600  1
  C  C15  1  0.25000000  0.06664500  0.37993400  1
  C  C16  1  0.58564500  0.59271300  0.91211900  1
  C  C17  1  0.91435500  0.09271300  0.58788100  1
  C  C18  1  0.08564500  0.40728700  0.08788100  1
  C  C19  1  0.41435500  0.90728700  0.41211900  1
  C  C20  1  0.41435500  0.40728700  0.08788100  1
  C  C21  1  0.08564500  0.90728700  0.41211900  1
  C  C22  1  0.91435500  0.59271300  0.91211900  1
  C  C23  1  0.58564500  0.09271300  0.58788100  1
  C  C24  1  0.75000000  0.67563500  0.80478600  1
  C  C25  1  0.75000000  0.17563500  0.69521400  1
  C  C26  1  0.25000000  0.32436500  0.19521400  1
  C  C27  1  0.25000000  0.82436500  0.30478600  1
  I  I28  1  0.25000000  0.86051500  0.93102100  1
  I  I29  1  0.25000000  0.36051500  0.56897900  1
  I  I30  1  0.75000000  0.13948500  0.06897900  1
  I  I31  1  0.75000000  0.63948500  0.43102100  1
  I  I32  1  0.25000000  0.72761200  0.62130300  1
  I  I33  1  0.25000000  0.22761200  0.87869700  1
  I  I34  1  0.75000000  0.27238800  0.37869700  1
  I  I35  1  0.75000000  0.77238800  0.12130300  1
  N  N36  1  0.58243800  0.61378600  0.82363200  1
  N  N37  1  0.91756200  0.11378600  0.67636800  1
  N  N38  1  0.08243800  0.38621400  0.17636800  1
  N  N39  1  0.41756200  0.88621400  0.32363200  1
  N  N40  1  0.41756200  0.38621400  0.17636800  1
  N  N41  1  0.08243800  0.88621400  0.32363200  1
  N  N42  1  0.91756200  0.61378600  0.82363200  1
  N  N43  1  0.58243800  0.11378600  0.67636800  1
  N  N44  1  0.75000000  0.46731500  0.79558400  1
  N  N45  1  0.75000000  0.96731500  0.70441600  1
  N  N46  1  0.25000000  0.53268500  0.20441600  1
  N  N47  1  0.25000000  0.03268500  0.29558400  1
  N  N48  1  0.75000000  0.52921600  0.92565400  1
  N  N49  1  0.75000000  0.02921600  0.57434600  1
  N  N50  1  0.25000000  0.47078400  0.07434600  1
  N  N51  1  0.25000000  0.97078400  0.42565400  1
