# generated using pymatgen
data_Eu4B4O11F2
_symmetry_space_group_name_H-M   'P 1'
_cell_length_a   7.38493748
_cell_length_b   7.38493748
_cell_length_c   13.94467227
_cell_angle_alpha   89.11157898
_cell_angle_beta   89.11157898
_cell_angle_gamma   37.38706046
_symmetry_Int_Tables_number   1
_chemical_formula_structural   Eu4B4O11F2
_chemical_formula_sum   'Eu8 B8 O22 F4'
_cell_volume   461.71391985
_cell_formula_units_Z   2
loop_
 _symmetry_equiv_pos_site_id
 _symmetry_equiv_pos_as_xyz
  1  'x, y, z'
loop_
 _atom_site_type_symbol
 _atom_site_label
 _atom_site_symmetry_multiplicity
 _atom_site_fract_x
 _atom_site_fract_y
 _atom_site_fract_z
 _atom_site_occupancy
  Eu  Eu0  1  0.45615900  0.42232600  0.37161900  1
  Eu  Eu1  1  0.57767400  0.54384100  0.12838100  1
  Eu  Eu2  1  0.54384100  0.57767400  0.62838100  1
  Eu  Eu3  1  0.42232600  0.45615900  0.87161900  1
  Eu  Eu4  1  0.73890800  0.70474800  0.37306400  1
  Eu  Eu5  1  0.29525200  0.26109200  0.12693600  1
  Eu  Eu6  1  0.26109200  0.29525200  0.62693600  1
  Eu  Eu7  1  0.70474800  0.73890800  0.87306400  1
  B  B8  1  0.06417600  0.11809800  0.28806900  1
  B  B9  1  0.88190200  0.93582400  0.21193100  1
  B  B10  1  0.93582400  0.88190200  0.71193100  1
  B  B11  1  0.11809800  0.06417600  0.78806900  1
  B  B12  1  0.86078200  0.94866500  0.52626200  1
  B  B13  1  0.05133500  0.13921800  0.97373800  1
  B  B14  1  0.13921800  0.05133500  0.47373800  1
  B  B15  1  0.94866500  0.86078200  0.02626200  1
  O  O16  1  0.95905500  0.21691400  0.39290600  1
  O  O17  1  0.78308600  0.04094500  0.10709400  1
  O  O18  1  0.04094500  0.78308600  0.60709400  1
  O  O19  1  0.21691400  0.95905500  0.89290600  1
  O  O20  1  0.65038400  0.00818100  0.25681600  1
  O  O21  1  0.99181900  0.34961600  0.24318400  1
  O  O22  1  0.34961600  0.99181900  0.74318400  1
  O  O23  1  0.00818100  0.65038400  0.75681600  1
  O  O24  1  0.59231300  0.25077200  0.53549800  1
  O  O25  1  0.74922800  0.40768700  0.96450200  1
  O  O26  1  0.40768700  0.74922800  0.46450200  1
  O  O27  1  0.25077200  0.59231300  0.03549800  1
  O  O28  1  0.84977000  0.15023000  0.25000000  1
  O  O29  1  0.15023000  0.84977000  0.75000000  1
  O  O30  1  0.94660000  0.82669800  0.43703300  1
  O  O31  1  0.17330200  0.05340000  0.06296700  1
  O  O32  1  0.05340000  0.17330200  0.56296700  1
  O  O33  1  0.82669800  0.94660000  0.93703300  1
  O  O34  1  0.37245300  0.82631300  0.27551800  1
  O  O35  1  0.17368700  0.62754700  0.22448200  1
  O  O36  1  0.62754700  0.17368700  0.72448200  1
  O  O37  1  0.82631300  0.37245300  0.77551800  1
  F  F38  1  0.29364800  0.24499700  0.42482900  1
  F  F39  1  0.75500300  0.70635200  0.07517100  1
  F  F40  1  0.70635200  0.75500300  0.57517100  1
  F  F41  1  0.24499700  0.29364800  0.92482900  1
