# generated using pymatgen
data_K2Ca5S6O25
_symmetry_space_group_name_H-M   'P 1'
_cell_length_a   9.49671686
_cell_length_b   9.49671686
_cell_length_c   18.36832253
_cell_angle_alpha   68.51770195
_cell_angle_beta   68.51770195
_cell_angle_gamma   42.80662895
_symmetry_Int_Tables_number   1
_chemical_formula_structural   K2Ca5S6O25
_chemical_formula_sum   'K4 Ca10 S12 O50'
_cell_volume   1034.96053162
_cell_formula_units_Z   2
loop_
 _symmetry_equiv_pos_site_id
 _symmetry_equiv_pos_as_xyz
  1  'x, y, z'
loop_
 _atom_site_type_symbol
 _atom_site_label
 _atom_site_symmetry_multiplicity
 _atom_site_fract_x
 _atom_site_fract_y
 _atom_site_fract_z
 _atom_site_occupancy
  K  K0  1  0.82410100  0.04275000  0.08948700  1
  K  K1  1  0.95725000  0.17589900  0.41051300  1
  K  K2  1  0.17589900  0.95725000  0.91051300  1
  K  K3  1  0.04275000  0.82410100  0.58948700  1
  Ca  Ca4  1  0.42876400  0.27173800  0.48281200  1
  Ca  Ca5  1  0.72826200  0.57123600  0.01718800  1
  Ca  Ca6  1  0.57123600  0.72826200  0.51718800  1
  Ca  Ca7  1  0.27173800  0.42876400  0.98281200  1
  Ca  Ca8  1  0.34028700  0.09441300  0.20634800  1
  Ca  Ca9  1  0.90558700  0.65971300  0.29365200  1
  Ca  Ca10  1  0.65971300  0.90558700  0.79365200  1
  Ca  Ca11  1  0.09441300  0.34028700  0.70634800  1
  Ca  Ca12  1  0.39534000  0.60466000  0.25000000  1
  Ca  Ca13  1  0.60466000  0.39534000  0.75000000  1
  S  S14  1  0.21773900  0.04725500  0.08836600  1
  S  S15  1  0.95274500  0.78226100  0.41163400  1
  S  S16  1  0.78226100  0.95274500  0.91163400  1
  S  S17  1  0.04725500  0.21773900  0.58836600  1
  S  S18  1  0.47687700  0.67574500  0.38242800  1
  S  S19  1  0.32425500  0.52312300  0.11757200  1
  S  S20  1  0.52312300  0.32425500  0.61757200  1
  S  S21  1  0.67574500  0.47687700  0.88242800  1
  S  S22  1  0.39777900  0.17236600  0.34459400  1
  S  S23  1  0.82763400  0.60222100  0.15540600  1
  S  S24  1  0.60222100  0.82763400  0.65540600  1
  S  S25  1  0.17236600  0.39777900  0.84459400  1
  O  O26  1  0.79551500  0.00359600  0.42421900  1
  O  O27  1  0.99640400  0.20448500  0.07578100  1
  O  O28  1  0.20448500  0.99640400  0.57578100  1
  O  O29  1  0.00359600  0.79551500  0.92421900  1
  O  O30  1  0.39955100  0.33116200  0.33943300  1
  O  O31  1  0.66883800  0.60044900  0.16056700  1
  O  O32  1  0.60044900  0.66883800  0.66056700  1
  O  O33  1  0.33116200  0.39955100  0.83943300  1
  O  O34  1  0.23145200  0.94780100  0.17377800  1
  O  O35  1  0.05219900  0.76854800  0.32622200  1
  O  O36  1  0.76854800  0.05219900  0.82622200  1
  O  O37  1  0.94780100  0.23145200  0.67377800  1
  O  O38  1  0.35137600  0.88900500  0.03511600  1
  O  O39  1  0.11099500  0.64862400  0.46488400  1
  O  O40  1  0.64862400  0.11099500  0.96488400  1
  O  O41  1  0.88900500  0.35137600  0.53511600  1
  O  O42  1  0.29565200  0.14832900  0.07467100  1
  O  O43  1  0.85167100  0.70434800  0.42532900  1
  O  O44  1  0.70434800  0.85167100  0.92532900  1
  O  O45  1  0.14832900  0.29565200  0.57467100  1
  O  O46  1  0.56939300  0.02481300  0.28673100  1
  O  O47  1  0.97518700  0.43060700  0.21326900  1
  O  O48  1  0.43060700  0.97518700  0.71326900  1
  O  O49  1  0.02481300  0.56939300  0.78673100  1
  O  O50  1  0.41296700  0.06503500  0.42758800  1
  O  O51  1  0.93496500  0.58703300  0.07241200  1
  O  O52  1  0.58703300  0.93496500  0.57241200  1
  O  O53  1  0.06503500  0.41296700  0.92758800  1
  O  O54  1  0.36781000  0.83713900  0.31332700  1
  O  O55  1  0.16286100  0.63219000  0.18667300  1
  O  O56  1  0.63219000  0.16286100  0.68667300  1
  O  O57  1  0.83713900  0.36781000  0.81332700  1
  O  O58  1  0.38905000  0.32158200  0.12196500  1
  O  O59  1  0.67841800  0.61095000  0.37803500  1
  O  O60  1  0.61095000  0.67841800  0.87803500  1
  O  O61  1  0.32158200  0.38905000  0.62196500  1
  O  O62  1  0.72036300  0.80362200  0.17734200  1
  O  O63  1  0.19637800  0.27963700  0.32265800  1
  O  O64  1  0.27963700  0.19637800  0.82265800  1
  O  O65  1  0.80362200  0.72036300  0.67734200  1
  O  O66  1  0.34396800  0.76305500  0.45725800  1
  O  O67  1  0.23694500  0.65603200  0.04274200  1
  O  O68  1  0.65603200  0.23694500  0.54274200  1
  O  O69  1  0.76305500  0.34396800  0.95725800  1
  O  O70  1  0.50995800  0.47666900  0.12101600  1
  O  O71  1  0.52333100  0.49004200  0.37898400  1
  O  O72  1  0.49004200  0.52333100  0.87898400  1
  O  O73  1  0.47666900  0.50995800  0.62101600  1
  O  O74  1  0.75937900  0.24062100  0.25000000  1
  O  O75  1  0.24062100  0.75937900  0.75000000  1
