# generated using pymatgen
data_SN8O13
_symmetry_space_group_name_H-M   'P 1'
_cell_length_a   6.16410300
_cell_length_b   10.39321800
_cell_length_c   13.00890917
_cell_angle_alpha   85.92802899
_cell_angle_beta   90.00000000
_cell_angle_gamma   90.00000000
_symmetry_Int_Tables_number   1
_chemical_formula_structural   SN8O13
_chemical_formula_sum   'S2 N16 O26'
_cell_volume   831.31018905
_cell_formula_units_Z   2
loop_
 _symmetry_equiv_pos_site_id
 _symmetry_equiv_pos_as_xyz
  1  'x, y, z'
loop_
 _atom_site_type_symbol
 _atom_site_label
 _atom_site_symmetry_multiplicity
 _atom_site_fract_x
 _atom_site_fract_y
 _atom_site_fract_z
 _atom_site_occupancy
  S  S0  1  0.62394200  0.25153700  0.16590500  1
  S  S1  1  0.12394200  0.74846300  0.83409500  1
  N  N2  1  0.66464300  0.23526900  0.50244300  1
  N  N3  1  0.16464300  0.76473100  0.49755700  1
  N  N4  1  0.63469100  0.58383200  0.93326000  1
  N  N5  1  0.13469100  0.41616800  0.06674000  1
  N  N6  1  0.66211600  0.57161800  0.29337400  1
  N  N7  1  0.16211600  0.42838200  0.70662600  1
  N  N8  1  0.64698900  0.90785500  0.70491400  1
  N  N9  1  0.14698900  0.09214500  0.29508600  1
  N  N10  1  0.65982500  0.91647500  0.07035400  1
  N  N11  1  0.15982500  0.08352500  0.92964600  1
  N  N12  1  0.15682000  0.74913900  0.12536200  1
  N  N13  1  0.65682000  0.25086100  0.87463800  1
  N  N14  1  0.63732400  0.89282400  0.37006400  1
  N  N15  1  0.13732400  0.10717600  0.62993600  1
  N  N16  1  0.69591700  0.57839100  0.58990000  1
  N  N17  1  0.19591700  0.42160900  0.41010000  1
  O  O18  1  0.44536300  0.18965100  0.11005000  1
  O  O19  1  0.94536300  0.81034900  0.88995000  1
  O  O20  1  0.64159200  0.39181500  0.13558500  1
  O  O21  1  0.14159200  0.60818500  0.86441500  1
  O  O22  1  0.59167100  0.24634300  0.27835700  1
  O  O23  1  0.09167100  0.75365700  0.72164300  1
  O  O24  1  0.81787800  0.17731100  0.13504800  1
  O  O25  1  0.31787800  0.82268900  0.86495200  1
  O  O26  1  0.16175200  0.86943900  0.12293500  1
  O  O27  1  0.66175200  0.13056100  0.87706500  1
  O  O28  1  0.33001200  0.68619400  0.12208000  1
  O  O29  1  0.83001200  0.31380600  0.87792000  1
  O  O30  1  0.97835000  0.69099300  0.13050400  1
  O  O31  1  0.47835000  0.30900700  0.86949600  1
  O  O32  1  0.82533100  0.86673200  0.34079100  1
  O  O33  1  0.32533100  0.13326800  0.65920900  1
  O  O34  1  0.47739700  0.85580900  0.31993500  1
  O  O35  1  0.97739700  0.14419100  0.68006500  1
  O  O36  1  0.60819000  0.95464600  0.44768100  1
  O  O37  1  0.10819000  0.04535400  0.55231900  1
  O  O38  1  0.81955000  0.51499100  0.53560200  1
  O  O39  1  0.31955000  0.48500900  0.46439800  1
  O  O40  1  0.62945800  0.53035200  0.67463300  1
  O  O41  1  0.12945800  0.46964800  0.32536700  1
  O  O42  1  0.64095000  0.68974800  0.55738300  1
  O  O43  1  0.14095000  0.31025200  0.44261700  1
