# generated using pymatgen
data_MgH6CO6
_symmetry_space_group_name_H-M   'P 1'
_cell_length_a   5.43995600
_cell_length_b   7.79627600
_cell_length_c   14.39777404
_cell_angle_alpha   57.70546763
_cell_angle_beta   90.00000000
_cell_angle_gamma   90.00000000
_symmetry_Int_Tables_number   1
_chemical_formula_structural   MgH6CO6
_chemical_formula_sum   'Mg4 H24 C4 O24'
_cell_volume   516.17314088
_cell_formula_units_Z   4
loop_
 _symmetry_equiv_pos_site_id
 _symmetry_equiv_pos_as_xyz
  1  'x, y, z'
loop_
 _atom_site_type_symbol
 _atom_site_label
 _atom_site_symmetry_multiplicity
 _atom_site_fract_x
 _atom_site_fract_y
 _atom_site_fract_z
 _atom_site_occupancy
  Mg  Mg0  1  0.91103900  0.40171600  0.85080900  1
  Mg  Mg1  1  0.58896100  0.40171600  0.35080900  1
  Mg  Mg2  1  0.08896100  0.59828400  0.14919100  1
  Mg  Mg3  1  0.41103900  0.59828400  0.64919100  1
  H  H4  1  0.82902200  0.67856500  0.90876200  1
  H  H5  1  0.67097800  0.67856500  0.40876200  1
  H  H6  1  0.17097800  0.32143500  0.09123800  1
  H  H7  1  0.32902200  0.32143500  0.59123800  1
  H  H8  1  0.06371300  0.74543100  0.83662100  1
  H  H9  1  0.43628700  0.74543100  0.33662100  1
  H  H10  1  0.93628700  0.25456900  0.16337900  1
  H  H11  1  0.56371300  0.25456900  0.66337900  1
  H  H12  1  0.84665300  0.99771800  0.91426300  1
  H  H13  1  0.65334700  0.99771800  0.41426300  1
  H  H14  1  0.15334700  0.00228200  0.08573700  1
  H  H15  1  0.34665300  0.00228200  0.58573700  1
  H  H16  1  0.88810000  0.13367500  0.78492200  1
  H  H17  1  0.61190000  0.13367500  0.28492200  1
  H  H18  1  0.11190000  0.86632500  0.21507800  1
  H  H19  1  0.38810000  0.86632500  0.71507800  1
  H  H20  1  0.69850500  0.98530600  0.18206700  1
  H  H21  1  0.80149500  0.98530600  0.68206700  1
  H  H22  1  0.30149500  0.01469400  0.81793300  1
  H  H23  1  0.19850500  0.01469400  0.31793300  1
  H  H24  1  0.61444200  0.19937900  0.08264700  1
  H  H25  1  0.88555800  0.19937900  0.58264700  1
  H  H26  1  0.38555800  0.80062100  0.91735300  1
  H  H27  1  0.11444200  0.80062100  0.41735300  1
  C  C28  1  0.86205200  0.65442400  0.58941800  1
  C  C29  1  0.63794800  0.65442400  0.08941800  1
  C  C30  1  0.13794800  0.34557600  0.41058200  1
  C  C31  1  0.36205200  0.34557600  0.91058200  1
  O  O32  1  0.90431200  0.67499000  0.84706000  1
  O  O33  1  0.59568800  0.67499000  0.34706000  1
  O  O34  1  0.09568800  0.32501000  0.15294000  1
  O  O35  1  0.40431200  0.32501000  0.65294000  1
  O  O36  1  0.90699800  0.13134700  0.85386000  1
  O  O37  1  0.59300200  0.13134700  0.35386000  1
  O  O38  1  0.09300200  0.86865300  0.14614000  1
  O  O39  1  0.40699800  0.86865300  0.64614000  1
  O  O40  1  0.58874000  0.32050300  0.94041700  1
  O  O41  1  0.91126000  0.32050300  0.44041700  1
  O  O42  1  0.41126000  0.67949700  0.05958300  1
  O  O43  1  0.08874000  0.67949700  0.55958300  1
  O  O44  1  0.79384100  0.55003100  0.69220100  1
  O  O45  1  0.70615900  0.55003100  0.19220100  1
  O  O46  1  0.20615900  0.44996900  0.30779900  1
  O  O47  1  0.29384100  0.44996900  0.80779900  1
  O  O48  1  0.18362700  0.26966000  0.98208100  1
  O  O49  1  0.31637300  0.26966000  0.48208100  1
  O  O50  1  0.81637300  0.73034000  0.01791900  1
  O  O51  1  0.68362700  0.73034000  0.51791900  1
  O  O52  1  0.65731000  0.12312600  0.16260700  1
  O  O53  1  0.84269000  0.12312600  0.66260700  1
  O  O54  1  0.34269000  0.87687400  0.83739300  1
  O  O55  1  0.15731000  0.87687400  0.33739300  1
