# generated using pymatgen
data_Co3B11HO20
_symmetry_space_group_name_H-M   'P 1'
_cell_length_a   7.74903800
_cell_length_b   8.24368200
_cell_length_c   17.62177800
_cell_angle_alpha   90.00000000
_cell_angle_beta   90.00000000
_cell_angle_gamma   90.00000000
_symmetry_Int_Tables_number   1
_chemical_formula_structural   Co3B11HO20
_chemical_formula_sum   'Co12 B44 H4 O80'
_cell_volume   1125.68984119
_cell_formula_units_Z   4
loop_
 _symmetry_equiv_pos_site_id
 _symmetry_equiv_pos_as_xyz
  1  'x, y, z'
loop_
 _atom_site_type_symbol
 _atom_site_label
 _atom_site_symmetry_multiplicity
 _atom_site_fract_x
 _atom_site_fract_y
 _atom_site_fract_z
 _atom_site_occupancy
  Co  Co0  1  0.00000000  0.67441800  0.84345000  1
  Co  Co1  1  0.50000000  0.32558200  0.34345000  1
  Co  Co2  1  0.50000000  0.96118100  0.20476900  1
  Co  Co3  1  0.00000000  0.03881900  0.70476900  1
  Co  Co4  1  0.50000000  0.85467900  0.75637600  1
  Co  Co5  1  0.00000000  0.14532100  0.25637600  1
  Co  Co6  1  0.50000000  0.22693400  0.62699200  1
  Co  Co7  1  0.00000000  0.77306600  0.12699200  1
  Co  Co8  1  0.00000000  0.26406800  0.95980100  1
  Co  Co9  1  0.50000000  0.73593200  0.45980100  1
  Co  Co10  1  0.50000000  0.43993500  0.89876100  1
  Co  Co11  1  0.00000000  0.56006500  0.39876100  1
  B  B12  1  0.66481500  0.78940500  0.90995700  1
  B  B13  1  0.33518500  0.78940500  0.90995700  1
  B  B14  1  0.83518500  0.21059500  0.40995700  1
  B  B15  1  0.16481500  0.21059500  0.40995700  1
  B  B16  1  0.82495700  0.01864300  0.84273200  1
  B  B17  1  0.17504300  0.01864300  0.84273200  1
  B  B18  1  0.67504300  0.98135700  0.34273200  1
  B  B19  1  0.32495700  0.98135700  0.34273200  1
  B  B20  1  0.83125100  0.60094300  0.99948300  1
  B  B21  1  0.16874900  0.60094300  0.99948300  1
  B  B22  1  0.66874900  0.39905700  0.49948300  1
  B  B23  1  0.33125100  0.39905700  0.49948300  1
  B  B24  1  0.66298700  0.08556500  0.96126500  1
  B  B25  1  0.33701300  0.08556500  0.96126500  1
  B  B26  1  0.83701300  0.91443500  0.46126500  1
  B  B27  1  0.16298700  0.91443500  0.46126500  1
  B  B28  1  0.66864400  0.35093200  0.03895400  1
  B  B29  1  0.33135600  0.35093200  0.03895400  1
  B  B30  1  0.83135600  0.64906800  0.53895400  1
  B  B31  1  0.16864400  0.64906800  0.53895400  1
  B  B32  1  0.83564400  0.14830900  0.55816900  1
  B  B33  1  0.16435600  0.14830900  0.55816900  1
  B  B34  1  0.66435600  0.85169100  0.05816900  1
  B  B35  1  0.33564400  0.85169100  0.05816900  1
  B  B36  1  0.83282400  0.10179800  0.09512800  1
  B  B37  1  0.16717600  0.10179800  0.09512800  1
  B  B38  1  0.66717600  0.89820200  0.59512800  1
  B  B39  1  0.33282400  0.89820200  0.59512800  1
  B  B40  1  0.66505300  0.50629300  0.75326100  1
  B  B41  1  0.33494700  0.50629300  0.75326100  1
  B  B42  1  0.83494700  0.49370700  0.25326100  1
  B  B43  1  0.16505300  0.49370700  0.25326100  1
  B  B44  1  0.83114900  0.71404000  0.68544600  1
  B  B45  1  0.16885100  0.71404000  0.68544600  1
  B  B46  1  0.66885100  0.28596000  0.18544600  1
  B  B47  1  0.33114900  0.28596000  0.18544600  1
  B  B48  1  0.66100300  0.58677700  0.13435900  1
  B  B49  1  0.33899700  0.58677700  0.13435900  1
  B  B50  1  0.83899700  0.41322300  0.63435900  1
  B  B51  1  0.16100300  0.41322300  0.63435900  1
  B  B52  1  0.66965100  0.23998000  0.76319000  1
  B  B53  1  0.33034900  0.23998000  0.76319000  1
  B  B54  1  0.83034900  0.76002000  0.26319000  1
  B  B55  1  0.16965100  0.76002000  0.26319000  1
  H  H56  1  0.89262100  0.37673900  0.83400700  1
  H  H57  1  0.10737900  0.37673900  0.83400700  1
  H  H58  1  0.60737900  0.62326100  0.33400700  1
  H  H59  1  0.39262100  0.62326100  0.33400700  1
  O  O60  1  0.80633400  0.67677100  0.92474200  1
  O  O61  1  0.19366600  0.67677100  0.92474200  1
  O  O62  1  0.69366600  0.32322900  0.42474200  1
  O  O63  1  0.30633400  0.32322900  0.42474200  1
  O  O64  1  0.69606700  0.87499400  0.27257300  1
  O  O65  1  0.30393300  0.87499400  0.27257300  1
  O  O66  1  0.80393300  0.12500600  0.77257300  1
  O  O67  1  0.19606700  0.12500600  0.77257300  1
  O  O68  1  0.69514000  0.83241100  0.67187800  1
  O  O69  1  0.30486000  0.83241100  0.67187800  1
  O  O70  1  0.80486000  0.16758900  0.17187800  1
  O  O71  1  0.19514000  0.16758900  0.17187800  1
  O  O72  1  0.50000000  0.58482700  0.74673600  1
  O  O73  1  0.00000000  0.41517300  0.24673600  1
  O  O74  1  0.50000000  0.20576500  0.18548100  1
  O  O75  1  0.00000000  0.79423500  0.68548100  1
  O  O76  1  0.00000000  0.94156900  0.83379400  1
  O  O77  1  0.50000000  0.05843100  0.33379400  1
  O  O78  1  0.50000000  0.89270500  0.09348800  1
  O  O79  1  0.00000000  0.10729500  0.59348800  1
  O  O80  1  0.80666700  0.61872600  0.75402700  1
  O  O81  1  0.19333300  0.61872600  0.75402700  1
  O  O82  1  0.69333300  0.38127400  0.25402700  1
  O  O83  1  0.30666700  0.38127400  0.25402700  1
  O  O84  1  0.50000000  0.39419100  0.00864200  1
  O  O85  1  0.00000000  0.60580900  0.50864200  1
  O  O86  1  0.80827500  0.11832500  0.91161000  1
  O  O87  1  0.19172500  0.11832500  0.91161000  1
  O  O88  1  0.69172500  0.88167500  0.41161000  1
  O  O89  1  0.30827500  0.88167500  0.41161000  1
  O  O90  1  0.00000000  0.14568700  0.06350400  1
  O  O91  1  0.50000000  0.85431300  0.56350400  1
  O  O92  1  0.80127200  0.42676500  0.99404000  1
  O  O93  1  0.19872800  0.42676500  0.99404000  1
  O  O94  1  0.69872800  0.57323500  0.49404000  1
  O  O95  1  0.30127200  0.57323500  0.49404000  1
  O  O96  1  0.50000000  0.69987400  0.90635600  1
  O  O97  1  0.00000000  0.30012600  0.40635600  1
  O  O98  1  0.69153400  0.88889700  0.84227600  1
  O  O99  1  0.30846600  0.88889700  0.84227600  1
  O  O100  1  0.80846600  0.11110300  0.34227600  1
  O  O101  1  0.19153400  0.11110300  0.34227600  1
  O  O102  1  0.67421200  0.38212100  0.81513100  1
  O  O103  1  0.32578800  0.38212100  0.81513100  1
  O  O104  1  0.82578800  0.61787900  0.31513100  1
  O  O105  1  0.17421200  0.61787900  0.31513100  1
  O  O106  1  0.69516600  0.36931500  0.68940200  1
  O  O107  1  0.30483400  0.36931500  0.68940200  1
  O  O108  1  0.80483400  0.63068500  0.18940200  1
  O  O109  1  0.19516600  0.63068500  0.18940200  1
  O  O110  1  0.50000000  0.36035900  0.53178600  1
  O  O111  1  0.00000000  0.63964100  0.03178600  1
  O  O112  1  0.69375900  0.07408800  0.59837100  1
  O  O113  1  0.30624100  0.07408800  0.59837100  1
  O  O114  1  0.80624100  0.92591200  0.09837100  1
  O  O115  1  0.19375900  0.92591200  0.09837100  1
  O  O116  1  0.66518400  0.90613400  0.97819900  1
  O  O117  1  0.33481600  0.90613400  0.97819900  1
  O  O118  1  0.83481600  0.09386700  0.47819900  1
  O  O119  1  0.16518400  0.09386700  0.47819900  1
  O  O120  1  0.69708500  0.17057000  0.03926000  1
  O  O121  1  0.30291500  0.17057000  0.03926000  1
  O  O122  1  0.80291500  0.82943000  0.53926000  1
  O  O123  1  0.19708500  0.82943000  0.53926000  1
  O  O124  1  0.68035100  0.40867100  0.11919200  1
  O  O125  1  0.31964900  0.40867100  0.11919200  1
  O  O126  1  0.81964900  0.59132900  0.61919200  1
  O  O127  1  0.18035100  0.59132900  0.61919200  1
  O  O128  1  0.69658200  0.67016000  0.05792800  1
  O  O129  1  0.30341800  0.67016000  0.05792800  1
  O  O130  1  0.80341800  0.32984000  0.55792800  1
  O  O131  1  0.19658200  0.32984000  0.55792800  1
  O  O132  1  0.50000000  0.13599400  0.93082500  1
  O  O133  1  0.00000000  0.86400600  0.43082500  1
  O  O134  1  0.50000000  0.16723400  0.74879400  1
  O  O135  1  0.00000000  0.83276600  0.24879400  1
  O  O136  1  0.00000000  0.41156200  0.86036000  1
  O  O137  1  0.50000000  0.58843800  0.36036000  1
  O  O138  1  0.50000000  0.62821900  0.16572600  1
  O  O139  1  0.00000000  0.37178100  0.66572600  1
