# generated using pymatgen
data_Pb(IO3)2
_symmetry_space_group_name_H-M   'P 1'
_cell_length_a   7.06973800
_cell_length_b   7.20468350
_cell_length_c   13.37914225
_cell_angle_alpha   85.49269746
_cell_angle_beta   86.32497968
_cell_angle_gamma   63.53397604
_symmetry_Int_Tables_number   1
_chemical_formula_structural   Pb(IO3)2
_chemical_formula_sum   'Pb4 I8 O24'
_cell_volume   607.84126859
_cell_formula_units_Z   4
loop_
 _symmetry_equiv_pos_site_id
 _symmetry_equiv_pos_as_xyz
  1  'x, y, z'
loop_
 _atom_site_type_symbol
 _atom_site_label
 _atom_site_symmetry_multiplicity
 _atom_site_fract_x
 _atom_site_fract_y
 _atom_site_fract_z
 _atom_site_occupancy
  Pb  Pb0  1  0.97360500  0.85017600  0.86916800  1
  Pb  Pb1  1  0.02639500  0.14982400  0.13083200  1
  Pb  Pb2  1  0.96350500  0.32778100  0.62844400  1
  Pb  Pb3  1  0.03649500  0.67221900  0.37155600  1
  I  I4  1  0.65863600  0.95604600  0.61615100  1
  I  I5  1  0.34136400  0.04395400  0.38384900  1
  I  I6  1  0.33320700  0.60654400  0.61595100  1
  I  I7  1  0.66679300  0.39345600  0.38404900  1
  I  I8  1  0.32799800  0.14522600  0.87372800  1
  I  I9  1  0.67200200  0.85477400  0.12627200  1
  I  I10  1  0.67547000  0.49463400  0.88335500  1
  I  I11  1  0.32453000  0.50536600  0.11664500  1
  O  O12  1  0.90308100  0.93119700  0.66952500  1
  O  O13  1  0.09691900  0.06880300  0.33047500  1
  O  O14  1  0.73667800  0.94214700  0.48179800  1
  O  O15  1  0.26332200  0.05785300  0.51820200  1
  O  O16  1  0.67435600  0.69536900  0.64736200  1
  O  O17  1  0.32564400  0.30463100  0.35263800  1
  O  O18  1  0.57679600  0.36596900  0.59113600  1
  O  O19  1  0.42320400  0.63403100  0.40886400  1
  O  O20  1  0.29781200  0.55631500  0.74938100  1
  O  O21  1  0.70218800  0.44368500  0.25061900  1
  O  O22  1  0.14498700  0.53107800  0.56134000  1
  O  O23  1  0.85501300  0.46892200  0.43866000  1
  O  O24  1  0.58127000  0.90896700  0.89057600  1
  O  O25  1  0.41873000  0.09103300  0.10942400  1
  O  O26  1  0.27276800  0.09287700  0.75009500  1
  O  O27  1  0.72723200  0.90712300  0.24990500  1
  O  O28  1  0.15771200  0.05447000  0.95003100  1
  O  O29  1  0.84228800  0.94553000  0.04996900  1
  O  O30  1  0.92651400  0.49821200  0.83816000  1
  O  O31  1  0.07348600  0.50178800  0.16184000  1
  O  O32  1  0.72336000  0.45200400  0.01898700  1
  O  O33  1  0.27664000  0.54799600  0.98101300  1
  O  O34  1  0.72623400  0.23915900  0.84170900  1
  O  O35  1  0.27376600  0.76084100  0.15829100  1
