# generated using pymatgen
data_KMg14AlO16
_symmetry_space_group_name_H-M   'P 1'
_cell_length_a   4.37914600
_cell_length_b   8.50758500
_cell_length_c   8.60315900
_cell_angle_alpha   90.00000000
_cell_angle_beta   90.00000000
_cell_angle_gamma   90.00000000
_symmetry_Int_Tables_number   1
_chemical_formula_structural   KMg14AlO16
_chemical_formula_sum   'K1 Mg14 Al1 O16'
_cell_volume   320.51892024
_cell_formula_units_Z   1
loop_
 _symmetry_equiv_pos_site_id
 _symmetry_equiv_pos_as_xyz
  1  'x, y, z'
loop_
 _atom_site_type_symbol
 _atom_site_label
 _atom_site_symmetry_multiplicity
 _atom_site_fract_x
 _atom_site_fract_y
 _atom_site_fract_z
 _atom_site_occupancy
  K  K0  1  0.00000000  0.50000000  0.00000000  1
  Mg  Mg1  1  0.00000000  0.00000000  0.50000000  1
  Mg  Mg2  1  0.00000000  0.50000000  0.50000000  1
  Mg  Mg3  1  0.50000000  0.74817500  0.00000000  1
  Mg  Mg4  1  0.50000000  0.25182500  0.00000000  1
  Mg  Mg5  1  0.50000000  0.74834200  0.50000000  1
  Mg  Mg6  1  0.50000000  0.25165800  0.50000000  1
  Mg  Mg7  1  0.50000000  0.00000000  0.74998600  1
  Mg  Mg8  1  0.50000000  0.50000000  0.74826900  1
  Mg  Mg9  1  0.50000000  0.00000000  0.25001400  1
  Mg  Mg10  1  0.50000000  0.50000000  0.25173100  1
  Mg  Mg11  1  0.00000000  0.74812700  0.74663000  1
  Mg  Mg12  1  0.00000000  0.25187300  0.74663000  1
  Mg  Mg13  1  0.00000000  0.74812700  0.25337000  1
  Mg  Mg14  1  0.00000000  0.25187300  0.25337000  1
  Al  Al15  1  0.00000000  0.00000000  0.00000000  1
  O  O16  1  0.00000000  0.00000000  0.76240200  1
  O  O17  1  0.00000000  0.50000000  0.72542100  1
  O  O18  1  0.00000000  0.00000000  0.23759800  1
  O  O19  1  0.00000000  0.50000000  0.27457900  1
  O  O20  1  0.50000000  0.75139200  0.75090500  1
  O  O21  1  0.50000000  0.24860800  0.75090500  1
  O  O22  1  0.50000000  0.75139200  0.24909500  1
  O  O23  1  0.50000000  0.24860800  0.24909500  1
  O  O24  1  0.50000000  0.00000000  0.00000000  1
  O  O25  1  0.50000000  0.50000000  0.00000000  1
  O  O26  1  0.50000000  0.00000000  0.50000000  1
  O  O27  1  0.50000000  0.50000000  0.50000000  1
  O  O28  1  0.00000000  0.78771300  0.00000000  1
  O  O29  1  0.00000000  0.21228700  0.00000000  1
  O  O30  1  0.00000000  0.75905900  0.50000000  1
  O  O31  1  0.00000000  0.24094100  0.50000000  1
