# generated using pymatgen
data_Fe2CO5
_symmetry_space_group_name_H-M   'P 1'
_cell_length_a   8.90255600
_cell_length_b   3.01192500
_cell_length_c   12.01806910
_cell_angle_alpha   84.74716469
_cell_angle_beta   90.00000000
_cell_angle_gamma   90.00000000
_symmetry_Int_Tables_number   1
_chemical_formula_structural   Fe2CO5
_chemical_formula_sum   'Fe8 C4 O20'
_cell_volume   320.89715001
_cell_formula_units_Z   4
loop_
 _symmetry_equiv_pos_site_id
 _symmetry_equiv_pos_as_xyz
  1  'x, y, z'
loop_
 _atom_site_type_symbol
 _atom_site_label
 _atom_site_symmetry_multiplicity
 _atom_site_fract_x
 _atom_site_fract_y
 _atom_site_fract_z
 _atom_site_occupancy
  Fe  Fe0  1  0.50019900  0.98151200  0.28388600  1
  Fe  Fe1  1  0.00019900  0.01848800  0.21611400  1
  Fe  Fe2  1  0.49980100  0.01848800  0.71611400  1
  Fe  Fe3  1  0.99980100  0.98151200  0.78388600  1
  Fe  Fe4  1  0.73976000  0.54734500  0.11389900  1
  Fe  Fe5  1  0.23976000  0.45265500  0.38610100  1
  Fe  Fe6  1  0.26024000  0.45265500  0.88610100  1
  Fe  Fe7  1  0.76024000  0.54734500  0.61389900  1
  C  C8  1  0.76829400  0.51040100  0.36294800  1
  C  C9  1  0.26829400  0.48959900  0.13705200  1
  C  C10  1  0.23170600  0.48959900  0.63705200  1
  C  C11  1  0.73170600  0.51040100  0.86294800  1
  O  O12  1  0.62233300  0.45506400  0.35147200  1
  O  O13  1  0.12233300  0.54493600  0.14852800  1
  O  O14  1  0.37766700  0.54493600  0.64852800  1
  O  O15  1  0.87766700  0.45506400  0.85147200  1
  O  O16  1  0.84975500  0.50624000  0.26778900  1
  O  O17  1  0.34975500  0.49376000  0.23221100  1
  O  O18  1  0.15024500  0.49376000  0.73221100  1
  O  O19  1  0.65024500  0.50624000  0.76778900  1
  O  O20  1  0.83170400  0.58291300  0.45083600  1
  O  O21  1  0.33170400  0.41708700  0.04916400  1
  O  O22  1  0.16829600  0.41708700  0.54916400  1
  O  O23  1  0.66829600  0.58291300  0.95083600  1
  O  O24  1  0.60808800  0.02655300  0.15285600  1
  O  O25  1  0.10808800  0.97344700  0.34714400  1
  O  O26  1  0.39191200  0.97344700  0.84714400  1
  O  O27  1  0.89191200  0.02655300  0.65285600  1
  O  O28  1  0.87439100  0.06058300  0.09047900  1
  O  O29  1  0.37439100  0.93941700  0.40952100  1
  O  O30  1  0.12560900  0.93941700  0.90952100  1
  O  O31  1  0.62560900  0.06058300  0.59047900  1
