# generated using pymatgen
data_NaTbP2H2CO7
_symmetry_space_group_name_H-M   'P 1'
_cell_length_a   15.19557100
_cell_length_b   6.63812700
_cell_length_c   6.73247060
_cell_angle_alpha   88.46638534
_cell_angle_beta   90.00000000
_cell_angle_gamma   90.00000000
_symmetry_Int_Tables_number   1
_chemical_formula_structural   NaTbP2H2CO7
_chemical_formula_sum   'Na4 Tb4 P8 H8 C4 O28'
_cell_volume   678.86192715
_cell_formula_units_Z   4
loop_
 _symmetry_equiv_pos_site_id
 _symmetry_equiv_pos_as_xyz
  1  'x, y, z'
loop_
 _atom_site_type_symbol
 _atom_site_label
 _atom_site_symmetry_multiplicity
 _atom_site_fract_x
 _atom_site_fract_y
 _atom_site_fract_z
 _atom_site_occupancy
  Na  Na0  1  0.02806600  0.86078700  0.20321200  1
  Na  Na1  1  0.52806600  0.63921300  0.79678800  1
  Na  Na2  1  0.97193400  0.13921300  0.79678800  1
  Na  Na3  1  0.47193400  0.36078700  0.20321200  1
  Tb  Tb4  1  0.89768000  0.40371500  0.32662800  1
  Tb  Tb5  1  0.39768000  0.09628500  0.67337200  1
  Tb  Tb6  1  0.10232000  0.59628500  0.67337200  1
  Tb  Tb7  1  0.60232000  0.90371500  0.32662800  1
  P  P8  1  0.09237100  0.36788100  0.18113100  1
  P  P9  1  0.59237100  0.13211900  0.81886900  1
  P  P10  1  0.90762900  0.63211900  0.81886900  1
  P  P11  1  0.40762900  0.86788100  0.18113100  1
  P  P12  1  0.83890900  0.89812400  0.46870300  1
  P  P13  1  0.33890900  0.60187600  0.53129700  1
  P  P14  1  0.16109100  0.10187600  0.53129700  1
  P  P15  1  0.66109100  0.39812400  0.46870300  1
  H  H16  1  0.76126500  0.67885200  0.69790600  1
  H  H17  1  0.26126500  0.82114800  0.30209400  1
  H  H18  1  0.23873500  0.32114800  0.30209400  1
  H  H19  1  0.73873500  0.17885200  0.69790600  1
  H  H20  1  0.79933600  0.89226900  0.82212700  1
  H  H21  1  0.29933600  0.60773100  0.17787300  1
  H  H22  1  0.20066400  0.10773100  0.17787300  1
  H  H23  1  0.70066400  0.39226900  0.82212700  1
  C  C24  1  0.81816100  0.77897600  0.71322200  1
  C  C25  1  0.31816100  0.72102400  0.28677800  1
  C  C26  1  0.18183900  0.22102400  0.28677800  1
  C  C27  1  0.68183900  0.27897600  0.71322200  1
  O  O28  1  0.89605500  0.75390000  0.34954100  1
  O  O29  1  0.39605500  0.74610000  0.65045900  1
  O  O30  1  0.10394500  0.24610000  0.65045900  1
  O  O31  1  0.60394500  0.25390000  0.34954100  1
  O  O32  1  0.94231800  0.47884900  0.66647900  1
  O  O33  1  0.44231800  0.02115100  0.33352100  1
  O  O34  1  0.05768200  0.52115100  0.33352100  1
  O  O35  1  0.55768200  0.97884900  0.66647900  1
  O  O36  1  0.75233800  0.43503800  0.37630300  1
  O  O37  1  0.25233800  0.06496200  0.62369700  1
  O  O38  1  0.24766200  0.56496200  0.62369700  1
  O  O39  1  0.74766200  0.93503800  0.37630300  1
  O  O40  1  0.87364900  0.52092900  0.00635300  1
  O  O41  1  0.37364900  0.97907100  0.99364700  1
  O  O42  1  0.12635100  0.47907100  0.99364700  1
  O  O43  1  0.62635100  0.02092900  0.00635300  1
  O  O44  1  0.01522500  0.22119500  0.13903100  1
  O  O45  1  0.51522500  0.27880500  0.86096900  1
  O  O46  1  0.98477500  0.77880500  0.86096900  1
  O  O47  1  0.48477500  0.72119500  0.13903100  1
  O  O48  1  0.88769400  0.09794200  0.50529700  1
  O  O49  1  0.38769400  0.40205800  0.49470300  1
  O  O50  1  0.11230600  0.90205800  0.49470300  1
  O  O51  1  0.61230600  0.59794200  0.50529700  1
  O  O52  1  0.83999800  0.17153300  0.08760300  1
  O  O53  1  0.33999800  0.32846700  0.91239700  1
  O  O54  1  0.16000200  0.82846700  0.91239700  1
  O  O55  1  0.66000200  0.67153300  0.08760300  1
