# generated using pymatgen
data_P2H12C4O3
_symmetry_space_group_name_H-M   'P 1'
_cell_length_a   6.55350708
_cell_length_b   6.55350708
_cell_length_c   13.12450254
_cell_angle_alpha   79.43263857
_cell_angle_beta   79.43263857
_cell_angle_gamma   95.90931387
_symmetry_Int_Tables_number   1
_chemical_formula_structural   P2H12C4O3
_chemical_formula_sum   'P4 H24 C8 O6'
_cell_volume   539.25089626
_cell_formula_units_Z   2
loop_
 _symmetry_equiv_pos_site_id
 _symmetry_equiv_pos_as_xyz
  1  'x, y, z'
loop_
 _atom_site_type_symbol
 _atom_site_label
 _atom_site_symmetry_multiplicity
 _atom_site_fract_x
 _atom_site_fract_y
 _atom_site_fract_z
 _atom_site_occupancy
  P  P0  1  0.11403100  0.83820300  0.14457700  1
  P  P1  1  0.16179700  0.88596900  0.35542300  1
  P  P2  1  0.88596900  0.16179700  0.85542300  1
  P  P3  1  0.83820300  0.11403100  0.64457700  1
  H  H4  1  0.25991200  0.54416200  0.08576400  1
  H  H5  1  0.45583800  0.74008800  0.41423600  1
  H  H6  1  0.74008800  0.45583800  0.91423600  1
  H  H7  1  0.54416200  0.25991200  0.58576400  1
  H  H8  1  0.20852500  0.73492000  0.98065300  1
  H  H9  1  0.26508000  0.79147500  0.51934700  1
  H  H10  1  0.79147500  0.26508000  0.01934700  1
  H  H11  1  0.73492000  0.20852500  0.48065300  1
  H  H12  1  0.43485700  0.78592700  0.03496200  1
  H  H13  1  0.21407300  0.56514300  0.46503800  1
  H  H14  1  0.56514300  0.21407300  0.96503800  1
  H  H15  1  0.78592700  0.43485700  0.53496200  1
  H  H16  1  0.79084800  0.69499500  0.11089900  1
  H  H17  1  0.30500500  0.20915200  0.38910100  1
  H  H18  1  0.20915200  0.30500500  0.88910100  1
  H  H19  1  0.69499500  0.79084800  0.61089900  1
  H  H20  1  0.87182200  0.51806500  0.21252900  1
  H  H21  1  0.48193500  0.12817800  0.28747100  1
  H  H22  1  0.12817800  0.48193500  0.78747100  1
  H  H23  1  0.51806500  0.87182200  0.71252900  1
  H  H24  1  0.75966700  0.74388700  0.24283700  1
  H  H25  1  0.25611300  0.24033300  0.25716300  1
  H  H26  1  0.24033300  0.25611300  0.75716300  1
  H  H27  1  0.74388700  0.75966700  0.74283700  1
  C  C28  1  0.27065900  0.71266800  0.05359000  1
  C  C29  1  0.28733200  0.72934100  0.44641000  1
  C  C30  1  0.72934100  0.28733200  0.94641000  1
  C  C31  1  0.71266800  0.27065900  0.55359000  1
  C  C32  1  0.85849000  0.68261200  0.18197700  1
  C  C33  1  0.31738800  0.14151000  0.31802300  1
  C  C34  1  0.14151000  0.31738800  0.81802300  1
  C  C35  1  0.68261200  0.85849000  0.68197700  1
  O  O36  1  0.21727500  0.78272500  0.25000000  1
  O  O37  1  0.78272500  0.21727500  0.75000000  1
  O  O38  1  0.11632100  0.06745700  0.10791000  1
  O  O39  1  0.93254300  0.88367900  0.39209000  1
  O  O40  1  0.88367900  0.93254300  0.89209000  1
  O  O41  1  0.06745700  0.11632100  0.60791000  1
