# generated using pymatgen
data_C2SNOF
_symmetry_space_group_name_H-M   'P 1'
_cell_length_a   4.25654300
_cell_length_b   15.08457600
_cell_length_c   15.20194500
_cell_angle_alpha   90.00000000
_cell_angle_beta   90.00000000
_cell_angle_gamma   90.00000000
_symmetry_Int_Tables_number   1
_chemical_formula_structural   C2SNOF
_chemical_formula_sum   'C16 S8 N8 O8 F8'
_cell_volume   976.08870983
_cell_formula_units_Z   8
loop_
 _symmetry_equiv_pos_site_id
 _symmetry_equiv_pos_as_xyz
  1  'x, y, z'
loop_
 _atom_site_type_symbol
 _atom_site_label
 _atom_site_symmetry_multiplicity
 _atom_site_fract_x
 _atom_site_fract_y
 _atom_site_fract_z
 _atom_site_occupancy
  C  C0  1  0.30053200  0.01508400  0.83076800  1
  C  C1  1  0.69946800  0.51508400  0.16923200  1
  C  C2  1  0.30053200  0.51508400  0.66923200  1
  C  C3  1  0.69946800  0.01508400  0.33076800  1
  C  C4  1  0.26723200  0.00263700  0.67502000  1
  C  C5  1  0.73276800  0.50263700  0.32498000  1
  C  C6  1  0.26723200  0.50263700  0.82498000  1
  C  C7  1  0.73276800  0.00263700  0.17502000  1
  C  C8  1  0.81792300  0.24559500  0.88696500  1
  C  C9  1  0.18207700  0.74559500  0.11303500  1
  C  C10  1  0.81792300  0.74559500  0.61303500  1
  C  C11  1  0.18207700  0.24559500  0.38696500  1
  C  C12  1  0.76841100  0.25767200  0.73183300  1
  C  C13  1  0.23158900  0.75767200  0.26816700  1
  C  C14  1  0.76841100  0.75767200  0.76816700  1
  C  C15  1  0.23158900  0.25767200  0.23183300  1
  S  S16  1  0.41542600  0.99800500  0.92564100  1
  S  S17  1  0.58457400  0.49800500  0.07435900  1
  S  S18  1  0.41542600  0.49800500  0.57435900  1
  S  S19  1  0.58457400  0.99800500  0.42564100  1
  S  S20  1  0.94161400  0.26333500  0.98077600  1
  S  S21  1  0.05838600  0.76333500  0.01922400  1
  S  S22  1  0.94161400  0.76333500  0.51922400  1
  S  S23  1  0.05838600  0.26333500  0.48077600  1
  N  N24  1  0.19604300  0.03314700  0.75744500  1
  N  N25  1  0.80395700  0.53314700  0.24255500  1
  N  N26  1  0.19604300  0.53314700  0.74255500  1
  N  N27  1  0.80395700  0.03314700  0.25744500  1
  N  N28  1  0.70585500  0.22670800  0.81462200  1
  N  N29  1  0.29414500  0.72670800  0.18537800  1
  N  N30  1  0.70585500  0.72670800  0.68537800  1
  N  N31  1  0.29414500  0.22670800  0.31462200  1
  O  O32  1  0.44410500  0.94450200  0.65286700  1
  O  O33  1  0.55589500  0.44450200  0.34713300  1
  O  O34  1  0.44410500  0.44450200  0.84713300  1
  O  O35  1  0.55589500  0.94450200  0.15286700  1
  O  O36  1  0.94270800  0.31613400  0.70897500  1
  O  O37  1  0.05729200  0.81613400  0.29102500  1
  O  O38  1  0.94270800  0.81613400  0.79102500  1
  O  O39  1  0.05729200  0.31613400  0.20897500  1
  F  F40  1  0.10137400  0.05026200  0.61428300  1
  F  F41  1  0.89862600  0.55026200  0.38571700  1
  F  F42  1  0.10137400  0.55026200  0.88571700  1
  F  F43  1  0.89862600  0.05026200  0.11428300  1
  F  F44  1  0.59805500  0.21035900  0.67172200  1
  F  F45  1  0.40194500  0.71035900  0.32827800  1
  F  F46  1  0.59805500  0.71035900  0.82827800  1
  F  F47  1  0.40194500  0.21035900  0.17172200  1
