# generated using pymatgen
data_Ca3Al4CoO10
_symmetry_space_group_name_H-M   'P 1'
_cell_length_a   5.17789700
_cell_length_b   10.78738100
_cell_length_c   16.94246000
_cell_angle_alpha   90.00000000
_cell_angle_beta   90.00000000
_cell_angle_gamma   90.00000000
_symmetry_Int_Tables_number   1
_chemical_formula_structural   Ca3Al4CoO10
_chemical_formula_sum   'Ca12 Al16 Co4 O40'
_cell_volume   946.33715997
_cell_formula_units_Z   4
loop_
 _symmetry_equiv_pos_site_id
 _symmetry_equiv_pos_as_xyz
  1  'x, y, z'
loop_
 _atom_site_type_symbol
 _atom_site_label
 _atom_site_symmetry_multiplicity
 _atom_site_fract_x
 _atom_site_fract_y
 _atom_site_fract_z
 _atom_site_occupancy
  Ca  Ca0  1  0.29514200  0.34395500  0.60706900  1
  Ca  Ca1  1  0.70485800  0.84395500  0.39293100  1
  Ca  Ca2  1  0.29514200  0.84395500  0.89293100  1
  Ca  Ca3  1  0.70485800  0.34395500  0.10706900  1
  Ca  Ca4  1  0.29924700  0.99146700  0.61016500  1
  Ca  Ca5  1  0.70075300  0.49146700  0.38983500  1
  Ca  Ca6  1  0.29924700  0.49146700  0.88983500  1
  Ca  Ca7  1  0.70075300  0.99146700  0.11016500  1
  Ca  Ca8  1  0.72179400  0.18228800  0.29091300  1
  Ca  Ca9  1  0.27820600  0.68228800  0.70908700  1
  Ca  Ca10  1  0.72179400  0.68228800  0.20908700  1
  Ca  Ca11  1  0.27820600  0.18228800  0.79091300  1
  Al  Al12  1  0.63440700  0.16887400  0.47011500  1
  Al  Al13  1  0.36559300  0.66887400  0.52988500  1
  Al  Al14  1  0.63440700  0.66887400  0.02988500  1
  Al  Al15  1  0.36559300  0.16887400  0.97011500  1
  Al  Al16  1  0.74429300  0.17227000  0.66402400  1
  Al  Al17  1  0.25570700  0.67227000  0.33597600  1
  Al  Al18  1  0.74429300  0.67227000  0.83597600  1
  Al  Al19  1  0.25570700  0.17227000  0.16402400  1
  Al  Al20  1  0.19453800  0.42412600  0.24815900  1
  Al  Al21  1  0.80546200  0.92412600  0.75184100  1
  Al  Al22  1  0.19453800  0.92412600  0.25184100  1
  Al  Al23  1  0.80546200  0.42412600  0.74815900  1
  Al  Al24  1  0.13240300  0.02253200  0.42378400  1
  Al  Al25  1  0.86759700  0.52253200  0.57621600  1
  Al  Al26  1  0.13240300  0.52253200  0.07621600  1
  Al  Al27  1  0.86759700  0.02253200  0.92378400  1
  Co  Co28  1  0.14041400  0.32089800  0.42111600  1
  Co  Co29  1  0.85958600  0.82089800  0.57888400  1
  Co  Co30  1  0.14041400  0.82089800  0.07888400  1
  Co  Co31  1  0.85958600  0.32089800  0.92111600  1
  O  O32  1  0.08087100  0.67168900  0.83375100  1
  O  O33  1  0.91912900  0.17168900  0.16624900  1
  O  O34  1  0.08087100  0.17168900  0.66624900  1
  O  O35  1  0.91912900  0.67168900  0.33375100  1
  O  O36  1  0.42619600  0.17049700  0.07186900  1
  O  O37  1  0.57380400  0.67049700  0.92813100  1
  O  O38  1  0.42619600  0.67049700  0.42813100  1
  O  O39  1  0.57380400  0.17049700  0.57186900  1
  O  O40  1  0.96518900  0.66177100  0.05601100  1
  O  O41  1  0.03481100  0.16177100  0.94398900  1
  O  O42  1  0.96518900  0.16177100  0.44398900  1
  O  O43  1  0.03481100  0.66177100  0.55601100  1
  O  O44  1  0.40041400  0.30428200  0.21091500  1
  O  O45  1  0.59958600  0.80428200  0.78908500  1
  O  O46  1  0.40041400  0.80428200  0.28908500  1
  O  O47  1  0.59958600  0.30428200  0.71091500  1
  O  O48  1  0.01476700  0.41629200  0.00725100  1
  O  O49  1  0.98523300  0.91629200  0.99274900  1
  O  O50  1  0.01476700  0.91629200  0.49274900  1
  O  O51  1  0.98523300  0.41629200  0.50725100  1
  O  O52  1  0.00051600  0.48485400  0.17032500  1
  O  O53  1  0.99948400  0.98485400  0.82967500  1
  O  O54  1  0.00051600  0.98485400  0.32967500  1
  O  O55  1  0.99948400  0.48485400  0.67032500  1
  O  O56  1  0.47371900  0.53703200  0.07315100  1
  O  O57  1  0.52628100  0.03703200  0.92684900  1
  O  O58  1  0.47371900  0.03703200  0.42684900  1
  O  O59  1  0.52628100  0.53703200  0.57315100  1
  O  O60  1  0.39970400  0.04290400  0.21367000  1
  O  O61  1  0.60029600  0.54290400  0.78633000  1
  O  O62  1  0.39970400  0.54290400  0.28633000  1
  O  O63  1  0.60029600  0.04290400  0.71367000  1
  O  O64  1  0.97841500  0.86339800  0.18102700  1
  O  O65  1  0.02158500  0.36339800  0.81897300  1
  O  O66  1  0.97841500  0.36339800  0.31897300  1
  O  O67  1  0.02158500  0.86339800  0.68102700  1
  O  O68  1  0.51147400  0.79737000  0.08375800  1
  O  O69  1  0.48852600  0.29737000  0.91624200  1
  O  O70  1  0.51147400  0.29737000  0.41624200  1
  O  O71  1  0.48852600  0.79737000  0.58375800  1
