# generated using pymatgen
data_V2I3NO13
_symmetry_space_group_name_H-M   'P 1'
_cell_length_a   9.65689047
_cell_length_b   9.65689047
_cell_length_c   9.65689047
_cell_angle_alpha   131.60602129
_cell_angle_beta   112.70566994
_cell_angle_gamma   87.13389382
_symmetry_Int_Tables_number   1
_chemical_formula_structural   V2I3NO13
_chemical_formula_sum   'V4 I6 N2 O26'
_cell_volume   592.75288000
_cell_formula_units_Z   2
loop_
 _symmetry_equiv_pos_site_id
 _symmetry_equiv_pos_as_xyz
  1  'x, y, z'
loop_
 _atom_site_type_symbol
 _atom_site_label
 _atom_site_symmetry_multiplicity
 _atom_site_fract_x
 _atom_site_fract_y
 _atom_site_fract_z
 _atom_site_occupancy
  V  V0  1  0.85093600  0.65371500  0.76246900  1
  V  V1  1  0.14906400  0.91153200  0.80277900  1
  V  V2  1  0.60875300  0.41153200  0.76246900  1
  V  V3  1  0.39124700  0.15371500  0.80277900  1
  I  I4  1  0.24975500  0.55671100  0.78768100  1
  I  I5  1  0.75024500  0.53792600  0.30695600  1
  I  I6  1  0.73097100  0.03792600  0.78768100  1
  I  I7  1  0.26902900  0.05671100  0.30695600  1
  I  I8  1  0.97188300  0.77468500  0.24656700  1
  I  I9  1  0.02811700  0.27468500  0.80280200  1
  N  N10  1  0.33234400  0.54797500  0.38031900  1
  N  N11  1  0.66765600  0.04797500  0.21563000  1
  O  O12  1  0.34386300  0.76788600  0.07303100  1
  O  O13  1  0.65613700  0.72916800  0.42402400  1
  O  O14  1  0.80514500  0.22916800  0.07303100  1
  O  O15  1  0.19485500  0.26788600  0.42402400  1
  O  O16  1  0.00000000  0.82818300  0.82818300  1
  O  O17  1  0.50000000  0.32818300  0.82818300  1
  O  O18  1  0.90830300  0.98902900  0.39733200  1
  O  O19  1  0.09169700  0.48902900  0.08072600  1
  O  O20  1  0.97662400  0.79793500  0.06945700  1
  O  O21  1  0.02337600  0.09283300  0.82131100  1
  O  O22  1  0.77152200  0.59283300  0.06945700  1
  O  O23  1  0.22847800  0.29793500  0.82131100  1
  O  O24  1  0.71429100  0.76412800  0.77780900  1
  O  O25  1  0.28570900  0.06351800  0.04983700  1
  O  O26  1  0.51368100  0.56351800  0.77780900  1
  O  O27  1  0.48631900  0.26412800  0.04983700  1
  O  O28  1  0.76430800  0.45424200  0.71854900  1
  O  O29  1  0.23569200  0.95424200  0.68993400  1
  O  O30  1  0.21403000  0.67796700  0.69254700  1
  O  O31  1  0.78597000  0.47851700  0.46393700  1
  O  O32  1  0.51458000  0.97851700  0.69254700  1
  O  O33  1  0.48542000  0.17796700  0.46393700  1
  O  O34  1  0.04875600  0.48937000  0.73725500  1
  O  O35  1  0.95124400  0.68850000  0.44061500  1
  O  O36  1  0.74788500  0.18850000  0.73725500  1
  O  O37  1  0.25211500  0.98937000  0.44061500  1
