# generated using pymatgen
data_Rb3FeMo4O15
_symmetry_space_group_name_H-M   'P 1'
_cell_length_a   14.04711900
_cell_length_b   10.01850800
_cell_length_c   11.87336972
_cell_angle_alpha   86.94122522
_cell_angle_beta   90.00000000
_cell_angle_gamma   90.00000000
_symmetry_Int_Tables_number   1
_chemical_formula_structural   Rb3FeMo4O15
_chemical_formula_sum   'Rb12 Fe4 Mo16 O60'
_cell_volume   1668.57269183
_cell_formula_units_Z   4
loop_
 _symmetry_equiv_pos_site_id
 _symmetry_equiv_pos_as_xyz
  1  'x, y, z'
loop_
 _atom_site_type_symbol
 _atom_site_label
 _atom_site_symmetry_multiplicity
 _atom_site_fract_x
 _atom_site_fract_y
 _atom_site_fract_z
 _atom_site_occupancy
  Rb  Rb0  1  0.05194300  0.18160200  0.73958400  1
  Rb  Rb1  1  0.55194300  0.31839800  0.26041600  1
  Rb  Rb2  1  0.94805700  0.81839800  0.26041600  1
  Rb  Rb3  1  0.44805700  0.68160200  0.73958400  1
  Rb  Rb4  1  0.81499300  0.10629600  0.50090000  1
  Rb  Rb5  1  0.31499300  0.39370400  0.49910000  1
  Rb  Rb6  1  0.18500700  0.89370400  0.49910000  1
  Rb  Rb7  1  0.68500700  0.60629600  0.50090000  1
  Rb  Rb8  1  0.68590300  0.61849100  0.00790500  1
  Rb  Rb9  1  0.18590300  0.88150900  0.99209500  1
  Rb  Rb10  1  0.31409700  0.38150900  0.99209500  1
  Rb  Rb11  1  0.81409700  0.11849100  0.00790500  1
  Fe  Fe12  1  0.50000000  0.00000000  0.50000000  1
  Fe  Fe13  1  0.00000000  0.50000000  0.50000000  1
  Fe  Fe14  1  0.50000000  0.00000000  0.00000000  1
  Fe  Fe15  1  0.00000000  0.50000000  0.00000000  1
  Mo  Mo16  1  0.55950300  0.27733000  0.60116100  1
  Mo  Mo17  1  0.05950300  0.22267000  0.39883900  1
  Mo  Mo18  1  0.44049700  0.72267000  0.39883900  1
  Mo  Mo19  1  0.94049700  0.77733000  0.60116100  1
  Mo  Mo20  1  0.56897600  0.30143400  0.90197100  1
  Mo  Mo21  1  0.06897600  0.19856600  0.09802900  1
  Mo  Mo22  1  0.43102400  0.69856600  0.09802900  1
  Mo  Mo23  1  0.93102400  0.80143400  0.90197100  1
  Mo  Mo24  1  0.63382000  0.94263400  0.26417800  1
  Mo  Mo25  1  0.13382000  0.55736600  0.73582200  1
  Mo  Mo26  1  0.36618000  0.05736600  0.73582200  1
  Mo  Mo27  1  0.86618000  0.44263400  0.26417800  1
  Mo  Mo28  1  0.64759100  0.99126200  0.76805900  1
  Mo  Mo29  1  0.14759100  0.50873800  0.23194100  1
  Mo  Mo30  1  0.35240900  0.00873800  0.23194100  1
  Mo  Mo31  1  0.85240900  0.49126200  0.76805900  1
  O  O32  1  0.51335200  0.43830900  0.61210600  1
  O  O33  1  0.01335200  0.06169100  0.38789400  1
  O  O34  1  0.48664800  0.56169100  0.38789400  1
  O  O35  1  0.98664800  0.93830900  0.61210600  1
  O  O36  1  0.66617600  0.30705000  0.52671900  1
  O  O37  1  0.16617600  0.19295000  0.47328100  1
  O  O38  1  0.33382400  0.69295000  0.47328100  1
  O  O39  1  0.83382400  0.80705000  0.52671900  1
  O  O40  1  0.48273000  0.20178900  0.49338800  1
  O  O41  1  0.98273000  0.29821100  0.50661200  1
  O  O42  1  0.51727000  0.79821100  0.50661200  1
  O  O43  1  0.01727000  0.70178900  0.49338800  1
  O  O44  1  0.61034100  0.24741000  0.75923100  1
  O  O45  1  0.11034100  0.25259000  0.24076900  1
  O  O46  1  0.38965900  0.75259000  0.24076900  1
  O  O47  1  0.88965900  0.74741000  0.75923100  1
  O  O48  1  0.57689800  0.05030500  0.63611800  1
  O  O49  1  0.07689800  0.44969500  0.36388200  1
  O  O50  1  0.42310200  0.94969500  0.36388200  1
  O  O51  1  0.92310200  0.55030500  0.63611800  1
  O  O52  1  0.40716800  0.22542000  0.71721800  1
  O  O53  1  0.90716800  0.27458000  0.28278200  1
  O  O54  1  0.59283200  0.77458000  0.28278200  1
  O  O55  1  0.09283200  0.72542000  0.71721800  1
  O  O56  1  0.51778100  0.45967900  0.88093700  1
  O  O57  1  0.01778100  0.04032100  0.11906300  1
  O  O58  1  0.48221900  0.54032100  0.11906300  1
  O  O59  1  0.98221900  0.95967900  0.88093700  1
  O  O60  1  0.66612300  0.32320600  0.99268300  1
  O  O61  1  0.16612300  0.17679400  0.00731700  1
  O  O62  1  0.33387700  0.67679400  0.00731700  1
  O  O63  1  0.83387700  0.82320600  0.99268300  1
  O  O64  1  0.47772000  0.19984300  0.97634100  1
  O  O65  1  0.97772000  0.30015700  0.02365900  1
  O  O66  1  0.52228000  0.80015700  0.02365900  1
  O  O67  1  0.02228000  0.69984400  0.97634100  1
  O  O68  1  0.75575400  0.94510600  0.22936100  1
  O  O69  1  0.25575400  0.55489400  0.77063900  1
  O  O70  1  0.24424600  0.05489400  0.77063900  1
  O  O71  1  0.74424600  0.44510600  0.22936100  1
  O  O72  1  0.56475200  0.03164800  0.15260100  1
  O  O73  1  0.06475200  0.46835200  0.84739900  1
  O  O74  1  0.43524800  0.96835200  0.84739900  1
  O  O75  1  0.93524800  0.53164800  0.15260100  1
  O  O76  1  0.61849000  0.02525000  0.39683700  1
  O  O77  1  0.11849000  0.47475000  0.60316300  1
  O  O78  1  0.38151000  0.97475000  0.60316300  1
  O  O79  1  0.88151000  0.52525000  0.39683700  1
  O  O80  1  0.63603500  0.81797900  0.77075100  1
  O  O81  1  0.13603500  0.68202100  0.22924900  1
  O  O82  1  0.36396500  0.18202100  0.22924900  1
  O  O83  1  0.86396500  0.31797900  0.77075100  1
  O  O84  1  0.76802400  0.02479300  0.74438700  1
  O  O85  1  0.26802400  0.47520700  0.25561300  1
  O  O86  1  0.23197600  0.97520700  0.25561300  1
  O  O87  1  0.73197600  0.52479300  0.74438700  1
  O  O88  1  0.62167000  0.03692400  0.91536600  1
  O  O89  1  0.12167000  0.46307600  0.08463400  1
  O  O90  1  0.37833000  0.96307600  0.08463400  1
  O  O91  1  0.87833000  0.53692400  0.91536600  1
