# generated using pymatgen
data_Yb2Ni17
_symmetry_space_group_name_H-M   'P 1'
_cell_length_a   8.21841734
_cell_length_b   8.21841734
_cell_length_c   7.96488100
_cell_angle_alpha   90.00000000
_cell_angle_beta   90.00000000
_cell_angle_gamma   119.99999465
_symmetry_Int_Tables_number   1
_chemical_formula_structural   Yb2Ni17
_chemical_formula_sum   'Yb4 Ni34'
_cell_volume   465.89315427
_cell_formula_units_Z   2
loop_
 _symmetry_equiv_pos_site_id
 _symmetry_equiv_pos_as_xyz
  1  'x, y, z'
loop_
 _atom_site_type_symbol
 _atom_site_label
 _atom_site_symmetry_multiplicity
 _atom_site_fract_x
 _atom_site_fract_y
 _atom_site_fract_z
 _atom_site_occupancy
  Yb  Yb0  1  0.00000000  0.00000000  0.25000000  1
  Yb  Yb1  1  0.00000000  0.00000000  0.75000000  1
  Yb  Yb2  1  0.33333300  0.66666700  0.75000000  1
  Yb  Yb3  1  0.66666700  0.33333300  0.25000000  1
  Ni  Ni4  1  0.33333300  0.66666700  0.39825900  1
  Ni  Ni5  1  0.66666700  0.33333300  0.60174100  1
  Ni  Ni6  1  0.66666700  0.33333300  0.89825900  1
  Ni  Ni7  1  0.33333300  0.66666700  0.10174100  1
  Ni  Ni8  1  0.50000000  0.50000000  0.50000000  1
  Ni  Ni9  1  0.50000000  0.00000000  0.50000000  1
  Ni  Ni10  1  0.00000000  0.50000000  0.50000000  1
  Ni  Ni11  1  0.50000000  0.50000000  0.00000000  1
  Ni  Ni12  1  0.50000000  0.00000000  0.00000000  1
  Ni  Ni13  1  0.00000000  0.50000000  0.00000000  1
  Ni  Ni14  1  0.32671100  0.36864400  0.25000000  1
  Ni  Ni15  1  0.63135600  0.95806700  0.25000000  1
  Ni  Ni16  1  0.04193300  0.67328900  0.25000000  1
  Ni  Ni17  1  0.63135600  0.67328900  0.25000000  1
  Ni  Ni18  1  0.04193300  0.36864400  0.25000000  1
  Ni  Ni19  1  0.32671100  0.95806700  0.25000000  1
  Ni  Ni20  1  0.67328900  0.63135600  0.75000000  1
  Ni  Ni21  1  0.36864400  0.04193300  0.75000000  1
  Ni  Ni22  1  0.95806700  0.32671100  0.75000000  1
  Ni  Ni23  1  0.36864400  0.32671100  0.75000000  1
  Ni  Ni24  1  0.95806700  0.63135600  0.75000000  1
  Ni  Ni25  1  0.67328900  0.04193300  0.75000000  1
  Ni  Ni26  1  0.16576400  0.83423600  0.52037800  1
  Ni  Ni27  1  0.16576400  0.33152700  0.52037800  1
  Ni  Ni28  1  0.66847300  0.83423600  0.52037800  1
  Ni  Ni29  1  0.83423600  0.16576400  0.47962200  1
  Ni  Ni30  1  0.83423600  0.66847300  0.47962200  1
  Ni  Ni31  1  0.33152700  0.16576400  0.47962200  1
  Ni  Ni32  1  0.83423600  0.16576400  0.02037800  1
  Ni  Ni33  1  0.83423600  0.66847300  0.02037800  1
  Ni  Ni34  1  0.33152700  0.16576400  0.02037800  1
  Ni  Ni35  1  0.16576400  0.83423600  0.97962200  1
  Ni  Ni36  1  0.16576400  0.33152700  0.97962200  1
  Ni  Ni37  1  0.66847300  0.83423600  0.97962200  1
