# generated using pymatgen
data_K2TlCl5O2
_symmetry_space_group_name_H-M   'P 1'
_cell_length_a   8.06286357
_cell_length_b   10.21056395
_cell_length_c   12.82528900
_cell_angle_alpha   90.00000000
_cell_angle_beta   90.00000000
_cell_angle_gamma   96.32555895
_symmetry_Int_Tables_number   1
_chemical_formula_structural   K2TlCl5O2
_chemical_formula_sum   'K8 Tl4 Cl20 O8'
_cell_volume   1049.43149530
_cell_formula_units_Z   4
loop_
 _symmetry_equiv_pos_site_id
 _symmetry_equiv_pos_as_xyz
  1  'x, y, z'
loop_
 _atom_site_type_symbol
 _atom_site_label
 _atom_site_symmetry_multiplicity
 _atom_site_fract_x
 _atom_site_fract_y
 _atom_site_fract_z
 _atom_site_occupancy
  K  K0  1  0.48324200  0.41701800  0.18331800  1
  K  K1  1  0.01675800  0.58298200  0.68331800  1
  K  K2  1  0.51675800  0.58298200  0.81668200  1
  K  K3  1  0.98324200  0.41701800  0.31668200  1
  K  K4  1  0.58077300  0.03705100  0.84646600  1
  K  K5  1  0.91922700  0.96294900  0.34646600  1
  K  K6  1  0.41922700  0.96294900  0.15353400  1
  K  K7  1  0.08077300  0.03705100  0.65353400  1
  Tl  Tl8  1  0.54979400  0.21030800  0.49972500  1
  Tl  Tl9  1  0.95020600  0.78969200  0.99972500  1
  Tl  Tl10  1  0.45020700  0.78969200  0.50027500  1
  Tl  Tl11  1  0.04979300  0.21030800  0.00027500  1
  Cl  Cl12  1  0.80375400  0.00299200  0.05875100  1
  Cl  Cl13  1  0.69624600  0.99700800  0.55875100  1
  Cl  Cl14  1  0.19624600  0.99700800  0.94124900  1
  Cl  Cl15  1  0.30375400  0.00299200  0.44124900  1
  Cl  Cl16  1  0.82631600  0.36642700  0.04413800  1
  Cl  Cl17  1  0.67368400  0.63357300  0.54413800  1
  Cl  Cl18  1  0.17368400  0.63357300  0.95586200  1
  Cl  Cl19  1  0.32631600  0.36642700  0.45586200  1
  Cl  Cl20  1  0.33721200  0.34048600  0.95248100  1
  Cl  Cl21  1  0.16278800  0.65951400  0.45248100  1
  Cl  Cl22  1  0.66278800  0.65951400  0.04751900  1
  Cl  Cl23  1  0.83721200  0.34048600  0.54751900  1
  Cl  Cl24  1  0.92565600  0.22210200  0.81304700  1
  Cl  Cl25  1  0.57434400  0.77789800  0.31304700  1
  Cl  Cl26  1  0.07434400  0.77789800  0.18695300  1
  Cl  Cl27  1  0.42565600  0.22210200  0.68695300  1
  Cl  Cl28  1  0.15380000  0.19117000  0.19021300  1
  Cl  Cl29  1  0.34620000  0.80883000  0.69021300  1
  Cl  Cl30  1  0.84620000  0.80883000  0.80978700  1
  Cl  Cl31  1  0.65380000  0.19117000  0.30978700  1
  O  O32  1  0.55214900  0.20270500  0.02733800  1
  O  O33  1  0.94785100  0.79729500  0.52733800  1
  O  O34  1  0.44785100  0.79729500  0.97266200  1
  O  O35  1  0.05214900  0.20270500  0.47266200  1
  O  O36  1  0.80459300  0.43408400  0.83786900  1
  O  O37  1  0.69540700  0.56591600  0.33786900  1
  O  O38  1  0.19540700  0.56591600  0.16213100  1
  O  O39  1  0.30459300  0.43408400  0.66213100  1
