# generated using pymatgen
data_ZnPH5CNClO3
_symmetry_space_group_name_H-M   'P 1'
_cell_length_a   4.80013147
_cell_length_b   8.22971635
_cell_length_c   16.09645400
_cell_angle_alpha   90.00000000
_cell_angle_beta   90.00000000
_cell_angle_gamma   105.84875977
_symmetry_Int_Tables_number   1
_chemical_formula_structural   ZnPH5CNClO3
_chemical_formula_sum   'Zn4 P4 H20 C4 N4 Cl4 O12'
_cell_volume   611.69781915
_cell_formula_units_Z   4
loop_
 _symmetry_equiv_pos_site_id
 _symmetry_equiv_pos_as_xyz
  1  'x, y, z'
loop_
 _atom_site_type_symbol
 _atom_site_label
 _atom_site_symmetry_multiplicity
 _atom_site_fract_x
 _atom_site_fract_y
 _atom_site_fract_z
 _atom_site_occupancy
  Zn  Zn0  1  0.57952200  0.17219000  0.17908500  1
  Zn  Zn1  1  0.92047800  0.32781000  0.67908500  1
  Zn  Zn2  1  0.42047800  0.82781000  0.82091500  1
  Zn  Zn3  1  0.07952200  0.67219000  0.32091500  1
  P  P4  1  0.95968800  0.91446900  0.16659400  1
  P  P5  1  0.54031200  0.58553100  0.66659300  1
  P  P6  1  0.04031200  0.08553100  0.83340700  1
  P  P7  1  0.45968800  0.41446900  0.33340600  1
  H  H8  1  0.52733800  0.58423900  0.13765400  1
  H  H9  1  0.97266200  0.91576100  0.63765400  1
  H  H10  1  0.47266200  0.41576100  0.86234600  1
  H  H11  1  0.02733800  0.08423900  0.36234600  1
  H  H12  1  0.33631300  0.72508000  0.14934900  1
  H  H13  1  0.16368700  0.77492000  0.64934900  1
  H  H14  1  0.66368700  0.27492000  0.85065100  1
  H  H15  1  0.83631300  0.22508000  0.35065100  1
  H  H16  1  0.34198400  0.63079700  0.05749900  1
  H  H17  1  0.15801600  0.86920300  0.55749900  1
  H  H18  1  0.65801600  0.36920300  0.94250100  1
  H  H19  1  0.84198400  0.13079700  0.44250100  1
  H  H20  1  0.85066400  0.75879000  0.03622600  1
  H  H21  1  0.64933600  0.74121000  0.53622600  1
  H  H22  1  0.14933600  0.24121000  0.96377400  1
  H  H23  1  0.35066400  0.25879000  0.46377400  1
  H  H24  1  0.65402100  0.91221700  0.04578100  1
  H  H25  1  0.84597900  0.58778300  0.54578100  1
  H  H26  1  0.34597900  0.08778300  0.95421900  1
  H  H27  1  0.15402100  0.41221700  0.45421900  1
  C  C28  1  0.72811500  0.81641100  0.07967700  1
  C  C29  1  0.77188500  0.68358900  0.57967700  1
  C  C30  1  0.27188500  0.18358900  0.92032300  1
  C  C31  1  0.22811500  0.31641100  0.42032300  1
  N  N32  1  0.46860500  0.68137600  0.10821400  1
  N  N33  1  0.03139500  0.81862400  0.60821400  1
  N  N34  1  0.53139500  0.31862400  0.89178600  1
  N  N35  1  0.96860500  0.18137600  0.39178600  1
  Cl  Cl36  1  0.79732300  0.37027300  0.08493000  1
  Cl  Cl37  1  0.70267700  0.12972700  0.58493000  1
  Cl  Cl38  1  0.20267700  0.62972700  0.91507000  1
  Cl  Cl39  1  0.29732300  0.87027300  0.41507000  1
  O  O40  1  0.23358400  0.02428000  0.12438800  1
  O  O41  1  0.26641600  0.47572000  0.62438800  1
  O  O42  1  0.76641600  0.97572000  0.87561200  1
  O  O43  1  0.73358400  0.52428000  0.37561200  1
  O  O44  1  0.51964500  0.26262900  0.28773100  1
  O  O45  1  0.98035500  0.23737100  0.78773100  1
  O  O46  1  0.48035500  0.73737100  0.71226900  1
  O  O47  1  0.01964500  0.76262900  0.21226900  1
  O  O48  1  0.79489900  0.01093200  0.22080600  1
  O  O49  1  0.70510100  0.48906800  0.72080600  1
  O  O50  1  0.20510100  0.98906800  0.77919400  1
  O  O51  1  0.29489900  0.51093200  0.27919400  1
