# generated using pymatgen
data_MgBi4(PO6)2
_symmetry_space_group_name_H-M   'P 1'
_cell_length_a   5.35748500
_cell_length_b   16.85841300
_cell_length_c   23.67385600
_cell_angle_alpha   90.00000000
_cell_angle_beta   90.00000000
_cell_angle_gamma   90.00000000
_symmetry_Int_Tables_number   1
_chemical_formula_structural   MgBi4(PO6)2
_chemical_formula_sum   'Mg8 Bi32 P16 O96'
_cell_volume   2138.19177412
_cell_formula_units_Z   8
loop_
 _symmetry_equiv_pos_site_id
 _symmetry_equiv_pos_as_xyz
  1  'x, y, z'
loop_
 _atom_site_type_symbol
 _atom_site_label
 _atom_site_symmetry_multiplicity
 _atom_site_fract_x
 _atom_site_fract_y
 _atom_site_fract_z
 _atom_site_occupancy
  Mg  Mg0  1  0.88686300  0.29367500  0.49298900  1
  Mg  Mg1  1  0.61313700  0.79367500  0.50701100  1
  Mg  Mg2  1  0.38686300  0.70632500  0.00701100  1
  Mg  Mg3  1  0.11313700  0.20632500  0.99298900  1
  Mg  Mg4  1  0.11313700  0.70632500  0.50701100  1
  Mg  Mg5  1  0.38686300  0.20632500  0.49298900  1
  Mg  Mg6  1  0.61313700  0.29367500  0.99298900  1
  Mg  Mg7  1  0.88686300  0.79367500  0.00701100  1
  Bi  Bi8  1  0.33327900  0.32830200  0.19850300  1
  Bi  Bi9  1  0.16672100  0.82830200  0.80149700  1
  Bi  Bi10  1  0.83327900  0.67169800  0.30149700  1
  Bi  Bi11  1  0.66672100  0.17169800  0.69850300  1
  Bi  Bi12  1  0.66672100  0.67169800  0.80149700  1
  Bi  Bi13  1  0.83327900  0.17169800  0.19850300  1
  Bi  Bi14  1  0.16672100  0.32830200  0.69850300  1
  Bi  Bi15  1  0.33327900  0.82830200  0.30149700  1
  Bi  Bi16  1  0.82531700  0.34179100  0.30537100  1
  Bi  Bi17  1  0.67468300  0.84179100  0.69462900  1
  Bi  Bi18  1  0.32531700  0.65820900  0.19462900  1
  Bi  Bi19  1  0.17468300  0.15820900  0.80537100  1
  Bi  Bi20  1  0.17468300  0.65820900  0.69462900  1
  Bi  Bi21  1  0.32531700  0.15820900  0.30537100  1
  Bi  Bi22  1  0.67468300  0.34179100  0.80537100  1
  Bi  Bi23  1  0.82531700  0.84179100  0.19462900  1
  Bi  Bi24  1  0.29905700  0.49423800  0.30651200  1
  Bi  Bi25  1  0.20094300  0.99423800  0.69348800  1
  Bi  Bi26  1  0.79905700  0.50576200  0.19348800  1
  Bi  Bi27  1  0.70094300  0.00576200  0.80651200  1
  Bi  Bi28  1  0.70094300  0.50576200  0.69348800  1
  Bi  Bi29  1  0.79905700  0.00576200  0.30651200  1
  Bi  Bi30  1  0.20094300  0.49423800  0.80651200  1
  Bi  Bi31  1  0.29905700  0.99423800  0.19348800  1
  Bi  Bi32  1  0.85173400  0.50640900  0.43196200  1
  Bi  Bi33  1  0.64826600  0.00640900  0.56803800  1
  Bi  Bi34  1  0.35173400  0.49359100  0.06803800  1
  Bi  Bi35  1  0.14826600  0.99359100  0.93196200  1
  Bi  Bi36  1  0.14826600  0.49359100  0.56803800  1
  Bi  Bi37  1  0.35173400  0.99359100  0.43196200  1
  Bi  Bi38  1  0.64826600  0.50640900  0.93196200  1
  Bi  Bi39  1  0.85173400  0.00640900  0.06803800  1
  P  P40  1  0.34577500  0.65546100  0.41030500  1
  P  P41  1  0.15422500  0.15546100  0.58969500  1
  P  P42  1  0.84577500  0.34453900  0.08969500  1
  P  P43  1  0.65422500  0.84453900  0.91030500  1
  P  P44  1  0.65422500  0.34453900  0.58969500  1
  P  P45  1  0.84577500  0.84453900  0.41030500  1
  P  P46  1  0.15422500  0.65546100  0.91030500  1
  P  P47  1  0.34577500  0.15546100  0.08969500  1
  P  P48  1  0.37718200  0.36840300  0.42145500  1
  P  P49  1  0.12281800  0.86840300  0.57854500  1
  P  P50  1  0.87718200  0.63159700  0.07854500  1
  P  P51  1  0.62281800  0.13159700  0.92145500  1
  P  P52  1  0.62281800  0.63159700  0.57854500  1
  P  P53  1  0.87718200  0.13159700  0.42145500  1
  P  P54  1  0.12281800  0.36840300  0.92145500  1
  P  P55  1  0.37718200  0.86840300  0.07854500  1
  O  O56  1  0.08874000  0.41206200  0.25178700  1
  O  O57  1  0.41126000  0.91206200  0.74821300  1
  O  O58  1  0.58874000  0.58793800  0.24821300  1
  O  O59  1  0.91126000  0.08793800  0.75178700  1
  O  O60  1  0.91126000  0.58793800  0.74821300  1
  O  O61  1  0.58874000  0.08793800  0.25178700  1
  O  O62  1  0.41126000  0.41206200  0.75178700  1
  O  O63  1  0.08874000  0.91206200  0.24821300  1
  O  O64  1  0.58660300  0.41513500  0.24937400  1
  O  O65  1  0.91339700  0.91513500  0.75062600  1
  O  O66  1  0.08660300  0.58486500  0.25062600  1
  O  O67  1  0.41339700  0.08486500  0.74937400  1
  O  O68  1  0.41339700  0.58486500  0.75062600  1
  O  O69  1  0.08660300  0.08486500  0.24937400  1
  O  O70  1  0.91339700  0.41513500  0.74937400  1
  O  O71  1  0.58660300  0.91513500  0.25062600  1
  O  O72  1  0.57163300  0.25055900  0.25369000  1
  O  O73  1  0.92836700  0.75055900  0.74631000  1
  O  O74  1  0.07163300  0.74944100  0.24631000  1
  O  O75  1  0.42836700  0.24944100  0.75369000  1
  O  O76  1  0.42836700  0.74944100  0.74631000  1
  O  O77  1  0.07163300  0.24944100  0.25369000  1
  O  O78  1  0.92836700  0.25055900  0.75369000  1
  O  O79  1  0.57163300  0.75055900  0.24631000  1
  O  O80  1  0.89851000  0.48665600  0.34539100  1
  O  O81  1  0.60149000  0.98665600  0.65460900  1
  O  O82  1  0.39851000  0.51334400  0.15460900  1
  O  O83  1  0.10149000  0.01334400  0.84539100  1
  O  O84  1  0.10149000  0.51334400  0.65460900  1
  O  O85  1  0.39851000  0.01334400  0.34539100  1
  O  O86  1  0.60149000  0.48665600  0.84539100  1
  O  O87  1  0.89851000  0.98665600  0.15460900  1
  O  O88  1  0.66172000  0.36642900  0.43763900  1
  O  O89  1  0.83828000  0.86642900  0.56236100  1
  O  O90  1  0.16172000  0.63357100  0.06236100  1
  O  O91  1  0.33828000  0.13357100  0.93763900  1
  O  O92  1  0.33828000  0.63357100  0.56236100  1
  O  O93  1  0.16172000  0.13357100  0.43763900  1
  O  O94  1  0.83828000  0.36642900  0.93763900  1
  O  O95  1  0.66172000  0.86642900  0.06236100  1
  O  O96  1  0.11121300  0.61559200  0.43976500  1
  O  O97  1  0.38878700  0.11559200  0.56023500  1
  O  O98  1  0.61121300  0.38440800  0.06023500  1
  O  O99  1  0.88878700  0.88440800  0.93976500  1
  O  O100  1  0.88878700  0.38440800  0.56023500  1
  O  O101  1  0.61121300  0.88440800  0.43976500  1
  O  O102  1  0.38878700  0.61559200  0.93976500  1
  O  O103  1  0.11121300  0.11559200  0.06023500  1
  O  O104  1  0.27332700  0.68730200  0.35093400  1
  O  O105  1  0.22667300  0.18730200  0.64906600  1
  O  O106  1  0.77332700  0.31269800  0.14906600  1
  O  O107  1  0.72667300  0.81269800  0.85093400  1
  O  O108  1  0.72667300  0.31269800  0.64906600  1
  O  O109  1  0.77332700  0.81269800  0.35093400  1
  O  O110  1  0.22667300  0.68730200  0.85093400  1
  O  O111  1  0.27332700  0.18730200  0.14906600  1
  O  O112  1  0.22923500  0.30208600  0.45235600  1
  O  O113  1  0.27076500  0.80208600  0.54764400  1
  O  O114  1  0.72923500  0.69791400  0.04764400  1
  O  O115  1  0.77076500  0.19791400  0.95235600  1
  O  O116  1  0.77076500  0.69791400  0.54764400  1
  O  O117  1  0.72923500  0.19791400  0.45235600  1
  O  O118  1  0.27076500  0.30208600  0.95235600  1
  O  O119  1  0.22923500  0.80208600  0.04764400  1
  O  O120  1  0.35583900  0.35746700  0.35597300  1
  O  O121  1  0.14416100  0.85746700  0.64402700  1
  O  O122  1  0.85583900  0.64253300  0.14402700  1
  O  O123  1  0.64416100  0.14253300  0.85597300  1
  O  O124  1  0.64416100  0.64253300  0.64402700  1
  O  O125  1  0.85583900  0.14253300  0.35597300  1
  O  O126  1  0.14416100  0.35746700  0.85597300  1
  O  O127  1  0.35583900  0.85746700  0.14402700  1
  O  O128  1  0.41633600  0.72005900  0.45282900  1
  O  O129  1  0.08366400  0.22005900  0.54717100  1
  O  O130  1  0.91633600  0.27994100  0.04717100  1
  O  O131  1  0.58366400  0.77994100  0.95282900  1
  O  O132  1  0.58366400  0.27994100  0.54717100  1
  O  O133  1  0.91633600  0.77994100  0.45282900  1
  O  O134  1  0.08366400  0.72005900  0.95282900  1
  O  O135  1  0.41633600  0.22005900  0.04717100  1
  O  O136  1  0.55982700  0.59526800  0.39938800  1
  O  O137  1  0.94017300  0.09526800  0.60061200  1
  O  O138  1  0.05982700  0.40473200  0.10061200  1
  O  O139  1  0.44017300  0.90473200  0.89938800  1
  O  O140  1  0.44017300  0.40473200  0.60061200  1
  O  O141  1  0.05982700  0.90473200  0.39938800  1
  O  O142  1  0.94017300  0.59526800  0.89938800  1
  O  O143  1  0.55982700  0.09526800  0.10061200  1
  O  O144  1  0.26850200  0.45035400  0.43883100  1
  O  O145  1  0.23149800  0.95035400  0.56116900  1
  O  O146  1  0.76850200  0.54964600  0.06116900  1
  O  O147  1  0.73149800  0.04964600  0.93883100  1
  O  O148  1  0.73149800  0.54964600  0.56116900  1
  O  O149  1  0.76850200  0.04964600  0.43883100  1
  O  O150  1  0.23149800  0.45035400  0.93883100  1
  O  O151  1  0.26850200  0.95035400  0.06116900  1
