# generated using pymatgen
data_BaNaPSO12
_symmetry_space_group_name_H-M   'P 1'
_cell_length_a   9.92205700
_cell_length_b   9.92205700
_cell_length_c   9.92205700
_cell_angle_alpha   90.00000000
_cell_angle_beta   90.00000000
_cell_angle_gamma   90.00000000
_symmetry_Int_Tables_number   1
_chemical_formula_structural   BaNaPSO12
_chemical_formula_sum   'Ba4 Na4 P4 S4 O48'
_cell_volume   976.79887983
_cell_formula_units_Z   4
loop_
 _symmetry_equiv_pos_site_id
 _symmetry_equiv_pos_as_xyz
  1  'x, y, z'
loop_
 _atom_site_type_symbol
 _atom_site_label
 _atom_site_symmetry_multiplicity
 _atom_site_fract_x
 _atom_site_fract_y
 _atom_site_fract_z
 _atom_site_occupancy
  Ba  Ba0  1  0.79464300  0.29464300  0.20535700  1
  Ba  Ba1  1  0.29464300  0.20535700  0.79464300  1
  Ba  Ba2  1  0.20535700  0.79464300  0.29464300  1
  Ba  Ba3  1  0.70535700  0.70535700  0.70535700  1
  Na  Na4  1  0.53340200  0.03340200  0.46659800  1
  Na  Na5  1  0.03340200  0.46659800  0.53340200  1
  Na  Na6  1  0.46659800  0.53340200  0.03340200  1
  Na  Na7  1  0.96659800  0.96659800  0.96659800  1
  P  P8  1  0.27002700  0.77002700  0.72997300  1
  P  P9  1  0.77002700  0.72997300  0.27002700  1
  P  P10  1  0.72997300  0.27002700  0.77002700  1
  P  P11  1  0.22997300  0.22997300  0.22997300  1
  S  S12  1  0.08456800  0.58456800  0.91543200  1
  S  S13  1  0.58456800  0.91543200  0.08456800  1
  S  S14  1  0.91543200  0.08456800  0.58456800  1
  S  S15  1  0.41543200  0.41543200  0.41543200  1
  O  O16  1  0.31160200  0.93622100  0.04115700  1
  O  O17  1  0.95884300  0.81160200  0.56377900  1
  O  O18  1  0.43622100  0.45884300  0.68839800  1
  O  O19  1  0.81160200  0.56377900  0.95884300  1
  O  O20  1  0.45884300  0.68839800  0.43622100  1
  O  O21  1  0.93622100  0.04115700  0.31160200  1
  O  O22  1  0.68839800  0.43622100  0.45884300  1
  O  O23  1  0.04115700  0.31160200  0.93622100  1
  O  O24  1  0.56377900  0.95884300  0.81160200  1
  O  O25  1  0.18839800  0.06377900  0.54115700  1
  O  O26  1  0.54115700  0.18839800  0.06377900  1
  O  O27  1  0.06377900  0.54115700  0.18839800  1
  O  O28  1  0.49574800  0.76832000  0.53078700  1
  O  O29  1  0.46921300  0.99574800  0.73168000  1
  O  O30  1  0.26832000  0.96921300  0.50425200  1
  O  O31  1  0.99574800  0.73168000  0.46921300  1
  O  O32  1  0.96921300  0.50425200  0.26832000  1
  O  O33  1  0.76832000  0.53078700  0.49574800  1
  O  O34  1  0.50425200  0.26832000  0.96921300  1
  O  O35  1  0.53078700  0.49574800  0.76832000  1
  O  O36  1  0.73168000  0.46921300  0.99574800  1
  O  O37  1  0.00425200  0.23168000  0.03078700  1
  O  O38  1  0.03078700  0.00425200  0.23168000  1
  O  O39  1  0.23168000  0.03078700  0.00425200  1
  O  O40  1  0.08310600  0.71500800  0.98565500  1
  O  O41  1  0.01434500  0.58310600  0.78499200  1
  O  O42  1  0.21500800  0.51434500  0.91689400  1
  O  O43  1  0.58310600  0.78499200  0.01434500  1
  O  O44  1  0.51434500  0.91689400  0.21500800  1
  O  O45  1  0.71500800  0.98565500  0.08310600  1
  O  O46  1  0.91689400  0.21500800  0.51434500  1
  O  O47  1  0.98565500  0.08310600  0.71500800  1
  O  O48  1  0.78499200  0.01434500  0.58310600  1
  O  O49  1  0.41689400  0.28499200  0.48565500  1
  O  O50  1  0.48565500  0.41689400  0.28499200  1
  O  O51  1  0.28499200  0.48565500  0.41689400  1
  O  O52  1  0.18989300  0.88996000  0.77344500  1
  O  O53  1  0.22655500  0.68989300  0.61004000  1
  O  O54  1  0.38996000  0.72655500  0.81010700  1
  O  O55  1  0.68989300  0.61004000  0.22655500  1
  O  O56  1  0.72655500  0.81010700  0.38996000  1
  O  O57  1  0.88996000  0.77344500  0.18989300  1
  O  O58  1  0.81010700  0.38996000  0.72655500  1
  O  O59  1  0.77344500  0.18989300  0.88996000  1
  O  O60  1  0.61004000  0.22655500  0.68989300  1
  O  O61  1  0.31010700  0.11004000  0.27344500  1
  O  O62  1  0.27344500  0.31010700  0.11004000  1
  O  O63  1  0.11004000  0.27344500  0.31010700  1
