# generated using pymatgen
data_Os3(CO)10
_symmetry_space_group_name_H-M   'P 1'
_cell_length_a   8.74990400
_cell_length_b   9.33851552
_cell_length_c   12.30129736
_cell_angle_alpha   91.12418237
_cell_angle_beta   99.65673853
_cell_angle_gamma   116.87650396
_symmetry_Int_Tables_number   1
_chemical_formula_structural   Os3(CO)10
_chemical_formula_sum   'Os6 C20 O20'
_cell_volume   878.65224923
_cell_formula_units_Z   2
loop_
 _symmetry_equiv_pos_site_id
 _symmetry_equiv_pos_as_xyz
  1  'x, y, z'
loop_
 _atom_site_type_symbol
 _atom_site_label
 _atom_site_symmetry_multiplicity
 _atom_site_fract_x
 _atom_site_fract_y
 _atom_site_fract_z
 _atom_site_occupancy
  Os  Os0  1  0.61319100  0.81376800  0.71334700  1
  Os  Os1  1  0.38680900  0.18623200  0.28665300  1
  Os  Os2  1  0.87413500  0.72975100  0.79523300  1
  Os  Os3  1  0.12586500  0.27024900  0.20476700  1
  Os  Os4  1  0.97362600  0.04919300  0.74937400  1
  Os  Os5  1  0.02637400  0.95080700  0.25062600  1
  C  C6  1  0.51937300  0.95451500  0.65690300  1
  C  C7  1  0.48062700  0.04548500  0.34309700  1
  C  C8  1  0.39585700  0.62121800  0.70535500  1
  C  C9  1  0.60414300  0.37878200  0.29464500  1
  C  C10  1  0.65002000  0.75475300  0.57020300  1
  C  C11  1  0.34998000  0.24524700  0.42979700  1
  C  C12  1  0.63285100  0.87783800  0.86929000  1
  C  C13  1  0.36714900  0.12216200  0.13071000  1
  C  C14  1  0.09638900  0.73707300  0.85493400  1
  C  C15  1  0.90361100  0.26292700  0.14506600  1
  C  C16  1  0.75756600  0.61192900  0.90352500  1
  C  C17  1  0.24243400  0.38807100  0.09647500  1
  C  C18  1  0.79770400  0.54331600  0.69792500  1
  C  C19  1  0.20229600  0.45668400  0.30207500  1
  C  C20  1  0.22469800  0.16329400  0.78349700  1
  C  C21  1  0.77530200  0.83670600  0.21650300  1
  C  C22  1  0.93741400  0.20813100  0.81931600  1
  C  C23  1  0.06258600  0.79186900  0.18068400  1
  C  C24  1  0.94838700  0.12890600  0.61228600  1
  C  C25  1  0.05161300  0.87109400  0.38771400  1
  O  O26  1  0.46132500  0.03827900  0.62259000  1
  O  O27  1  0.53867500  0.96172100  0.37741000  1
  O  O28  1  0.26202600  0.50754100  0.70044200  1
  O  O29  1  0.73797400  0.49245900  0.29955800  1
  O  O30  1  0.66890500  0.71749800  0.48480400  1
  O  O31  1  0.33109500  0.28250200  0.51519600  1
  O  O32  1  0.64289000  0.91530900  0.96178000  1
  O  O33  1  0.35711000  0.08469100  0.03822000  1
  O  O34  1  0.22210100  0.72722200  0.89233800  1
  O  O35  1  0.77789900  0.27277800  0.10766200  1
  O  O36  1  0.68643200  0.54309800  0.97244400  1
  O  O37  1  0.31356800  0.45690200  0.02755600  1
  O  O38  1  0.75092300  0.43072600  0.63412700  1
  O  O39  1  0.24907700  0.56927400  0.36587300  1
  O  O40  1  0.37598200  0.23821100  0.80191900  1
  O  O41  1  0.62401800  0.76178900  0.19808100  1
  O  O42  1  0.91350300  0.30684600  0.86193300  1
  O  O43  1  0.08649700  0.69315400  0.13806700  1
  O  O44  1  0.93177500  0.17953800  0.52773500  1
  O  O45  1  0.06822500  0.82046200  0.47226500  1
