# generated using pymatgen
data_ThP2H2CO8
_symmetry_space_group_name_H-M   'P 1'
_cell_length_a   8.63702600
_cell_length_b   9.07375400
_cell_length_c   10.81948900
_cell_angle_alpha   90.00000000
_cell_angle_beta   90.00000000
_cell_angle_gamma   90.00000000
_symmetry_Int_Tables_number   1
_chemical_formula_structural   ThP2H2CO8
_chemical_formula_sum   'Th4 P8 H8 C4 O32'
_cell_volume   847.92604932
_cell_formula_units_Z   4
loop_
 _symmetry_equiv_pos_site_id
 _symmetry_equiv_pos_as_xyz
  1  'x, y, z'
loop_
 _atom_site_type_symbol
 _atom_site_label
 _atom_site_symmetry_multiplicity
 _atom_site_fract_x
 _atom_site_fract_y
 _atom_site_fract_z
 _atom_site_occupancy
  Th  Th0  1  0.71160300  0.73412600  0.89408300  1
  Th  Th1  1  0.21160300  0.26587400  0.10591700  1
  Th  Th2  1  0.21160300  0.76587400  0.39408300  1
  Th  Th3  1  0.71160300  0.23412600  0.60591700  1
  P  P4  1  0.85567700  0.83736700  0.59128800  1
  P  P5  1  0.35567700  0.16263300  0.40871200  1
  P  P6  1  0.35567700  0.66263300  0.09128800  1
  P  P7  1  0.85567700  0.33736700  0.90871200  1
  P  P8  1  0.56659300  0.62765500  0.58556200  1
  P  P9  1  0.06659300  0.37234500  0.41443800  1
  P  P10  1  0.06659300  0.87234500  0.08556200  1
  P  P11  1  0.56659300  0.12765500  0.91443800  1
  H  H12  1  0.69697200  0.75861000  0.42075400  1
  H  H13  1  0.19697200  0.24139000  0.57924600  1
  H  H14  1  0.19697200  0.74139000  0.92075400  1
  H  H15  1  0.69697200  0.25861000  0.07924600  1
  H  H16  1  0.81196600  0.61667200  0.48248300  1
  H  H17  1  0.31196600  0.38332800  0.51751700  1
  H  H18  1  0.31196600  0.88332800  0.98248300  1
  H  H19  1  0.81196600  0.11667200  0.01751700  1
  C  C20  1  0.73411100  0.70785600  0.50787100  1
  C  C21  1  0.23411100  0.29214400  0.49212900  1
  C  C22  1  0.23411100  0.79214400  0.00787100  1
  C  C23  1  0.73411100  0.20785600  0.99212900  1
  O  O24  1  0.71876000  0.76284600  0.21803100  1
  O  O25  1  0.21876000  0.23715400  0.78196900  1
  O  O26  1  0.21876000  0.73715400  0.71803100  1
  O  O27  1  0.71876000  0.26284600  0.28196900  1
  O  O28  1  0.77156700  0.63886000  0.19901100  1
  O  O29  1  0.27156700  0.36114000  0.80098900  1
  O  O30  1  0.27156700  0.86114000  0.69901100  1
  O  O31  1  0.77156700  0.13886000  0.30098900  1
  O  O32  1  0.87227100  0.78419500  0.72624900  1
  O  O33  1  0.37227100  0.21580500  0.27375100  1
  O  O34  1  0.37227100  0.71580500  0.22624900  1
  O  O35  1  0.87227100  0.28419500  0.77375100  1
  O  O36  1  0.78189600  0.99241900  0.58880200  1
  O  O37  1  0.28189600  0.00758100  0.41119800  1
  O  O38  1  0.28189600  0.50758100  0.08880200  1
  O  O39  1  0.78189600  0.49241900  0.91119800  1
  O  O40  1  0.01086200  0.83829000  0.52158200  1
  O  O41  1  0.51086200  0.16171000  0.47841800  1
  O  O42  1  0.51086200  0.66171000  0.02158200  1
  O  O43  1  0.01086200  0.33829000  0.97841800  1
  O  O44  1  0.56263800  0.68191700  0.72089700  1
  O  O45  1  0.06263800  0.31808300  0.27910300  1
  O  O46  1  0.06263800  0.81808300  0.22089700  1
  O  O47  1  0.56263800  0.18191700  0.77910300  1
  O  O48  1  0.59217800  0.45866900  0.58428700  1
  O  O49  1  0.09217800  0.54133100  0.41571300  1
  O  O50  1  0.09217800  0.04133100  0.08428700  1
  O  O51  1  0.59217800  0.95866900  0.91571300  1
  O  O52  1  0.42002400  0.67028000  0.51224600  1
  O  O53  1  0.92002400  0.32972000  0.48775400  1
  O  O54  1  0.92002400  0.82972000  0.01224600  1
  O  O55  1  0.42002400  0.17028000  0.98775400  1
