# generated using pymatgen
data_Nb2Co3(PO7)4
_symmetry_space_group_name_H-M   'P 1'
_cell_length_a   10.99663300
_cell_length_b   5.31258500
_cell_length_c   19.43612927
_cell_angle_alpha   76.59890969
_cell_angle_beta   90.00000000
_cell_angle_gamma   90.00000000
_symmetry_Int_Tables_number   1
_chemical_formula_structural   Nb2Co3(PO7)4
_chemical_formula_sum   'Nb4 Co6 P8 O56'
_cell_volume   1104.55215107
_cell_formula_units_Z   2
loop_
 _symmetry_equiv_pos_site_id
 _symmetry_equiv_pos_as_xyz
  1  'x, y, z'
loop_
 _atom_site_type_symbol
 _atom_site_label
 _atom_site_symmetry_multiplicity
 _atom_site_fract_x
 _atom_site_fract_y
 _atom_site_fract_z
 _atom_site_occupancy
  Nb  Nb0  1  0.70287100  0.28406800  0.97143000  1
  Nb  Nb1  1  0.79712900  0.28406800  0.47143000  1
  Nb  Nb2  1  0.29712900  0.71593200  0.02857000  1
  Nb  Nb3  1  0.20287100  0.71593200  0.52857000  1
  Co  Co4  1  0.00000000  0.00000000  0.00000000  1
  Co  Co5  1  0.50000000  0.00000000  0.50000000  1
  Co  Co6  1  0.84810300  0.78613300  0.72691700  1
  Co  Co7  1  0.65189700  0.78613300  0.22691700  1
  Co  Co8  1  0.15189700  0.21386700  0.27308300  1
  Co  Co9  1  0.34810300  0.21386700  0.77308300  1
  P  P10  1  0.81949800  0.87081400  0.88187800  1
  P  P11  1  0.68050200  0.87081400  0.38187800  1
  P  P12  1  0.18050200  0.12918600  0.11812200  1
  P  P13  1  0.31949800  0.12918600  0.61812200  1
  P  P14  1  0.89891000  0.70388100  0.57533000  1
  P  P15  1  0.60109000  0.70388100  0.07533000  1
  P  P16  1  0.10109000  0.29611900  0.42467000  1
  P  P17  1  0.39891000  0.29611900  0.92467000  1
  O  O18  1  0.85381700  0.17833400  0.00541500  1
  O  O19  1  0.64618300  0.17833400  0.50541500  1
  O  O20  1  0.14618300  0.82166600  0.99458500  1
  O  O21  1  0.35381700  0.82166600  0.49458500  1
  O  O22  1  0.85211300  0.96879500  0.80223400  1
  O  O23  1  0.64788700  0.96879500  0.30223400  1
  O  O24  1  0.14788700  0.03120500  0.19776600  1
  O  O25  1  0.35211300  0.03120500  0.69776600  1
  O  O26  1  0.03405800  0.63503600  0.58191100  1
  O  O27  1  0.46594200  0.63503600  0.08191100  1
  O  O28  1  0.96594200  0.36496400  0.41808900  1
  O  O29  1  0.53405800  0.36496400  0.91808900  1
  O  O30  1  0.83355000  0.53658700  0.53064200  1
  O  O31  1  0.66645000  0.53658700  0.03064200  1
  O  O32  1  0.16645000  0.46341300  0.46935800  1
  O  O33  1  0.33355000  0.46341300  0.96935800  1
  O  O34  1  0.94221000  0.86682800  0.92233200  1
  O  O35  1  0.55779000  0.86682800  0.42233200  1
  O  O36  1  0.05779000  0.13317200  0.07766800  1
  O  O37  1  0.44221000  0.13317200  0.57766800  1
  O  O38  1  0.76773300  0.59351900  0.89673700  1
  O  O39  1  0.73226700  0.59351900  0.39673700  1
  O  O40  1  0.23226700  0.40648100  0.10326300  1
  O  O41  1  0.26773300  0.40648100  0.60326300  1
  O  O42  1  0.72369500  0.05456100  0.90128700  1
  O  O43  1  0.77630500  0.05456100  0.40128700  1
  O  O44  1  0.27630500  0.94543900  0.09871300  1
  O  O45  1  0.22369500  0.94543900  0.59871300  1
  O  O46  1  0.88340500  0.99438300  0.53842300  1
  O  O47  1  0.61659500  0.99438300  0.03842300  1
  O  O48  1  0.11659500  0.00561700  0.46157700  1
  O  O49  1  0.38340500  0.00561700  0.96157700  1
  O  O50  1  0.82894100  0.63498500  0.64701100  1
  O  O51  1  0.67105900  0.63498500  0.14701100  1
  O  O52  1  0.17105900  0.36501500  0.35298900  1
  O  O53  1  0.32894100  0.36501500  0.85298900  1
  O  O54  1  0.05561600  0.28133700  0.94300800  1
  O  O55  1  0.44438400  0.28133700  0.44300800  1
  O  O56  1  0.94438400  0.71866300  0.05699200  1
  O  O57  1  0.55561600  0.71866300  0.55699200  1
  O  O58  1  0.93225700  0.52849000  0.77455200  1
  O  O59  1  0.56774300  0.52849000  0.27455200  1
  O  O60  1  0.06774300  0.47151000  0.22544800  1
  O  O61  1  0.43225700  0.47151000  0.72544800  1
  O  O62  1  0.76590800  0.06274500  0.67808900  1
  O  O63  1  0.73409200  0.06274500  0.17808900  1
  O  O64  1  0.23409200  0.93725500  0.32191100  1
  O  O65  1  0.26590800  0.93725500  0.82191100  1
  O  O66  1  0.95821200  0.00648200  0.68167800  1
  O  O67  1  0.54178800  0.00648200  0.18167800  1
  O  O68  1  0.04178800  0.99351800  0.31832200  1
  O  O69  1  0.45821200  0.99351800  0.81832200  1
  O  O70  1  0.73188900  0.57458400  0.76775500  1
  O  O71  1  0.76811100  0.57458400  0.26775500  1
  O  O72  1  0.26811100  0.42541600  0.23224500  1
  O  O73  1  0.23188900  0.42541600  0.73224500  1
