# generated using pymatgen
data_Mg2AsO5
_symmetry_space_group_name_H-M   'P 1'
_cell_length_a   6.17021500
_cell_length_b   8.42098400
_cell_length_c   8.46168000
_cell_angle_alpha   90.00000000
_cell_angle_beta   90.00000000
_cell_angle_gamma   90.00000000
_symmetry_Int_Tables_number   1
_chemical_formula_structural   Mg2AsO5
_chemical_formula_sum   'Mg8 As4 O20'
_cell_volume   439.66281555
_cell_formula_units_Z   4
loop_
 _symmetry_equiv_pos_site_id
 _symmetry_equiv_pos_as_xyz
  1  'x, y, z'
loop_
 _atom_site_type_symbol
 _atom_site_label
 _atom_site_symmetry_multiplicity
 _atom_site_fract_x
 _atom_site_fract_y
 _atom_site_fract_z
 _atom_site_occupancy
  Mg  Mg0  1  0.25296800  0.50000000  0.50000000  1
  Mg  Mg1  1  0.24703200  0.00000000  0.00000000  1
  Mg  Mg2  1  0.74703200  0.50000000  0.50000000  1
  Mg  Mg3  1  0.75296800  0.00000000  0.00000000  1
  Mg  Mg4  1  0.50000000  0.87087600  0.35612100  1
  Mg  Mg5  1  0.50000000  0.12912400  0.64387900  1
  Mg  Mg6  1  0.00000000  0.62912400  0.85612100  1
  Mg  Mg7  1  0.00000000  0.37087600  0.14387900  1
  As  As8  1  0.00000000  0.75152600  0.24418600  1
  As  As9  1  0.00000000  0.24847400  0.75581400  1
  As  As10  1  0.50000000  0.74847400  0.74418600  1
  As  As11  1  0.50000000  0.25152600  0.25581400  1
  O  O12  1  0.00000000  0.64268900  0.41666500  1
  O  O13  1  0.00000000  0.35731100  0.58333500  1
  O  O14  1  0.50000000  0.85731100  0.91666500  1
  O  O15  1  0.50000000  0.14268900  0.08333500  1
  O  O16  1  0.50000000  0.64149100  0.41596200  1
  O  O17  1  0.50000000  0.35850900  0.58403800  1
  O  O18  1  0.00000000  0.85850900  0.91596200  1
  O  O19  1  0.00000000  0.14149100  0.08403800  1
  O  O20  1  0.00000000  0.61064600  0.09756100  1
  O  O21  1  0.00000000  0.38935400  0.90243900  1
  O  O22  1  0.50000000  0.88935400  0.59756100  1
  O  O23  1  0.50000000  0.11064600  0.40243900  1
  O  O24  1  0.22502200  0.87029100  0.22324900  1
  O  O25  1  0.22502200  0.12970900  0.77675100  1
  O  O26  1  0.27497800  0.62970900  0.72324900  1
  O  O27  1  0.27497800  0.37029100  0.27675100  1
  O  O28  1  0.77497800  0.12970900  0.77675100  1
  O  O29  1  0.77497800  0.87029100  0.22324900  1
  O  O30  1  0.72502200  0.37029100  0.27675100  1
  O  O31  1  0.72502200  0.62970900  0.72324900  1
