# generated using pymatgen
data_LaH6C2SNO9
_symmetry_space_group_name_H-M   'P 1'
_cell_length_a   9.08530000
_cell_length_b   6.73202000
_cell_length_c   15.44301409
_cell_angle_alpha   68.53459083
_cell_angle_beta   90.00000000
_cell_angle_gamma   90.00000000
_symmetry_Int_Tables_number   1
_chemical_formula_structural   LaH6C2SNO9
_chemical_formula_sum   'La4 H24 C8 S4 N4 O36'
_cell_volume   879.01812325
_cell_formula_units_Z   4
loop_
 _symmetry_equiv_pos_site_id
 _symmetry_equiv_pos_as_xyz
  1  'x, y, z'
loop_
 _atom_site_type_symbol
 _atom_site_label
 _atom_site_symmetry_multiplicity
 _atom_site_fract_x
 _atom_site_fract_y
 _atom_site_fract_z
 _atom_site_occupancy
  La  La0  1  0.23577700  0.33801600  0.40930800  1
  La  La1  1  0.26422300  0.33801600  0.90930800  1
  La  La2  1  0.76422300  0.66198400  0.59069200  1
  La  La3  1  0.73577700  0.66198400  0.09069200  1
  H  H4  1  0.18852100  0.91836300  0.66242800  1
  H  H5  1  0.31147900  0.91836300  0.16242800  1
  H  H6  1  0.81147900  0.08163700  0.33757200  1
  H  H7  1  0.68852100  0.08163700  0.83757200  1
  H  H8  1  0.05298200  0.09437500  0.65776600  1
  H  H9  1  0.44701800  0.09437500  0.15776600  1
  H  H10  1  0.94701800  0.90562500  0.34223400  1
  H  H11  1  0.55298200  0.90562500  0.84223400  1
  H  H12  1  0.13215300  0.95806700  0.75986500  1
  H  H13  1  0.36784700  0.95806700  0.25986500  1
  H  H14  1  0.86784700  0.04193300  0.24013500  1
  H  H15  1  0.63215300  0.04193300  0.74013500  1
  H  H16  1  0.46847400  0.27982400  0.57710200  1
  H  H17  1  0.03152600  0.27982400  0.07710200  1
  H  H18  1  0.53152600  0.72017600  0.42289800  1
  H  H19  1  0.96847400  0.72017600  0.92289800  1
  H  H20  1  0.46539300  0.05159600  0.57334200  1
  H  H21  1  0.03460700  0.05159600  0.07334200  1
  H  H22  1  0.53460700  0.94840400  0.42665800  1
  H  H23  1  0.96539300  0.94840400  0.92665800  1
  H  H24  1  0.22516500  0.15304600  0.67979100  1
  H  H25  1  0.27483500  0.15304600  0.17979100  1
  H  H26  1  0.77483500  0.84695400  0.32020900  1
  H  H27  1  0.72516500  0.84695400  0.82020900  1
  C  C28  1  0.53245900  0.58099700  0.28222500  1
  C  C29  1  0.96754100  0.58099700  0.78222500  1
  C  C30  1  0.46754100  0.41900300  0.71777500  1
  C  C31  1  0.03245900  0.41900300  0.21777500  1
  C  C32  1  0.52588600  0.36187400  0.27046300  1
  C  C33  1  0.97411400  0.36187400  0.77046300  1
  C  C34  1  0.47411400  0.63812600  0.72953700  1
  C  C35  1  0.02588600  0.63812600  0.22953700  1
  S  S36  1  0.16495700  0.74275200  0.52355500  1
  S  S37  1  0.33504300  0.74275200  0.02355500  1
  S  S38  1  0.83504300  0.25724800  0.47644500  1
  S  S39  1  0.66495700  0.25724800  0.97644500  1
  N  N40  1  0.15088100  0.03154600  0.68967600  1
  N  N41  1  0.34911900  0.03154600  0.18967600  1
  N  N42  1  0.84911900  0.96845400  0.31032400  1
  N  N43  1  0.65088100  0.96845400  0.81032400  1
  O  O44  1  0.23313600  0.56870200  0.49927000  1
  O  O45  1  0.26686400  0.56870200  0.99927000  1
  O  O46  1  0.76686400  0.43129800  0.50073000  1
  O  O47  1  0.73313600  0.43129800  0.00073000  1
  O  O48  1  0.22883200  0.95035600  0.46156300  1
  O  O49  1  0.27116800  0.95035600  0.96156300  1
  O  O50  1  0.77116800  0.04964400  0.53843700  1
  O  O51  1  0.72883200  0.04964400  0.03843700  1
  O  O52  1  0.44474700  0.21969900  0.32708200  1
  O  O53  1  0.05525300  0.21969900  0.82708200  1
  O  O54  1  0.55525300  0.78030100  0.67291800  1
  O  O55  1  0.94474700  0.78030100  0.17291800  1
  O  O56  1  0.41583700  0.19056400  0.54850900  1
  O  O57  1  0.08416300  0.19056400  0.04850900  1
  O  O58  1  0.58416300  0.80943600  0.45149100  1
  O  O59  1  0.91583700  0.80943600  0.95149100  1
  O  O60  1  0.44677800  0.60654300  0.34273700  1
  O  O61  1  0.05322200  0.60654300  0.84273700  1
  O  O62  1  0.55322200  0.39345700  0.65726300  1
  O  O63  1  0.94677800  0.39345700  0.15726300  1
  O  O64  1  0.12031800  0.28045600  0.26924000  1
  O  O65  1  0.37968200  0.28045600  0.76924000  1
  O  O66  1  0.87968200  0.71954400  0.73076000  1
  O  O67  1  0.62031800  0.71954400  0.23076000  1
  O  O68  1  0.99758500  0.25397500  0.49325200  1
  O  O69  1  0.50241500  0.25397500  0.99325200  1
  O  O70  1  0.00241500  0.74602500  0.50674800  1
  O  O71  1  0.49758500  0.74602500  0.00674800  1
  O  O72  1  0.10005800  0.65757500  0.29546500  1
  O  O73  1  0.39994200  0.65757500  0.79546500  1
  O  O74  1  0.89994200  0.34242500  0.70453500  1
  O  O75  1  0.60005800  0.34242500  0.20453500  1
  O  O76  1  0.19571600  0.70713100  0.62219500  1
  O  O77  1  0.30428400  0.70713100  0.12219500  1
  O  O78  1  0.80428400  0.29286900  0.37780500  1
  O  O79  1  0.69571600  0.29286900  0.87780500  1
