# generated using pymatgen
data_Sb2H18C3(IN)9
_symmetry_space_group_name_H-M   'P 1'
_cell_length_a   8.97806280
_cell_length_b   8.97806280
_cell_length_c   21.70237000
_cell_angle_alpha   90.00000000
_cell_angle_beta   90.00000000
_cell_angle_gamma   100.95576557
_symmetry_Int_Tables_number   1
_chemical_formula_structural   Sb2H18C3(IN)9
_chemical_formula_sum   'Sb4 H36 C6 I18 N18'
_cell_volume   1717.44982332
_cell_formula_units_Z   2
loop_
 _symmetry_equiv_pos_site_id
 _symmetry_equiv_pos_as_xyz
  1  'x, y, z'
loop_
 _atom_site_type_symbol
 _atom_site_label
 _atom_site_symmetry_multiplicity
 _atom_site_fract_x
 _atom_site_fract_y
 _atom_site_fract_z
 _atom_site_occupancy
  Sb  Sb0  1  0.73362400  0.26637600  0.84731000  1
  Sb  Sb1  1  0.26637600  0.73362400  0.15269000  1
  Sb  Sb2  1  0.73362400  0.26637600  0.65269000  1
  Sb  Sb3  1  0.26637600  0.73362400  0.34731000  1
  H  H4  1  0.20042000  0.64586000  0.75000000  1
  H  H5  1  0.64586000  0.20042000  0.25000000  1
  H  H6  1  0.79958000  0.35414000  0.25000000  1
  H  H7  1  0.35414000  0.79958000  0.75000000  1
  H  H8  1  0.33468600  0.45713400  0.87538600  1
  H  H9  1  0.45713400  0.33468600  0.12461400  1
  H  H10  1  0.33468600  0.45713400  0.62461400  1
  H  H11  1  0.45713400  0.33468600  0.37538600  1
  H  H12  1  0.66531400  0.54286600  0.12461400  1
  H  H13  1  0.54286600  0.66531400  0.87538600  1
  H  H14  1  0.66531400  0.54286600  0.37538600  1
  H  H15  1  0.54286600  0.66531400  0.62461400  1
  H  H16  1  0.15971100  0.48304100  0.90363000  1
  H  H17  1  0.48304100  0.15971100  0.09637000  1
  H  H18  1  0.15971100  0.48304100  0.59637000  1
  H  H19  1  0.48304100  0.15971100  0.40363000  1
  H  H20  1  0.84028900  0.51695900  0.09637000  1
  H  H21  1  0.51695900  0.84028900  0.90363000  1
  H  H22  1  0.84028900  0.51695900  0.40363000  1
  H  H23  1  0.51695900  0.84028900  0.59637000  1
  H  H24  1  0.28197000  0.87103700  0.94114900  1
  H  H25  1  0.87103700  0.28197000  0.05885100  1
  H  H26  1  0.28197000  0.87103700  0.55885100  1
  H  H27  1  0.87103700  0.28197000  0.44114900  1
  H  H28  1  0.71803000  0.12896300  0.05885100  1
  H  H29  1  0.12896300  0.71803000  0.94114900  1
  H  H30  1  0.71803000  0.12896300  0.44114900  1
  H  H31  1  0.12896300  0.71803000  0.55885100  1
  H  H32  1  0.12768500  0.08295700  0.75000000  1
  H  H33  1  0.08295700  0.12768500  0.25000000  1
  H  H34  1  0.87231500  0.91704300  0.25000000  1
  H  H35  1  0.91704300  0.87231500  0.75000000  1
  H  H36  1  0.31128200  0.04595000  0.75000000  1
  H  H37  1  0.04595000  0.31128200  0.25000000  1
  H  H38  1  0.68871800  0.95405000  0.25000000  1
  H  H39  1  0.95405000  0.68871800  0.75000000  1
  C  C40  1  0.32674200  0.67325800  0.90503000  1
  C  C41  1  0.67325800  0.32674200  0.09497000  1
  C  C42  1  0.32674200  0.67325800  0.59497000  1
  C  C43  1  0.67325800  0.32674200  0.40503000  1
  C  C44  1  0.14340200  0.85659800  0.75000000  1
  C  C45  1  0.85659800  0.14340200  0.25000000  1
  I  I46  1  0.63987200  0.99004900  0.75000000  1
  I  I47  1  0.99004900  0.63987200  0.25000000  1
  I  I48  1  0.36012800  0.00995100  0.25000000  1
  I  I49  1  0.00995100  0.36012800  0.75000000  1
  I  I50  1  0.55024200  0.44975800  0.75000000  1
  I  I51  1  0.44975800  0.55024200  0.25000000  1
  I  I52  1  0.82892900  0.54347300  0.91954300  1
  I  I53  1  0.54347300  0.82892900  0.08045700  1
  I  I54  1  0.82892900  0.54347300  0.58045700  1
  I  I55  1  0.54347300  0.82892900  0.41954300  1
  I  I56  1  0.17107100  0.45652700  0.08045700  1
  I  I57  1  0.45652700  0.17107100  0.91954300  1
  I  I58  1  0.17107100  0.45652700  0.41954300  1
  I  I59  1  0.45652700  0.17107100  0.58045700  1
  I  I60  1  0.90943000  0.09057000  0.91819700  1
  I  I61  1  0.09057000  0.90943000  0.08180300  1
  I  I62  1  0.90943000  0.09057000  0.58180300  1
  I  I63  1  0.09057000  0.90943000  0.41819700  1
  N  N64  1  0.24003600  0.75996400  0.75000000  1
  N  N65  1  0.75996400  0.24003600  0.25000000  1
  N  N66  1  0.26860800  0.52816800  0.89201500  1
  N  N67  1  0.52816800  0.26860800  0.10798500  1
  N  N68  1  0.26860800  0.52816800  0.60798500  1
  N  N69  1  0.52816800  0.26860800  0.39201500  1
  N  N70  1  0.73139200  0.47183200  0.10798500  1
  N  N71  1  0.47183200  0.73139200  0.89201500  1
  N  N72  1  0.73139200  0.47183200  0.39201500  1
  N  N73  1  0.47183200  0.73139200  0.60798500  1
  N  N74  1  0.23879000  0.76121000  0.93019800  1
  N  N75  1  0.76121000  0.23879000  0.06980200  1
  N  N76  1  0.23879000  0.76121000  0.56980200  1
  N  N77  1  0.76121000  0.23879000  0.43019800  1
  N  N78  1  0.19749200  0.00598000  0.75000000  1
  N  N79  1  0.00598000  0.19749200  0.25000000  1
  N  N80  1  0.80250800  0.99402000  0.25000000  1
  N  N81  1  0.99402000  0.80250800  0.75000000  1
