# generated using pymatgen
data_KS2N(O2F)2
_symmetry_space_group_name_H-M   'P 1'
_cell_length_a   5.70619300
_cell_length_b   15.03869100
_cell_length_c   15.73031991
_cell_angle_alpha   88.89375548
_cell_angle_beta   90.00000000
_cell_angle_gamma   90.00000000
_symmetry_Int_Tables_number   1
_chemical_formula_structural   KS2N(O2F)2
_chemical_formula_sum   'K8 S16 N8 O32 F16'
_cell_volume   1349.62493590
_cell_formula_units_Z   8
loop_
 _symmetry_equiv_pos_site_id
 _symmetry_equiv_pos_as_xyz
  1  'x, y, z'
loop_
 _atom_site_type_symbol
 _atom_site_label
 _atom_site_symmetry_multiplicity
 _atom_site_fract_x
 _atom_site_fract_y
 _atom_site_fract_z
 _atom_site_occupancy
  K  K0  1  0.73298700  0.79341900  0.81728500  1
  K  K1  1  0.76701300  0.79341900  0.31728500  1
  K  K2  1  0.26701300  0.20658100  0.18271500  1
  K  K3  1  0.23298700  0.20658100  0.68271500  1
  K  K4  1  0.78395700  0.70733800  0.06727900  1
  K  K5  1  0.71604300  0.70733800  0.56727900  1
  K  K6  1  0.21604300  0.29266200  0.93272100  1
  K  K7  1  0.28395700  0.29266200  0.43272100  1
  S  S8  1  0.24032200  0.86562900  0.99520800  1
  S  S9  1  0.25967800  0.86562900  0.49520800  1
  S  S10  1  0.75967800  0.13437100  0.00479200  1
  S  S11  1  0.74032200  0.13437100  0.50479200  1
  S  S12  1  0.30659600  0.60694800  0.91896500  1
  S  S13  1  0.19340400  0.60694800  0.41896500  1
  S  S14  1  0.69340400  0.39305200  0.08103500  1
  S  S15  1  0.80659600  0.39305200  0.58103500  1
  S  S16  1  0.22960000  0.63339700  0.74424600  1
  S  S17  1  0.27040000  0.63339700  0.24424600  1
  S  S18  1  0.77040000  0.36660300  0.25575400  1
  S  S19  1  0.72960000  0.36660300  0.75575400  1
  S  S20  1  0.31529500  0.89279100  0.16888700  1
  S  S21  1  0.18470500  0.89279100  0.66888700  1
  S  S22  1  0.68470500  0.10720900  0.83111300  1
  S  S23  1  0.81529500  0.10720900  0.33111300  1
  N  N24  1  0.16187400  0.86127500  0.09150300  1
  N  N25  1  0.33812600  0.86127500  0.59150300  1
  N  N26  1  0.83812600  0.13872500  0.90849700  1
  N  N27  1  0.66187400  0.13872500  0.40849700  1
  N  N28  1  0.14895200  0.63384400  0.84019700  1
  N  N29  1  0.35104800  0.63384400  0.34019700  1
  N  N30  1  0.85104800  0.36615600  0.15980300  1
  N  N31  1  0.64895200  0.36615600  0.65980300  1
  O  O32  1  0.17491600  0.62197900  0.99521500  1
  O  O33  1  0.32508400  0.62197900  0.49521500  1
  O  O34  1  0.82508400  0.37802100  0.00478500  1
  O  O35  1  0.67491600  0.37802100  0.50478500  1
  O  O36  1  0.46683900  0.66168700  0.72629300  1
  O  O37  1  0.03316100  0.66168700  0.22629300  1
  O  O38  1  0.53316100  0.33831300  0.27370700  1
  O  O39  1  0.96683900  0.33831300  0.77370700  1
  O  O40  1  0.54852200  0.63515700  0.91586700  1
  O  O41  1  0.95147800  0.63515700  0.41586700  1
  O  O42  1  0.45147800  0.36484300  0.08413300  1
  O  O43  1  0.04852200  0.36484300  0.58413300  1
  O  O44  1  0.47621300  0.83677800  0.97687800  1
  O  O45  1  0.02378700  0.83677800  0.47687800  1
  O  O46  1  0.52378700  0.16322200  0.02312200  1
  O  O47  1  0.97621300  0.16322200  0.52312200  1
  O  O48  1  0.19482800  0.86872700  0.24625800  1
  O  O49  1  0.30517200  0.86872700  0.74625800  1
  O  O50  1  0.80517200  0.13127300  0.75374200  1
  O  O51  1  0.69482800  0.13127300  0.25374200  1
  O  O52  1  0.56476400  0.87738400  0.16393800  1
  O  O53  1  0.93523600  0.87738400  0.66393800  1
  O  O54  1  0.43523600  0.12261600  0.83606200  1
  O  O55  1  0.06476400  0.12261600  0.33606200  1
  O  O56  1  0.05038500  0.82929300  0.94647700  1
  O  O57  1  0.44961500  0.82929300  0.44647700  1
  O  O58  1  0.94961500  0.17070700  0.05352300  1
  O  O59  1  0.55038500  0.17070700  0.55352300  1
  O  O60  1  0.04197200  0.67202300  0.69468800  1
  O  O61  1  0.45802800  0.67202300  0.19468800  1
  O  O62  1  0.95802800  0.32797700  0.30531200  1
  O  O63  1  0.54197200  0.32797700  0.80531200  1
  F  F64  1  0.24195100  0.96953100  0.97185400  1
  F  F65  1  0.25804900  0.96953100  0.47185400  1
  F  F66  1  0.75804900  0.03046900  0.02814600  1
  F  F67  1  0.74195100  0.03046900  0.52814600  1
  F  F68  1  0.32128100  0.49980300  0.91286900  1
  F  F69  1  0.17871900  0.49980300  0.41286900  1
  F  F70  1  0.67871900  0.50019700  0.08713100  1
  F  F71  1  0.82128100  0.50019700  0.58713100  1
  F  F72  1  0.29102700  0.99998600  0.16207500  1
  F  F73  1  0.20897300  0.99998600  0.66207500  1
  F  F74  1  0.70897300  0.00001400  0.83792500  1
  F  F75  1  0.79102700  0.00001400  0.33792500  1
  F  F76  1  0.22919600  0.53027000  0.72130900  1
  F  F77  1  0.27080400  0.53027000  0.22130900  1
  F  F78  1  0.77080400  0.46973000  0.27869100  1
  F  F79  1  0.72919600  0.46973000  0.77869100  1
