# generated using pymatgen
data_KSiO3
_symmetry_space_group_name_H-M   'P 1'
_cell_length_a   11.00797200
_cell_length_b   7.83872000
_cell_length_c   10.36872265
_cell_angle_alpha   48.63116328
_cell_angle_beta   90.00000000
_cell_angle_gamma   90.00000000
_symmetry_Int_Tables_number   1
_chemical_formula_structural   KSiO3
_chemical_formula_sum   'K8 Si8 O24'
_cell_volume   671.44653407
_cell_formula_units_Z   8
loop_
 _symmetry_equiv_pos_site_id
 _symmetry_equiv_pos_as_xyz
  1  'x, y, z'
loop_
 _atom_site_type_symbol
 _atom_site_label
 _atom_site_symmetry_multiplicity
 _atom_site_fract_x
 _atom_site_fract_y
 _atom_site_fract_z
 _atom_site_occupancy
  K  K0  1  0.25113200  0.00174800  0.98522800  1
  K  K1  1  0.24886800  0.00174800  0.48522800  1
  K  K2  1  0.74886800  0.99825200  0.01477200  1
  K  K3  1  0.75113200  0.99825200  0.51477200  1
  K  K4  1  0.47622300  0.50099200  0.82092100  1
  K  K5  1  0.02377700  0.50099200  0.32092100  1
  K  K6  1  0.52377700  0.49900800  0.17907900  1
  K  K7  1  0.97622300  0.49900800  0.67907900  1
  Si  Si8  1  0.31332000  0.50122300  0.49184300  1
  Si  Si9  1  0.18668000  0.50122300  0.99184300  1
  Si  Si10  1  0.68668000  0.49877700  0.50815700  1
  Si  Si11  1  0.81332000  0.49877700  0.00815700  1
  Si  Si12  1  0.49986300  0.89365800  0.30364400  1
  Si  Si13  1  0.00013700  0.89365800  0.80364400  1
  Si  Si14  1  0.50013700  0.10634200  0.69635600  1
  Si  Si15  1  0.99986300  0.10634200  0.19635600  1
  O  O16  1  0.17381600  0.49430600  0.54409300  1
  O  O17  1  0.32618400  0.49430600  0.04409300  1
  O  O18  1  0.82618400  0.50569400  0.45590700  1
  O  O19  1  0.67381600  0.50569400  0.95590700  1
  O  O20  1  0.38635300  0.72741700  0.43489100  1
  O  O21  1  0.11364700  0.72741700  0.93489100  1
  O  O22  1  0.61364700  0.27258300  0.56510900  1
  O  O23  1  0.88635300  0.27258300  0.06510900  1
  O  O24  1  0.39092100  0.28134000  0.65832400  1
  O  O25  1  0.10907900  0.28134000  0.15832400  1
  O  O26  1  0.60907900  0.71866000  0.34167600  1
  O  O27  1  0.89092100  0.71866000  0.84167600  1
  O  O28  1  0.29137600  0.49876200  0.33852200  1
  O  O29  1  0.20862400  0.49876200  0.83852200  1
  O  O30  1  0.70862400  0.50123800  0.66147800  1
  O  O31  1  0.79137600  0.50123800  0.16147800  1
  O  O32  1  0.46363300  0.06227200  0.10253500  1
  O  O33  1  0.03636700  0.06227200  0.60253500  1
  O  O34  1  0.53636700  0.93772800  0.89746500  1
  O  O35  1  0.96363300  0.93772800  0.39746500  1
  O  O36  1  0.53881300  0.05972300  0.33768900  1
  O  O37  1  0.96118700  0.05972300  0.83768900  1
  O  O38  1  0.46118700  0.94027700  0.66231100  1
  O  O39  1  0.03881300  0.94027700  0.16231100  1
