# generated using pymatgen
data_U(PO3)4
_symmetry_space_group_name_H-M   'P 1'
_cell_length_a   14.62807200
_cell_length_b   6.79517900
_cell_length_c   12.01273687
_cell_angle_alpha   79.43324761
_cell_angle_beta   90.00000000
_cell_angle_gamma   90.00000000
_symmetry_Int_Tables_number   1
_chemical_formula_structural   U(PO3)4
_chemical_formula_sum   'U4 P16 O48'
_cell_volume   1173.82132736
_cell_formula_units_Z   4
loop_
 _symmetry_equiv_pos_site_id
 _symmetry_equiv_pos_as_xyz
  1  'x, y, z'
loop_
 _atom_site_type_symbol
 _atom_site_label
 _atom_site_symmetry_multiplicity
 _atom_site_fract_x
 _atom_site_fract_y
 _atom_site_fract_z
 _atom_site_occupancy
  U  U0  1  0.14946700  0.53755200  0.31397700  1
  U  U1  1  0.35053300  0.53755200  0.81397700  1
  U  U2  1  0.85053300  0.46244800  0.68602300  1
  U  U3  1  0.64946700  0.46244800  0.18602300  1
  P  P4  1  0.13569700  0.04165700  0.22437700  1
  P  P5  1  0.36430300  0.04165700  0.72437700  1
  P  P6  1  0.86430300  0.95834300  0.77562300  1
  P  P7  1  0.63569700  0.95834300  0.27562300  1
  P  P8  1  0.99364700  0.83494700  0.47963000  1
  P  P9  1  0.50635300  0.83494700  0.97963000  1
  P  P10  1  0.00635300  0.16505300  0.52037000  1
  P  P11  1  0.49364700  0.16505300  0.02037000  1
  P  P12  1  0.90389700  0.45474100  0.18361800  1
  P  P13  1  0.59610300  0.45474100  0.68361800  1
  P  P14  1  0.09610300  0.54525900  0.81638200  1
  P  P15  1  0.40389700  0.54525900  0.31638200  1
  P  P16  1  0.18941600  0.69853900  0.00632700  1
  P  P17  1  0.31058400  0.69853900  0.50632700  1
  P  P18  1  0.81058400  0.30146100  0.99367300  1
  P  P19  1  0.68941700  0.30146100  0.49367300  1
  O  O20  1  0.94581800  0.05425900  0.43291700  1
  O  O21  1  0.55418200  0.05425900  0.93291700  1
  O  O22  1  0.05418200  0.94574100  0.56708300  1
  O  O23  1  0.44581800  0.94574100  0.06708300  1
  O  O24  1  0.05070300  0.03768200  0.15958900  1
  O  O25  1  0.44929700  0.03768200  0.65958900  1
  O  O26  1  0.94929700  0.96231800  0.84041100  1
  O  O27  1  0.55070300  0.96231800  0.34041100  1
  O  O28  1  0.20121100  0.86843000  0.25220300  1
  O  O29  1  0.29878900  0.86843000  0.75220300  1
  O  O30  1  0.79878900  0.13157000  0.74779700  1
  O  O31  1  0.70121100  0.13157000  0.24779700  1
  O  O32  1  0.05195700  0.77099600  0.39001900  1
  O  O33  1  0.44804300  0.77099600  0.89001900  1
  O  O34  1  0.94804300  0.22900400  0.60998100  1
  O  O35  1  0.55195700  0.22900400  0.10998100  1
  O  O36  1  0.23315700  0.57512900  0.46296200  1
  O  O37  1  0.26684300  0.57512900  0.96296200  1
  O  O38  1  0.76684300  0.42487100  0.53703800  1
  O  O39  1  0.73315700  0.42487100  0.03703800  1
  O  O40  1  0.66522700  0.77753800  0.22925900  1
  O  O41  1  0.83477300  0.77753800  0.72925900  1
  O  O42  1  0.33477300  0.22246200  0.77074100  1
  O  O43  1  0.16522700  0.22246200  0.27074100  1
  O  O44  1  0.40546900  0.63445400  0.42389000  1
  O  O45  1  0.09453100  0.63445400  0.92389000  1
  O  O46  1  0.59453100  0.36554600  0.57611000  1
  O  O47  1  0.90546900  0.36554600  0.07611000  1
  O  O48  1  0.19636700  0.91793600  0.98047800  1
  O  O49  1  0.30363300  0.91793600  0.48047800  1
  O  O50  1  0.80363300  0.08206400  0.01952200  1
  O  O51  1  0.69636700  0.08206400  0.51952200  1
  O  O52  1  0.99189500  0.48390900  0.23764700  1
  O  O53  1  0.50810500  0.48390900  0.73764700  1
  O  O54  1  0.00810500  0.51609100  0.76235300  1
  O  O55  1  0.49189500  0.51609100  0.26235300  1
  O  O56  1  0.81491900  0.50643900  0.22980200  1
  O  O57  1  0.68508100  0.50643900  0.72980200  1
  O  O58  1  0.18508100  0.49356100  0.77019800  1
  O  O59  1  0.31491900  0.49356100  0.27019800  1
  O  O60  1  0.07175400  0.31626800  0.45880600  1
  O  O61  1  0.42824600  0.31626800  0.95880600  1
  O  O62  1  0.92824600  0.68373200  0.54119400  1
  O  O63  1  0.57175400  0.68373200  0.04119400  1
  O  O64  1  0.15574900  0.59194400  0.12176900  1
  O  O65  1  0.34425100  0.59194400  0.62176900  1
  O  O66  1  0.84425100  0.40805600  0.87823100  1
  O  O67  1  0.65574900  0.40805600  0.37823100  1
