# generated using pymatgen
data_H25C8IN2(OF2)2
_symmetry_space_group_name_H-M   'P 1'
_cell_length_a   8.70571722
_cell_length_b   8.70571722
_cell_length_c   14.23043046
_cell_angle_alpha   63.97699863
_cell_angle_beta   63.97699863
_cell_angle_gamma   60.52660992
_symmetry_Int_Tables_number   1
_chemical_formula_structural   H25C8IN2(OF2)2
_chemical_formula_sum   'H50 C16 I2 N4 O4 F8'
_cell_volume   808.78662729
_cell_formula_units_Z   2
loop_
 _symmetry_equiv_pos_site_id
 _symmetry_equiv_pos_as_xyz
  1  'x, y, z'
loop_
 _atom_site_type_symbol
 _atom_site_label
 _atom_site_symmetry_multiplicity
 _atom_site_fract_x
 _atom_site_fract_y
 _atom_site_fract_z
 _atom_site_occupancy
  H  H0  1  0.85003700  0.32953500  0.13224000  1
  H  H1  1  0.32953500  0.85003700  0.13224000  1
  H  H2  1  0.14996300  0.67046500  0.86776000  1
  H  H3  1  0.67046500  0.14996300  0.86776000  1
  H  H4  1  0.54245700  0.54245700  0.80889000  1
  H  H5  1  0.45754300  0.45754300  0.19111000  1
  H  H6  1  0.75821400  0.55150700  0.78941000  1
  H  H7  1  0.55150700  0.75821400  0.78941000  1
  H  H8  1  0.24178600  0.44849300  0.21059000  1
  H  H9  1  0.44849300  0.24178600  0.21059000  1
  H  H10  1  0.80031500  0.52411200  0.52989300  1
  H  H11  1  0.52411200  0.80031500  0.52989300  1
  H  H12  1  0.19968500  0.47588800  0.47010700  1
  H  H13  1  0.47588800  0.19968500  0.47010700  1
  H  H14  1  0.13249400  0.33880100  0.11455700  1
  H  H15  1  0.33880100  0.13249400  0.11455700  1
  H  H16  1  0.86750600  0.66119900  0.88544300  1
  H  H17  1  0.66119900  0.86750600  0.88544300  1
  H  H18  1  0.97284300  0.17801900  0.28454900  1
  H  H19  1  0.17801900  0.97284300  0.28454900  1
  H  H20  1  0.02715700  0.82198100  0.71545100  1
  H  H21  1  0.82198100  0.02715700  0.71545100  1
  H  H22  1  0.68323200  0.41058500  0.66055200  1
  H  H23  1  0.41058500  0.68323200  0.66055200  1
  H  H24  1  0.31676800  0.58941500  0.33944800  1
  H  H25  1  0.58941500  0.31676800  0.33944800  1
  H  H26  1  0.91428500  0.70795400  0.61070900  1
  H  H27  1  0.70795400  0.91428500  0.61070900  1
  H  H28  1  0.08571500  0.29204600  0.38929100  1
  H  H29  1  0.29204600  0.08571500  0.38929100  1
  H  H30  1  0.81108500  0.81108500  0.50183300  1
  H  H31  1  0.18891500  0.18891500  0.49816700  1
  H  H32  1  0.24960500  0.24960500  0.99843500  1
  H  H33  1  0.75039500  0.75039500  0.00156500  1
  H  H34  1  0.96630400  0.96630400  0.29646600  1
  H  H35  1  0.03369600  0.03369600  0.70353400  1
  H  H36  1  0.89809700  0.41888300  0.64185500  1
  H  H37  1  0.41888300  0.89809700  0.64185500  1
  H  H38  1  0.10190300  0.58111700  0.35814500  1
  H  H39  1  0.58111700  0.10190300  0.35814500  1
  H  H40  1  0.96293000  0.24479200  0.01437900  1
  H  H41  1  0.24479200  0.96293000  0.01437900  1
  H  H42  1  0.03707000  0.75520800  0.98562100  1
  H  H43  1  0.75520800  0.03707000  0.98562100  1
  H  H44  1  0.84306500  0.11966200  0.14085600  1
  H  H45  1  0.11966200  0.84306500  0.14085600  1
  H  H46  1  0.15693500  0.88033800  0.85914400  1
  H  H47  1  0.88033800  0.15693500  0.85914400  1
  H  H48  1  0.28244200  0.71755800  0.50000000  1
  H  H49  1  0.71755800  0.28244200  0.50000000  1
  C  C50  1  0.62710400  0.62710400  0.76898700  1
  C  C51  1  0.37289600  0.37289600  0.23101300  1
  C  C52  1  0.77030000  0.49195500  0.61816900  1
  C  C53  1  0.49195500  0.77030000  0.61816900  1
  C  C54  1  0.22970000  0.50804500  0.38183100  1
  C  C55  1  0.50804500  0.22970000  0.38183100  1
  C  C56  1  0.21382100  0.21382100  0.08750800  1
  C  C57  1  0.78617900  0.78617900  0.91249200  1
  C  C58  1  0.92522700  0.20600600  0.10383000  1
  C  C59  1  0.20600600  0.92522700  0.10383000  1
  C  C60  1  0.07477300  0.79399400  0.89617000  1
  C  C61  1  0.79399400  0.07477300  0.89617000  1
  C  C62  1  0.05045400  0.05045400  0.26033100  1
  C  C63  1  0.94954600  0.94954600  0.73966900  1
  C  C64  1  0.78415300  0.78415300  0.58920400  1
  C  C65  1  0.21584700  0.21584700  0.41079600  1
  I  I66  1  0.71058300  0.71058300  0.26024900  1
  I  I67  1  0.28941700  0.28941700  0.73975100  1
  N  N68  1  0.66861700  0.66861700  0.64856800  1
  N  N69  1  0.33138300  0.33138300  0.35143200  1
  N  N70  1  0.09852300  0.09852300  0.13851400  1
  N  N71  1  0.90147700  0.90147700  0.86148600  1
  O  O72  1  0.94440700  0.62447900  0.17782600  1
  O  O73  1  0.62447900  0.94440700  0.17782600  1
  O  O74  1  0.05559300  0.37552100  0.82217400  1
  O  O75  1  0.37552100  0.05559300  0.82217400  1
  F  F76  1  0.61853500  0.61853500  0.18964000  1
  F  F77  1  0.38146500  0.38146500  0.81036000  1
  F  F78  1  0.79244800  0.79244800  0.34242900  1
  F  F79  1  0.20755200  0.20755200  0.65757100  1
  F  F80  1  0.35186900  0.78979600  0.41266800  1
  F  F81  1  0.78979600  0.35186900  0.41266800  1
  F  F82  1  0.64813100  0.21020400  0.58733200  1
  F  F83  1  0.21020400  0.64813100  0.58733200  1
