# generated using pymatgen
data_Sb2C3OF18
_symmetry_space_group_name_H-M   'P 1'
_cell_length_a   8.90741646
_cell_length_b   10.66983805
_cell_length_c   10.39520229
_cell_angle_alpha   83.76511954
_cell_angle_beta   68.48555038
_cell_angle_gamma   63.58581308
_symmetry_Int_Tables_number   1
_chemical_formula_structural   Sb2C3OF18
_chemical_formula_sum   'Sb4 C6 O2 F36'
_cell_volume   821.40946774
_cell_formula_units_Z   2
loop_
 _symmetry_equiv_pos_site_id
 _symmetry_equiv_pos_as_xyz
  1  'x, y, z'
loop_
 _atom_site_type_symbol
 _atom_site_label
 _atom_site_symmetry_multiplicity
 _atom_site_fract_x
 _atom_site_fract_y
 _atom_site_fract_z
 _atom_site_occupancy
  Sb  Sb0  1  0.37356300  0.80852500  0.08127300  1
  Sb  Sb1  1  0.62643700  0.19147500  0.91872700  1
  Sb  Sb2  1  0.98151500  0.67451700  0.18292100  1
  Sb  Sb3  1  0.01848500  0.32548300  0.81707900  1
  C  C4  1  0.41546100  0.81424300  0.59101900  1
  C  C5  1  0.58453900  0.18575700  0.40898100  1
  C  C6  1  0.27982500  0.76915300  0.70188100  1
  C  C7  1  0.72017500  0.23084700  0.29811900  1
  C  C8  1  0.04993800  0.70201600  0.51978800  1
  C  C9  1  0.95006200  0.29798400  0.48021200  1
  O  O10  1  0.29866900  0.65179400  0.71833100  1
  O  O11  1  0.70133100  0.34820600  0.28166900  1
  F  F12  1  0.23115600  0.95376300  0.99522800  1
  F  F13  1  0.76884400  0.04623700  0.00477200  1
  F  F14  1  0.45774300  0.65733500  0.18973000  1
  F  F15  1  0.54225700  0.34266500  0.81027000  1
  F  F16  1  0.40950700  0.67909700  0.94859000  1
  F  F17  1  0.59049300  0.32090300  0.05141000  1
  F  F18  1  0.27348300  0.93336300  0.23866800  1
  F  F19  1  0.72651700  0.06663700  0.76133200  1
  F  F20  1  0.59058600  0.82417500  0.99338600  1
  F  F21  1  0.40941400  0.17582500  0.00661400  1
  F  F22  1  0.11052800  0.78320400  0.18550200  1
  F  F23  1  0.88947200  0.21679600  0.81449800  1
  F  F24  1  0.77395200  0.83924400  0.26603500  1
  F  F25  1  0.22604800  0.16075600  0.73396500  1
  F  F26  1  0.84675100  0.57158900  0.25341400  1
  F  F27  1  0.15324900  0.42841100  0.74658600  1
  F  F28  1  0.96048300  0.68190100  0.44422900  1
  F  F29  1  0.03951700  0.31809900  0.55577100  1
  F  F30  1  0.00939300  0.68042000  0.99570400  1
  F  F31  1  0.99060700  0.31958000  0.00429600  1
  F  F32  1  0.18807200  0.51469300  0.18554200  1
  F  F33  1  0.81192800  0.48530700  0.81445800  1
  F  F34  1  0.52080200  0.71330000  0.48712800  1
  F  F35  1  0.47919800  0.28670000  0.51287200  1
  F  F36  1  0.52086600  0.83054700  0.64855100  1
  F  F37  1  0.47913400  0.16945300  0.35144900  1
  F  F38  1  0.33157400  0.93610000  0.53841400  1
  F  F39  1  0.66842600  0.06390000  0.46158600  1
  F  F40  1  0.13436300  0.88283800  0.77884800  1
  F  F41  1  0.86563700  0.11716200  0.22115200  1
  F  F42  1  0.95456400  0.70526800  0.65303100  1
  F  F43  1  0.04543600  0.29473200  0.34696900  1
  F  F44  1  0.21324300  0.59597200  0.48460600  1
  F  F45  1  0.78675700  0.40402800  0.51539400  1
  F  F46  1  0.05926200  0.82362200  0.48856700  1
  F  F47  1  0.94073800  0.17637800  0.51143300  1
