# generated using pymatgen
data_Ca2AlCuAs3O19
_symmetry_space_group_name_H-M   'P 1'
_cell_length_a   5.88569459
_cell_length_b   10.13770434
_cell_length_c   12.09680851
_cell_angle_alpha   86.66843810
_cell_angle_beta   79.77675956
_cell_angle_gamma   77.91370890
_symmetry_Int_Tables_number   1
_chemical_formula_structural   Ca2AlCuAs3O19
_chemical_formula_sum   'Ca4 Al2 Cu2 As6 O38'
_cell_volume   694.41602118
_cell_formula_units_Z   2
loop_
 _symmetry_equiv_pos_site_id
 _symmetry_equiv_pos_as_xyz
  1  'x, y, z'
loop_
 _atom_site_type_symbol
 _atom_site_label
 _atom_site_symmetry_multiplicity
 _atom_site_fract_x
 _atom_site_fract_y
 _atom_site_fract_z
 _atom_site_occupancy
  Ca  Ca0  1  0.75591200  0.05253400  0.21527700  1
  Ca  Ca1  1  0.24408800  0.94746600  0.78472300  1
  Ca  Ca2  1  0.55835500  0.43686500  0.21776100  1
  Ca  Ca3  1  0.44164500  0.56313500  0.78223900  1
  Al  Al4  1  0.50000000  0.00000000  0.00000000  1
  Al  Al5  1  0.00000000  0.50000000  0.00000000  1
  Cu  Cu6  1  0.68691000  0.75128800  0.15008700  1
  Cu  Cu7  1  0.31309000  0.24871200  0.84991300  1
  As  As8  1  0.21928800  0.75201100  0.06015300  1
  As  As9  1  0.78071200  0.24798900  0.93984700  1
  As  As10  1  0.19605700  0.24661700  0.16263500  1
  As  As11  1  0.80394300  0.75338300  0.83736500  1
  As  As12  1  0.94668100  0.73265200  0.50361000  1
  As  As13  1  0.05331900  0.26734800  0.49639000  1
  O  O14  1  0.42114400  0.67606400  0.14493000  1
  O  O15  1  0.57885600  0.32393600  0.85507000  1
  O  O16  1  0.95914300  0.81932800  0.14893900  1
  O  O17  1  0.04085700  0.18067200  0.85106100  1
  O  O18  1  0.30578400  0.87700200  0.97324100  1
  O  O19  1  0.69421600  0.12299800  0.02675900  1
  O  O20  1  0.80543900  0.36942300  0.02735900  1
  O  O21  1  0.19456100  0.63057700  0.97264100  1
  O  O22  1  0.41465100  0.23233700  0.24057800  1
  O  O23  1  0.58534900  0.76766300  0.75942200  1
  O  O24  1  0.21759300  0.11813600  0.07299400  1
  O  O25  1  0.78240700  0.88186400  0.92700600  1
  O  O26  1  0.22605700  0.39391100  0.08430000  1
  O  O27  1  0.77394200  0.60608900  0.91570000  1
  O  O28  1  0.91346000  0.25243400  0.23765700  1
  O  O29  1  0.08654000  0.74756600  0.76234300  1
  O  O30  1  0.82097000  0.88999300  0.55367000  1
  O  O31  1  0.17903000  0.11000700  0.44633000  1
  O  O32  1  0.17384700  0.72483300  0.38877900  1
  O  O33  1  0.82615300  0.27516700  0.61122100  1
  O  O34  1  0.08175800  0.62997500  0.61003700  1
  O  O35  1  0.91824200  0.37002500  0.38996300  1
  O  O36  1  0.75450500  0.64132600  0.46453200  1
  O  O37  1  0.24549500  0.35867400  0.53546800  1
  O  O38  1  0.52694200  0.92387800  0.14276800  1
  O  O39  1  0.47305800  0.07612200  0.85723200  1
  O  O40  1  0.83853000  0.57267600  0.14325300  1
  O  O41  1  0.16147000  0.42732400  0.85674700  1
  O  O42  1  0.60115300  0.78026200  0.34590800  1
  O  O43  1  0.39884700  0.21973800  0.65409200  1
  O  O44  1  0.09702700  0.52453200  0.27094900  1
  O  O45  1  0.90297300  0.47546800  0.72905100  1
  O  O46  1  0.70744400  0.95321100  0.39753800  1
  O  O47  1  0.29255600  0.04678900  0.60246200  1
  O  O48  1  0.50078100  0.46096500  0.42781600  1
  O  O49  1  0.49921900  0.53903500  0.57218400  1
  O  O50  1  0.07867000  0.91929000  0.31894200  1
  O  O51  1  0.92133000  0.08071000  0.68105800  1
