# generated using pymatgen
data_Eu2CoSi3O10
_symmetry_space_group_name_H-M   'P 1'
_cell_length_a   6.81457900
_cell_length_b   6.65509100
_cell_length_c   18.48288415
_cell_angle_alpha   69.02655583
_cell_angle_beta   90.00000000
_cell_angle_gamma   90.00000000
_symmetry_Int_Tables_number   1
_chemical_formula_structural   Eu2CoSi3O10
_chemical_formula_sum   'Eu8 Co4 Si12 O40'
_cell_volume   782.69349130
_cell_formula_units_Z   4
loop_
 _symmetry_equiv_pos_site_id
 _symmetry_equiv_pos_as_xyz
  1  'x, y, z'
loop_
 _atom_site_type_symbol
 _atom_site_label
 _atom_site_symmetry_multiplicity
 _atom_site_fract_x
 _atom_site_fract_y
 _atom_site_fract_z
 _atom_site_occupancy
  Eu  Eu0  1  0.27290700  0.13635200  0.76028200  1
  Eu  Eu1  1  0.22709300  0.13635200  0.26028200  1
  Eu  Eu2  1  0.72709300  0.86364800  0.23971800  1
  Eu  Eu3  1  0.77290700  0.86364800  0.73971800  1
  Eu  Eu4  1  0.67921200  0.32184100  0.90964600  1
  Eu  Eu5  1  0.82078800  0.32184100  0.40964600  1
  Eu  Eu6  1  0.32078800  0.67815900  0.09035400  1
  Eu  Eu7  1  0.17921200  0.67815900  0.59035400  1
  Co  Co8  1  0.05407700  0.72692100  0.92282400  1
  Co  Co9  1  0.44592300  0.72692100  0.42282400  1
  Co  Co10  1  0.94592300  0.27307900  0.07717600  1
  Co  Co11  1  0.55407700  0.27307900  0.57717600  1
  Si  Si12  1  0.26786200  0.62788500  0.78864800  1
  Si  Si13  1  0.23213800  0.62788500  0.28864800  1
  Si  Si14  1  0.73213800  0.37211500  0.21135200  1
  Si  Si15  1  0.76786200  0.37211500  0.71135200  1
  Si  Si16  1  0.17704800  0.22768300  0.93093900  1
  Si  Si17  1  0.32295200  0.22768300  0.43093900  1
  Si  Si18  1  0.82295200  0.77231700  0.06906100  1
  Si  Si19  1  0.67704800  0.77231700  0.56906100  1
  Si  Si20  1  0.56917000  0.83191600  0.92201100  1
  Si  Si21  1  0.93083000  0.83191600  0.42201100  1
  Si  Si22  1  0.43083000  0.16808400  0.07798900  1
  Si  Si23  1  0.06917000  0.16808400  0.57798900  1
  O  O24  1  0.43572400  0.81095700  0.76794100  1
  O  O25  1  0.06427600  0.81095700  0.26794100  1
  O  O26  1  0.56427600  0.18904300  0.23205900  1
  O  O27  1  0.93572400  0.18904300  0.73205900  1
  O  O28  1  0.23825400  0.52060500  0.72325300  1
  O  O29  1  0.26174600  0.52060500  0.22325300  1
  O  O30  1  0.76174600  0.47939500  0.27674700  1
  O  O31  1  0.73825400  0.47939500  0.77674700  1
  O  O32  1  0.08106400  0.74926300  0.81175100  1
  O  O33  1  0.41893600  0.74926300  0.31175100  1
  O  O34  1  0.91893600  0.25073700  0.18824900  1
  O  O35  1  0.58106400  0.25073700  0.68824900  1
  O  O36  1  0.32240000  0.41537700  0.86934500  1
  O  O37  1  0.17760000  0.41537700  0.36934500  1
  O  O38  1  0.67760000  0.58462300  0.13065500  1
  O  O39  1  0.82240000  0.58462300  0.63065500  1
  O  O40  1  0.09000700  0.06600600  0.89129200  1
  O  O41  1  0.40999300  0.06600600  0.39129200  1
  O  O42  1  0.90999300  0.93399400  0.10870800  1
  O  O43  1  0.59000700  0.93399400  0.60870800  1
  O  O44  1  0.00602200  0.35511500  0.95967700  1
  O  O45  1  0.49397800  0.35511500  0.45967700  1
  O  O46  1  0.99397800  0.64488500  0.04032300  1
  O  O47  1  0.50602200  0.64488500  0.54032300  1
  O  O48  1  0.32266300  0.10588000  0.00535400  1
  O  O49  1  0.17733700  0.10588000  0.50535400  1
  O  O50  1  0.67733700  0.89412000  0.99464600  1
  O  O51  1  0.82266300  0.89412000  0.49464600  1
  O  O52  1  0.36524000  0.70547600  0.95805200  1
  O  O53  1  0.13476000  0.70547600  0.45805200  1
  O  O54  1  0.63476000  0.29452400  0.04194800  1
  O  O55  1  0.86524000  0.29452400  0.54194800  1
  O  O56  1  0.53523000  0.07053600  0.85763900  1
  O  O57  1  0.96477000  0.07053600  0.35763900  1
  O  O58  1  0.46477000  0.92946400  0.14236100  1
  O  O59  1  0.03523000  0.92946400  0.64236100  1
  O  O60  1  0.73361700  0.69964100  0.89222700  1
  O  O61  1  0.76638300  0.69964100  0.39222700  1
  O  O62  1  0.26638300  0.30035900  0.10777300  1
  O  O63  1  0.23361700  0.30035900  0.60777300  1
