# generated using pymatgen
data_U2Mn(AsO10)2
_symmetry_space_group_name_H-M   'P 1'
_cell_length_a   7.33277600
_cell_length_b   10.12034125
_cell_length_c   13.11800053
_cell_angle_alpha   75.61011022
_cell_angle_beta   81.82862253
_cell_angle_gamma   77.69504109
_symmetry_Int_Tables_number   1
_chemical_formula_structural   U2Mn(AsO10)2
_chemical_formula_sum   'U4 Mn2 As4 O40'
_cell_volume   917.18711457
_cell_formula_units_Z   2
loop_
 _symmetry_equiv_pos_site_id
 _symmetry_equiv_pos_as_xyz
  1  'x, y, z'
loop_
 _atom_site_type_symbol
 _atom_site_label
 _atom_site_symmetry_multiplicity
 _atom_site_fract_x
 _atom_site_fract_y
 _atom_site_fract_z
 _atom_site_occupancy
  U  U0  1  0.77488100  0.30337500  0.60211400  1
  U  U1  1  0.22511900  0.69662500  0.39788600  1
  U  U2  1  0.78641500  0.78212400  0.08194400  1
  U  U3  1  0.21358500  0.21787600  0.91805600  1
  Mn  Mn4  1  0.55762400  0.58990100  0.74164800  1
  Mn  Mn5  1  0.44237600  0.41009900  0.25835200  1
  As  As6  1  0.74645600  0.13084500  0.88737900  1
  As  As7  1  0.25354400  0.86915500  0.11262100  1
  As  As8  1  0.75481900  0.62719800  0.37290300  1
  As  As9  1  0.24518100  0.37280200  0.62709700  1
  O  O10  1  0.77775500  0.95459500  0.93854300  1
  O  O11  1  0.22224500  0.04540500  0.06145700  1
  O  O12  1  0.83150300  0.16454000  0.53184100  1
  O  O13  1  0.16849700  0.83546000  0.46815900  1
  O  O14  1  0.84303100  0.64340200  0.01172900  1
  O  O15  1  0.15696900  0.35659800  0.98827100  1
  O  O16  1  0.90807400  0.20573900  0.92412000  1
  O  O17  1  0.09192600  0.79426100  0.07588000  1
  O  O18  1  0.52365800  0.21012500  0.92138200  1
  O  O19  1  0.47634200  0.78987500  0.07861800  1
  O  O20  1  0.52480500  0.70195900  0.39867000  1
  O  O21  1  0.47519500  0.29804100  0.60133000  1
  O  O22  1  0.91674400  0.70807700  0.40314900  1
  O  O23  1  0.08325600  0.29192300  0.59685100  1
  O  O24  1  0.77851200  0.46348700  0.45608900  1
  O  O25  1  0.22148800  0.53651300  0.54391100  1
  O  O26  1  0.78136700  0.15198900  0.75133000  1
  O  O27  1  0.21863300  0.84801100  0.24867000  1
  O  O28  1  0.71003700  0.45795400  0.68761200  1
  O  O29  1  0.28996300  0.54204600  0.31238800  1
  O  O30  1  0.72731900  0.91299100  0.16026600  1
  O  O31  1  0.27268100  0.08700900  0.83973400  1
  O  O32  1  0.79896500  0.62137000  0.24241100  1
  O  O33  1  0.20103500  0.37863000  0.75758900  1
  O  O34  1  0.66561900  0.67241800  0.79384100  1
  O  O35  1  0.33438100  0.32758200  0.20615900  1
  O  O36  1  0.44927100  0.69439400  0.64816700  1
  O  O37  1  0.55072900  0.30560600  0.35183300  1
  O  O38  1  0.95446200  0.71107100  0.65709600  1
  O  O39  1  0.04553800  0.28892900  0.34290400  1
  O  O40  1  0.03531300  0.65150600  0.73516900  1
  O  O41  1  0.96468700  0.34849400  0.26483100  1
  O  O42  1  0.41293300  0.52196200  0.82971200  1
  O  O43  1  0.58706700  0.47803800  0.17028800  1
  O  O44  1  0.14577100  0.92361800  0.71240000  1
  O  O45  1  0.85422900  0.07638200  0.28760000  1
  O  O46  1  0.17230600  0.84401600  0.80443100  1
  O  O47  1  0.82769400  0.15598400  0.19556900  1
  O  O48  1  0.72432800  0.01261900  0.33755600  1
  O  O49  1  0.27567200  0.98738100  0.66244400  1
