# generated using pymatgen
data_NaRe(SO6)2
_symmetry_space_group_name_H-M   'P 1'
_cell_length_a   7.48968372
_cell_length_b   10.86717315
_cell_length_c   12.74946300
_cell_angle_alpha   90.00000000
_cell_angle_beta   90.00000000
_cell_angle_gamma   97.51422534
_symmetry_Int_Tables_number   1
_chemical_formula_structural   NaRe(SO6)2
_chemical_formula_sum   'Na4 Re4 S8 O48'
_cell_volume   1028.78900662
_cell_formula_units_Z   4
loop_
 _symmetry_equiv_pos_site_id
 _symmetry_equiv_pos_as_xyz
  1  'x, y, z'
loop_
 _atom_site_type_symbol
 _atom_site_label
 _atom_site_symmetry_multiplicity
 _atom_site_fract_x
 _atom_site_fract_y
 _atom_site_fract_z
 _atom_site_occupancy
  Na  Na0  1  0.06195900  0.73143700  0.63786900  1
  Na  Na1  1  0.56195900  0.23143700  0.86213100  1
  Na  Na2  1  0.93804100  0.26856300  0.36213100  1
  Na  Na3  1  0.43804100  0.76856300  0.13786900  1
  Re  Re4  1  0.09549200  0.93144900  0.90847200  1
  Re  Re5  1  0.59549200  0.43144900  0.59152800  1
  Re  Re6  1  0.90450800  0.06855100  0.09152800  1
  Re  Re7  1  0.40450800  0.56855100  0.40847200  1
  S  S8  1  0.05919600  0.22752100  0.88736000  1
  S  S9  1  0.55919600  0.72752100  0.61264000  1
  S  S10  1  0.94080400  0.77247900  0.11264000  1
  S  S11  1  0.44080400  0.27247900  0.38736000  1
  S  S12  1  0.33706900  0.06148300  0.10410200  1
  S  S13  1  0.83706900  0.56148300  0.39589800  1
  S  S14  1  0.66293100  0.93851700  0.89589800  1
  S  S15  1  0.16293100  0.43851700  0.60410200  1
  O  O16  1  0.13478600  0.85383300  0.79401000  1
  O  O17  1  0.63478600  0.35383300  0.70599000  1
  O  O18  1  0.86521400  0.14616700  0.20599000  1
  O  O19  1  0.36521400  0.64616700  0.29401000  1
  O  O20  1  0.15604800  0.10616900  0.87034500  1
  O  O21  1  0.65604800  0.60616900  0.62965500  1
  O  O22  1  0.84395200  0.89383100  0.12965500  1
  O  O23  1  0.34395200  0.39383100  0.37034500  1
  O  O24  1  0.90053100  0.22265800  0.82274700  1
  O  O25  1  0.40053100  0.72265800  0.67725300  1
  O  O26  1  0.09946900  0.77734200  0.17725300  1
  O  O27  1  0.59946900  0.27734200  0.32274700  1
  O  O28  1  0.20071800  0.32854000  0.87591600  1
  O  O29  1  0.70071800  0.82854000  0.62408400  1
  O  O30  1  0.79928200  0.67146000  0.12408400  1
  O  O31  1  0.29928200  0.17146000  0.37591600  1
  O  O32  1  0.00014200  0.21591100  0.00476200  1
  O  O33  1  0.50014200  0.71591100  0.49523800  1
  O  O34  1  0.99985800  0.78408900  0.99523800  1
  O  O35  1  0.49985800  0.28408900  0.50476200  1
  O  O36  1  0.28116600  0.95830500  0.01485500  1
  O  O37  1  0.78116600  0.45830500  0.48514500  1
  O  O38  1  0.71883400  0.04169500  0.98514500  1
  O  O39  1  0.21883400  0.54169500  0.51485500  1
  O  O40  1  0.41499300  0.17489800  0.05450500  1
  O  O41  1  0.91499300  0.67489800  0.44549500  1
  O  O42  1  0.58500700  0.82510200  0.94549500  1
  O  O43  1  0.08500700  0.32510200  0.55450500  1
  O  O44  1  0.44540600  0.00056600  0.17601600  1
  O  O45  1  0.94540600  0.50056600  0.32398400  1
  O  O46  1  0.55459400  0.99943400  0.82398400  1
  O  O47  1  0.05459400  0.49943400  0.67601600  1
  O  O48  1  0.15668900  0.07514700  0.15618800  1
  O  O49  1  0.65668900  0.57514700  0.34381200  1
  O  O50  1  0.84331100  0.92485300  0.84381200  1
  O  O51  1  0.34331100  0.42485300  0.65618800  1
  O  O52  1  0.12863200  0.93312800  0.42663700  1
  O  O53  1  0.62863200  0.43312800  0.07336300  1
  O  O54  1  0.87136800  0.06687200  0.57336300  1
  O  O55  1  0.37136800  0.56687200  0.92663700  1
  O  O56  1  0.29478800  0.47736200  0.08094000  1
  O  O57  1  0.79478800  0.97736200  0.41906000  1
  O  O58  1  0.70521200  0.52263800  0.91906000  1
  O  O59  1  0.20521200  0.02263800  0.58094000  1
  O  O60  1  0.69927000  0.42607000  0.98083500  1
  O  O61  1  0.19927000  0.92607000  0.51916500  1
  O  O62  1  0.30073000  0.57393000  0.01916500  1
  O  O63  1  0.80073000  0.07393000  0.48083500  1
