# generated using pymatgen
data_NaMg4(SiO3)6
_symmetry_space_group_name_H-M   'P 1'
_cell_length_a   15.02343903
_cell_length_b   15.02343903
_cell_length_c   5.31052832
_cell_angle_alpha   84.77290796
_cell_angle_beta   84.77290796
_cell_angle_gamma   140.59573897
_symmetry_Int_Tables_number   1
_chemical_formula_structural   NaMg4(SiO3)6
_chemical_formula_sum   'Na2 Mg8 Si12 O36'
_cell_volume   732.55298430
_cell_formula_units_Z   2
loop_
 _symmetry_equiv_pos_site_id
 _symmetry_equiv_pos_as_xyz
  1  'x, y, z'
loop_
 _atom_site_type_symbol
 _atom_site_label
 _atom_site_symmetry_multiplicity
 _atom_site_fract_x
 _atom_site_fract_y
 _atom_site_fract_z
 _atom_site_occupancy
  Na  Na0  1  0.27097700  0.72902300  0.25000000  1
  Na  Na1  1  0.72902300  0.27097700  0.75000000  1
  Mg  Mg2  1  0.02177100  0.97822900  0.25000000  1
  Mg  Mg3  1  0.97822900  0.02177100  0.75000000  1
  Mg  Mg4  1  0.15366100  0.84633900  0.25000000  1
  Mg  Mg5  1  0.84633900  0.15366100  0.75000000  1
  Mg  Mg6  1  0.91242200  0.08757800  0.25000000  1
  Mg  Mg7  1  0.08757800  0.91242200  0.75000000  1
  Mg  Mg8  1  0.79648100  0.20351900  0.25000000  1
  Mg  Mg9  1  0.20351900  0.79648100  0.75000000  1
  Si  Si10  1  0.74510700  0.68895600  0.73485500  1
  Si  Si11  1  0.31104400  0.25489300  0.76514500  1
  Si  Si12  1  0.25489300  0.31104400  0.26514500  1
  Si  Si13  1  0.68895600  0.74510700  0.23485500  1
  Si  Si14  1  0.85876500  0.58153600  0.73185600  1
  Si  Si15  1  0.41846400  0.14123500  0.76814400  1
  Si  Si16  1  0.14123500  0.41846400  0.26814400  1
  Si  Si17  1  0.58153600  0.85876500  0.23185600  1
  Si  Si18  1  0.90433600  0.51494000  0.23249700  1
  Si  Si19  1  0.48506000  0.09566400  0.26750300  1
  Si  Si20  1  0.09566400  0.48506000  0.76750300  1
  Si  Si21  1  0.51494000  0.90433600  0.73249700  1
  O  O22  1  0.91494400  0.85832200  0.65402200  1
  O  O23  1  0.14167800  0.08505600  0.84597800  1
  O  O24  1  0.08505600  0.14167800  0.34597800  1
  O  O25  1  0.85832200  0.91494400  0.15402200  1
  O  O26  1  0.03063200  0.74537800  0.65596600  1
  O  O27  1  0.25462200  0.96936800  0.84403400  1
  O  O28  1  0.96936800  0.25462200  0.34403400  1
  O  O29  1  0.74537800  0.03063200  0.15596600  1
  O  O30  1  0.02398400  0.85042300  0.19863100  1
  O  O31  1  0.14957700  0.97601600  0.30136900  1
  O  O32  1  0.97601600  0.14957700  0.80136900  1
  O  O33  1  0.85042300  0.02398400  0.69863100  1
  O  O34  1  0.07508300  0.67820500  0.14368400  1
  O  O35  1  0.32179500  0.92491700  0.35631600  1
  O  O36  1  0.92491700  0.32179500  0.85631600  1
  O  O37  1  0.67820500  0.07508300  0.64368400  1
  O  O38  1  0.12749000  0.61685300  0.69869700  1
  O  O39  1  0.38314700  0.87251000  0.80130300  1
  O  O40  1  0.87251000  0.38314700  0.30130300  1
  O  O41  1  0.61685300  0.12749000  0.19869700  1
  O  O42  1  0.66307400  0.66052800  0.50968800  1
  O  O43  1  0.33947200  0.33692600  0.99031200  1
  O  O44  1  0.33692600  0.33947200  0.49031200  1
  O  O45  1  0.66052800  0.66307400  0.00968800  1
  O  O46  1  0.75153400  0.58507100  0.76844100  1
  O  O47  1  0.41492900  0.24846600  0.73155900  1
  O  O48  1  0.24846600  0.41492900  0.23155900  1
  O  O49  1  0.58507100  0.75153400  0.26844100  1
  O  O50  1  0.82351200  0.49676200  0.50788200  1
  O  O51  1  0.50323800  0.17648800  0.99211800  1
  O  O52  1  0.17648800  0.50323800  0.49211800  1
  O  O53  1  0.49676200  0.82351200  0.00788200  1
  O  O54  1  0.82142000  0.48811800  0.00716500  1
  O  O55  1  0.51188200  0.17858000  0.49283500  1
  O  O56  1  0.17858000  0.51188200  0.99283500  1
  O  O57  1  0.48811800  0.82142000  0.50716500  1
