# generated using pymatgen
data_KTbH2C2SO9
_symmetry_space_group_name_H-M   'P 1'
_cell_length_a   8.68161100
_cell_length_b   6.62413000
_cell_length_c   14.77947389
_cell_angle_alpha   67.07000454
_cell_angle_beta   90.00000000
_cell_angle_gamma   90.00000000
_symmetry_Int_Tables_number   1
_chemical_formula_structural   KTbH2C2SO9
_chemical_formula_sum   'K4 Tb4 H8 C8 S4 O36'
_cell_volume   782.77884716
_cell_formula_units_Z   4
loop_
 _symmetry_equiv_pos_site_id
 _symmetry_equiv_pos_as_xyz
  1  'x, y, z'
loop_
 _atom_site_type_symbol
 _atom_site_label
 _atom_site_symmetry_multiplicity
 _atom_site_fract_x
 _atom_site_fract_y
 _atom_site_fract_z
 _atom_site_occupancy
  K  K0  1  0.84861300  0.03376600  0.19801900  1
  K  K1  1  0.34861300  0.96623400  0.30198100  1
  K  K2  1  0.15138700  0.96623400  0.80198100  1
  K  K3  1  0.65138700  0.03376600  0.69801900  1
  Tb  Tb4  1  0.24178500  0.66998400  0.08664400  1
  Tb  Tb5  1  0.74178500  0.33001600  0.41335600  1
  Tb  Tb6  1  0.75821500  0.33001600  0.91335600  1
  Tb  Tb7  1  0.25821500  0.66998400  0.58664400  1
  H  H8  1  0.46682600  0.72333800  0.92020100  1
  H  H9  1  0.96682600  0.27666200  0.57979900  1
  H  H10  1  0.53317400  0.27666200  0.07979900  1
  H  H11  1  0.03317400  0.72333800  0.42020100  1
  H  H12  1  0.45949100  0.96102900  0.91817800  1
  H  H13  1  0.95949100  0.03897100  0.58182200  1
  H  H14  1  0.54050900  0.03897100  0.08182200  1
  H  H15  1  0.04050900  0.96102900  0.41817800  1
  C  C16  1  0.03447000  0.58322300  0.27981300  1
  C  C17  1  0.53447000  0.41677700  0.22018700  1
  C  C18  1  0.96553000  0.41677700  0.72018700  1
  C  C19  1  0.46553000  0.58322300  0.77981300  1
  C  C20  1  0.53318300  0.63622400  0.23185500  1
  C  C21  1  0.03318300  0.36377600  0.26814500  1
  C  C22  1  0.46681700  0.36377600  0.76814500  1
  C  C23  1  0.96681700  0.63622400  0.73185500  1
  S  S24  1  0.16234300  0.25977900  0.97645500  1
  S  S25  1  0.66234300  0.74022100  0.52354500  1
  S  S26  1  0.83765700  0.74022100  0.02354500  1
  S  S27  1  0.33765700  0.25977900  0.47645500  1
  O  O28  1  0.12303400  0.73151400  0.22508000  1
  O  O29  1  0.62303400  0.26848600  0.27492000  1
  O  O30  1  0.87696600  0.26848600  0.77492000  1
  O  O31  1  0.37696600  0.73151400  0.72508000  1
  O  O32  1  0.44306400  0.40028300  0.15560500  1
  O  O33  1  0.94306400  0.59971700  0.34439500  1
  O  O34  1  0.55693600  0.59971700  0.84439500  1
  O  O35  1  0.05693600  0.40028300  0.65560500  1
  O  O36  1  0.45045100  0.78696100  0.17067100  1
  O  O37  1  0.95045100  0.21303900  0.32932900  1
  O  O38  1  0.54954900  0.21303900  0.82932900  1
  O  O39  1  0.04954900  0.78696100  0.67067100  1
  O  O40  1  0.11003100  0.34903800  0.19836400  1
  O  O41  1  0.61003100  0.65096200  0.30163600  1
  O  O42  1  0.88996900  0.65096200  0.80163600  1
  O  O43  1  0.38996900  0.34903800  0.69836400  1
  O  O44  1  0.23403200  0.43863500  0.99948200  1
  O  O45  1  0.73403200  0.56136500  0.50051800  1
  O  O46  1  0.76596800  0.56136500  0.00051800  1
  O  O47  1  0.26596800  0.43863500  0.49948200  1
  O  O48  1  0.99208600  0.25054700  0.99626500  1
  O  O49  1  0.49208600  0.74945300  0.50373500  1
  O  O50  1  0.00791400  0.74945300  0.00373500  1
  O  O51  1  0.50791400  0.25054700  0.49626500  1
  O  O52  1  0.23171700  0.04719100  0.04289900  1
  O  O53  1  0.73171700  0.95280900  0.45710100  1
  O  O54  1  0.76828300  0.95280900  0.95710100  1
  O  O55  1  0.26828300  0.04719100  0.54289900  1
  O  O56  1  0.19015300  0.29809200  0.87280900  1
  O  O57  1  0.69015300  0.70190800  0.62719100  1
  O  O58  1  0.80984700  0.70190800  0.12719100  1
  O  O59  1  0.30984700  0.29809200  0.37280900  1
  O  O60  1  0.40468700  0.81911000  0.94369000  1
  O  O61  1  0.90468700  0.18089000  0.55631000  1
  O  O62  1  0.59531300  0.18089000  0.05631000  1
  O  O63  1  0.09531300  0.81911000  0.44369000  1
