# generated using pymatgen
data_Rb4Te(MoO4)6
_symmetry_space_group_name_H-M   'P 1'
_cell_length_a   11.62782352
_cell_length_b   11.62782352
_cell_length_c   15.82746937
_cell_angle_alpha   62.19784082
_cell_angle_beta   62.19784082
_cell_angle_gamma   39.64854354
_symmetry_Int_Tables_number   1
_chemical_formula_structural   Rb4Te(MoO4)6
_chemical_formula_sum   'Rb8 Te2 Mo12 O48'
_cell_volume   1185.81947656
_cell_formula_units_Z   2
loop_
 _symmetry_equiv_pos_site_id
 _symmetry_equiv_pos_as_xyz
  1  'x, y, z'
loop_
 _atom_site_type_symbol
 _atom_site_label
 _atom_site_symmetry_multiplicity
 _atom_site_fract_x
 _atom_site_fract_y
 _atom_site_fract_z
 _atom_site_occupancy
  Rb  Rb0  1  0.72617400  0.67158900  0.44148700  1
  Rb  Rb1  1  0.32841100  0.27382600  0.05851300  1
  Rb  Rb2  1  0.27382600  0.32841100  0.55851300  1
  Rb  Rb3  1  0.67158900  0.72617400  0.94148700  1
  Rb  Rb4  1  0.70600500  0.62637200  0.22404100  1
  Rb  Rb5  1  0.37362800  0.29399500  0.27595900  1
  Rb  Rb6  1  0.29399500  0.37362800  0.77595900  1
  Rb  Rb7  1  0.62637200  0.70600500  0.72404100  1
  Te  Te8  1  0.88013900  0.11986100  0.25000000  1
  Te  Te9  1  0.11986100  0.88013900  0.75000000  1
  Mo  Mo10  1  0.78653300  0.22827300  0.47471300  1
  Mo  Mo11  1  0.77172700  0.21346700  0.02528700  1
  Mo  Mo12  1  0.21346700  0.77172700  0.52528700  1
  Mo  Mo13  1  0.22827300  0.78653300  0.97471300  1
  Mo  Mo14  1  0.90437800  0.82117600  0.17906700  1
  Mo  Mo15  1  0.17882400  0.09562200  0.32093300  1
  Mo  Mo16  1  0.09562200  0.17882400  0.82093300  1
  Mo  Mo17  1  0.82117600  0.90437800  0.67906700  1
  Mo  Mo18  1  0.07444700  0.20516100  0.02761500  1
  Mo  Mo19  1  0.79483900  0.92555300  0.47238500  1
  Mo  Mo20  1  0.92555300  0.79483900  0.97238500  1
  Mo  Mo21  1  0.20516100  0.07444700  0.52761500  1
  O  O22  1  0.03584800  0.09954500  0.47550600  1
  O  O23  1  0.90045500  0.96415200  0.02449400  1
  O  O24  1  0.96415200  0.90045500  0.52449400  1
  O  O25  1  0.09954500  0.03584800  0.97550600  1
  O  O26  1  0.19971900  0.70859700  0.10303300  1
  O  O27  1  0.29140300  0.80028100  0.39696700  1
  O  O28  1  0.80028100  0.29140300  0.89696700  1
  O  O29  1  0.70859700  0.19971900  0.60303300  1
  O  O30  1  0.79342300  0.31957100  0.06847200  1
  O  O31  1  0.68042900  0.20657700  0.43152800  1
  O  O32  1  0.20657700  0.68042900  0.93152800  1
  O  O33  1  0.31957100  0.79342300  0.56847200  1
  O  O34  1  0.96495700  0.15894100  0.32165700  1
  O  O35  1  0.84105900  0.03504300  0.17834300  1
  O  O36  1  0.03504300  0.84105900  0.67834300  1
  O  O37  1  0.15894100  0.96495700  0.82165700  1
  O  O38  1  0.68104500  0.45474000  0.43337000  1
  O  O39  1  0.54526000  0.31895500  0.06663000  1
  O  O40  1  0.31895500  0.54526000  0.56663000  1
  O  O41  1  0.45474000  0.68104500  0.93337000  1
  O  O42  1  0.08242700  0.32031700  0.27913200  1
  O  O43  1  0.67968300  0.91757300  0.22086800  1
  O  O44  1  0.91757300  0.67968300  0.72086800  1
  O  O45  1  0.32031700  0.08242700  0.77913200  1
  O  O46  1  0.00737200  0.65873600  0.28018600  1
  O  O47  1  0.34126400  0.99262800  0.21981400  1
  O  O48  1  0.99262800  0.34126400  0.71981400  1
  O  O49  1  0.65873600  0.00737200  0.78018600  1
  O  O50  1  0.98657500  0.66625600  0.10254300  1
  O  O51  1  0.33374400  0.01342500  0.39745700  1
  O  O52  1  0.01342500  0.33374400  0.89745700  1
  O  O53  1  0.66625600  0.98657500  0.60254300  1
  O  O54  1  0.97162100  0.38593500  0.07242700  1
  O  O55  1  0.61406500  0.02837900  0.42757300  1
  O  O56  1  0.02837900  0.61406500  0.92757300  1
  O  O57  1  0.38593500  0.97162100  0.57242700  1
  O  O58  1  0.08224400  0.30745800  0.49214100  1
  O  O59  1  0.69254200  0.91775600  0.00785900  1
  O  O60  1  0.91775600  0.69254200  0.50785900  1
  O  O61  1  0.30745800  0.08224400  0.99214100  1
  O  O62  1  0.96900400  0.89987200  0.34467300  1
  O  O63  1  0.10012800  0.03099600  0.15532700  1
  O  O64  1  0.03099600  0.10012800  0.65532700  1
  O  O65  1  0.89987200  0.96900400  0.84467300  1
  O  O66  1  0.32893100  0.52156600  0.35220900  1
  O  O67  1  0.47843400  0.67106900  0.14779100  1
  O  O68  1  0.67106900  0.47843400  0.64779100  1
  O  O69  1  0.52156600  0.32893100  0.85220900  1
