# generated using pymatgen
data_MnSn4H24C8(Se5N)2
_symmetry_space_group_name_H-M   'P 1'
_cell_length_a   10.91665963
_cell_length_b   10.91665963
_cell_length_c   10.91665963
_cell_angle_alpha   123.43561498
_cell_angle_beta   123.43561498
_cell_angle_gamma   84.14569803
_symmetry_Int_Tables_number   1
_chemical_formula_structural   MnSn4H24C8(Se5N)2
_chemical_formula_sum   'Mn1 Sn4 H24 C8 Se10 N2'
_cell_volume   867.20483266
_cell_formula_units_Z   1
loop_
 _symmetry_equiv_pos_site_id
 _symmetry_equiv_pos_as_xyz
  1  'x, y, z'
loop_
 _atom_site_type_symbol
 _atom_site_label
 _atom_site_symmetry_multiplicity
 _atom_site_fract_x
 _atom_site_fract_y
 _atom_site_fract_z
 _atom_site_occupancy
  Mn  Mn0  1  0.25000000  0.75000000  0.50000000  1
  Sn  Sn1  1  0.40689700  0.66797500  0.89334200  1
  Sn  Sn2  1  0.77463300  0.51355500  0.10665800  1
  Sn  Sn3  1  0.33202500  0.22536700  0.73892200  1
  Sn  Sn4  1  0.48644500  0.59310300  0.26107800  1
  H  H5  1  0.04454200  0.79108900  0.86429200  1
  H  H6  1  0.92679600  0.18025000  0.13570800  1
  H  H7  1  0.20891100  0.07320400  0.25345400  1
  H  H8  1  0.81975000  0.95545800  0.74654600  1
  H  H9  1  0.02356900  0.82279100  0.03135400  1
  H  H10  1  0.79143600  0.99221400  0.96864600  1
  H  H11  1  0.17720900  0.20856400  0.20077800  1
  H  H12  1  0.00778600  0.97643100  0.79922200  1
  H  H13  1  0.85670600  0.77372500  0.81419700  1
  H  H14  1  0.95952700  0.04250800  0.18580300  1
  H  H15  1  0.22627500  0.04047300  0.08298100  1
  H  H16  1  0.95749200  0.14329400  0.91701900  1
  H  H17  1  0.91342600  0.13516100  0.57522100  1
  H  H18  1  0.55994000  0.33820500  0.42477900  1
  H  H19  1  0.86483900  0.44006000  0.77826500  1
  H  H20  1  0.66179500  0.08657400  0.22173500  1
  H  H21  1  0.80231100  0.17710400  0.66216800  1
  H  H22  1  0.51493600  0.14014300  0.33783200  1
  H  H23  1  0.82289600  0.48506400  0.62520700  1
  H  H24  1  0.85985700  0.19768900  0.37479300  1
  H  H25  1  0.71613500  0.02470200  0.42517800  1
  H  H26  1  0.59952400  0.29095800  0.57482200  1
  H  H27  1  0.97529800  0.40047600  0.69143300  1
  H  H28  1  0.70904200  0.28386500  0.30856700  1
  C  C29  1  0.97987600  0.83347800  0.92098800  1
  C  C30  1  0.91248900  0.05888800  0.07901200  1
  C  C31  1  0.16652200  0.08751100  0.14639900  1
  C  C32  1  0.94111200  0.02012400  0.85360100  1
  C  C33  1  0.79942900  0.13794200  0.54393800  1
  C  C34  1  0.59400400  0.25549200  0.45606200  1
  C  C35  1  0.86205800  0.40599600  0.66148800  1
  C  C36  1  0.74450800  0.20057100  0.33851200  1
  Se  Se37  1  0.39161200  0.77071500  0.16146100  1
  Se  Se38  1  0.60925300  0.23015000  0.83853900  1
  Se  Se39  1  0.22928500  0.39074700  0.62089700  1
  Se  Se40  1  0.76985000  0.60838800  0.37910300  1
  Se  Se41  1  0.68717200  0.68717200  0.00000000  1
  Se  Se42  1  0.31282800  0.31282800  0.00000000  1
  Se  Se43  1  0.31258300  0.84761800  0.80726900  1
  Se  Se44  1  0.04035000  0.50531400  0.19273100  1
  Se  Se45  1  0.15238200  0.95965000  0.46496400  1
  Se  Se46  1  0.49468600  0.68741700  0.53503600  1
  N  N47  1  0.00000000  0.00000000  0.00000000  1
  N  N48  1  0.75000000  0.25000000  0.50000000  1
