# generated using pymatgen
data_Pb7(BrO4)2
_symmetry_space_group_name_H-M   'P 1'
_cell_length_a   5.99353544
_cell_length_b   7.33086812
_cell_length_c   20.01947500
_cell_angle_alpha   90.00000000
_cell_angle_beta   90.00000000
_cell_angle_gamma   114.65892636
_symmetry_Int_Tables_number   1
_chemical_formula_structural   Pb7(BrO4)2
_chemical_formula_sum   'Pb14 Br4 O16'
_cell_volume   799.39802626
_cell_formula_units_Z   2
loop_
 _symmetry_equiv_pos_site_id
 _symmetry_equiv_pos_as_xyz
  1  'x, y, z'
loop_
 _atom_site_type_symbol
 _atom_site_label
 _atom_site_symmetry_multiplicity
 _atom_site_fract_x
 _atom_site_fract_y
 _atom_site_fract_z
 _atom_site_occupancy
  Pb  Pb0  1  0.36123900  0.45020200  0.03228700  1
  Pb  Pb1  1  0.63876100  0.54979800  0.53228700  1
  Pb  Pb2  1  0.70111000  0.14692500  0.99791500  1
  Pb  Pb3  1  0.29889000  0.85307500  0.49791500  1
  Pb  Pb4  1  0.18225700  0.12290500  0.87073800  1
  Pb  Pb5  1  0.81774300  0.87709500  0.37073800  1
  Pb  Pb6  1  0.86775800  0.47721800  0.86342200  1
  Pb  Pb7  1  0.13224200  0.52278200  0.36342200  1
  Pb  Pb8  1  0.82129500  0.34258800  0.16257800  1
  Pb  Pb9  1  0.17870500  0.65741200  0.66257800  1
  Pb  Pb10  1  0.13734700  0.05039200  0.15661700  1
  Pb  Pb11  1  0.86265300  0.94960800  0.65661700  1
  Pb  Pb12  1  0.48220100  0.71352300  0.22517500  1
  Pb  Pb13  1  0.51779900  0.28647700  0.72517500  1
  Br  Br14  1  0.97572500  0.71106200  0.05825900  1
  Br  Br15  1  0.02427500  0.28893800  0.55825900  1
  Br  Br16  1  0.53145400  0.81673100  0.91990700  1
  Br  Br17  1  0.46854600  0.18326900  0.41990700  1
  O  O18  1  0.97705600  0.20329000  0.07592900  1
  O  O19  1  0.02294400  0.79671000  0.57592900  1
  O  O20  1  0.50297200  0.20768900  0.07787900  1
  O  O21  1  0.49702800  0.79231100  0.57787900  1
  O  O22  1  0.53678600  0.30059300  0.93589800  1
  O  O23  1  0.46321400  0.69940700  0.43589800  1
  O  O24  1  0.02241700  0.30488600  0.93517500  1
  O  O25  1  0.97758300  0.69511400  0.43517500  1
  O  O26  1  0.22775800  0.76496300  0.28544300  1
  O  O27  1  0.77224200  0.23503700  0.78544300  1
  O  O28  1  0.64454500  0.61657000  0.30292600  1
  O  O29  1  0.35545500  0.38343000  0.80292600  1
  O  O30  1  0.74698400  0.00301700  0.19700200  1
  O  O31  1  0.25301600  0.99698300  0.69700200  1
  O  O32  1  0.28988600  0.46023800  0.16388000  1
  O  O33  1  0.71011400  0.53976200  0.66388000  1
