# generated using pymatgen
data_CaSi(HO2)2
_symmetry_space_group_name_H-M   'P 1'
_cell_length_a   6.05410600
_cell_length_b   6.39945599
_cell_length_c   10.41650042
_cell_angle_alpha   82.09912771
_cell_angle_beta   73.10601610
_cell_angle_gamma   61.76966906
_symmetry_Int_Tables_number   1
_chemical_formula_structural   CaSi(HO2)2
_chemical_formula_sum   'Ca4 Si4 H8 O16'
_cell_volume   340.21872827
_cell_formula_units_Z   4
loop_
 _symmetry_equiv_pos_site_id
 _symmetry_equiv_pos_as_xyz
  1  'x, y, z'
loop_
 _atom_site_type_symbol
 _atom_site_label
 _atom_site_symmetry_multiplicity
 _atom_site_fract_x
 _atom_site_fract_y
 _atom_site_fract_z
 _atom_site_occupancy
  Ca  Ca0  1  0.66827600  0.82461800  0.34556400  1
  Ca  Ca1  1  0.83845800  0.17538200  0.65443600  1
  Ca  Ca2  1  0.76384000  0.32461800  0.15443600  1
  Ca  Ca3  1  0.24289400  0.67538200  0.84556400  1
  Si  Si4  1  0.27748000  0.82093200  0.13208500  1
  Si  Si5  1  0.23049700  0.17906800  0.86791500  1
  Si  Si6  1  0.15956500  0.32093200  0.36791500  1
  Si  Si7  1  0.84841200  0.67906800  0.63208500  1
  H  H8  1  0.65620700  0.09488800  0.94214600  1
  H  H9  1  0.69324000  0.90511200  0.05785400  1
  H  H10  1  0.34835200  0.59488800  0.55785400  1
  H  H11  1  0.50109500  0.40511200  0.44214600  1
  H  H12  1  0.19539300  0.50758200  0.13445600  1
  H  H13  1  0.83743100  0.49241800  0.86554400  1
  H  H14  1  0.07984900  0.00758200  0.36554400  1
  H  H15  1  0.45297500  0.99241800  0.63445600  1
  O  O16  1  0.25930200  0.00000000  0.00000000  1
  O  O17  1  0.00930200  0.50000000  0.50000000  1
  O  O18  1  0.53763500  0.75569700  0.17593300  1
  O  O19  1  0.46926500  0.24430300  0.82406700  1
  O  O20  1  0.46356800  0.25569700  0.32406700  1
  O  O21  1  0.04333200  0.74430300  0.67593300  1
  O  O22  1  0.00822900  0.93517800  0.24876000  1
  O  O23  1  0.19216600  0.06482200  0.75124000  1
  O  O24  1  0.00698900  0.43517800  0.25124000  1
  O  O25  1  0.69340700  0.56482200  0.74876000  1
  O  O26  1  0.31497200  0.57196300  0.07104500  1
  O  O27  1  0.95798000  0.42803700  0.92895500  1
  O  O28  1  0.13601700  0.07196300  0.42895500  1
  O  O29  1  0.63693400  0.92803700  0.57104500  1
  O  O30  1  0.77686900  0.00000000  0.00000000  1
  O  O31  1  0.52686900  0.50000000  0.50000000  1
