# generated using pymatgen
data_MgB4(H10N)2
_symmetry_space_group_name_H-M   'P 1'
_cell_length_a   5.19840500
_cell_length_b   13.27585400
_cell_length_c   14.49462700
_cell_angle_alpha   90.00000000
_cell_angle_beta   90.00000000
_cell_angle_gamma   90.00000000
_symmetry_Int_Tables_number   1
_chemical_formula_structural   MgB4(H10N)2
_chemical_formula_sum   'Mg4 B16 H80 N8'
_cell_volume   1000.32154601
_cell_formula_units_Z   4
loop_
 _symmetry_equiv_pos_site_id
 _symmetry_equiv_pos_as_xyz
  1  'x, y, z'
loop_
 _atom_site_type_symbol
 _atom_site_label
 _atom_site_symmetry_multiplicity
 _atom_site_fract_x
 _atom_site_fract_y
 _atom_site_fract_z
 _atom_site_occupancy
  Mg  Mg0  1  0.21122700  0.50818100  0.87108100  1
  Mg  Mg1  1  0.71122700  0.99181900  0.12891900  1
  Mg  Mg2  1  0.28877300  0.49181900  0.37108100  1
  Mg  Mg3  1  0.78877300  0.00818100  0.62891900  1
  B  B4  1  0.45610900  0.38260800  0.25302200  1
  B  B5  1  0.95610900  0.11739200  0.74697800  1
  B  B6  1  0.04389100  0.61739200  0.75302200  1
  B  B7  1  0.54389100  0.88260800  0.24697800  1
  B  B8  1  0.53288200  0.09249200  0.00775800  1
  B  B9  1  0.03288200  0.40750800  0.99224200  1
  B  B10  1  0.96711800  0.90750800  0.50775800  1
  B  B11  1  0.46711800  0.59249200  0.49224200  1
  B  B12  1  0.40039000  0.36684700  0.77923600  1
  B  B13  1  0.90039000  0.13315300  0.22076400  1
  B  B14  1  0.09961000  0.63315300  0.27923600  1
  B  B15  1  0.59961000  0.86684700  0.72076400  1
  B  B16  1  0.07639300  0.36027500  0.46781600  1
  B  B17  1  0.57639300  0.13972500  0.53218400  1
  B  B18  1  0.42360700  0.63972500  0.96781600  1
  B  B19  1  0.92360700  0.86027500  0.03218400  1
  H  H20  1  0.31937000  0.21030000  0.81145200  1
  H  H21  1  0.81937000  0.28970000  0.18854800  1
  H  H22  1  0.18063000  0.78970000  0.31145200  1
  H  H23  1  0.68063000  0.71030000  0.68854800  1
  H  H24  1  0.63173900  0.23432300  0.81076900  1
  H  H25  1  0.13173900  0.26567700  0.18923100  1
  H  H26  1  0.86826100  0.76567700  0.31076900  1
  H  H27  1  0.36826100  0.73432300  0.68923100  1
  H  H28  1  0.45213500  0.26771300  0.90018900  1
  H  H29  1  0.95213500  0.23228700  0.09981100  1
  H  H30  1  0.04786500  0.73228700  0.40018900  1
  H  H31  1  0.54786500  0.76771300  0.59981100  1
  H  H32  1  0.02210700  0.45805800  0.58899800  1
  H  H33  1  0.52210700  0.04194200  0.41100200  1
  H  H34  1  0.47789300  0.54194200  0.08899800  1
  H  H35  1  0.97789300  0.95805800  0.91100200  1
  H  H36  1  0.79460000  0.37134500  0.57932400  1
  H  H37  1  0.29460000  0.12865500  0.42067600  1
  H  H38  1  0.70540000  0.62865500  0.07932400  1
  H  H39  1  0.20540000  0.87134500  0.92067600  1
  H  H40  1  0.08305600  0.33995900  0.61735300  1
  H  H41  1  0.58305600  0.16004100  0.38264700  1
  H  H42  1  0.41694400  0.66004100  0.11735300  1
  H  H43  1  0.91694400  0.83995900  0.88264700  1
  H  H44  1  0.23129000  0.41381000  0.25325100  1
  H  H45  1  0.73129000  0.08619000  0.74674900  1
  H  H46  1  0.26871000  0.58619000  0.75325100  1
  H  H47  1  0.76871000  0.91381000  0.24674900  1
  H  H48  1  0.54666700  0.40048300  0.17728400  1
  H  H49  1  0.04666700  0.09951700  0.82271600  1
  H  H50  1  0.95333300  0.59951700  0.67728400  1
  H  H51  1  0.45333300  0.90048300  0.32271600  1
  H  H52  1  0.59210700  0.42567500  0.31093200  1
  H  H53  1  0.09210700  0.07432500  0.68906800  1
  H  H54  1  0.90789300  0.57432500  0.81093200  1
  H  H55  1  0.40789300  0.92567500  0.18906800  1
  H  H56  1  0.45458700  0.29274600  0.27139300  1
  H  H57  1  0.95458700  0.20725400  0.72860700  1
  H  H58  1  0.04541300  0.70725400  0.77139300  1
  H  H59  1  0.54541300  0.79274600  0.22860700  1
  H  H60  1  0.48474400  0.06086600  0.93106400  1
  H  H61  1  0.98474400  0.43913400  0.06893600  1
  H  H62  1  0.01525600  0.93913400  0.43106400  1
  H  H63  1  0.51525600  0.56086600  0.56893600  1
  H  H64  1  0.76893500  0.08301100  0.02105500  1
  H  H65  1  0.26893500  0.41698900  0.97894500  1
  H  H66  1  0.73106500  0.91698900  0.52105500  1
  H  H67  1  0.23106500  0.58301100  0.47894500  1
  H  H68  1  0.47762000  0.18078100  0.01906000  1
  H  H69  1  0.97762000  0.31921900  0.98094000  1
  H  H70  1  0.02238000  0.81921900  0.51906000  1
  H  H71  1  0.52238000  0.68078100  0.48094000  1
  H  H72  1  0.40431700  0.04298000  0.06408900  1
  H  H73  1  0.90431700  0.45702000  0.93591100  1
  H  H74  1  0.09568300  0.95702000  0.56408900  1
  H  H75  1  0.59568300  0.54298000  0.43591100  1
  H  H76  1  0.16837300  0.38436200  0.78559200  1
  H  H77  1  0.66837300  0.11563800  0.21440800  1
  H  H78  1  0.33162700  0.61563800  0.28559200  1
  H  H79  1  0.83162700  0.88436200  0.71440800  1
  H  H80  1  0.53342900  0.43272200  0.81512200  1
  H  H81  1  0.03342900  0.06727800  0.18487800  1
  H  H82  1  0.96657100  0.56727800  0.31512200  1
  H  H83  1  0.46657100  0.93272200  0.68487800  1
  H  H84  1  0.45767300  0.36024000  0.69836500  1
  H  H85  1  0.95767300  0.13976000  0.30163500  1
  H  H86  1  0.04232700  0.63976000  0.19836500  1
  H  H87  1  0.54232700  0.86024000  0.80163500  1
  H  H88  1  0.31083700  0.37074600  0.46410900  1
  H  H89  1  0.81083700  0.12925400  0.53589100  1
  H  H90  1  0.18916300  0.62925400  0.96410900  1
  H  H91  1  0.68916300  0.87074600  0.03589100  1
  H  H92  1  0.01935900  0.27471700  0.44871400  1
  H  H93  1  0.51935900  0.22528300  0.55128600  1
  H  H94  1  0.48064100  0.72528300  0.94871400  1
  H  H95  1  0.98064100  0.77471700  0.05128600  1
  H  H96  1  0.95947800  0.41796200  0.41626600  1
  H  H97  1  0.45947800  0.08203800  0.58373400  1
  H  H98  1  0.54052200  0.58203800  0.91626600  1
  H  H99  1  0.04052200  0.91796200  0.08373400  1
  N  N100  1  0.45540000  0.26338900  0.82920400  1
  N  N101  1  0.95540000  0.23661100  0.17079600  1
  N  N102  1  0.04460000  0.73661100  0.32920400  1
  N  N103  1  0.54460000  0.76338900  0.67079600  1
  N  N104  1  0.98817800  0.38457800  0.57049800  1
  N  N105  1  0.48817800  0.11542200  0.42950200  1
  N  N106  1  0.51182200  0.61542200  0.07049800  1
  N  N107  1  0.01182200  0.88457800  0.92950200  1
