# generated using pymatgen
data_TeMo6(NO6)4
_symmetry_space_group_name_H-M   'P 1'
_cell_length_a   12.44391197
_cell_length_b   12.44391197
_cell_length_c   15.00910506
_cell_angle_alpha   61.50845909
_cell_angle_beta   61.50845909
_cell_angle_gamma   39.70709200
_symmetry_Int_Tables_number   1
_chemical_formula_structural   TeMo6(NO6)4
_chemical_formula_sum   'Te2 Mo12 N8 O48'
_cell_volume   1279.69091031
_cell_formula_units_Z   2
loop_
 _symmetry_equiv_pos_site_id
 _symmetry_equiv_pos_as_xyz
  1  'x, y, z'
loop_
 _atom_site_type_symbol
 _atom_site_label
 _atom_site_symmetry_multiplicity
 _atom_site_fract_x
 _atom_site_fract_y
 _atom_site_fract_z
 _atom_site_occupancy
  Te  Te0  1  0.92466800  0.07533200  0.25000000  1
  Te  Te1  1  0.07533200  0.92466800  0.75000000  1
  Mo  Mo2  1  0.79177800  0.23425500  0.44326500  1
  Mo  Mo3  1  0.76574500  0.20822200  0.05673500  1
  Mo  Mo4  1  0.20822200  0.76574500  0.55673500  1
  Mo  Mo5  1  0.23425500  0.79177800  0.94326500  1
  Mo  Mo6  1  0.91613300  0.82656700  0.16115400  1
  Mo  Mo7  1  0.17343300  0.08386700  0.33884600  1
  Mo  Mo8  1  0.08386700  0.17343300  0.83884600  1
  Mo  Mo9  1  0.82656700  0.91613300  0.66115400  1
  Mo  Mo10  1  0.10749600  0.18479400  0.03839200  1
  Mo  Mo11  1  0.81520600  0.89250400  0.46160800  1
  Mo  Mo12  1  0.89250400  0.81520600  0.96160800  1
  Mo  Mo13  1  0.18479400  0.10749600  0.53839200  1
  N  N14  1  0.76323300  0.66161200  0.41720700  1
  N  N15  1  0.33838800  0.23676700  0.08279300  1
  N  N16  1  0.23676700  0.33838800  0.58279300  1
  N  N17  1  0.66161200  0.76323300  0.91720700  1
  N  N18  1  0.56455100  0.77861000  0.22229300  1
  N  N19  1  0.22139000  0.43544900  0.27770700  1
  N  N20  1  0.43544900  0.22139000  0.77770700  1
  N  N21  1  0.77861000  0.56455100  0.72229300  1
  O  O22  1  0.99304700  0.14808100  0.46584600  1
  O  O23  1  0.85191900  0.00695300  0.03415400  1
  O  O24  1  0.00695300  0.85191900  0.53415400  1
  O  O25  1  0.14808100  0.99304700  0.96584600  1
  O  O26  1  0.18464300  0.71527000  0.07663800  1
  O  O27  1  0.28473000  0.81535700  0.42336200  1
  O  O28  1  0.81535700  0.28473000  0.92336200  1
  O  O29  1  0.71527000  0.18464300  0.57663800  1
  O  O30  1  0.80871500  0.27055700  0.13110900  1
  O  O31  1  0.72944300  0.19128500  0.36889100  1
  O  O32  1  0.19128500  0.72944300  0.86889100  1
  O  O33  1  0.27055700  0.80871500  0.63110900  1
  O  O34  1  0.98950500  0.12555100  0.31377800  1
  O  O35  1  0.87444900  0.01049500  0.18622200  1
  O  O36  1  0.01049500  0.87444900  0.68622200  1
  O  O37  1  0.12555100  0.98950500  0.81377800  1
  O  O38  1  0.66382500  0.45025600  0.41137700  1
  O  O39  1  0.54974400  0.33617500  0.08862300  1
  O  O40  1  0.33617500  0.54974400  0.58862300  1
  O  O41  1  0.45025600  0.66382500  0.91137700  1
  O  O42  1  0.11909800  0.26979100  0.26410700  1
  O  O43  1  0.73020900  0.88090200  0.23589300  1
  O  O44  1  0.88090200  0.73020900  0.73589300  1
  O  O45  1  0.26979100  0.11909800  0.76410700  1
  O  O46  1  0.08917600  0.57555200  0.28655600  1
  O  O47  1  0.42444800  0.91082400  0.21344400  1
  O  O48  1  0.91082400  0.42444800  0.71344400  1
  O  O49  1  0.57555200  0.08917600  0.78655600  1
  O  O50  1  0.99260600  0.68428000  0.08065200  1
  O  O51  1  0.31572000  0.00739400  0.41934800  1
  O  O52  1  0.00739400  0.31572000  0.91934800  1
  O  O53  1  0.68428000  0.99260600  0.58065200  1
  O  O54  1  0.01651300  0.33688800  0.09591900  1
  O  O55  1  0.66311200  0.98348700  0.40408100  1
  O  O56  1  0.98348700  0.66311200  0.90408100  1
  O  O57  1  0.33688800  0.01651300  0.59591900  1
  O  O58  1  0.07931500  0.31950200  0.48989200  1
  O  O59  1  0.68049800  0.92068500  0.01010800  1
  O  O60  1  0.92068500  0.68049800  0.51010800  1
  O  O61  1  0.31950200  0.07931500  0.98989200  1
  O  O62  1  0.00325900  0.86618800  0.34603600  1
  O  O63  1  0.13381200  0.99674100  0.15396400  1
  O  O64  1  0.99674100  0.13381200  0.65396400  1
  O  O65  1  0.86618800  0.00325900  0.84603600  1
  O  O66  1  0.39419500  0.55011500  0.28889400  1
  O  O67  1  0.44988500  0.60580500  0.21110600  1
  O  O68  1  0.60580500  0.44988500  0.71110600  1
  O  O69  1  0.55011500  0.39419500  0.78889400  1
