# generated using pymatgen
data_Y3Ni19B10
_symmetry_space_group_name_H-M   'P 1'
_cell_length_a   7.87827104
_cell_length_b   7.87827104
_cell_length_c   5.77089123
_cell_angle_alpha   88.94742242
_cell_angle_beta   88.94742242
_cell_angle_gamma   67.04814575
_symmetry_Int_Tables_number   1
_chemical_formula_structural   Y3Ni19B10
_chemical_formula_sum   'Y3 Ni19 B10'
_cell_volume   329.74640566
_cell_formula_units_Z   1
loop_
 _symmetry_equiv_pos_site_id
 _symmetry_equiv_pos_as_xyz
  1  'x, y, z'
loop_
 _atom_site_type_symbol
 _atom_site_label
 _atom_site_symmetry_multiplicity
 _atom_site_fract_x
 _atom_site_fract_y
 _atom_site_fract_z
 _atom_site_occupancy
  Y  Y0  1  0.00000000  0.00000000  0.00000000  1
  Y  Y1  1  0.62520900  0.62520900  0.61601700  1
  Y  Y2  1  0.37479100  0.37479100  0.38398300  1
  Ni  Ni3  1  0.00000000  0.00000000  0.50000000  1
  Ni  Ni4  1  0.62211300  0.62211300  0.12767900  1
  Ni  Ni5  1  0.37788700  0.37788700  0.87232100  1
  Ni  Ni6  1  0.16239000  0.16239000  0.29734300  1
  Ni  Ni7  1  0.83761000  0.83761000  0.70265700  1
  Ni  Ni8  1  0.18206400  0.18206400  0.72920100  1
  Ni  Ni9  1  0.81793600  0.81793600  0.27079900  1
  Ni  Ni10  1  0.48282900  0.95529500  0.30224100  1
  Ni  Ni11  1  0.95529500  0.48282900  0.30224100  1
  Ni  Ni12  1  0.51717100  0.04470500  0.69775900  1
  Ni  Ni13  1  0.04470500  0.51717100  0.69775900  1
  Ni  Ni14  1  0.12199300  0.62322100  0.07262700  1
  Ni  Ni15  1  0.62322100  0.12199300  0.07262700  1
  Ni  Ni16  1  0.87800700  0.37677900  0.92737300  1
  Ni  Ni17  1  0.37677900  0.87800700  0.92737300  1
  Ni  Ni18  1  0.77020600  0.28957600  0.30157800  1
  Ni  Ni19  1  0.28957600  0.77020600  0.30157800  1
  Ni  Ni20  1  0.22979400  0.71042400  0.69842200  1
  Ni  Ni21  1  0.71042400  0.22979400  0.69842200  1
  B  B22  1  0.38464500  0.61535500  0.00000000  1
  B  B23  1  0.61535500  0.38464500  0.00000000  1
  B  B24  1  0.64982300  0.85827600  0.97568500  1
  B  B25  1  0.85827600  0.64982300  0.97568500  1
  B  B26  1  0.35017700  0.14172400  0.02431500  1
  B  B27  1  0.14172400  0.35017700  0.02431500  1
  B  B28  1  0.93572500  0.30008700  0.56972100  1
  B  B29  1  0.30008700  0.93572500  0.56972100  1
  B  B30  1  0.06427500  0.69991300  0.43027900  1
  B  B31  1  0.69991300  0.06427500  0.43027900  1
