# generated using pymatgen
data_Na2Mo15Se19
_symmetry_space_group_name_H-M   'P 1'
_cell_length_a   20.40120490
_cell_length_b   20.40120490
_cell_length_c   20.40120484
_cell_angle_alpha   27.66851960
_cell_angle_beta   27.66851960
_cell_angle_gamma   27.66852093
_symmetry_Int_Tables_number   1
_chemical_formula_structural   Na2Mo15Se19
_chemical_formula_sum   'Na4 Mo30 Se38'
_cell_volume   1616.40220531
_cell_formula_units_Z   2
loop_
 _symmetry_equiv_pos_site_id
 _symmetry_equiv_pos_as_xyz
  1  'x, y, z'
loop_
 _atom_site_type_symbol
 _atom_site_label
 _atom_site_symmetry_multiplicity
 _atom_site_fract_x
 _atom_site_fract_y
 _atom_site_fract_z
 _atom_site_occupancy
  Na  Na0  1  0.88611400  0.88611400  0.88611400  1
  Na  Na1  1  0.38611400  0.38611400  0.38611400  1
  Na  Na2  1  0.11388600  0.11388600  0.11388600  1
  Na  Na3  1  0.61388600  0.61388600  0.61388600  1
  Mo  Mo4  1  0.81175100  0.00251600  0.12713200  1
  Mo  Mo5  1  0.12713200  0.81175100  0.00251600  1
  Mo  Mo6  1  0.00251600  0.12713200  0.81175100  1
  Mo  Mo7  1  0.62713200  0.50251600  0.31175100  1
  Mo  Mo8  1  0.31175100  0.62713200  0.50251600  1
  Mo  Mo9  1  0.50251600  0.31175100  0.62713200  1
  Mo  Mo10  1  0.18824900  0.99748400  0.87286800  1
  Mo  Mo11  1  0.87286800  0.18824900  0.99748400  1
  Mo  Mo12  1  0.99748400  0.87286800  0.18824900  1
  Mo  Mo13  1  0.37286800  0.49748400  0.68824900  1
  Mo  Mo14  1  0.68824900  0.37286800  0.49748400  1
  Mo  Mo15  1  0.49748400  0.68824900  0.37286800  1
  Mo  Mo16  1  0.63951500  0.77507200  0.95260200  1
  Mo  Mo17  1  0.95260200  0.63951500  0.77507200  1
  Mo  Mo18  1  0.77507200  0.95260200  0.63951500  1
  Mo  Mo19  1  0.45260200  0.27507200  0.13951500  1
  Mo  Mo20  1  0.13951500  0.45260200  0.27507200  1
  Mo  Mo21  1  0.27507200  0.13951500  0.45260200  1
  Mo  Mo22  1  0.36048500  0.22492800  0.04739800  1
  Mo  Mo23  1  0.04739800  0.36048500  0.22492800  1
  Mo  Mo24  1  0.22492800  0.04739800  0.36048500  1
  Mo  Mo25  1  0.54739800  0.72492800  0.86048500  1
  Mo  Mo26  1  0.86048500  0.54739800  0.72492800  1
  Mo  Mo27  1  0.72492800  0.86048500  0.54739800  1
  Mo  Mo28  1  0.59082900  0.90917100  0.75000000  1
  Mo  Mo29  1  0.75000000  0.59082900  0.90917100  1
  Mo  Mo30  1  0.90917100  0.75000000  0.59082900  1
  Mo  Mo31  1  0.25000000  0.40917100  0.09082900  1
  Mo  Mo32  1  0.09082900  0.25000000  0.40917100  1
  Mo  Mo33  1  0.40917100  0.09082900  0.25000000  1
  Se  Se34  1  0.94296200  0.69751600  0.31015100  1
  Se  Se35  1  0.31015100  0.94296200  0.69751600  1
  Se  Se36  1  0.69751600  0.31015100  0.94296200  1
  Se  Se37  1  0.81015100  0.19751600  0.44296200  1
  Se  Se38  1  0.44296200  0.81015100  0.19751600  1
  Se  Se39  1  0.19751600  0.44296200  0.81015100  1
  Se  Se40  1  0.05703800  0.30248400  0.68984900  1
  Se  Se41  1  0.68984900  0.05703800  0.30248400  1
  Se  Se42  1  0.30248400  0.68984900  0.05703800  1
  Se  Se43  1  0.18984900  0.80248400  0.55703800  1
  Se  Se44  1  0.55703800  0.18984900  0.80248400  1
  Se  Se45  1  0.80248400  0.55703800  0.18984900  1
  Se  Se46  1  0.45940700  0.07917000  0.81785500  1
  Se  Se47  1  0.81785500  0.45940700  0.07917000  1
  Se  Se48  1  0.07917000  0.81785500  0.45940700  1
  Se  Se49  1  0.31785500  0.57917000  0.95940700  1
  Se  Se50  1  0.95940700  0.31785500  0.57917000  1
  Se  Se51  1  0.57917000  0.95940700  0.31785500  1
  Se  Se52  1  0.54059300  0.92083000  0.18214500  1
  Se  Se53  1  0.18214500  0.54059300  0.92083000  1
  Se  Se54  1  0.92083000  0.18214500  0.54059300  1
  Se  Se55  1  0.68214500  0.42083000  0.04059300  1
  Se  Se56  1  0.04059300  0.68214500  0.42083000  1
  Se  Se57  1  0.42083000  0.04059300  0.68214500  1
  Se  Se58  1  0.05834000  0.44166000  0.75000000  1
  Se  Se59  1  0.75000000  0.05834000  0.44166000  1
  Se  Se60  1  0.44166000  0.75000000  0.05834000  1
  Se  Se61  1  0.25000000  0.94166000  0.55834000  1
  Se  Se62  1  0.55834000  0.25000000  0.94166000  1
  Se  Se63  1  0.94166000  0.55834000  0.25000000  1
  Se  Se64  1  0.94574200  0.94574200  0.94574200  1
  Se  Se65  1  0.44574200  0.44574200  0.44574200  1
  Se  Se66  1  0.05425800  0.05425800  0.05425800  1
  Se  Se67  1  0.55425800  0.55425800  0.55425800  1
  Se  Se68  1  0.82376200  0.82376200  0.82376200  1
  Se  Se69  1  0.32376200  0.32376200  0.32376200  1
  Se  Se70  1  0.17623800  0.17623800  0.17623800  1
  Se  Se71  1  0.67623800  0.67623800  0.67623800  1
