# generated using pymatgen
data_Gd3Al2(Ni2H3)3
_symmetry_space_group_name_H-M   'P 1'
_cell_length_a   8.00636156
_cell_length_b   8.00636156
_cell_length_c   8.00636156
_cell_angle_alpha   109.47122063
_cell_angle_beta   109.47122063
_cell_angle_gamma   109.47122063
_symmetry_Int_Tables_number   1
_chemical_formula_structural   Gd3Al2(Ni2H3)3
_chemical_formula_sum   'Gd6 Al4 Ni12 H18'
_cell_volume   395.07878035
_cell_formula_units_Z   2
loop_
 _symmetry_equiv_pos_site_id
 _symmetry_equiv_pos_as_xyz
  1  'x, y, z'
loop_
 _atom_site_type_symbol
 _atom_site_label
 _atom_site_symmetry_multiplicity
 _atom_site_fract_x
 _atom_site_fract_y
 _atom_site_fract_z
 _atom_site_occupancy
  Gd  Gd0  1  0.72936900  0.72936900  0.00000000  1
  Gd  Gd1  1  0.27063100  0.00000000  0.27063100  1
  Gd  Gd2  1  0.00000000  0.27063100  0.27063100  1
  Gd  Gd3  1  0.27063100  0.27063100  0.00000000  1
  Gd  Gd4  1  0.72936900  0.00000000  0.72936900  1
  Gd  Gd5  1  0.00000000  0.72936900  0.72936900  1
  Al  Al6  1  0.00000000  0.00000000  0.50000000  1
  Al  Al7  1  0.00000000  0.50000000  0.00000000  1
  Al  Al8  1  0.50000000  0.00000000  0.00000000  1
  Al  Al9  1  0.50000000  0.50000000  0.50000000  1
  Ni  Ni10  1  0.33848800  0.33848800  0.67697500  1
  Ni  Ni11  1  0.66151200  0.00000000  0.33848800  1
  Ni  Ni12  1  0.00000000  0.66151200  0.33848800  1
  Ni  Ni13  1  0.66151200  0.33848800  0.00000000  1
  Ni  Ni14  1  0.33848800  0.67697500  0.33848800  1
  Ni  Ni15  1  0.00000000  0.33848800  0.66151200  1
  Ni  Ni16  1  0.33848800  0.66151200  0.00000000  1
  Ni  Ni17  1  0.33848800  0.00000000  0.66151200  1
  Ni  Ni18  1  0.67697500  0.33848800  0.33848800  1
  Ni  Ni19  1  0.66151200  0.66151200  0.32302500  1
  Ni  Ni20  1  0.66151200  0.32302500  0.66151200  1
  Ni  Ni21  1  0.32302500  0.66151200  0.66151200  1
  H  H22  1  0.00000000  0.00000000  0.73245300  1
  H  H23  1  0.00000000  0.73245300  0.00000000  1
  H  H24  1  0.73245300  0.00000000  0.00000000  1
  H  H25  1  0.26754700  0.26754700  0.26754700  1
  H  H26  1  0.00000000  0.00000000  0.26754700  1
  H  H27  1  0.00000000  0.26754700  0.00000000  1
  H  H28  1  0.26754700  0.00000000  0.00000000  1
  H  H29  1  0.73245300  0.73245300  0.73245300  1
  H  H30  1  0.50000000  0.75000000  0.25000000  1
  H  H31  1  0.25000000  0.75000000  0.50000000  1
  H  H32  1  0.25000000  0.50000000  0.75000000  1
  H  H33  1  0.50000000  0.25000000  0.75000000  1
  H  H34  1  0.75000000  0.50000000  0.25000000  1
  H  H35  1  0.75000000  0.25000000  0.50000000  1
  H  H36  1  0.50000000  0.50000000  0.00000000  1
  H  H37  1  0.50000000  0.00000000  0.50000000  1
  H  H38  1  0.00000000  0.50000000  0.50000000  1
  H  H39  1  0.00000000  0.00000000  0.00000000  1
