# generated using pymatgen
data_K3Fe(CO2)6
_symmetry_space_group_name_H-M   'P 1'
_cell_length_a   13.96027343
_cell_length_b   13.96027343
_cell_length_c   13.96027343
_cell_angle_alpha   90.00000000
_cell_angle_beta   90.00000000
_cell_angle_gamma   90.00000000
_symmetry_Int_Tables_number   1
_chemical_formula_structural   K3Fe(CO2)6
_chemical_formula_sum   'K24 Fe8 C48 O96'
_cell_volume   2720.70699856
_cell_formula_units_Z   8
loop_
 _symmetry_equiv_pos_site_id
 _symmetry_equiv_pos_as_xyz
  1  'x, y, z'
loop_
 _atom_site_type_symbol
 _atom_site_label
 _atom_site_symmetry_multiplicity
 _atom_site_fract_x
 _atom_site_fract_y
 _atom_site_fract_z
 _atom_site_occupancy
  K  K0  1  0.17011624  0.17011624  0.17011624  1
  K  K1  1  0.32988376  0.82988376  0.67011624  1
  K  K2  1  0.82988376  0.67011624  0.32988376  1
  K  K3  1  0.67011624  0.32988376  0.82988376  1
  K  K4  1  0.57988376  0.57988376  0.57988376  1
  K  K5  1  0.42011624  0.07988376  0.92011624  1
  K  K6  1  0.92011624  0.42011624  0.07988376  1
  K  K7  1  0.07988376  0.92011624  0.42011624  1
  K  K8  1  0.99004274  0.37500000  0.75995726  1
  K  K9  1  0.50995726  0.62500000  0.25995726  1
  K  K10  1  0.00995726  0.87500000  0.74004274  1
  K  K11  1  0.49004274  0.12500000  0.24004274  1
  K  K12  1  0.37500000  0.75995726  0.99004274  1
  K  K13  1  0.62500000  0.25995726  0.50995726  1
  K  K14  1  0.87500000  0.74004274  0.00995726  1
  K  K15  1  0.12500000  0.24004274  0.49004274  1
  K  K16  1  0.75995726  0.99004274  0.37500000  1
  K  K17  1  0.25995726  0.50995726  0.62500000  1
  K  K18  1  0.74004274  0.00995726  0.87500000  1
  K  K19  1  0.24004274  0.49004274  0.12500000  1
  K  K20  1  0.12500000  0.62500000  0.87500000  1
  K  K21  1  0.37500000  0.37500000  0.37500000  1
  K  K22  1  0.87500000  0.12500000  0.62500000  1
  K  K23  1  0.62500000  0.87500000  0.12500000  1
  Fe  Fe24  1  0.01143276  0.01143276  0.01143276  1
  Fe  Fe25  1  0.48856724  0.98856724  0.51143276  1
  Fe  Fe26  1  0.98856724  0.51143276  0.48856724  1
  Fe  Fe27  1  0.51143276  0.48856724  0.98856724  1
  Fe  Fe28  1  0.73856724  0.73856724  0.73856724  1
  Fe  Fe29  1  0.26143276  0.23856724  0.76143276  1
  Fe  Fe30  1  0.76143276  0.26143276  0.23856724  1
  Fe  Fe31  1  0.23856724  0.76143276  0.26143276  1
  C  C32  1  0.23190021  0.29790831  0.95566825  1
  C  C33  1  0.26809979  0.70209169  0.45566825  1
  C  C34  1  0.76809979  0.79790831  0.54433175  1
  C  C35  1  0.73190021  0.20209169  0.04433175  1
  C  C36  1  0.29790831  0.95566825  0.23190021  1
  C  C37  1  0.70209169  0.45566825  0.26809979  1
  C  C38  1  0.79790831  0.54433175  0.76809979  1
  C  C39  1  0.20209169  0.04433175  0.73190021  1
  C  C40  1  0.95566825  0.23190021  0.29790831  1
  C  C41  1  0.45566825  0.26809979  0.70209169  1
  C  C42  1  0.54433175  0.76809979  0.79790831  1
  C  C43  1  0.04433175  0.73190021  0.20209169  1
  C  C44  1  0.51809979  0.79433175  0.45209169  1
  C  C45  1  0.48190021  0.29433175  0.04790831  1
  C  C46  1  0.98190021  0.20566825  0.95209169  1
  C  C47  1  0.01809979  0.70566825  0.54790831  1
  C  C48  1  0.45209169  0.51809979  0.79433175  1
  C  C49  1  0.04790831  0.48190021  0.29433175  1
  C  C50  1  0.95209169  0.98190021  0.20566825  1
  C  C51  1  0.54790831  0.01809979  0.70566825  1
  C  C52  1  0.79433175  0.45209169  0.51809979  1
  C  C53  1  0.29433175  0.04790831  0.48190021  1
  C  C54  1  0.20566825  0.95209169  0.98190021  1
  C  C55  1  0.70566825  0.54790831  0.01809979  1
  C  C56  1  0.19340750  0.38171251  0.89335762  1
  C  C57  1  0.30659250  0.61828749  0.39335762  1
  C  C58  1  0.80659250  0.88171251  0.60664238  1
  C  C59  1  0.69340750  0.11828749  0.10664238  1
  C  C60  1  0.38171251  0.89335762  0.19340750  1
  C  C61  1  0.61828749  0.39335762  0.30659250  1
  C  C62  1  0.88171251  0.60664238  0.80659250  1
  C  C63  1  0.11828749  0.10664238  0.69340750  1
  C  C64  1  0.89335762  0.19340750  0.38171251  1
  C  C65  1  0.39335762  0.30659250  0.61828749  1
  C  C66  1  0.60664238  0.80659250  0.88171251  1
  C  C67  1  0.10664238  0.69340750  0.11828749  1
  C  C68  1  0.55659250  0.85664238  0.36828749  1
  C  C69  1  0.44340750  0.35664238  0.13171251  1
  C  C70  1  0.94340750  0.14335762  0.86828749  1
  C  C71  1  0.05659250  0.64335762  0.63171251  1
  C  C72  1  0.36828749  0.55659250  0.85664238  1
  C  C73  1  0.13171251  0.44340750  0.35664238  1
  C  C74  1  0.86828749  0.94340750  0.14335762  1
  C  C75  1  0.63171251  0.05659250  0.64335762  1
  C  C76  1  0.85664238  0.36828749  0.55659250  1
  C  C77  1  0.35664238  0.13171251  0.44340750  1
  C  C78  1  0.14335762  0.86828749  0.94340750  1
  C  C79  1  0.64335762  0.63171251  0.05659250  1
  O  O80  1  0.23650923  0.30701210  0.04415627  1
  O  O81  1  0.26349077  0.69298790  0.54415627  1
  O  O82  1  0.76349077  0.80701210  0.45584373  1
  O  O83  1  0.73650923  0.19298790  0.95584373  1
  O  O84  1  0.30701210  0.04415627  0.23650923  1
  O  O85  1  0.69298790  0.54415627  0.26349077  1
  O  O86  1  0.80701210  0.45584373  0.76349077  1
  O  O87  1  0.19298790  0.95584373  0.73650923  1
  O  O88  1  0.04415627  0.23650923  0.30701210  1
  O  O89  1  0.54415627  0.26349077  0.69298790  1
  O  O90  1  0.45584373  0.76349077  0.80701210  1
  O  O91  1  0.95584373  0.73650923  0.19298790  1
  O  O92  1  0.51349077  0.70584373  0.44298790  1
  O  O93  1  0.48650923  0.20584373  0.05701210  1
  O  O94  1  0.98650923  0.29415627  0.94298790  1
  O  O95  1  0.01349077  0.79415627  0.55701210  1
  O  O96  1  0.44298790  0.51349077  0.70584373  1
  O  O97  1  0.05701210  0.48650923  0.20584373  1
  O  O98  1  0.94298790  0.98650923  0.29415627  1
  O  O99  1  0.55701210  0.01349077  0.79415627  1
  O  O100  1  0.70584373  0.44298790  0.51349077  1
  O  O101  1  0.20584373  0.05701210  0.48650923  1
  O  O102  1  0.29415627  0.94298790  0.98650923  1
  O  O103  1  0.79415627  0.55701210  0.01349077  1
  O  O104  1  0.25579685  0.22296405  0.90685392  1
  O  O105  1  0.24420315  0.77703595  0.40685392  1
  O  O106  1  0.74420315  0.72296405  0.59314608  1
  O  O107  1  0.75579685  0.27703595  0.09314608  1
  O  O108  1  0.22296405  0.90685392  0.25579685  1
  O  O109  1  0.77703595  0.40685392  0.24420315  1
  O  O110  1  0.72296405  0.59314608  0.74420315  1
  O  O111  1  0.27703595  0.09314608  0.75579685  1
  O  O112  1  0.90685392  0.25579685  0.22296405  1
  O  O113  1  0.40685392  0.24420315  0.77703595  1
  O  O114  1  0.59314608  0.74420315  0.72296405  1
  O  O115  1  0.09314608  0.75579685  0.27703595  1
  O  O116  1  0.49420315  0.84314608  0.52703595  1
  O  O117  1  0.50579685  0.34314608  0.97296405  1
  O  O118  1  0.00579685  0.15685392  0.02703595  1
  O  O119  1  0.99420315  0.65685392  0.47296405  1
  O  O120  1  0.52703595  0.49420315  0.84314608  1
  O  O121  1  0.97296405  0.50579685  0.34314608  1
  O  O122  1  0.02703595  0.00579685  0.15685392  1
  O  O123  1  0.47296405  0.99420315  0.65685392  1
  O  O124  1  0.84314608  0.52703595  0.49420315  1
  O  O125  1  0.34314608  0.97296405  0.50579685  1
  O  O126  1  0.15685392  0.02703595  0.00579685  1
  O  O127  1  0.65685392  0.47296405  0.99420315  1
  O  O128  1  0.15571281  0.45159820  0.93267603  1
  O  O129  1  0.34428719  0.54840180  0.43267603  1
  O  O130  1  0.84428719  0.95159820  0.56732397  1
  O  O131  1  0.65571281  0.04840180  0.06732397  1
  O  O132  1  0.45159820  0.93267603  0.15571281  1
  O  O133  1  0.54840180  0.43267603  0.34428719  1
  O  O134  1  0.95159820  0.56732397  0.84428719  1
  O  O135  1  0.04840180  0.06732397  0.65571281  1
  O  O136  1  0.93267603  0.15571281  0.45159820  1
  O  O137  1  0.43267603  0.34428719  0.54840180  1
  O  O138  1  0.56732397  0.84428719  0.95159820  1
  O  O139  1  0.06732397  0.65571281  0.04840180  1
  O  O140  1  0.59428719  0.81732397  0.29840180  1
  O  O141  1  0.40571281  0.31732397  0.20159820  1
  O  O142  1  0.90571281  0.18267603  0.79840180  1
  O  O143  1  0.09428719  0.68267603  0.70159820  1
  O  O144  1  0.29840180  0.59428719  0.81732397  1
  O  O145  1  0.20159820  0.40571281  0.31732397  1
  O  O146  1  0.79840180  0.90571281  0.18267603  1
  O  O147  1  0.70159820  0.09428719  0.68267603  1
  O  O148  1  0.81732397  0.29840180  0.59428719  1
  O  O149  1  0.31732397  0.20159820  0.40571281  1
  O  O150  1  0.18267603  0.79840180  0.90571281  1
  O  O151  1  0.68267603  0.70159820  0.09428719  1
  O  O152  1  0.20313290  0.36915891  0.80104053  1
  O  O153  1  0.29686710  0.63084109  0.30104053  1
  O  O154  1  0.79686710  0.86915891  0.69895947  1
  O  O155  1  0.70313290  0.13084109  0.19895947  1
  O  O156  1  0.36915891  0.80104053  0.20313290  1
  O  O157  1  0.63084109  0.30104053  0.29686710  1
  O  O158  1  0.86915891  0.69895947  0.79686710  1
  O  O159  1  0.13084109  0.19895947  0.70313290  1
  O  O160  1  0.80104053  0.20313290  0.36915891  1
  O  O161  1  0.30104053  0.29686710  0.63084109  1
  O  O162  1  0.69895947  0.79686710  0.86915891  1
  O  O163  1  0.19895947  0.70313290  0.13084109  1
  O  O164  1  0.54686710  0.94895947  0.38084109  1
  O  O165  1  0.45313290  0.44895947  0.11915891  1
  O  O166  1  0.95313290  0.05104053  0.88084109  1
  O  O167  1  0.04686710  0.55104053  0.61915891  1
  O  O168  1  0.38084109  0.54686710  0.94895947  1
  O  O169  1  0.11915891  0.45313290  0.44895947  1
  O  O170  1  0.88084109  0.95313290  0.05104053  1
  O  O171  1  0.61915891  0.04686710  0.55104053  1
  O  O172  1  0.94895947  0.38084109  0.54686710  1
  O  O173  1  0.44895947  0.11915891  0.45313290  1
  O  O174  1  0.05104053  0.88084109  0.95313290  1
  O  O175  1  0.55104053  0.61915891  0.04686710  1
