# generated using pymatgen
data_NaVZnP2O9
_symmetry_space_group_name_H-M   'P 1'
_cell_length_a   8.93640500
_cell_length_b   8.70720800
_cell_length_c   9.09180999
_cell_angle_alpha   87.34520190
_cell_angle_beta   90.00000000
_cell_angle_gamma   90.00000000
_symmetry_Int_Tables_number   1
_chemical_formula_structural   NaVZnP2O9
_chemical_formula_sum   'Na4 V4 Zn4 P8 O36'
_cell_volume   706.68479339
_cell_formula_units_Z   4
loop_
 _symmetry_equiv_pos_site_id
 _symmetry_equiv_pos_as_xyz
  1  'x, y, z'
loop_
 _atom_site_type_symbol
 _atom_site_label
 _atom_site_symmetry_multiplicity
 _atom_site_fract_x
 _atom_site_fract_y
 _atom_site_fract_z
 _atom_site_occupancy
  Na  Na0  1  0.53957600  0.18400900  0.96671600  1
  Na  Na1  1  0.03957600  0.81599100  0.53328400  1
  Na  Na2  1  0.46042400  0.81599100  0.03328400  1
  Na  Na3  1  0.96042400  0.18400900  0.46671600  1
  V  V4  1  0.50402500  0.42159400  0.25038300  1
  V  V5  1  0.00402500  0.57840600  0.24961700  1
  V  V6  1  0.49597500  0.57840600  0.74961700  1
  V  V7  1  0.99597500  0.42159400  0.75038300  1
  Zn  Zn8  1  0.85535100  0.91002400  0.09141500  1
  Zn  Zn9  1  0.35535100  0.08997600  0.40858500  1
  Zn  Zn10  1  0.14464900  0.08997600  0.90858500  1
  Zn  Zn11  1  0.64464900  0.91002400  0.59141500  1
  P  P12  1  0.75041200  0.51726700  0.50294500  1
  P  P13  1  0.25041200  0.48273300  0.99705500  1
  P  P14  1  0.24958800  0.48273300  0.49705500  1
  P  P15  1  0.74958800  0.51726700  0.00294500  1
  P  P16  1  0.63993500  0.04287400  0.27704900  1
  P  P17  1  0.13993500  0.95712600  0.22295100  1
  P  P18  1  0.36006500  0.95712600  0.72295100  1
  P  P19  1  0.86006500  0.04287400  0.77704900  1
  O  O20  1  0.57384500  0.92083700  0.39016400  1
  O  O21  1  0.07384500  0.07916300  0.10983600  1
  O  O22  1  0.42615500  0.07916300  0.60983600  1
  O  O23  1  0.92615500  0.92083700  0.89016400  1
  O  O24  1  0.51149000  0.17284800  0.26465500  1
  O  O25  1  0.01149000  0.82715200  0.23534500  1
  O  O26  1  0.48851000  0.82715200  0.73534500  1
  O  O27  1  0.98851000  0.17284800  0.76465500  1
  O  O28  1  0.64669100  0.42050400  0.40714400  1
  O  O29  1  0.14669100  0.57949600  0.09285600  1
  O  O30  1  0.35330900  0.57949600  0.59285600  1
  O  O31  1  0.85330900  0.42050400  0.90714400  1
  O  O32  1  0.65714300  0.39880400  0.09989500  1
  O  O33  1  0.15714300  0.60119600  0.40010500  1
  O  O34  1  0.34285700  0.60119600  0.90010500  1
  O  O35  1  0.84285700  0.39880400  0.59989500  1
  O  O36  1  0.35419400  0.37626700  0.09236000  1
  O  O37  1  0.85419400  0.62373300  0.40764000  1
  O  O38  1  0.64580600  0.62373300  0.90764000  1
  O  O39  1  0.14580600  0.37626700  0.59236000  1
  O  O40  1  0.48668600  0.60581700  0.22758200  1
  O  O41  1  0.98668600  0.39418300  0.27241800  1
  O  O42  1  0.51331400  0.39418300  0.77241800  1
  O  O43  1  0.01331400  0.60581700  0.72758200  1
  O  O44  1  0.64736400  0.96830200  0.12274300  1
  O  O45  1  0.14736400  0.03169800  0.37725700  1
  O  O46  1  0.35263600  0.03169800  0.87725700  1
  O  O47  1  0.85263600  0.96830200  0.62274300  1
  O  O48  1  0.34191200  0.37776300  0.39627700  1
  O  O49  1  0.84191200  0.62223700  0.10372300  1
  O  O50  1  0.65808800  0.62223700  0.60372300  1
  O  O51  1  0.15808800  0.37776300  0.89627700  1
  O  O52  1  0.78966300  0.10683400  0.31432600  1
  O  O53  1  0.28966300  0.89316600  0.18567400  1
  O  O54  1  0.21033700  0.89316600  0.68567400  1
  O  O55  1  0.71033700  0.10683400  0.81432600  1
