# generated using pymatgen
data_Si3C10NO7
_symmetry_space_group_name_H-M   'P 1'
_cell_length_a   8.83998800
_cell_length_b   11.51733500
_cell_length_c   14.57949700
_cell_angle_alpha   90.00000000
_cell_angle_beta   90.00000000
_cell_angle_gamma   90.00000000
_symmetry_Int_Tables_number   1
_chemical_formula_structural   Si3C10NO7
_chemical_formula_sum   'Si12 C40 N4 O28'
_cell_volume   1484.38383255
_cell_formula_units_Z   4
loop_
 _symmetry_equiv_pos_site_id
 _symmetry_equiv_pos_as_xyz
  1  'x, y, z'
loop_
 _atom_site_type_symbol
 _atom_site_label
 _atom_site_symmetry_multiplicity
 _atom_site_fract_x
 _atom_site_fract_y
 _atom_site_fract_z
 _atom_site_occupancy
  Si  Si0  1  0.24736900  0.74470000  0.47593200  1
  Si  Si1  1  0.75263100  0.24470000  0.52406800  1
  Si  Si2  1  0.25263100  0.24470000  0.47593200  1
  Si  Si3  1  0.74736900  0.74470000  0.52406800  1
  Si  Si4  1  0.97241800  0.63206600  0.37643800  1
  Si  Si5  1  0.02758200  0.13206600  0.62356200  1
  Si  Si6  1  0.52758200  0.13206600  0.37643800  1
  Si  Si7  1  0.47241800  0.63206600  0.62356200  1
  Si  Si8  1  0.47228400  0.36042200  0.61629100  1
  Si  Si9  1  0.52771600  0.86042200  0.38370900  1
  Si  Si10  1  0.02771600  0.86042200  0.61629100  1
  Si  Si11  1  0.97228400  0.36042200  0.38370900  1
  C  C12  1  0.03316300  0.48785100  0.91888000  1
  C  C13  1  0.96683700  0.98785100  0.08112000  1
  C  C14  1  0.46683700  0.98785100  0.91888000  1
  C  C15  1  0.53316300  0.48785100  0.08112000  1
  C  C16  1  0.03476500  0.39707600  0.98234300  1
  C  C17  1  0.96523500  0.89707600  0.01765700  1
  C  C18  1  0.46523500  0.89707600  0.98234300  1
  C  C19  1  0.53476500  0.39707600  0.01765700  1
  C  C20  1  0.04997700  0.37907100  0.07237400  1
  C  C21  1  0.95002300  0.87907100  0.92762600  1
  C  C22  1  0.45002300  0.87907100  0.07237400  1
  C  C23  1  0.54997700  0.37907100  0.92762600  1
  C  C24  1  0.06651000  0.49337100  0.08773100  1
  C  C25  1  0.93349000  0.99337100  0.91226900  1
  C  C26  1  0.43349000  0.99337100  0.08773100  1
  C  C27  1  0.56651000  0.49337100  0.91226900  1
  C  C28  1  0.07436900  0.60619500  0.06554000  1
  C  C29  1  0.92563100  0.10619500  0.93446000  1
  C  C30  1  0.42563100  0.10619500  0.06554000  1
  C  C31  1  0.57436900  0.60619500  0.93446000  1
  C  C32  1  0.05491300  0.58310500  0.97646400  1
  C  C33  1  0.94508700  0.08310500  0.02353600  1
  C  C34  1  0.44508700  0.08310500  0.97646400  1
  C  C35  1  0.55491300  0.58310500  0.02353600  1
  C  C36  1  0.97871800  0.98326400  0.18074400  1
  C  C37  1  0.02128200  0.48326400  0.81925600  1
  C  C38  1  0.52128200  0.48326400  0.18074400  1
  C  C39  1  0.47871800  0.98326400  0.81925600  1
  C  C40  1  0.94526500  0.18383800  0.26242200  1
  C  C41  1  0.05473500  0.68383800  0.73757800  1
  C  C42  1  0.55473500  0.68383800  0.26242200  1
  C  C43  1  0.44526500  0.18383800  0.73757800  1
  C  C44  1  0.53108700  0.58748000  0.23147700  1
  C  C45  1  0.46891300  0.08748000  0.76852300  1
  C  C46  1  0.96891300  0.08748000  0.23147700  1
  C  C47  1  0.03108700  0.58748000  0.76852300  1
  C  C48  1  0.03564800  0.78927500  0.25116900  1
  C  C49  1  0.96435200  0.28927500  0.74883100  1
  C  C50  1  0.46435200  0.28927500  0.25116900  1
  C  C51  1  0.53564800  0.78927500  0.74883100  1
  N  N52  1  0.51415300  0.38246700  0.22065100  1
  N  N53  1  0.48584700  0.88246700  0.77934900  1
  N  N54  1  0.98584700  0.88246700  0.22065100  1
  N  N55  1  0.01415300  0.38246700  0.77934900  1
  O  O56  1  0.95952300  0.49455700  0.35326700  1
  O  O57  1  0.04047700  0.99455700  0.64673300  1
  O  O58  1  0.54047700  0.99455700  0.35326700  1
  O  O59  1  0.45952300  0.49455700  0.64673300  1
  O  O60  1  0.84527900  0.66705200  0.45242100  1
  O  O61  1  0.15472100  0.16705200  0.54757900  1
  O  O62  1  0.65472100  0.16705200  0.45242100  1
  O  O63  1  0.34527900  0.66705200  0.54757900  1
  O  O64  1  0.64215500  0.31887600  0.59150200  1
  O  O65  1  0.35784500  0.81887600  0.40849800  1
  O  O66  1  0.85784500  0.81887600  0.59150200  1
  O  O67  1  0.14215500  0.31887600  0.40849800  1
  O  O68  1  0.93667400  0.70649900  0.28220900  1
  O  O69  1  0.06332600  0.20649900  0.71779100  1
  O  O70  1  0.56332600  0.20649900  0.28220900  1
  O  O71  1  0.43667400  0.70649900  0.71779100  1
  O  O72  1  0.41282800  0.28600400  0.70734700  1
  O  O73  1  0.58717200  0.78600400  0.29265300  1
  O  O74  1  0.08717200  0.78600400  0.70734700  1
  O  O75  1  0.91282800  0.28600400  0.29265300  1
  O  O76  1  0.14060900  0.65913100  0.41588600  1
  O  O77  1  0.85939100  0.15913100  0.58411400  1
  O  O78  1  0.35939100  0.15913100  0.41588600  1
  O  O79  1  0.64060900  0.65913100  0.58411400  1
  O  O80  1  0.35806900  0.33722000  0.53130000  1
  O  O81  1  0.64193100  0.83722000  0.46870000  1
  O  O82  1  0.14193100  0.83722000  0.53130000  1
  O  O83  1  0.85806900  0.33722000  0.46870000  1
