# generated using pymatgen
data_ReH(CO)4
_symmetry_space_group_name_H-M   'P 1'
_cell_length_a   12.66164000
_cell_length_b   12.88040300
_cell_length_c   17.53639645
_cell_angle_alpha   49.54144387
_cell_angle_beta   90.00000000
_cell_angle_gamma   90.00000000
_symmetry_Int_Tables_number   1
_chemical_formula_structural   ReH(CO)4
_chemical_formula_sum   'Re12 H12 C48 O48'
_cell_volume   2176.07263210
_cell_formula_units_Z   12
loop_
 _symmetry_equiv_pos_site_id
 _symmetry_equiv_pos_as_xyz
  1  'x, y, z'
loop_
 _atom_site_type_symbol
 _atom_site_label
 _atom_site_symmetry_multiplicity
 _atom_site_fract_x
 _atom_site_fract_y
 _atom_site_fract_z
 _atom_site_occupancy
  Re  Re0  1  0.45775000  0.77425200  0.97362500  1
  Re  Re1  1  0.04225000  0.77425200  0.47362500  1
  Re  Re2  1  0.54225000  0.22574800  0.02637500  1
  Re  Re3  1  0.95775000  0.22574800  0.52637500  1
  Re  Re4  1  0.27041700  0.84795000  0.07264500  1
  Re  Re5  1  0.22958300  0.84795000  0.57264500  1
  Re  Re6  1  0.72958300  0.15205000  0.92735500  1
  Re  Re7  1  0.77041700  0.15205000  0.42735500  1
  Re  Re8  1  0.29515000  0.17870000  0.97362700  1
  Re  Re9  1  0.20485000  0.17870000  0.47362700  1
  Re  Re10  1  0.70485000  0.82130000  0.02637300  1
  Re  Re11  1  0.79515000  0.82130000  0.52637300  1
  H  H12  1  0.38567900  0.88740900  0.99001600  1
  H  H13  1  0.11432100  0.88740900  0.49001600  1
  H  H14  1  0.61432100  0.11259100  0.00998400  1
  H  H15  1  0.88567900  0.11259100  0.50998400  1
  H  H16  1  0.33728100  0.99577500  0.05217800  1
  H  H17  1  0.16271900  0.99577500  0.55217800  1
  H  H18  1  0.66271900  0.00422500  0.94782200  1
  H  H19  1  0.83728100  0.00422500  0.44782200  1
  H  H20  1  0.44403600  0.18760100  0.96760900  1
  H  H21  1  0.05596400  0.18760100  0.46760900  1
  H  H22  1  0.55596400  0.81239900  0.03239100  1
  H  H23  1  0.94403600  0.81239900  0.53239100  1
  C  C24  1  0.54350300  0.68047900  0.94336600  1
  C  C25  1  0.95649700  0.68047900  0.44336600  1
  C  C26  1  0.45649700  0.31952100  0.05663400  1
  C  C27  1  0.04350300  0.31952100  0.55663400  1
  C  C28  1  0.48571500  0.95427900  0.83782700  1
  C  C29  1  0.01428500  0.95427900  0.33782700  1
  C  C30  1  0.51428500  0.04572100  0.16217300  1
  C  C31  1  0.98571500  0.04572100  0.66217300  1
  C  C32  1  0.33541400  0.75072800  0.91923500  1
  C  C33  1  0.16458600  0.75072800  0.41923500  1
  C  C34  1  0.66458600  0.24927200  0.08076500  1
  C  C35  1  0.83541400  0.24927200  0.58076500  1
  C  C36  1  0.43431100  0.59668000  0.11214800  1
  C  C37  1  0.06568900  0.59668000  0.61214800  1
  C  C38  1  0.56568900  0.40332000  0.88785200  1
  C  C39  1  0.93431100  0.40332000  0.38785200  1
  C  C40  1  0.18247300  0.95549500  0.94836800  1
  C  C41  1  0.31752700  0.95549500  0.44836800  1
  C  C42  1  0.81752700  0.04450500  0.05163200  1
  C  C43  1  0.68247300  0.04450500  0.55163200  1
  C  C44  1  0.36507900  0.74494700  0.19318700  1
  C  C45  1  0.13492100  0.74494700  0.69318700  1
  C  C46  1  0.63492100  0.25505300  0.80681300  1
  C  C47  1  0.86507900  0.25505300  0.30681300  1
  C  C48  1  0.15795700  0.83838500  0.15220100  1
  C  C49  1  0.34204300  0.83838500  0.65220100  1
  C  C50  1  0.84204300  0.16161500  0.84779900  1
  C  C51  1  0.65795700  0.16161500  0.34779900  1
  C  C52  1  0.21656900  0.68153200  0.10667000  1
  C  C53  1  0.28343100  0.68153200  0.60667000  1
  C  C54  1  0.78343100  0.31846800  0.89333000  1
  C  C55  1  0.71656900  0.31846800  0.39333000  1
  C  C56  1  0.14357400  0.16680100  0.96539400  1
  C  C57  1  0.35642600  0.16680100  0.46539400  1
  C  C58  1  0.85642600  0.83319900  0.03460600  1
  C  C59  1  0.64357400  0.83319900  0.53460600  1
  C  C60  1  0.28204100  0.37343500  0.89676300  1
  C  C61  1  0.21795900  0.37343500  0.39676300  1
  C  C62  1  0.71795900  0.62656500  0.10323700  1
  C  C63  1  0.78204100  0.62656500  0.60323700  1
  C  C64  1  0.27441600  0.13982600  0.10306500  1
  C  C65  1  0.22558400  0.13982600  0.60306500  1
  C  C66  1  0.72558400  0.86017400  0.89693500  1
  C  C67  1  0.77441600  0.86017400  0.39693500  1
  C  C68  1  0.31600900  0.21328900  0.84546100  1
  C  C69  1  0.18399100  0.21328900  0.34546100  1
  C  C70  1  0.68399100  0.78671100  0.15453900  1
  C  C71  1  0.81600900  0.78671100  0.65453900  1
  O  O72  1  0.59285000  0.62249800  0.92516700  1
  O  O73  1  0.90715000  0.62249800  0.42516700  1
  O  O74  1  0.40715000  0.37750200  0.07483300  1
  O  O75  1  0.09285000  0.37750200  0.57483300  1
  O  O76  1  0.50262600  0.05643300  0.75860100  1
  O  O77  1  0.99737400  0.05643300  0.25860100  1
  O  O78  1  0.49737400  0.94356700  0.24139900  1
  O  O79  1  0.00262600  0.94356700  0.74139900  1
  O  O80  1  0.26396700  0.73966400  0.88332100  1
  O  O81  1  0.23603300  0.73966400  0.38332100  1
  O  O82  1  0.73603300  0.26033600  0.11667900  1
  O  O83  1  0.76396700  0.26033600  0.61667900  1
  O  O84  1  0.42130000  0.49341600  0.19215700  1
  O  O85  1  0.07870000  0.49341600  0.69215700  1
  O  O86  1  0.57870000  0.50658400  0.80784300  1
  O  O87  1  0.92130000  0.50658400  0.30784300  1
  O  O88  1  0.13096900  0.01729600  0.87669900  1
  O  O89  1  0.36903100  0.01729600  0.37669900  1
  O  O90  1  0.86903100  0.98270400  0.12330100  1
  O  O91  1  0.63096900  0.98270400  0.62330100  1
  O  O92  1  0.41896000  0.68431400  0.26291300  1
  O  O93  1  0.08104000  0.68431400  0.76291300  1
  O  O94  1  0.58104000  0.31568600  0.73708700  1
  O  O95  1  0.91896000  0.31568600  0.23708700  1
  O  O96  1  0.09133100  0.82760600  0.20260800  1
  O  O97  1  0.40866900  0.82760600  0.70260800  1
  O  O98  1  0.90866900  0.17239400  0.79739200  1
  O  O99  1  0.59133100  0.17239400  0.29739200  1
  O  O100  1  0.18150700  0.58225800  0.12749800  1
  O  O101  1  0.31849300  0.58225800  0.62749800  1
  O  O102  1  0.81849300  0.41774200  0.87250200  1
  O  O103  1  0.68150700  0.41774200  0.37250200  1
  O  O104  1  0.05227000  0.16384800  0.95935500  1
  O  O105  1  0.44773000  0.16384800  0.45935500  1
  O  O106  1  0.94773000  0.83615200  0.04064500  1
  O  O107  1  0.55227000  0.83615200  0.54064500  1
  O  O108  1  0.27330900  0.49076800  0.84863400  1
  O  O109  1  0.22669100  0.49076800  0.34863400  1
  O  O110  1  0.72669100  0.50923200  0.15136600  1
  O  O111  1  0.77330900  0.50923200  0.65136600  1
  O  O112  1  0.25977000  0.11939500  0.17686300  1
  O  O113  1  0.24023000  0.11939500  0.67686300  1
  O  O114  1  0.74023000  0.88060500  0.82313700  1
  O  O115  1  0.75977000  0.88060500  0.32313700  1
  O  O116  1  0.32446000  0.23560800  0.77051300  1
  O  O117  1  0.17554000  0.23560800  0.27051300  1
  O  O118  1  0.67554000  0.76439200  0.22948700  1
  O  O119  1  0.82446000  0.76439200  0.72948700  1
