# generated using pymatgen
data_SiH8C(N2F3)2
_symmetry_space_group_name_H-M   'P 1'
_cell_length_a   7.62011000
_cell_length_b   10.51848700
_cell_length_c   17.95200000
_cell_angle_alpha   90.00000000
_cell_angle_beta   90.00000000
_cell_angle_gamma   90.00000000
_symmetry_Int_Tables_number   1
_chemical_formula_structural   SiH8C(N2F3)2
_chemical_formula_sum   'Si8 H64 C8 N32 F48'
_cell_volume   1438.88920618
_cell_formula_units_Z   8
loop_
 _symmetry_equiv_pos_site_id
 _symmetry_equiv_pos_as_xyz
  1  'x, y, z'
loop_
 _atom_site_type_symbol
 _atom_site_label
 _atom_site_symmetry_multiplicity
 _atom_site_fract_x
 _atom_site_fract_y
 _atom_site_fract_z
 _atom_site_occupancy
  Si  Si0  1  0.11198000  0.45099700  0.13393700  1
  Si  Si1  1  0.11198000  0.04900300  0.36606300  1
  Si  Si2  1  0.38802000  0.95099700  0.86606300  1
  Si  Si3  1  0.38802000  0.54900300  0.63393700  1
  Si  Si4  1  0.88802000  0.54900300  0.86606300  1
  Si  Si5  1  0.88802000  0.95099700  0.63393700  1
  Si  Si6  1  0.61198000  0.04900300  0.13393700  1
  Si  Si7  1  0.61198000  0.45099700  0.36606300  1
  H  H8  1  0.52215200  0.75986500  0.16379900  1
  H  H9  1  0.52215200  0.74013500  0.33620100  1
  H  H10  1  0.97784800  0.25986500  0.83620100  1
  H  H11  1  0.97784800  0.24013500  0.66379900  1
  H  H12  1  0.47784800  0.24013500  0.83620100  1
  H  H13  1  0.47784800  0.25986500  0.66379900  1
  H  H14  1  0.02215200  0.74013500  0.16379900  1
  H  H15  1  0.02215200  0.75986500  0.33620100  1
  H  H16  1  0.47525500  0.60875700  0.19816100  1
  H  H17  1  0.47525500  0.89124300  0.30183900  1
  H  H18  1  0.02474500  0.10875700  0.80183900  1
  H  H19  1  0.02474500  0.39124300  0.69816100  1
  H  H20  1  0.52474500  0.39124300  0.80183900  1
  H  H21  1  0.52474500  0.10875700  0.69816100  1
  H  H22  1  0.97525500  0.89124300  0.19816100  1
  H  H23  1  0.97525500  0.60875700  0.30183900  1
  H  H24  1  0.63251100  0.78469500  0.04594800  1
  H  H25  1  0.63251100  0.71530500  0.45405200  1
  H  H26  1  0.86748900  0.28469500  0.95405200  1
  H  H27  1  0.86748900  0.21530500  0.54594800  1
  H  H28  1  0.36748900  0.21530500  0.95405200  1
  H  H29  1  0.36748900  0.28469500  0.54594800  1
  H  H30  1  0.13251100  0.71530500  0.04594800  1
  H  H31  1  0.13251100  0.78469500  0.45405200  1
  H  H32  1  0.69242300  0.65234300  0.99310300  1
  H  H33  1  0.69242300  0.84765700  0.50689700  1
  H  H34  1  0.80757700  0.15234300  0.00689700  1
  H  H35  1  0.80757700  0.34765700  0.49310300  1
  H  H36  1  0.30757700  0.34765700  0.00689700  1
  H  H37  1  0.30757700  0.15234300  0.49310300  1
  H  H38  1  0.19242300  0.84765700  0.99310300  1
  H  H39  1  0.19242300  0.65234300  0.50689700  1
  H  H40  1  0.73048500  0.46014500  0.05570900  1
  H  H41  1  0.73048500  0.03985500  0.44429100  1
  H  H42  1  0.76951500  0.96014500  0.94429100  1
  H  H43  1  0.76951500  0.53985500  0.55570900  1
  H  H44  1  0.26951500  0.53985500  0.94429100  1
  H  H45  1  0.26951500  0.96014500  0.55570900  1
  H  H46  1  0.23048500  0.03985500  0.05570900  1
  H  H47  1  0.23048500  0.46014500  0.44429100  1
  H  H48  1  0.49786700  0.39059000  0.17181800  1
  H  H49  1  0.49786700  0.10941000  0.32818200  1
  H  H50  1  0.00213300  0.89059000  0.82818200  1
  H  H51  1  0.00213300  0.60941000  0.67181800  1
  H  H52  1  0.50213300  0.60941000  0.82818200  1
  H  H53  1  0.50213300  0.89059000  0.67181800  1
  H  H54  1  0.99786700  0.10941000  0.17181800  1
  H  H55  1  0.99786700  0.39059000  0.32818200  1
  H  H56  1  0.68441800  0.32096200  0.14215800  1
  H  H57  1  0.68441800  0.17903800  0.35784200  1
  H  H58  1  0.81558200  0.82096200  0.85784200  1
  H  H59  1  0.81558200  0.67903800  0.64215800  1
  H  H60  1  0.31558200  0.67903800  0.85784200  1
  H  H61  1  0.31558200  0.82096200  0.64215800  1
  H  H62  1  0.18441800  0.17903800  0.14215800  1
  H  H63  1  0.18441800  0.32096200  0.35784200  1
  H  H64  1  0.69591600  0.44745900  0.20078900  1
  H  H65  1  0.69591600  0.05254100  0.29921100  1
  H  H66  1  0.80408400  0.94745900  0.79921100  1
  H  H67  1  0.80408400  0.55254100  0.70078900  1
  H  H68  1  0.30408400  0.55254100  0.79921100  1
  H  H69  1  0.30408400  0.94745900  0.70078900  1
  H  H70  1  0.19591600  0.05254100  0.20078900  1
  H  H71  1  0.19591600  0.44745900  0.29921100  1
  C  C72  1  0.60917300  0.61525100  0.09981000  1
  C  C73  1  0.60917300  0.88474900  0.40019000  1
  C  C74  1  0.89082700  0.11525100  0.90019000  1
  C  C75  1  0.89082700  0.38474900  0.59981000  1
  C  C76  1  0.39082700  0.38474900  0.90019000  1
  C  C77  1  0.39082700  0.11525100  0.59981000  1
  C  C78  1  0.10917300  0.88474900  0.09981000  1
  C  C79  1  0.10917300  0.61525100  0.40019000  1
  N  N80  1  0.54853600  0.66391200  0.16341600  1
  N  N81  1  0.54853600  0.83608800  0.33658400  1
  N  N82  1  0.95146400  0.16391200  0.83658400  1
  N  N83  1  0.95146400  0.33608800  0.66341600  1
  N  N84  1  0.45146400  0.33608800  0.83658400  1
  N  N85  1  0.45146400  0.16391200  0.66341600  1
  N  N86  1  0.04853600  0.83608800  0.16341600  1
  N  N87  1  0.04853600  0.66391200  0.33658400  1
  N  N88  1  0.65018600  0.68865000  0.04267600  1
  N  N89  1  0.65018600  0.81135000  0.45732400  1
  N  N90  1  0.84981400  0.18865000  0.95732400  1
  N  N91  1  0.84981400  0.31135000  0.54267600  1
  N  N92  1  0.34981400  0.31135000  0.95732400  1
  N  N93  1  0.34981400  0.18865000  0.54267600  1
  N  N94  1  0.15018600  0.81135000  0.04267600  1
  N  N95  1  0.15018600  0.68865000  0.45732400  1
  N  N96  1  0.63108600  0.48688700  0.09114000  1
  N  N97  1  0.63108600  0.01311300  0.40886000  1
  N  N98  1  0.86891400  0.98688700  0.90886000  1
  N  N99  1  0.86891400  0.51311300  0.59114000  1
  N  N100  1  0.36891400  0.51311300  0.90886000  1
  N  N101  1  0.36891400  0.98688700  0.59114000  1
  N  N102  1  0.13108600  0.01311300  0.09114000  1
  N  N103  1  0.13108600  0.48688700  0.40886000  1
  N  N104  1  0.62645500  0.40892100  0.15582300  1
  N  N105  1  0.62645500  0.09107900  0.34417700  1
  N  N106  1  0.87354500  0.90892100  0.84417700  1
  N  N107  1  0.87354500  0.59107900  0.65582300  1
  N  N108  1  0.37354500  0.59107900  0.84417700  1
  N  N109  1  0.37354500  0.90892100  0.65582300  1
  N  N110  1  0.12645500  0.09107900  0.15582300  1
  N  N111  1  0.12645500  0.40892100  0.34417700  1
  F  F112  1  0.22489700  0.54066700  0.07038700  1
  F  F113  1  0.22489700  0.95933300  0.42961300  1
  F  F114  1  0.27510300  0.04066700  0.92961300  1
  F  F115  1  0.27510300  0.45933300  0.57038700  1
  F  F116  1  0.77510300  0.45933300  0.92961300  1
  F  F117  1  0.77510300  0.04066700  0.57038700  1
  F  F118  1  0.72489700  0.95933300  0.07038700  1
  F  F119  1  0.72489700  0.54066700  0.42961300  1
  F  F120  1  0.97622700  0.39554800  0.06620500  1
  F  F121  1  0.97622700  0.10445200  0.43379500  1
  F  F122  1  0.52377300  0.89554800  0.93379500  1
  F  F123  1  0.52377300  0.60445200  0.56620500  1
  F  F124  1  0.02377300  0.60445200  0.93379500  1
  F  F125  1  0.02377300  0.89554800  0.56620500  1
  F  F126  1  0.47622700  0.10445200  0.06620500  1
  F  F127  1  0.47622700  0.39554800  0.43379500  1
  F  F128  1  0.25856300  0.32542600  0.11653000  1
  F  F129  1  0.25856300  0.17457400  0.38347000  1
  F  F130  1  0.24143700  0.82542600  0.88347000  1
  F  F131  1  0.24143700  0.67457400  0.61653000  1
  F  F132  1  0.74143700  0.67457400  0.88347000  1
  F  F133  1  0.74143700  0.82542600  0.61653000  1
  F  F134  1  0.75856300  0.17457400  0.11653000  1
  F  F135  1  0.75856300  0.32542600  0.38347000  1
  F  F136  1  0.25513400  0.50299200  0.20360700  1
  F  F137  1  0.25513400  0.99700800  0.29639300  1
  F  F138  1  0.24486600  0.00299200  0.79639300  1
  F  F139  1  0.24486600  0.49700800  0.70360700  1
  F  F140  1  0.74486600  0.49700800  0.79639300  1
  F  F141  1  0.74486600  0.00299200  0.70360700  1
  F  F142  1  0.75513400  0.99700800  0.20360700  1
  F  F143  1  0.75513400  0.50299200  0.29639300  1
  F  F144  1  0.00793100  0.36000200  0.19834400  1
  F  F145  1  0.00793100  0.13999800  0.30165600  1
  F  F146  1  0.49206900  0.86000200  0.80165600  1
  F  F147  1  0.49206900  0.63999800  0.69834400  1
  F  F148  1  0.99206900  0.63999800  0.80165600  1
  F  F149  1  0.99206900  0.86000200  0.69834400  1
  F  F150  1  0.50793100  0.13999800  0.19834400  1
  F  F151  1  0.50793100  0.36000200  0.30165600  1
  F  F152  1  0.97452800  0.57720100  0.15240100  1
  F  F153  1  0.97452800  0.92279900  0.34759900  1
  F  F154  1  0.52547200  0.07720100  0.84759900  1
  F  F155  1  0.52547200  0.42279900  0.65240100  1
  F  F156  1  0.02547200  0.42279900  0.84759900  1
  F  F157  1  0.02547200  0.07720100  0.65240100  1
  F  F158  1  0.47452800  0.92279900  0.15240100  1
  F  F159  1  0.47452800  0.57720100  0.34759900  1
