# generated using pymatgen
data_MoH4C(NO2)2
_symmetry_space_group_name_H-M   'P 1'
_cell_length_a   7.54333400
_cell_length_b   7.81796818
_cell_length_c   13.16958033
_cell_angle_alpha   91.75608899
_cell_angle_beta   90.00000000
_cell_angle_gamma   90.00000000
_symmetry_Int_Tables_number   1
_chemical_formula_structural   MoH4C(NO2)2
_chemical_formula_sum   'Mo6 H24 C6 N12 O24'
_cell_volume   776.29207578
_cell_formula_units_Z   6
loop_
 _symmetry_equiv_pos_site_id
 _symmetry_equiv_pos_as_xyz
  1  'x, y, z'
loop_
 _atom_site_type_symbol
 _atom_site_label
 _atom_site_symmetry_multiplicity
 _atom_site_fract_x
 _atom_site_fract_y
 _atom_site_fract_z
 _atom_site_occupancy
  Mo  Mo0  1  0.51350100  0.50000000  0.25000000  1
  Mo  Mo1  1  0.48649900  0.50000000  0.75000000  1
  Mo  Mo2  1  0.25091200  0.16856300  0.33919100  1
  Mo  Mo3  1  0.25091200  0.83143700  0.16080900  1
  Mo  Mo4  1  0.74908800  0.83143700  0.66080900  1
  Mo  Mo5  1  0.74908800  0.16856300  0.83919100  1
  H  H6  1  0.94021600  0.69840200  0.33905800  1
  H  H7  1  0.94021600  0.30159800  0.16094200  1
  H  H8  1  0.05978400  0.30159800  0.66094200  1
  H  H9  1  0.05978400  0.69840200  0.83905800  1
  H  H10  1  0.95276000  0.71411100  0.47071900  1
  H  H11  1  0.95276000  0.28588900  0.02928100  1
  H  H12  1  0.04724000  0.28588900  0.52928100  1
  H  H13  1  0.04724000  0.71411100  0.97071900  1
  H  H14  1  0.41008700  0.63896700  0.48385400  1
  H  H15  1  0.41008700  0.36103300  0.01614600  1
  H  H16  1  0.58991300  0.36103300  0.51614600  1
  H  H17  1  0.58991300  0.63896700  0.98385400  1
  H  H18  1  0.21201400  0.64365500  0.55161100  1
  H  H19  1  0.21201400  0.35634500  0.94838900  1
  H  H20  1  0.78798600  0.35634500  0.44838900  1
  H  H21  1  0.78798600  0.64365500  0.05161100  1
  H  H22  1  0.66087600  0.02405200  0.40450700  1
  H  H23  1  0.66087600  0.97594800  0.09549300  1
  H  H24  1  0.33912400  0.97594800  0.59549300  1
  H  H25  1  0.33912400  0.02405200  0.90450700  1
  H  H26  1  0.85690900  0.03783400  0.33562800  1
  H  H27  1  0.85690900  0.96216600  0.16437200  1
  H  H28  1  0.14309100  0.96216600  0.66437200  1
  H  H29  1  0.14309100  0.03783400  0.83562800  1
  C  C30  1  0.18834300  0.67568700  0.39821500  1
  C  C31  1  0.18834300  0.32431300  0.10178500  1
  C  C32  1  0.81165700  0.32431300  0.60178500  1
  C  C33  1  0.81165700  0.67568700  0.89821500  1
  C  C34  1  0.63428700  0.00000000  0.25000000  1
  C  C35  1  0.36571300  0.00000000  0.75000000  1
  N  N36  1  0.01581800  0.71695900  0.40227700  1
  N  N37  1  0.01581800  0.28304100  0.09772300  1
  N  N38  1  0.98418200  0.28304100  0.59772300  1
  N  N39  1  0.98418200  0.71695900  0.90227700  1
  N  N40  1  0.27552600  0.64058600  0.48361700  1
  N  N41  1  0.27552600  0.35941400  0.01638300  1
  N  N42  1  0.72447400  0.35941400  0.51638200  1
  N  N43  1  0.72447400  0.64058600  0.98361800  1
  N  N44  1  0.72238400  0.03697400  0.33612500  1
  N  N45  1  0.72238400  0.96302600  0.16387500  1
  N  N46  1  0.27761600  0.96302600  0.66387500  1
  N  N47  1  0.27761600  0.03697400  0.83612500  1
  O  O48  1  0.27065200  0.67013900  0.31186100  1
  O  O49  1  0.27065200  0.32986100  0.18813900  1
  O  O50  1  0.72934800  0.32986100  0.68813900  1
  O  O51  1  0.72934800  0.67013900  0.81186100  1
  O  O52  1  0.46220100  0.00000000  0.25000000  1
  O  O53  1  0.53779900  0.00000000  0.75000000  1
  O  O54  1  0.43726900  0.33843100  0.35123300  1
  O  O55  1  0.43726900  0.66156900  0.14876700  1
  O  O56  1  0.56273100  0.66156900  0.64876700  1
  O  O57  1  0.56273100  0.33843100  0.85123300  1
  O  O58  1  0.13134300  0.00000000  0.25000000  1
  O  O59  1  0.86865700  0.00000000  0.75000000  1
  O  O60  1  0.30342700  0.05459700  0.44600500  1
  O  O61  1  0.30342700  0.94540300  0.05399500  1
  O  O62  1  0.69657300  0.94540300  0.55399500  1
  O  O63  1  0.69657300  0.05459700  0.94600500  1
  O  O64  1  0.06039600  0.28238900  0.37681700  1
  O  O65  1  0.06039600  0.71761100  0.12318300  1
  O  O66  1  0.93960400  0.71761100  0.62318300  1
  O  O67  1  0.93960400  0.28238900  0.87681700  1
  O  O68  1  0.65568300  0.61915100  0.32842100  1
  O  O69  1  0.65568300  0.38084900  0.17157900  1
  O  O70  1  0.34431700  0.38084900  0.67157900  1
  O  O71  1  0.34431700  0.61915100  0.82842100  1
