# generated using pymatgen
data_Mn2FeP2O11
_symmetry_space_group_name_H-M   'P 1'
_cell_length_a   7.86821500
_cell_length_b   9.67699300
_cell_length_c   9.39875600
_cell_angle_alpha   90.00000000
_cell_angle_beta   90.00000000
_cell_angle_gamma   90.00000000
_symmetry_Int_Tables_number   1
_chemical_formula_structural   Mn2FeP2O11
_chemical_formula_sum   'Mn8 Fe4 P8 O44'
_cell_volume   715.62749891
_cell_formula_units_Z   4
loop_
 _symmetry_equiv_pos_site_id
 _symmetry_equiv_pos_as_xyz
  1  'x, y, z'
loop_
 _atom_site_type_symbol
 _atom_site_label
 _atom_site_symmetry_multiplicity
 _atom_site_fract_x
 _atom_site_fract_y
 _atom_site_fract_z
 _atom_site_occupancy
  Mn  Mn0  1  0.63714000  0.95685900  0.61704600  1
  Mn  Mn1  1  0.86286000  0.54314100  0.11704600  1
  Mn  Mn2  1  0.13714000  0.54314100  0.38295400  1
  Mn  Mn3  1  0.36286000  0.95685900  0.88295400  1
  Mn  Mn4  1  0.36286000  0.04314100  0.38295400  1
  Mn  Mn5  1  0.13714000  0.45685900  0.88295400  1
  Mn  Mn6  1  0.86286000  0.45685900  0.61704600  1
  Mn  Mn7  1  0.63714000  0.04314100  0.11704600  1
  Fe  Fe8  1  0.00000000  0.00000000  0.50000000  1
  Fe  Fe9  1  0.50000000  0.50000000  0.00000000  1
  Fe  Fe10  1  0.50000000  0.50000000  0.50000000  1
  Fe  Fe11  1  0.00000000  0.00000000  0.00000000  1
  P  P12  1  0.28390000  0.79148900  0.60830400  1
  P  P13  1  0.21610000  0.70851100  0.10830400  1
  P  P14  1  0.78390000  0.70851100  0.39169600  1
  P  P15  1  0.71610000  0.79148900  0.89169600  1
  P  P16  1  0.71610000  0.20851100  0.39169600  1
  P  P17  1  0.78390000  0.29148900  0.89169600  1
  P  P18  1  0.21610000  0.29148900  0.60830400  1
  P  P19  1  0.28390000  0.20851100  0.10830400  1
  O  O20  1  0.33172600  0.79651800  0.76801300  1
  O  O21  1  0.16827400  0.70348200  0.26801300  1
  O  O22  1  0.83172600  0.70348200  0.23198700  1
  O  O23  1  0.66827400  0.79651800  0.73198700  1
  O  O24  1  0.66827400  0.20348200  0.23198700  1
  O  O25  1  0.83172600  0.29651800  0.73198700  1
  O  O26  1  0.16827400  0.29651800  0.76801300  1
  O  O27  1  0.33172600  0.20348200  0.26801300  1
  O  O28  1  0.41423700  0.88842400  0.52610100  1
  O  O29  1  0.08576300  0.61157600  0.02610100  1
  O  O30  1  0.91423700  0.61157600  0.47389900  1
  O  O31  1  0.58576300  0.88842400  0.97389900  1
  O  O32  1  0.58576300  0.11157600  0.47389900  1
  O  O33  1  0.91423700  0.38842400  0.97389900  1
  O  O34  1  0.08576300  0.38842400  0.52610100  1
  O  O35  1  0.41423700  0.11157600  0.02610100  1
  O  O36  1  0.29572500  0.64014300  0.55409800  1
  O  O37  1  0.20427500  0.85985700  0.05409800  1
  O  O38  1  0.79572500  0.85985700  0.44590200  1
  O  O39  1  0.70427500  0.64014300  0.94590200  1
  O  O40  1  0.70427500  0.35985700  0.44590200  1
  O  O41  1  0.79572500  0.14014300  0.94590200  1
  O  O42  1  0.20427500  0.14014300  0.55409800  1
  O  O43  1  0.29572500  0.35985700  0.05409800  1
  O  O44  1  0.10249900  0.84393400  0.58800400  1
  O  O45  1  0.39750100  0.65606600  0.08800400  1
  O  O46  1  0.60249900  0.65606600  0.41199600  1
  O  O47  1  0.89750100  0.84393400  0.91199600  1
  O  O48  1  0.89750100  0.15606600  0.41199600  1
  O  O49  1  0.60249900  0.34393400  0.91199600  1
  O  O50  1  0.39750100  0.34393400  0.58800400  1
  O  O51  1  0.10249900  0.15606600  0.08800400  1
  O  O52  1  0.50000000  0.04560400  0.75000000  1
  O  O53  1  0.00000000  0.45439600  0.25000000  1
  O  O54  1  0.50000000  0.95439600  0.25000000  1
  O  O55  1  0.00000000  0.54560400  0.75000000  1
  O  O56  1  0.15491500  0.02489500  0.84645200  1
  O  O57  1  0.34508500  0.47510500  0.34645200  1
  O  O58  1  0.65491500  0.47510500  0.15354800  1
  O  O59  1  0.84508500  0.02489500  0.65354800  1
  O  O60  1  0.84508500  0.97510500  0.15354800  1
  O  O61  1  0.65491500  0.52489500  0.65354800  1
  O  O62  1  0.34508500  0.52489500  0.84645200  1
  O  O63  1  0.15491500  0.97510500  0.34645200  1
