# generated using pymatgen
data_Na2VFeF7
_symmetry_space_group_name_H-M   'P 1'
_cell_length_a   7.49854501
_cell_length_b   7.49854501
_cell_length_c   25.03074254
_cell_angle_alpha   81.47127450
_cell_angle_beta   81.47127450
_cell_angle_gamma   60.28742256
_symmetry_Int_Tables_number   1
_chemical_formula_structural   Na2VFeF7
_chemical_formula_sum   'Na16 V8 Fe8 F56'
_cell_volume   1204.27746409
_cell_formula_units_Z   8
loop_
 _symmetry_equiv_pos_site_id
 _symmetry_equiv_pos_as_xyz
  1  'x, y, z'
loop_
 _atom_site_type_symbol
 _atom_site_label
 _atom_site_symmetry_multiplicity
 _atom_site_fract_x
 _atom_site_fract_y
 _atom_site_fract_z
 _atom_site_occupancy
  Na  Na0  1  0.00000000  0.00000000  0.50000000  1
  Na  Na1  1  0.00000000  0.00000000  0.00000000  1
  Na  Na2  1  0.50000000  0.50000000  0.50000000  1
  Na  Na3  1  0.50000000  0.50000000  0.00000000  1
  Na  Na4  1  0.00000000  0.50000000  0.00000000  1
  Na  Na5  1  0.50000000  0.00000000  0.50000000  1
  Na  Na6  1  0.78267900  0.21732100  0.75000000  1
  Na  Na7  1  0.21732100  0.78267900  0.25000000  1
  Na  Na8  1  0.78781300  0.70686300  0.75258500  1
  Na  Na9  1  0.29313700  0.21218700  0.74741500  1
  Na  Na10  1  0.21218700  0.29313700  0.24741500  1
  Na  Na11  1  0.70686300  0.78781300  0.25258500  1
  Na  Na12  1  0.13500300  0.11588000  0.62173700  1
  Na  Na13  1  0.88412000  0.86499700  0.87826300  1
  Na  Na14  1  0.86499700  0.88412000  0.37826300  1
  Na  Na15  1  0.11588000  0.13500300  0.12173700  1
  V  V16  1  0.00000000  0.50000000  0.50000000  1
  V  V17  1  0.50000000  0.00000000  0.00000000  1
  V  V18  1  0.24444000  0.75556000  0.75000000  1
  V  V19  1  0.75556000  0.24444000  0.25000000  1
  V  V20  1  0.63459300  0.11246200  0.62622900  1
  V  V21  1  0.88753800  0.36540700  0.87377100  1
  V  V22  1  0.36540700  0.88753800  0.37377100  1
  V  V23  1  0.11246200  0.63459300  0.12622900  1
  Fe  Fe24  1  0.62950000  0.61526000  0.62817500  1
  Fe  Fe25  1  0.38474000  0.37050000  0.87182500  1
  Fe  Fe26  1  0.37050000  0.38474000  0.37182500  1
  Fe  Fe27  1  0.61526000  0.62950000  0.12817500  1
  Fe  Fe28  1  0.13253200  0.61353200  0.62633900  1
  Fe  Fe29  1  0.38646800  0.86746800  0.87366100  1
  Fe  Fe30  1  0.86746800  0.38646800  0.37366100  1
  Fe  Fe31  1  0.61353200  0.13253200  0.12633900  1
  F  F32  1  0.74085000  0.58649700  0.54634100  1
  F  F33  1  0.41350300  0.25915000  0.95365900  1
  F  F34  1  0.25915000  0.41350300  0.45365900  1
  F  F35  1  0.58649700  0.74085000  0.04634100  1
  F  F36  1  0.52461000  0.63704500  0.71003500  1
  F  F37  1  0.36295500  0.47539000  0.78996500  1
  F  F38  1  0.47539000  0.36295500  0.28996500  1
  F  F39  1  0.63704500  0.52461000  0.21003500  1
  F  F40  1  0.72954700  0.30023200  0.64329600  1
  F  F41  1  0.69976800  0.27045300  0.85670400  1
  F  F42  1  0.27045300  0.69976800  0.35670400  1
  F  F43  1  0.30023200  0.72954700  0.14329600  1
  F  F44  1  0.53459200  0.92781200  0.60942500  1
  F  F45  1  0.07218800  0.46540800  0.89057500  1
  F  F46  1  0.46540800  0.07218800  0.39057500  1
  F  F47  1  0.92781200  0.53459200  0.10942500  1
  F  F48  1  0.13884500  0.58101400  0.54495000  1
  F  F49  1  0.41898600  0.86115500  0.95505000  1
  F  F50  1  0.86115500  0.41898600  0.45505000  1
  F  F51  1  0.58101400  0.13884500  0.04495000  1
  F  F52  1  0.13138800  0.63960800  0.70715400  1
  F  F53  1  0.36039200  0.86861200  0.79284600  1
  F  F54  1  0.86861200  0.36039200  0.29284600  1
  F  F55  1  0.63960800  0.13138800  0.20715400  1
  F  F56  1  0.93419500  0.92711700  0.60872700  1
  F  F57  1  0.07288300  0.06580500  0.89127300  1
  F  F58  1  0.06580500  0.07288300  0.39127300  1
  F  F59  1  0.92711700  0.93419500  0.10872700  1
  F  F60  1  0.33522000  0.30004300  0.64253900  1
  F  F61  1  0.69995700  0.66478000  0.85746100  1
  F  F62  1  0.66478000  0.69995700  0.35746100  1
  F  F63  1  0.30004300  0.33522000  0.14253900  1
  F  F64  1  0.90742600  0.53434600  0.65587100  1
  F  F65  1  0.46565400  0.09257400  0.84412900  1
  F  F66  1  0.09257400  0.46565400  0.34412900  1
  F  F67  1  0.53434600  0.90742600  0.15587100  1
  F  F68  1  0.35516100  0.69746000  0.59795400  1
  F  F69  1  0.30254000  0.64483900  0.90204600  1
  F  F70  1  0.64483900  0.30254000  0.40204600  1
  F  F71  1  0.69746000  0.35516100  0.09795400  1
  F  F72  1  0.12989100  0.20516100  0.53229600  1
  F  F73  1  0.79483900  0.87010900  0.96770400  1
  F  F74  1  0.87010900  0.79483900  0.46770400  1
  F  F75  1  0.20516100  0.12989100  0.03229600  1
  F  F76  1  0.97277700  0.86425100  0.79083500  1
  F  F77  1  0.13574900  0.02722300  0.70916500  1
  F  F78  1  0.02722300  0.13574900  0.20916500  1
  F  F79  1  0.86425100  0.97277700  0.29083500  1
  F  F80  1  0.63841800  0.02885600  0.70443400  1
  F  F81  1  0.97114400  0.36158200  0.79556600  1
  F  F82  1  0.36158200  0.97114400  0.29556600  1
  F  F83  1  0.02885600  0.63841800  0.20443400  1
  F  F84  1  0.63366100  0.19055900  0.54689100  1
  F  F85  1  0.80944100  0.36633900  0.95310900  1
  F  F86  1  0.36633900  0.80944100  0.45310900  1
  F  F87  1  0.19055900  0.63366100  0.04689100  1
