# generated using pymatgen
data_NaNbO3
_symmetry_space_group_name_H-M   'P 1'
_cell_length_a   7.90732000
_cell_length_b   7.95266300
_cell_length_c   15.94020100
_cell_angle_alpha   90.00000000
_cell_angle_beta   90.00000000
_cell_angle_gamma   90.00000000
_symmetry_Int_Tables_number   1
_chemical_formula_structural   NaNbO3
_chemical_formula_sum   'Na16 Nb16 O48'
_cell_volume   1002.38760375
_cell_formula_units_Z   16
loop_
 _symmetry_equiv_pos_site_id
 _symmetry_equiv_pos_as_xyz
  1  'x, y, z'
loop_
 _atom_site_type_symbol
 _atom_site_label
 _atom_site_symmetry_multiplicity
 _atom_site_fract_x
 _atom_site_fract_y
 _atom_site_fract_z
 _atom_site_occupancy
  Na  Na0  1  0.50000000  0.50000000  0.87648900  1
  Na  Na1  1  0.00000000  0.00000000  0.12351100  1
  Na  Na2  1  0.50000000  0.50000000  0.62697600  1
  Na  Na3  1  0.00000000  0.00000000  0.37302400  1
  Na  Na4  1  0.50000000  0.50000000  0.37918500  1
  Na  Na5  1  0.00000000  0.00000000  0.62081500  1
  Na  Na6  1  0.50000000  0.50000000  0.12640700  1
  Na  Na7  1  0.00000000  0.00000000  0.87359300  1
  Na  Na8  1  0.50000000  0.00000000  0.87036700  1
  Na  Na9  1  0.00000000  0.50000000  0.12963300  1
  Na  Na10  1  0.50000000  0.00000000  0.62289400  1
  Na  Na11  1  0.00000000  0.50000000  0.37710600  1
  Na  Na12  1  0.50000000  0.00000000  0.37414100  1
  Na  Na13  1  0.00000000  0.50000000  0.62585900  1
  Na  Na14  1  0.50000000  0.00000000  0.12233100  1
  Na  Na15  1  0.00000000  0.50000000  0.87766900  1
  Nb  Nb16  1  0.25000000  0.25000000  0.00000000  1
  Nb  Nb17  1  0.75000000  0.25000000  0.00000000  1
  Nb  Nb18  1  0.25000000  0.75000000  0.00000000  1
  Nb  Nb19  1  0.75000000  0.75000000  0.00000000  1
  Nb  Nb20  1  0.24976400  0.24855800  0.75019000  1
  Nb  Nb21  1  0.75023600  0.24855800  0.75019000  1
  Nb  Nb22  1  0.24976400  0.75144200  0.75019000  1
  Nb  Nb23  1  0.75023600  0.75144200  0.75019000  1
  Nb  Nb24  1  0.25023600  0.25144200  0.24981000  1
  Nb  Nb25  1  0.74976400  0.25144200  0.24981000  1
  Nb  Nb26  1  0.25023600  0.74855800  0.24981000  1
  Nb  Nb27  1  0.74976400  0.74855800  0.24981000  1
  Nb  Nb28  1  0.25000000  0.25000000  0.50000000  1
  Nb  Nb29  1  0.75000000  0.25000000  0.50000000  1
  Nb  Nb30  1  0.25000000  0.75000000  0.50000000  1
  Nb  Nb31  1  0.75000000  0.75000000  0.50000000  1
  O  O32  1  0.50000000  0.24837600  0.01756500  1
  O  O33  1  0.50000000  0.75162400  0.01756500  1
  O  O34  1  0.00000000  0.25162400  0.98243500  1
  O  O35  1  0.00000000  0.74837600  0.98243500  1
  O  O36  1  0.50000000  0.21200600  0.73594400  1
  O  O37  1  0.50000000  0.78799400  0.73594400  1
  O  O38  1  0.00000000  0.28799400  0.26405600  1
  O  O39  1  0.00000000  0.71200600  0.26405600  1
  O  O40  1  0.50000000  0.29242100  0.51396000  1
  O  O41  1  0.50000000  0.70757900  0.51396000  1
  O  O42  1  0.00000000  0.20757900  0.48604000  1
  O  O43  1  0.00000000  0.79242100  0.48604000  1
  O  O44  1  0.50000000  0.21073500  0.23440800  1
  O  O45  1  0.50000000  0.78926500  0.23440800  1
  O  O46  1  0.00000000  0.28926500  0.76559200  1
  O  O47  1  0.00000000  0.71073500  0.76559200  1
  O  O48  1  0.28376700  0.23472100  0.87511800  1
  O  O49  1  0.71623300  0.23472100  0.87511800  1
  O  O50  1  0.28376700  0.76527900  0.87511800  1
  O  O51  1  0.71623300  0.76527900  0.87511800  1
  O  O52  1  0.21623300  0.26527900  0.12488200  1
  O  O53  1  0.78376700  0.26527900  0.12488200  1
  O  O54  1  0.21623300  0.73472100  0.12488200  1
  O  O55  1  0.78376700  0.73472100  0.12488200  1
  O  O56  1  0.22155800  0.24952100  0.62511300  1
  O  O57  1  0.77844200  0.24952100  0.62511300  1
  O  O58  1  0.22155800  0.75047900  0.62511300  1
  O  O59  1  0.77844200  0.75047900  0.62511300  1
  O  O60  1  0.27844200  0.25047900  0.37488700  1
  O  O61  1  0.72155800  0.25047900  0.37488700  1
  O  O62  1  0.27844200  0.74952100  0.37488700  1
  O  O63  1  0.72155800  0.74952100  0.37488700  1
  O  O64  1  0.25442200  0.50000000  0.99062300  1
  O  O65  1  0.74557800  0.50000000  0.99062300  1
  O  O66  1  0.24557800  0.00000000  0.00937700  1
  O  O67  1  0.75442200  0.00000000  0.00937700  1
  O  O68  1  0.28682700  0.50000000  0.75064200  1
  O  O69  1  0.71317300  0.50000000  0.75064200  1
  O  O70  1  0.21317300  0.00000000  0.24935800  1
  O  O71  1  0.78682700  0.00000000  0.24935800  1
  O  O72  1  0.20684500  0.50000000  0.49873800  1
  O  O73  1  0.79315500  0.50000000  0.49873800  1
  O  O74  1  0.29315500  0.00000000  0.50126200  1
  O  O75  1  0.70684500  0.00000000  0.50126200  1
  O  O76  1  0.29304200  0.50000000  0.25155000  1
  O  O77  1  0.70695800  0.50000000  0.25155000  1
  O  O78  1  0.20695800  0.00000000  0.74845000  1
  O  O79  1  0.79304200  0.00000000  0.74845000  1
