# generated using pymatgen
data_ZnSi3GeH35C13ClO
_symmetry_space_group_name_H-M   'P 1'
_cell_length_a   10.17556315
_cell_length_b   13.43999779
_cell_length_c   21.62400900
_cell_angle_alpha   90.00000000
_cell_angle_beta   90.00000000
_cell_angle_gamma   104.98704335
_symmetry_Int_Tables_number   1
_chemical_formula_structural   ZnSi3GeH35C13ClO
_chemical_formula_sum   'Zn4 Si12 Ge4 H140 C52 Cl4 O4'
_cell_volume   2856.69546954
_cell_formula_units_Z   4
loop_
 _symmetry_equiv_pos_site_id
 _symmetry_equiv_pos_as_xyz
  1  'x, y, z'
loop_
 _atom_site_type_symbol
 _atom_site_label
 _atom_site_symmetry_multiplicity
 _atom_site_fract_x
 _atom_site_fract_y
 _atom_site_fract_z
 _atom_site_occupancy
  Zn  Zn0  1  0.07701411  0.57365904  0.43802141  1
  Zn  Zn1  1  0.57701411  0.07365904  0.06197859  1
  Zn  Zn2  1  0.92298589  0.42634096  0.56197859  1
  Zn  Zn3  1  0.42298589  0.92634096  0.93802141  1
  Si  Si4  1  0.88448750  0.75356759  0.35832605  1
  Si  Si5  1  0.38448750  0.25356759  0.14167395  1
  Si  Si6  1  0.11551250  0.24643241  0.64167395  1
  Si  Si7  1  0.61551250  0.74643241  0.85832605  1
  Si  Si8  1  0.24290720  0.87227241  0.43689943  1
  Si  Si9  1  0.74290720  0.37227241  0.06310057  1
  Si  Si10  1  0.75709280  0.12772759  0.56310057  1
  Si  Si11  1  0.25709280  0.62772759  0.93689943  1
  Si  Si12  1  0.21263452  0.72022104  0.27757262  1
  Si  Si13  1  0.71263452  0.22022104  0.22242738  1
  Si  Si14  1  0.78736548  0.27977896  0.72242738  1
  Si  Si15  1  0.28736548  0.77977896  0.77757262  1
  Ge  Ge16  1  0.10855308  0.72999110  0.37728674  1
  Ge  Ge17  1  0.60855308  0.22999110  0.12271326  1
  Ge  Ge18  1  0.89144692  0.27000890  0.62271326  1
  Ge  Ge19  1  0.39144692  0.77000890  0.87728674  1
  H  H20  1  0.94162107  0.90430043  0.28446852  1
  H  H21  1  0.44162107  0.40430043  0.21553148  1
  H  H22  1  0.05837893  0.09569957  0.71553148  1
  H  H23  1  0.55837893  0.59569957  0.78446852  1
  H  H24  1  0.92919062  0.94677831  0.36150787  1
  H  H25  1  0.42919062  0.44677831  0.13849213  1
  H  H26  1  0.07080938  0.05322169  0.63849213  1
  H  H27  1  0.57080938  0.55322169  0.86150787  1
  H  H28  1  0.77900317  0.88816827  0.31944559  1
  H  H29  1  0.27900317  0.38816827  0.18055441  1
  H  H30  1  0.22099683  0.11183173  0.68055441  1
  H  H31  1  0.72099683  0.61183173  0.81944559  1
  H  H32  1  0.83942405  0.66324655  0.25508124  1
  H  H33  1  0.33942405  0.16324655  0.24491876  1
  H  H34  1  0.16057595  0.33675345  0.74491876  1
  H  H35  1  0.66057595  0.83675345  0.75508124  1
  H  H36  1  0.68649242  0.66729221  0.29359189  1
  H  H37  1  0.18649242  0.16729221  0.20640811  1
  H  H38  1  0.31350758  0.33270779  0.70640811  1
  H  H39  1  0.81350758  0.83270779  0.79359189  1
  H  H40  1  0.77764330  0.57698864  0.31716375  1
  H  H41  1  0.27764330  0.07698864  0.18283625  1
  H  H42  1  0.22235670  0.42301136  0.68283625  1
  H  H43  1  0.72235670  0.92301136  0.81716375  1
  H  H44  1  0.82419398  0.78864128  0.46765808  1
  H  H45  1  0.32419398  0.28864128  0.03234192  1
  H  H46  1  0.17580602  0.21135872  0.53234192  1
  H  H47  1  0.67580602  0.71135872  0.96765808  1
  H  H48  1  0.76758680  0.65484850  0.44960958  1
  H  H49  1  0.26758680  0.15484850  0.05039042  1
  H  H50  1  0.23241320  0.34515150  0.55039042  1
  H  H51  1  0.73241320  0.84515150  0.94960958  1
  H  H52  1  0.67702330  0.74254313  0.42100581  1
  H  H53  1  0.17702330  0.24254313  0.07899419  1
  H  H54  1  0.32297670  0.25745687  0.57899419  1
  H  H55  1  0.82297670  0.75745687  0.92100581  1
  H  H56  1  0.05868845  0.90817219  0.50444032  1
  H  H57  1  0.55868845  0.40817219  0.99555968  1
  H  H58  1  0.94131155  0.09182781  0.49555968  1
  H  H59  1  0.44131155  0.59182781  0.00444032  1
  H  H60  1  0.22311880  0.95285342  0.53797816  1
  H  H61  1  0.72311880  0.45285342  0.96202184  1
  H  H62  1  0.77688120  0.04714658  0.46202184  1
  H  H63  1  0.27688120  0.54714658  0.03797816  1
  H  H64  1  0.13741036  0.81921717  0.54064517  1
  H  H65  1  0.63741036  0.31921717  0.95935483  1
  H  H66  1  0.86258964  0.18078283  0.45935483  1
  H  H67  1  0.36258964  0.68078283  0.04064517  1
  H  H68  1  0.18626584  0.02300841  0.38413815  1
  H  H69  1  0.68626584  0.52300841  0.11586185  1
  H  H70  1  0.81373416  0.97699159  0.61586185  1
  H  H71  1  0.31373416  0.47699159  0.88413815  1
  H  H72  1  0.33876296  0.00214990  0.35309974  1
  H  H73  1  0.83876296  0.50214990  0.14690026  1
  H  H74  1  0.66123704  0.99785010  0.64690026  1
  H  H75  1  0.16123704  0.49785010  0.85309974  1
  H  H76  1  0.34064927  0.06042713  0.42691807  1
  H  H77  1  0.84064927  0.56042713  0.07308193  1
  H  H78  1  0.65935073  0.93957287  0.57308193  1
  H  H79  1  0.15935073  0.43957287  0.92691807  1
  H  H80  1  0.39721143  0.77495559  0.48393319  1
  H  H81  1  0.89721143  0.27495559  0.01606681  1
  H  H82  1  0.60278857  0.22504441  0.51606681  1
  H  H83  1  0.10278857  0.72504441  0.98393319  1
  H  H84  1  0.46846342  0.91044904  0.48821816  1
  H  H85  1  0.96846342  0.41044904  0.01178184  1
  H  H86  1  0.53153658  0.08955096  0.51178184  1
  H  H87  1  0.03153658  0.58955096  0.98821816  1
  H  H88  1  0.47516255  0.84437403  0.41755956  1
  H  H89  1  0.97516255  0.34437403  0.08244044  1
  H  H90  1  0.52483745  0.15562597  0.58244044  1
  H  H91  1  0.02483745  0.65562597  0.91755956  1
  H  H92  1  0.03110067  0.57157337  0.23551674  1
  H  H93  1  0.53110067  0.07157337  0.26448326  1
  H  H94  1  0.96889933  0.42842663  0.76448326  1
  H  H95  1  0.46889933  0.92842663  0.73551674  1
  H  H96  1  0.16405569  0.52826624  0.27103330  1
  H  H97  1  0.66405569  0.02826624  0.22896670  1
  H  H98  1  0.83594431  0.47173376  0.72896670  1
  H  H99  1  0.33594431  0.97173376  0.77103330  1
  H  H100  1  0.18932171  0.58652902  0.19646103  1
  H  H101  1  0.68932171  0.08652902  0.30353897  1
  H  H102  1  0.81067829  0.41347098  0.80353897  1
  H  H103  1  0.31067829  0.91347098  0.69646103  1
  H  H104  1  0.07345543  0.80966194  0.21195213  1
  H  H105  1  0.57345543  0.30966194  0.28804787  1
  H  H106  1  0.92654457  0.19033806  0.78804787  1
  H  H107  1  0.42654457  0.69033806  0.71195213  1
  H  H108  1  0.22957134  0.80794694  0.17579991  1
  H  H109  1  0.72957134  0.30794694  0.32420009  1
  H  H110  1  0.77042866  0.19205306  0.82420009  1
  H  H111  1  0.27042866  0.69205306  0.67579991  1
  H  H112  1  0.22771241  0.89777696  0.23577486  1
  H  H113  1  0.72771241  0.39777696  0.26422514  1
  H  H114  1  0.77228759  0.10222304  0.76422514  1
  H  H115  1  0.27228759  0.60222304  0.73577486  1
  H  H116  1  0.43268045  0.68578518  0.31310218  1
  H  H117  1  0.93268045  0.18578518  0.18689782  1
  H  H118  1  0.56731955  0.31421482  0.68689782  1
  H  H119  1  0.06731955  0.81421482  0.81310218  1
  H  H120  1  0.45522837  0.81954736  0.29805685  1
  H  H121  1  0.95522837  0.31954736  0.20194315  1
  H  H122  1  0.54477163  0.18045264  0.70194315  1
  H  H123  1  0.04477163  0.68045264  0.79805685  1
  H  H124  1  0.44194740  0.73120507  0.23568317  1
  H  H125  1  0.94194740  0.23120507  0.26431683  1
  H  H126  1  0.55805260  0.26879493  0.76431683  1
  H  H127  1  0.05805260  0.76879493  0.73568317  1
  H  H128  1  0.37063953  0.50564719  0.47464496  1
  H  H129  1  0.87063953  0.00564719  0.02535504  1
  H  H130  1  0.62936047  0.49435281  0.52535504  1
  H  H131  1  0.12936047  0.99435281  0.97464496  1
  H  H132  1  0.40168111  0.58177748  0.40560308  1
  H  H133  1  0.90168111  0.08177748  0.09439692  1
  H  H134  1  0.59831889  0.41822252  0.59439692  1
  H  H135  1  0.09831889  0.91822252  0.90560308  1
  H  H136  1  0.49890292  0.40384843  0.42655699  1
  H  H137  1  0.99890292  0.90384843  0.07344301  1
  H  H138  1  0.50109708  0.59615157  0.57344301  1
  H  H139  1  0.00109708  0.09615157  0.92655699  1
  H  H140  1  0.48598660  0.45794110  0.35322346  1
  H  H141  1  0.98598660  0.95794110  0.14677654  1
  H  H142  1  0.51401340  0.54205890  0.64677654  1
  H  H143  1  0.01401340  0.04205890  0.85322346  1
  H  H144  1  0.30843748  0.26565130  0.40733053  1
  H  H145  1  0.80843748  0.76565130  0.09266947  1
  H  H146  1  0.69156252  0.73434870  0.59266947  1
  H  H147  1  0.19156252  0.23434870  0.90733053  1
  H  H148  1  0.31885812  0.30796683  0.32971464  1
  H  H149  1  0.81885812  0.80796683  0.17028536  1
  H  H150  1  0.68114188  0.69203317  0.67028536  1
  H  H151  1  0.18114188  0.19203317  0.82971464  1
  H  H152  1  0.12277574  0.36709546  0.34272893  1
  H  H153  1  0.62277574  0.86709546  0.15727107  1
  H  H154  1  0.87722426  0.63290454  0.65727107  1
  H  H155  1  0.37722426  0.13290454  0.84272893  1
  H  H156  1  0.10946751  0.31963027  0.42032070  1
  H  H157  1  0.60946751  0.81963027  0.07967930  1
  H  H158  1  0.89053249  0.68036973  0.57967930  1
  H  H159  1  0.39053249  0.18036973  0.92032070  1
  C  C160  1  0.88498218  0.88588005  0.32801216  1
  C  C161  1  0.38498218  0.38588005  0.17198784  1
  C  C162  1  0.11501782  0.11411995  0.67198784  1
  C  C163  1  0.61501782  0.61411995  0.82801216  1
  C  C164  1  0.78890119  0.65591325  0.30038237  1
  C  C165  1  0.28890119  0.15591325  0.19961763  1
  C  C166  1  0.21109881  0.34408675  0.69961763  1
  C  C167  1  0.71109881  0.84408675  0.80038237  1
  C  C168  1  0.77890880  0.73297000  0.43141686  1
  C  C169  1  0.27890880  0.23297000  0.06858314  1
  C  C170  1  0.22109120  0.26703000  0.56858314  1
  C  C171  1  0.72109120  0.76703000  0.93141686  1
  C  C172  1  0.15617557  0.88908205  0.51203954  1
  C  C173  1  0.65617557  0.38908205  0.98796046  1
  C  C174  1  0.84382443  0.11091795  0.48796046  1
  C  C175  1  0.34382443  0.61091795  0.01203954  1
  C  C176  1  0.28002447  0.00107518  0.39583900  1
  C  C177  1  0.78002447  0.50107518  0.10416100  1
  C  C178  1  0.71997553  0.99892482  0.60416100  1
  C  C179  1  0.21997553  0.49892482  0.89583900  1
  C  C180  1  0.41193373  0.84760268  0.45831428  1
  C  C181  1  0.91193373  0.34760268  0.04168572  1
  C  C182  1  0.58806627  0.15239732  0.54168572  1
  C  C183  1  0.08806627  0.65239732  0.95831428  1
  C  C184  1  0.14180648  0.58891968  0.24197477  1
  C  C185  1  0.64180648  0.08891968  0.25802523  1
  C  C186  1  0.85819352  0.41108032  0.75802523  1
  C  C187  1  0.35819352  0.91108032  0.74197477  1
  C  C188  1  0.18234725  0.81843486  0.22033359  1
  C  C189  1  0.68234725  0.31843486  0.27966641  1
  C  C190  1  0.81765275  0.18156514  0.77966641  1
  C  C191  1  0.31765275  0.68156514  0.72033359  1
  C  C192  1  0.40370867  0.74144330  0.28220342  1
  C  C193  1  0.90370867  0.24144330  0.21779658  1
  C  C194  1  0.59629133  0.25855670  0.71779658  1
  C  C195  1  0.09629133  0.75855670  0.78220342  1
  C  C196  1  0.36097604  0.50384466  0.42390762  1
  C  C197  1  0.86097604  0.00384466  0.07609238  1
  C  C198  1  0.63902396  0.49615534  0.57609238  1
  C  C199  1  0.13902396  0.99615534  0.92390762  1
  C  C200  1  0.42793163  0.42552542  0.39440016  1
  C  C201  1  0.92793163  0.92552542  0.10559984  1
  C  C202  1  0.57206837  0.57447458  0.60559984  1
  C  C203  1  0.07206837  0.07447458  0.89440016  1
  C  C204  1  0.30929738  0.33172998  0.37747178  1
  C  C205  1  0.80929738  0.83172998  0.12252822  1
  C  C206  1  0.69070262  0.66827002  0.62252822  1
  C  C207  1  0.19070262  0.16827002  0.87747178  1
  C  C208  1  0.17818791  0.36698543  0.38626709  1
  C  C209  1  0.67818791  0.86698543  0.11373291  1
  C  C210  1  0.82181209  0.63301457  0.61373291  1
  C  C211  1  0.32181209  0.13301457  0.88626709  1
  Cl  Cl212  1  0.87709112  0.43554195  0.45223927  1
  Cl  Cl213  1  0.37709112  0.93554195  0.04776073  1
  Cl  Cl214  1  0.12290888  0.56445805  0.54776073  1
  Cl  Cl215  1  0.62290888  0.06445805  0.95223927  1
  O  O216  1  0.21786168  0.47332074  0.40760928  1
  O  O217  1  0.71786168  0.97332074  0.09239072  1
  O  O218  1  0.78213832  0.52667926  0.59239072  1
  O  O219  1  0.28213832  0.02667926  0.90760928  1
