# generated using pymatgen
data_NaCaAlOF6
_symmetry_space_group_name_H-M   'P 1'
_cell_length_a   5.72049700
_cell_length_b   5.61421500
_cell_length_c   16.41172608
_cell_angle_alpha   88.54451266
_cell_angle_beta   90.00000000
_cell_angle_gamma   90.00000000
_symmetry_Int_Tables_number   1
_chemical_formula_structural   NaCaAlOF6
_chemical_formula_sum   'Na4 Ca4 Al4 O4 F24'
_cell_volume   526.91057970
_cell_formula_units_Z   4
loop_
 _symmetry_equiv_pos_site_id
 _symmetry_equiv_pos_as_xyz
  1  'x, y, z'
loop_
 _atom_site_type_symbol
 _atom_site_label
 _atom_site_symmetry_multiplicity
 _atom_site_fract_x
 _atom_site_fract_y
 _atom_site_fract_z
 _atom_site_occupancy
  Na  Na0  1  0.66216400  0.75085400  0.75126400  1
  Na  Na1  1  0.16216400  0.24914600  0.74873600  1
  Na  Na2  1  0.33783600  0.24914600  0.24873600  1
  Na  Na3  1  0.83783600  0.75085400  0.25126400  1
  Ca  Ca4  1  0.21752300  0.75283000  0.61095500  1
  Ca  Ca5  1  0.71752300  0.24717000  0.88904500  1
  Ca  Ca6  1  0.78247700  0.24717000  0.38904500  1
  Ca  Ca7  1  0.28247700  0.75283000  0.11095500  1
  Al  Al8  1  0.69845300  0.26388800  0.63569900  1
  Al  Al9  1  0.19845300  0.73611200  0.86430100  1
  Al  Al10  1  0.30154700  0.73611200  0.36430100  1
  Al  Al11  1  0.80154700  0.26388800  0.13569900  1
  O  O12  1  0.06695400  0.08508700  0.50485800  1
  O  O13  1  0.56695400  0.91491300  0.99514200  1
  O  O14  1  0.93304600  0.91491300  0.49514200  1
  O  O15  1  0.43304600  0.08508700  0.00485800  1
  F  F16  1  0.97549500  0.43290800  0.62574400  1
  F  F17  1  0.47549500  0.56709200  0.87425600  1
  F  F18  1  0.02450500  0.56709200  0.37425600  1
  F  F19  1  0.52450500  0.43290800  0.12574400  1
  F  F20  1  0.87739000  0.99140800  0.65321700  1
  F  F21  1  0.37739000  0.00859200  0.84678300  1
  F  F22  1  0.12261000  0.00859200  0.34678300  1
  F  F23  1  0.62261000  0.99140800  0.15321700  1
  F  F24  1  0.53469900  0.54174200  0.63504500  1
  F  F25  1  0.03469900  0.45825800  0.86495500  1
  F  F26  1  0.46530100  0.45825800  0.36495500  1
  F  F27  1  0.96530100  0.54174200  0.13504500  1
  F  F28  1  0.43192800  0.08209000  0.65410300  1
  F  F29  1  0.93192800  0.91791000  0.84589700  1
  F  F30  1  0.56807200  0.91791000  0.34589700  1
  F  F31  1  0.06807200  0.08209000  0.15410300  1
  F  F32  1  0.21981600  0.69421600  0.75183900  1
  F  F33  1  0.71981600  0.30578400  0.74816100  1
  F  F34  1  0.78018400  0.30578400  0.24816100  1
  F  F35  1  0.28018400  0.69421600  0.25183900  1
  F  F36  1  0.66190000  0.24972900  0.52691200  1
  F  F37  1  0.16190000  0.75027100  0.97308800  1
  F  F38  1  0.33810000  0.75027100  0.47308800  1
  F  F39  1  0.83810000  0.24972900  0.02691200  1
