# generated using pymatgen
data_Sr3Al2P(O2F5)2
_symmetry_space_group_name_H-M   'P 1'
_cell_length_a   7.22725500
_cell_length_b   7.42009700
_cell_length_c   20.73255221
_cell_angle_alpha   89.47715643
_cell_angle_beta   90.00000000
_cell_angle_gamma   90.00000000
_symmetry_Int_Tables_number   1
_chemical_formula_structural   Sr3Al2P(O2F5)2
_chemical_formula_sum   'Sr12 Al8 P4 O16 F40'
_cell_volume   1111.77689996
_cell_formula_units_Z   4
loop_
 _symmetry_equiv_pos_site_id
 _symmetry_equiv_pos_as_xyz
  1  'x, y, z'
loop_
 _atom_site_type_symbol
 _atom_site_label
 _atom_site_symmetry_multiplicity
 _atom_site_fract_x
 _atom_site_fract_y
 _atom_site_fract_z
 _atom_site_occupancy
  Sr  Sr0  1  0.29500700  0.77362800  0.99939800  1
  Sr  Sr1  1  0.79500700  0.22637200  0.50060200  1
  Sr  Sr2  1  0.70499300  0.22637200  0.00060200  1
  Sr  Sr3  1  0.20499300  0.77362800  0.49939800  1
  Sr  Sr4  1  0.05810400  0.49373400  0.19517500  1
  Sr  Sr5  1  0.55810400  0.50626600  0.30482500  1
  Sr  Sr6  1  0.94189600  0.50626600  0.80482500  1
  Sr  Sr7  1  0.44189600  0.49373400  0.69517500  1
  Sr  Sr8  1  0.94682900  0.98327800  0.30785700  1
  Sr  Sr9  1  0.44682900  0.01672200  0.19214300  1
  Sr  Sr10  1  0.05317100  0.01672200  0.69214300  1
  Sr  Sr11  1  0.55317100  0.98327800  0.80785700  1
  Al  Al12  1  0.99835600  0.97363700  0.14389200  1
  Al  Al13  1  0.49835600  0.02636300  0.35610800  1
  Al  Al14  1  0.00164400  0.02636300  0.85610800  1
  Al  Al15  1  0.50164400  0.97363700  0.64389200  1
  Al  Al16  1  0.51680300  0.47400600  0.13869000  1
  Al  Al17  1  0.01680300  0.52599400  0.36131000  1
  Al  Al18  1  0.48319700  0.52599400  0.86131000  1
  Al  Al19  1  0.98319700  0.47400600  0.63869000  1
  P  P20  1  0.76302300  0.71908100  0.05135000  1
  P  P21  1  0.26302300  0.28091900  0.44865000  1
  P  P22  1  0.23697700  0.28091900  0.94865000  1
  P  P23  1  0.73697700  0.71908100  0.55135000  1
  O  O24  1  0.89776900  0.75131700  0.10951400  1
  O  O25  1  0.39776900  0.24868300  0.39048600  1
  O  O26  1  0.10223100  0.24868300  0.89048600  1
  O  O27  1  0.60223100  0.75131700  0.60951400  1
  O  O28  1  0.65518500  0.54158400  0.06463600  1
  O  O29  1  0.15518500  0.45841600  0.43536400  1
  O  O30  1  0.34481500  0.45841600  0.93536400  1
  O  O31  1  0.84481500  0.54158400  0.56463600  1
  O  O32  1  0.62935600  0.87115500  0.03589600  1
  O  O33  1  0.12935600  0.12884500  0.46410400  1
  O  O34  1  0.37064400  0.12884500  0.96410400  1
  O  O35  1  0.87064400  0.87115500  0.53589600  1
  O  O36  1  0.91304600  0.68988000  0.99890300  1
  O  O37  1  0.41304600  0.31012000  0.50109700  1
  O  O38  1  0.08695400  0.31012000  0.00109700  1
  O  O39  1  0.58695400  0.68988000  0.49890300  1
  F  F40  1  0.21133000  0.94775400  0.09721400  1
  F  F41  1  0.71133000  0.05224600  0.40278600  1
  F  F42  1  0.78867000  0.05224600  0.90278600  1
  F  F43  1  0.28867000  0.94775400  0.59721400  1
  F  F44  1  0.11223000  0.82854700  0.20558200  1
  F  F45  1  0.61223000  0.17145300  0.29441800  1
  F  F46  1  0.88777000  0.17145300  0.79441800  1
  F  F47  1  0.38777000  0.82854700  0.70558200  1
  F  F48  1  0.89113400  0.11391200  0.08667100  1
  F  F49  1  0.39113400  0.88608800  0.41332900  1
  F  F50  1  0.10886600  0.88608800  0.91332900  1
  F  F51  1  0.60886600  0.11391200  0.58667100  1
  F  F52  1  0.79639700  0.97791300  0.19679800  1
  F  F53  1  0.29639700  0.02208700  0.30320200  1
  F  F54  1  0.20360300  0.02208700  0.80320200  1
  F  F55  1  0.70360300  0.97791300  0.69679800  1
  F  F56  1  0.09725000  0.16110100  0.18820500  1
  F  F57  1  0.59725000  0.83889900  0.31179500  1
  F  F58  1  0.90275000  0.83889900  0.81179500  1
  F  F59  1  0.40275000  0.16110100  0.68820500  1
  F  F60  1  0.72489000  0.42113200  0.18616600  1
  F  F61  1  0.22489000  0.57886800  0.31383400  1
  F  F62  1  0.27511000  0.57886800  0.81383400  1
  F  F63  1  0.77511000  0.42113200  0.68616600  1
  F  F64  1  0.51113500  0.24785100  0.10469400  1
  F  F65  1  0.01113500  0.75214900  0.39530600  1
  F  F66  1  0.48886500  0.75214900  0.89530600  1
  F  F67  1  0.98886500  0.24785100  0.60469400  1
  F  F68  1  0.38475400  0.38031900  0.20845600  1
  F  F69  1  0.88475400  0.61968100  0.29154400  1
  F  F70  1  0.61524600  0.61968100  0.79154400  1
  F  F71  1  0.11524600  0.38031900  0.70845600  1
  F  F72  1  0.29782100  0.54059200  0.10007300  1
  F  F73  1  0.79782100  0.45940800  0.39992700  1
  F  F74  1  0.70217900  0.45940800  0.89992700  1
  F  F75  1  0.20217900  0.54059200  0.60007300  1
  F  F76  1  0.51347200  0.69083200  0.18008600  1
  F  F77  1  0.01347200  0.30916800  0.31991400  1
  F  F78  1  0.48652800  0.30916800  0.81991400  1
  F  F79  1  0.98652800  0.69083200  0.68008600  1
