# generated using pymatgen
data_HoCO4
_symmetry_space_group_name_H-M   'P 1'
_cell_length_a   12.03791458
_cell_length_b   12.03791458
_cell_length_c   9.65404900
_cell_angle_alpha   90.00000000
_cell_angle_beta   90.00000000
_cell_angle_gamma   120.00000318
_symmetry_Int_Tables_number   1
_chemical_formula_structural   HoCO4
_chemical_formula_sum   'Ho18 C18 O72'
_cell_volume   1211.55359612
_cell_formula_units_Z   18
loop_
 _symmetry_equiv_pos_site_id
 _symmetry_equiv_pos_as_xyz
  1  'x, y, z'
loop_
 _atom_site_type_symbol
 _atom_site_label
 _atom_site_symmetry_multiplicity
 _atom_site_fract_x
 _atom_site_fract_y
 _atom_site_fract_z
 _atom_site_occupancy
  Ho  Ho0  1  0.23082100  0.11797700  0.26119900  1
  Ho  Ho1  1  0.88715500  0.76917900  0.26119900  1
  Ho  Ho2  1  0.88202300  0.11284500  0.26119900  1
  Ho  Ho3  1  0.23082100  0.11797700  0.73880100  1
  Ho  Ho4  1  0.88715500  0.76917900  0.73880100  1
  Ho  Ho5  1  0.88202300  0.11284500  0.73880100  1
  Ho  Ho6  1  0.56313000  0.78660000  0.24278300  1
  Ho  Ho7  1  0.22347100  0.43687000  0.24278300  1
  Ho  Ho8  1  0.21340000  0.77652900  0.24278300  1
  Ho  Ho9  1  0.56313000  0.78660000  0.75721700  1
  Ho  Ho10  1  0.22347100  0.43687000  0.75721700  1
  Ho  Ho11  1  0.21340000  0.77652900  0.75721700  1
  Ho  Ho12  1  0.54414000  0.10174200  0.24279400  1
  Ho  Ho13  1  0.55760200  0.45586000  0.24279400  1
  Ho  Ho14  1  0.89825800  0.44239800  0.24279400  1
  Ho  Ho15  1  0.54414000  0.10174200  0.75720600  1
  Ho  Ho16  1  0.55760200  0.45586000  0.75720600  1
  Ho  Ho17  1  0.89825800  0.44239800  0.75720600  1
  C  C18  1  0.50888100  0.65068400  0.50000000  1
  C  C19  1  0.14180300  0.49111900  0.50000000  1
  C  C20  1  0.34931600  0.85819700  0.50000000  1
  C  C21  1  0.11397600  0.20354000  0.50000000  1
  C  C22  1  0.08956400  0.88602400  0.50000000  1
  C  C23  1  0.79646000  0.91043600  0.50000000  1
  C  C24  1  0.46806400  0.16007800  0.50000000  1
  C  C25  1  0.69201300  0.53193600  0.50000000  1
  C  C26  1  0.83992200  0.30798700  0.50000000  1
  C  C27  1  0.42177500  0.87154600  0.00000000  1
  C  C28  1  0.44977100  0.57822500  0.00000000  1
  C  C29  1  0.12845400  0.55022900  0.00000000  1
  C  C30  1  0.77533600  0.23753400  0.00000000  1
  C  C31  1  0.46219900  0.22466400  0.00000000  1
  C  C32  1  0.76246600  0.53780100  0.00000000  1
  C  C33  1  0.18256100  0.20077900  0.00000000  1
  C  C34  1  0.01821800  0.81743900  0.00000000  1
  C  C35  1  0.79922100  0.98178200  0.00000000  1
  O  O36  1  0.51636600  0.76233100  0.50000000  1
  O  O37  1  0.24596500  0.48363400  0.50000000  1
  O  O38  1  0.23766900  0.75403500  0.50000000  1
  O  O39  1  0.50731000  0.59980200  0.38201500  1
  O  O40  1  0.09249200  0.49269000  0.38201500  1
  O  O41  1  0.40019800  0.90750800  0.38201500  1
  O  O42  1  0.50731000  0.59980200  0.61798500  1
  O  O43  1  0.09249200  0.49269000  0.61798500  1
  O  O44  1  0.40019800  0.90750800  0.61798500  1
  O  O45  1  0.17608400  0.14125300  0.50000000  1
  O  O46  1  0.96516800  0.82391600  0.50000000  1
  O  O47  1  0.85874700  0.03483200  0.50000000  1
  O  O48  1  0.14940300  0.91598400  0.38282100  1
  O  O49  1  0.76658100  0.85059700  0.38282100  1
  O  O50  1  0.08401600  0.23341900  0.38282100  1
  O  O51  1  0.14940300  0.91598400  0.61717900  1
  O  O52  1  0.76658100  0.85059700  0.61717900  1
  O  O53  1  0.08401600  0.23341900  0.61717900  1
  O  O54  1  0.57292300  0.15506900  0.50000000  1
  O  O55  1  0.58214500  0.42707700  0.50000000  1
  O  O56  1  0.84493100  0.41785500  0.50000000  1
  O  O57  1  0.41689700  0.15996200  0.38284100  1
  O  O58  1  0.74306500  0.58310300  0.38284100  1
  O  O59  1  0.84003800  0.25693500  0.38284100  1
  O  O60  1  0.41689700  0.15996200  0.61715900  1
  O  O61  1  0.74306500  0.58310300  0.61715900  1
  O  O62  1  0.84003800  0.25693500  0.61715900  1
  O  O63  1  0.50563500  0.70185300  0.00000000  1
  O  O64  1  0.19621900  0.49436500  0.00000000  1
  O  O65  1  0.29814700  0.80378100  0.00000000  1
  O  O66  1  0.48305900  0.90535400  0.11642200  1
  O  O67  1  0.42229600  0.51694100  0.11642200  1
  O  O68  1  0.09464600  0.57770400  0.11642200  1
  O  O69  1  0.48305900  0.90535400  0.88357800  1
  O  O70  1  0.42229600  0.51694100  0.88357800  1
  O  O71  1  0.09464600  0.57770400  0.88357800  1
  O  O72  1  0.51704700  0.15527200  0.00000000  1
  O  O73  1  0.63822500  0.48295300  0.00000000  1
  O  O74  1  0.84472800  0.36177500  0.00000000  1
  O  O75  1  0.74196800  0.17762900  0.11713800  1
  O  O76  1  0.43566200  0.25803200  0.11713800  1
  O  O77  1  0.82237100  0.56433800  0.11713800  1
  O  O78  1  0.74196800  0.17762900  0.88286200  1
  O  O79  1  0.43566200  0.25803200  0.88286200  1
  O  O80  1  0.82237100  0.56433800  0.88286200  1
  O  O81  1  0.18494500  0.09437600  0.00000000  1
  O  O82  1  0.90943000  0.81505500  0.00000000  1
  O  O83  1  0.90562400  0.09057000  0.00000000  1
  O  O84  1  0.18261500  0.25193100  0.11713600  1
  O  O85  1  0.06931700  0.81738500  0.11713600  1
  O  O86  1  0.74806900  0.93068300  0.11713600  1
  O  O87  1  0.18261500  0.25193100  0.88286400  1
  O  O88  1  0.06931700  0.81738500  0.88286400  1
  O  O89  1  0.74806900  0.93068300  0.88286400  1
  O  O90  1  0.00000000  0.00000000  0.24365000  1
  O  O91  1  0.00000000  0.00000000  0.75635000  1
  O  O92  1  0.33333300  0.66666700  0.24954300  1
  O  O93  1  0.33333300  0.66666700  0.75045700  1
  O  O94  1  0.66666700  0.33333300  0.25595100  1
  O  O95  1  0.66666700  0.33333300  0.74404900  1
  O  O96  1  0.67494600  0.67908300  0.19227400  1
  O  O97  1  0.00413700  0.32505400  0.19227400  1
  O  O98  1  0.32091700  0.99586300  0.19227400  1
  O  O99  1  0.67494600  0.67908300  0.80772600  1
  O  O100  1  0.00413700  0.32505400  0.80772600  1
  O  O101  1  0.32091700  0.99586300  0.80772600  1
  O  O102  1  0.65929200  0.00299500  0.30587300  1
  O  O103  1  0.34370300  0.34070800  0.30587300  1
  O  O104  1  0.99700500  0.65629700  0.30587300  1
  O  O105  1  0.65929200  0.00299500  0.69412700  1
  O  O106  1  0.34370300  0.34070800  0.69412700  1
  O  O107  1  0.99700500  0.65629700  0.69412700  1
