# generated using pymatgen
data_Ba8Ge43
_symmetry_space_group_name_H-M   'P 1'
_cell_length_a   18.77549494
_cell_length_b   18.77549494
_cell_length_c   18.77549494
_cell_angle_alpha   109.47122063
_cell_angle_beta   109.47122063
_cell_angle_gamma   109.47122063
_symmetry_Int_Tables_number   1
_chemical_formula_structural   Ba8Ge43
_chemical_formula_sum   'Ba32 Ge172'
_cell_volume   5095.09507327
_cell_formula_units_Z   4
loop_
 _symmetry_equiv_pos_site_id
 _symmetry_equiv_pos_as_xyz
  1  'x, y, z'
loop_
 _atom_site_type_symbol
 _atom_site_label
 _atom_site_symmetry_multiplicity
 _atom_site_fract_x
 _atom_site_fract_y
 _atom_site_fract_z
 _atom_site_occupancy
  Ba  Ba0  1  -0.00000000  0.50000000  -0.00000000  1
  Ba  Ba1  1  0.50000000  0.00000000  -0.00000000  1
  Ba  Ba2  1  -0.00000000  0.00000000  0.50000000  1
  Ba  Ba3  1  0.50000000  0.50000000  0.50000000  1
  Ba  Ba4  1  -0.00000000  0.50000000  0.50000000  1
  Ba  Ba5  1  0.50000000  0.00000000  0.50000000  1
  Ba  Ba6  1  0.50000000  0.50000000  -0.00000000  1
  Ba  Ba7  1  -0.00000000  0.00000000  -0.00000000  1
  Ba  Ba8  1  0.75562698  0.37781349  0.62781349  1
  Ba  Ba9  1  0.74437302  0.87218651  0.12218651  1
  Ba  Ba10  1  0.75000000  0.12218651  0.37781349  1
  Ba  Ba11  1  0.75000000  0.62781349  0.87218651  1
  Ba  Ba12  1  0.62781349  0.75562698  0.37781349  1
  Ba  Ba13  1  0.12218651  0.74437302  0.87218651  1
  Ba  Ba14  1  0.37781349  0.75000000  0.12218651  1
  Ba  Ba15  1  0.87218651  0.75000000  0.62781349  1
  Ba  Ba16  1  0.37781349  0.62781349  0.75562698  1
  Ba  Ba17  1  0.87218651  0.12218651  0.74437302  1
  Ba  Ba18  1  0.12218651  0.37781349  0.75000000  1
  Ba  Ba19  1  0.62781349  0.87218651  0.75000000  1
  Ba  Ba20  1  0.24437302  0.62218651  0.37218651  1
  Ba  Ba21  1  0.25562698  0.12781349  0.87781349  1
  Ba  Ba22  1  0.25000000  0.87781349  0.62218651  1
  Ba  Ba23  1  0.25000000  0.37218651  0.12781349  1
  Ba  Ba24  1  0.37218651  0.24437302  0.62218651  1
  Ba  Ba25  1  0.87781349  0.25562698  0.12781349  1
  Ba  Ba26  1  0.62218651  0.25000000  0.87781349  1
  Ba  Ba27  1  0.12781349  0.25000000  0.37218651  1
  Ba  Ba28  1  0.62218651  0.37218651  0.24437302  1
  Ba  Ba29  1  0.12781349  0.87781349  0.25562698  1
  Ba  Ba30  1  0.87781349  0.62218651  0.25000000  1
  Ba  Ba31  1  0.37218651  0.12781349  0.25000000  1
  Ge  Ge32  1  0.25000000  0.37500000  0.62500000  1
  Ge  Ge33  1  0.75000000  0.12500000  0.87500000  1
  Ge  Ge34  1  0.62500000  0.25000000  0.37500000  1
  Ge  Ge35  1  0.87500000  0.75000000  0.12500000  1
  Ge  Ge36  1  0.37500000  0.62500000  0.25000000  1
  Ge  Ge37  1  0.12500000  0.87500000  0.75000000  1
  Ge  Ge38  1  0.75000000  0.62500000  0.37500000  1
  Ge  Ge39  1  0.25000000  0.87500000  0.12500000  1
  Ge  Ge40  1  0.37500000  0.75000000  0.62500000  1
  Ge  Ge41  1  0.12500000  0.25000000  0.87500000  1
  Ge  Ge42  1  0.62500000  0.37500000  0.75000000  1
  Ge  Ge43  1  0.87500000  0.12500000  0.25000000  1
  Ge  Ge44  1  -0.00000000  0.50000000  0.81657424  1
  Ge  Ge45  1  0.50000000  0.81657424  -0.00000000  1
  Ge  Ge46  1  0.81657424  -0.00000000  0.50000000  1
  Ge  Ge47  1  0.68342576  0.68342576  0.68342576  1
  Ge  Ge48  1  0.00000000  0.50000000  0.18342576  1
  Ge  Ge49  1  0.50000000  0.18342576  0.00000000  1
  Ge  Ge50  1  0.18342576  0.00000000  0.50000000  1
  Ge  Ge51  1  0.31657424  0.31657424  0.31657424  1
  Ge  Ge52  1  0.00000000  0.50000000  0.31657424  1
  Ge  Ge53  1  0.31657424  -0.00000000  0.50000000  1
  Ge  Ge54  1  0.50000000  0.31657424  0.00000000  1
  Ge  Ge55  1  0.18342576  0.18342576  0.18342576  1
  Ge  Ge56  1  -0.00000000  0.50000000  0.68342576  1
  Ge  Ge57  1  0.68342576  -0.00000000  0.50000000  1
  Ge  Ge58  1  0.50000000  0.68342576  -0.00000000  1
  Ge  Ge59  1  0.81657424  0.81657424  0.81657424  1
  Ge  Ge60  1  0.68572636  0.50104606  0.50492457  1
  Ge  Ge61  1  0.81427364  0.81919821  0.31531970  1
  Ge  Ge62  1  0.50387851  0.99895394  0.18468030  1
  Ge  Ge63  1  0.99612149  0.68080179  0.99507543  1
  Ge  Ge64  1  0.50492457  0.68572636  0.50104606  1
  Ge  Ge65  1  0.31531970  0.81427364  0.81919821  1
  Ge  Ge66  1  0.18468030  0.50387851  0.99895394  1
  Ge  Ge67  1  0.99507543  0.99612149  0.68080179  1
  Ge  Ge68  1  0.50104606  0.50492457  0.68572636  1
  Ge  Ge69  1  0.81919821  0.31531970  0.81427364  1
  Ge  Ge70  1  0.99895394  0.18468030  0.50387851  1
  Ge  Ge71  1  0.68080179  0.99507543  0.99612149  1
  Ge  Ge72  1  0.31427364  0.49895394  0.49507543  1
  Ge  Ge73  1  0.18572636  0.18080179  0.68468030  1
  Ge  Ge74  1  0.49612149  0.00104606  0.81531970  1
  Ge  Ge75  1  0.00387851  0.31919821  0.00492457  1
  Ge  Ge76  1  0.49507543  0.31427364  0.49895394  1
  Ge  Ge77  1  0.68468030  0.18572636  0.18080179  1
  Ge  Ge78  1  0.81531970  0.49612149  0.00104606  1
  Ge  Ge79  1  0.00492457  0.00387851  0.31919821  1
  Ge  Ge80  1  0.49895394  0.49507543  0.31427364  1
  Ge  Ge81  1  0.18080179  0.68468030  0.18572636  1
  Ge  Ge82  1  0.00104606  0.81531970  0.49612149  1
  Ge  Ge83  1  0.31919821  0.00492457  0.00387851  1
  Ge  Ge84  1  0.00104606  0.18572636  0.00492457  1
  Ge  Ge85  1  0.31919821  0.31427364  0.81531970  1
  Ge  Ge86  1  0.49895394  0.00387851  0.68468030  1
  Ge  Ge87  1  0.18080179  0.49612149  0.49507543  1
  Ge  Ge88  1  0.18572636  0.00492457  0.00104606  1
  Ge  Ge89  1  0.31427364  0.81531970  0.31919821  1
  Ge  Ge90  1  0.00387851  0.68468030  0.49895394  1
  Ge  Ge91  1  0.49612149  0.49507543  0.18080179  1
  Ge  Ge92  1  0.00492457  0.00104606  0.18572636  1
  Ge  Ge93  1  0.81531970  0.31919821  0.31427364  1
  Ge  Ge94  1  0.68468030  0.49895394  0.00387851  1
  Ge  Ge95  1  0.49507543  0.18080179  0.49612149  1
  Ge  Ge96  1  0.99895394  0.81427364  0.99507543  1
  Ge  Ge97  1  0.68080179  0.68572636  0.18468030  1
  Ge  Ge98  1  0.50104606  0.99612149  0.31531970  1
  Ge  Ge99  1  0.81919821  0.50387851  0.50492457  1
  Ge  Ge100  1  0.81427364  0.99507543  0.99895394  1
  Ge  Ge101  1  0.68572636  0.18468030  0.68080179  1
  Ge  Ge102  1  0.99612149  0.31531970  0.50104606  1
  Ge  Ge103  1  0.50387851  0.50492457  0.81919821  1
  Ge  Ge104  1  0.99507543  0.99895394  0.81427364  1
  Ge  Ge105  1  0.18468030  0.68080179  0.68572636  1
  Ge  Ge106  1  0.31531970  0.50104606  0.99612149  1
  Ge  Ge107  1  0.50492457  0.81919821  0.50387851  1
  Ge  Ge108  1  0.90260263  0.05647224  0.34718637  1
  Ge  Ge109  1  0.59739737  0.44458373  0.65386961  1
  Ge  Ge110  1  0.79071412  0.44352776  0.84613039  1
  Ge  Ge111  1  0.70928588  0.05541627  0.15281363  1
  Ge  Ge112  1  0.34718637  0.90260263  0.05647224  1
  Ge  Ge113  1  0.65386961  0.59739737  0.44458373  1
  Ge  Ge114  1  0.84613039  0.79071412  0.44352776  1
  Ge  Ge115  1  0.15281363  0.70928588  0.05541627  1
  Ge  Ge116  1  0.05647224  0.34718637  0.90260263  1
  Ge  Ge117  1  0.44458373  0.65386961  0.59739737  1
  Ge  Ge118  1  0.44352776  0.84613039  0.79071412  1
  Ge  Ge119  1  0.05541627  0.15281363  0.70928588  1
  Ge  Ge120  1  0.09739737  0.94352776  0.65281363  1
  Ge  Ge121  1  0.40260263  0.55541627  0.34613039  1
  Ge  Ge122  1  0.20928588  0.55647224  0.15386961  1
  Ge  Ge123  1  0.29071412  0.94458373  0.84718637  1
  Ge  Ge124  1  0.65281363  0.09739737  0.94352776  1
  Ge  Ge125  1  0.34613039  0.40260263  0.55541627  1
  Ge  Ge126  1  0.15386961  0.20928588  0.55647224  1
  Ge  Ge127  1  0.84718637  0.29071412  0.94458373  1
  Ge  Ge128  1  0.94352776  0.65281363  0.09739737  1
  Ge  Ge129  1  0.55541627  0.34613039  0.40260263  1
  Ge  Ge130  1  0.55647224  0.15386961  0.20928588  1
  Ge  Ge131  1  0.94458373  0.84718637  0.29071412  1
  Ge  Ge132  1  0.55647224  0.40260263  0.84718637  1
  Ge  Ge133  1  0.94458373  0.09739737  0.15386961  1
  Ge  Ge134  1  0.94352776  0.29071412  0.34613039  1
  Ge  Ge135  1  0.55541627  0.20928588  0.65281363  1
  Ge  Ge136  1  0.40260263  0.84718637  0.55647224  1
  Ge  Ge137  1  0.09739737  0.15386961  0.94458373  1
  Ge  Ge138  1  0.29071412  0.34613039  0.94352776  1
  Ge  Ge139  1  0.20928588  0.65281363  0.55541627  1
  Ge  Ge140  1  0.84718637  0.55647224  0.40260263  1
  Ge  Ge141  1  0.15386961  0.94458373  0.09739737  1
  Ge  Ge142  1  0.34613039  0.94352776  0.29071412  1
  Ge  Ge143  1  0.65281363  0.55541627  0.20928588  1
  Ge  Ge144  1  0.44352776  0.59739737  0.15281363  1
  Ge  Ge145  1  0.05541627  0.90260263  0.84613039  1
  Ge  Ge146  1  0.05647224  0.70928588  0.65386961  1
  Ge  Ge147  1  0.44458373  0.79071412  0.34718637  1
  Ge  Ge148  1  0.59739737  0.15281363  0.44352776  1
  Ge  Ge149  1  0.90260263  0.84613039  0.05541627  1
  Ge  Ge150  1  0.70928588  0.65386961  0.05647224  1
  Ge  Ge151  1  0.79071412  0.34718637  0.44458373  1
  Ge  Ge152  1  0.15281363  0.44352776  0.59739737  1
  Ge  Ge153  1  0.84613039  0.05541627  0.90260263  1
  Ge  Ge154  1  0.65386961  0.05647224  0.70928588  1
  Ge  Ge155  1  0.34718637  0.44458373  0.79071412  1
  Ge  Ge156  1  0.89841021  0.56394358  0.83243164  1
  Ge  Ge157  1  0.60158979  0.93402143  0.16553338  1
  Ge  Ge158  1  0.76848805  0.93605642  0.33446662  1
  Ge  Ge159  1  0.73151195  0.56597857  0.66756836  1
  Ge  Ge160  1  0.83243164  0.89841021  0.56394358  1
  Ge  Ge161  1  0.16553338  0.60158979  0.93402143  1
  Ge  Ge162  1  0.33446662  0.76848805  0.93605642  1
  Ge  Ge163  1  0.66756836  0.73151195  0.56597857  1
  Ge  Ge164  1  0.56394358  0.83243164  0.89841021  1
  Ge  Ge165  1  0.93402143  0.16553338  0.60158979  1
  Ge  Ge166  1  0.93605642  0.33446662  0.76848805  1
  Ge  Ge167  1  0.56597857  0.66756836  0.73151195  1
  Ge  Ge168  1  0.10158979  0.43605642  0.16756836  1
  Ge  Ge169  1  0.39841021  0.06597857  0.83446662  1
  Ge  Ge170  1  0.23151195  0.06394358  0.66553338  1
  Ge  Ge171  1  0.26848805  0.43402143  0.33243164  1
  Ge  Ge172  1  0.16756836  0.10158979  0.43605642  1
  Ge  Ge173  1  0.83446662  0.39841021  0.06597857  1
  Ge  Ge174  1  0.66553338  0.23151195  0.06394358  1
  Ge  Ge175  1  0.33243164  0.26848805  0.43402143  1
  Ge  Ge176  1  0.43605642  0.16756836  0.10158979  1
  Ge  Ge177  1  0.06597857  0.83446662  0.39841021  1
  Ge  Ge178  1  0.06394358  0.66553338  0.23151195  1
  Ge  Ge179  1  0.43402143  0.33243164  0.26848805  1
  Ge  Ge180  1  0.06394358  0.39841021  0.33243164  1
  Ge  Ge181  1  0.43402143  0.10158979  0.66553338  1
  Ge  Ge182  1  0.43605642  0.26848805  0.83446662  1
  Ge  Ge183  1  0.06597857  0.23151195  0.16756836  1
  Ge  Ge184  1  0.39841021  0.33243164  0.06394358  1
  Ge  Ge185  1  0.10158979  0.66553338  0.43402143  1
  Ge  Ge186  1  0.26848805  0.83446662  0.43605642  1
  Ge  Ge187  1  0.23151195  0.16756836  0.06597857  1
  Ge  Ge188  1  0.33243164  0.06394358  0.39841021  1
  Ge  Ge189  1  0.66553338  0.43402143  0.10158979  1
  Ge  Ge190  1  0.83446662  0.43605642  0.26848805  1
  Ge  Ge191  1  0.16756836  0.06597857  0.23151195  1
  Ge  Ge192  1  0.93605642  0.60158979  0.66756836  1
  Ge  Ge193  1  0.56597857  0.89841021  0.33446662  1
  Ge  Ge194  1  0.56394358  0.73151195  0.16553338  1
  Ge  Ge195  1  0.93402143  0.76848805  0.83243164  1
  Ge  Ge196  1  0.60158979  0.66756836  0.93605642  1
  Ge  Ge197  1  0.89841021  0.33446662  0.56597857  1
  Ge  Ge198  1  0.73151195  0.16553338  0.56394358  1
  Ge  Ge199  1  0.76848805  0.83243164  0.93402143  1
  Ge  Ge200  1  0.66756836  0.93605642  0.60158979  1
  Ge  Ge201  1  0.33446662  0.56597857  0.89841021  1
  Ge  Ge202  1  0.16553338  0.56394358  0.73151195  1
  Ge  Ge203  1  0.83243164  0.93402143  0.76848805  1
