# generated using pymatgen
data_CuSN4O5
_symmetry_space_group_name_H-M   'P 1'
_cell_length_a   7.64696400
_cell_length_b   10.02609900
_cell_length_c   10.59837300
_cell_angle_alpha   90.00000000
_cell_angle_beta   90.00000000
_cell_angle_gamma   90.00000000
_symmetry_Int_Tables_number   1
_chemical_formula_structural   CuSN4O5
_chemical_formula_sum   'Cu4 S4 N16 O20'
_cell_volume   812.56897118
_cell_formula_units_Z   4
loop_
 _symmetry_equiv_pos_site_id
 _symmetry_equiv_pos_as_xyz
  1  'x, y, z'
loop_
 _atom_site_type_symbol
 _atom_site_label
 _atom_site_symmetry_multiplicity
 _atom_site_fract_x
 _atom_site_fract_y
 _atom_site_fract_z
 _atom_site_occupancy
  Cu  Cu0  1  0.75000000  0.44877300  0.41144600  1
  Cu  Cu1  1  0.75000000  0.94877300  0.08855400  1
  Cu  Cu2  1  0.25000000  0.55122700  0.58855400  1
  Cu  Cu3  1  0.25000000  0.05122700  0.91144600  1
  S  S4  1  0.25000000  0.28399300  0.42497800  1
  S  S5  1  0.25000000  0.78399300  0.07502200  1
  S  S6  1  0.75000000  0.71600700  0.57502200  1
  S  S7  1  0.75000000  0.21600700  0.92497800  1
  N  N8  1  0.94860200  0.02076100  0.22309800  1
  N  N9  1  0.55139800  0.52076100  0.27690200  1
  N  N10  1  0.44860200  0.97923900  0.77690200  1
  N  N11  1  0.05139800  0.47923900  0.72309800  1
  N  N12  1  0.05139800  0.97923900  0.77690200  1
  N  N13  1  0.44860200  0.47923900  0.72309800  1
  N  N14  1  0.55139800  0.02076100  0.22309800  1
  N  N15  1  0.94860200  0.52076100  0.27690200  1
  N  N16  1  0.47134100  0.49809800  0.19181300  1
  N  N17  1  0.02865900  0.99809800  0.30818700  1
  N  N18  1  0.97134100  0.50190200  0.80818700  1
  N  N19  1  0.52865900  0.00190200  0.69181300  1
  N  N20  1  0.52865900  0.50190200  0.80818700  1
  N  N21  1  0.97134100  0.00190200  0.69181300  1
  N  N22  1  0.02865900  0.49809800  0.19181300  1
  N  N23  1  0.47134100  0.99809800  0.30818700  1
  O  O24  1  0.40882500  0.22518100  0.48064600  1
  O  O25  1  0.09117500  0.72518100  0.01935400  1
  O  O26  1  0.90882500  0.77481900  0.51935400  1
  O  O27  1  0.59117500  0.27481900  0.98064600  1
  O  O28  1  0.59117500  0.77481900  0.51935400  1
  O  O29  1  0.90882500  0.27481900  0.98064600  1
  O  O30  1  0.09117500  0.22518100  0.48064600  1
  O  O31  1  0.40882500  0.72518100  0.01935400  1
  O  O32  1  0.25000000  0.43509100  0.45308000  1
  O  O33  1  0.25000000  0.93509100  0.04692000  1
  O  O34  1  0.75000000  0.56490900  0.54692000  1
  O  O35  1  0.75000000  0.06490900  0.95308000  1
  O  O36  1  0.25000000  0.27191100  0.28694200  1
  O  O37  1  0.25000000  0.77191100  0.21305800  1
  O  O38  1  0.75000000  0.72808900  0.71305800  1
  O  O39  1  0.75000000  0.22808900  0.78694200  1
  O  O40  1  0.75000000  0.28613600  0.35380800  1
  O  O41  1  0.75000000  0.78613600  0.14619200  1
  O  O42  1  0.25000000  0.71386400  0.64619200  1
  O  O43  1  0.25000000  0.21386400  0.85380800  1
