# generated using pymatgen
data_MnGa2P3H4NO14
_symmetry_space_group_name_H-M   'P 1'
_cell_length_a   8.37774177
_cell_length_b   8.37774177
_cell_length_c   9.14422902
_cell_angle_alpha   75.71328158
_cell_angle_beta   75.71328158
_cell_angle_gamma   74.81906229
_symmetry_Int_Tables_number   1
_chemical_formula_structural   MnGa2P3H4NO14
_chemical_formula_sum   'Mn2 Ga4 P6 H8 N2 O28'
_cell_volume   588.75462890
_cell_formula_units_Z   2
loop_
 _symmetry_equiv_pos_site_id
 _symmetry_equiv_pos_as_xyz
  1  'x, y, z'
loop_
 _atom_site_type_symbol
 _atom_site_label
 _atom_site_symmetry_multiplicity
 _atom_site_fract_x
 _atom_site_fract_y
 _atom_site_fract_z
 _atom_site_occupancy
  Mn  Mn0  1  0.22794000  0.77206000  0.75000000  1
  Mn  Mn1  1  0.77206000  0.22794000  0.25000000  1
  Ga  Ga2  1  0.60187000  0.75412100  0.93675300  1
  Ga  Ga3  1  0.24587900  0.39813000  0.56324700  1
  Ga  Ga4  1  0.39813000  0.24587900  0.06324700  1
  Ga  Ga5  1  0.75412100  0.60187000  0.43675300  1
  P  P6  1  0.50518600  0.49481400  0.25000000  1
  P  P7  1  0.49481400  0.50518600  0.75000000  1
  P  P8  1  0.66491200  0.91947400  0.17977700  1
  P  P9  1  0.08052600  0.33508800  0.32022300  1
  P  P10  1  0.33508800  0.08052600  0.82022300  1
  P  P11  1  0.91947400  0.66491200  0.67977700  1
  H  H12  1  0.27105500  0.03283400  0.49598700  1
  H  H13  1  0.96716600  0.72894500  0.00401300  1
  H  H14  1  0.72894500  0.96716600  0.50401300  1
  H  H15  1  0.03283400  0.27105500  0.99598700  1
  H  H16  1  0.41798300  0.87943800  0.44465500  1
  H  H17  1  0.12056200  0.58201700  0.05534500  1
  H  H18  1  0.58201800  0.12056200  0.55534500  1
  H  H19  1  0.87943800  0.41798300  0.94465500  1
  N  N20  1  0.86341200  0.13658800  0.75000000  1
  N  N21  1  0.13658800  0.86341200  0.25000000  1
  O  O22  1  0.47652300  0.64002700  0.11372900  1
  O  O23  1  0.35997300  0.52347700  0.38627100  1
  O  O24  1  0.52347700  0.35997300  0.88627100  1
  O  O25  1  0.64002700  0.47652300  0.61372900  1
  O  O26  1  0.20314200  0.98508600  0.81585200  1
  O  O27  1  0.01491400  0.79685800  0.68414800  1
  O  O28  1  0.79685800  0.01491400  0.18414800  1
  O  O29  1  0.98508600  0.20314200  0.31585200  1
  O  O30  1  0.46298500  0.67995400  0.80036000  1
  O  O31  1  0.32004600  0.53701500  0.69964000  1
  O  O32  1  0.53701500  0.32004600  0.19964000  1
  O  O33  1  0.67995400  0.46298500  0.30036000  1
  O  O34  1  0.31693100  0.91047700  0.52187600  1
  O  O35  1  0.08952300  0.68306900  0.97812400  1
  O  O36  1  0.68306900  0.08952300  0.47812400  1
  O  O37  1  0.91047700  0.31693100  0.02187600  1
  O  O38  1  0.73723800  0.81846900  0.04816700  1
  O  O39  1  0.18153100  0.26276200  0.45183300  1
  O  O40  1  0.26276200  0.18153100  0.95183300  1
  O  O41  1  0.81846900  0.73723800  0.54816700  1
  O  O42  1  0.51028900  0.96766800  0.84034500  1
  O  O43  1  0.03233200  0.48971100  0.65965500  1
  O  O44  1  0.48971100  0.03233200  0.15965500  1
  O  O45  1  0.96766800  0.51028900  0.34034500  1
  O  O46  1  0.79411200  0.62240700  0.83554800  1
  O  O47  1  0.37759300  0.20588800  0.66445200  1
  O  O48  1  0.20588800  0.37759300  0.16445200  1
  O  O49  1  0.62240700  0.79411200  0.33554800  1
