# generated using pymatgen
data_Yb6H40N8O49
_symmetry_space_group_name_H-M   'P 1'
_cell_length_a   10.25785800
_cell_length_b   10.56740327
_cell_length_c   11.48978366
_cell_angle_alpha   95.42282650
_cell_angle_beta   109.19264658
_cell_angle_gamma   111.57836930
_symmetry_Int_Tables_number   1
_chemical_formula_structural   Yb6H40N8O49
_chemical_formula_sum   'Yb6 H40 N8 O49'
_cell_volume   1060.40467365
_cell_formula_units_Z   1
loop_
 _symmetry_equiv_pos_site_id
 _symmetry_equiv_pos_as_xyz
  1  'x, y, z'
loop_
 _atom_site_type_symbol
 _atom_site_label
 _atom_site_symmetry_multiplicity
 _atom_site_fract_x
 _atom_site_fract_y
 _atom_site_fract_z
 _atom_site_occupancy
  Yb  Yb0  1  0.73515600  0.47417200  0.61281900  1
  Yb  Yb1  1  0.26484400  0.52582800  0.38718100  1
  Yb  Yb2  1  0.66102000  0.77035100  0.51857500  1
  Yb  Yb3  1  0.33898000  0.22964900  0.48142500  1
  Yb  Yb4  1  0.47511000  0.57078900  0.71295000  1
  Yb  Yb5  1  0.52489000  0.42921100  0.28705000  1
  H  H6  1  0.79910600  0.73222800  0.77628800  1
  H  H7  1  0.20089400  0.26777200  0.22371200  1
  H  H8  1  0.84809300  0.64645700  0.45215500  1
  H  H9  1  0.15190700  0.35354300  0.54784500  1
  H  H10  1  0.42451200  0.79258100  0.59120400  1
  H  H11  1  0.57548800  0.20741900  0.40879600  1
  H  H12  1  0.55014500  0.34120600  0.75953900  1
  H  H13  1  0.44985500  0.65879400  0.24046100  1
  H  H14  1  0.96477900  0.53852800  0.85980400  1
  H  H15  1  0.03522100  0.46147200  0.14019600  1
  H  H16  1  0.84009800  0.40461600  0.87116100  1
  H  H17  1  0.15990200  0.59538400  0.12883900  1
  H  H18  1  0.00228200  0.75300400  0.69182700  1
  H  H19  1  0.99771800  0.24699600  0.30817300  1
  H  H20  1  0.08768300  0.65164300  0.70601700  1
  H  H21  1  0.91231700  0.34835700  0.29398300  1
  H  H22  1  0.94516200  0.96820700  0.69426700  1
  H  H23  1  0.05483800  0.03179300  0.30573300  1
  H  H24  1  0.02951500  0.95122300  0.60729900  1
  H  H25  1  0.97048500  0.04877700  0.39270100  1
  H  H26  1  0.73555900  0.05493000  0.69431800  1
  H  H27  1  0.26444100  0.94507000  0.30568200  1
  H  H28  1  0.67971100  0.92739600  0.75740500  1
  H  H29  1  0.32028900  0.07260400  0.24259500  1
  H  H30  1  0.48895300  0.83925700  0.85235300  1
  H  H31  1  0.51104700  0.16074300  0.14764700  1
  H  H32  1  0.64618400  0.84313800  0.93436300  1
  H  H33  1  0.35381600  0.15686200  0.06563700  1
  H  H34  1  0.65583200  0.57848600  0.99769600  1
  H  H35  1  0.34416800  0.42151400  0.00230400  1
  H  H36  1  0.74533000  0.56706700  0.91173600  1
  H  H37  1  0.25467000  0.43293300  0.08826400  1
  H  H38  1  0.73429500  0.98871600  0.12472000  1
  H  H39  1  0.26570500  0.01128400  0.87528000  1
  H  H40  1  0.75770500  0.85595000  0.14999800  1
  H  H41  1  0.24229500  0.14405000  0.85000200  1
  H  H42  1  0.02271500  0.80487300  0.97217800  1
  H  H43  1  0.97728500  0.19512700  0.02782200  1
  H  H44  1  0.03347500  0.93738800  0.92257500  1
  H  H45  1  0.96652500  0.06261200  0.07742500  1
  N  N46  1  0.88992700  0.27539300  0.60228100  1
  N  N47  1  0.11007300  0.72460700  0.39771900  1
  N  N48  1  0.67724300  0.98163700  0.36262900  1
  N  N49  1  0.32275700  0.01836300  0.63737100  1
  N  N50  1  0.23763700  0.50759700  0.81668700  1
  N  N51  1  0.76236300  0.49240300  0.18331300  1
  N  N52  1  0.67654400  0.21161200  0.95565200  1
  N  N53  1  0.32345600  0.78838800  0.04434800  1
  O  O54  1  0.50000000  0.50000000  0.50000000  1
  O  O55  1  0.71046400  0.67410000  0.69492100  1
  O  O56  1  0.28953600  0.32590000  0.30507900  1
  O  O57  1  0.74595500  0.60634100  0.45310700  1
  O  O58  1  0.25404500  0.39365900  0.54689300  1
  O  O59  1  0.43805300  0.70912600  0.56534700  1
  O  O60  1  0.56194700  0.29087400  0.43465300  1
  O  O61  1  0.53139100  0.36610500  0.67700300  1
  O  O62  1  0.46860900  0.63389500  0.32299700  1
  O  O63  1  0.85637000  0.49345900  0.84441800  1
  O  O64  1  0.14363000  0.50654100  0.15558200  1
  O  O65  1  0.99239700  0.65825100  0.69936500  1
  O  O66  1  0.00760300  0.34174900  0.30063500  1
  O  O67  1  0.94548100  0.89879200  0.63166400  1
  O  O68  1  0.05451900  0.10120800  0.36833600  1
  O  O69  1  0.73170400  0.96167400  0.70025000  1
  O  O70  1  0.26829600  0.03832600  0.29975000  1
  O  O71  1  0.57113500  0.81745800  0.84494200  1
  O  O72  1  0.42886500  0.18254200  0.15505800  1
  O  O73  1  0.65704600  0.58326000  0.91284600  1
  O  O74  1  0.34295400  0.41674000  0.08715400  1
  O  O75  1  0.77004400  0.92218600  0.09638600  1
  O  O76  1  0.22995600  0.07781400  0.90361400  1
  O  O77  1  0.95921500  0.84868900  0.92625500  1
  O  O78  1  0.04078500  0.15131100  0.07374500  1
  O  O79  1  0.91283600  0.38425400  0.55980700  1
  O  O80  1  0.08716400  0.61574600  0.44019300  1
  O  O81  1  0.78857000  0.23772400  0.64778100  1
  O  O82  1  0.21143000  0.76227600  0.35221900  1
  O  O83  1  0.96682500  0.20693000  0.59903900  1
  O  O84  1  0.03317500  0.79307000  0.40096100  1
  O  O85  1  0.58599300  0.95169900  0.41821800  1
  O  O86  1  0.41400700  0.04830100  0.58178200  1
  O  O87  1  0.76112600  0.91515800  0.37239400  1
  O  O88  1  0.23887400  0.08484200  0.62760600  1
  O  O89  1  0.68704500  0.07384100  0.30044200  1
  O  O90  1  0.31295500  0.92615900  0.69955800  1
  O  O91  1  0.33404100  0.45380900  0.84353200  1
  O  O92  1  0.66595900  0.54619100  0.15646800  1
  O  O93  1  0.24992100  0.59247500  0.74525000  1
  O  O94  1  0.75007900  0.40752500  0.25475000  1
  O  O95  1  0.13608200  0.47678500  0.85994700  1
  O  O96  1  0.86391800  0.52321500  0.14005300  1
  O  O97  1  0.57348600  0.24844300  0.89771000  1
  O  O98  1  0.42651400  0.75155700  0.10229000  1
  O  O99  1  0.65956800  0.14255500  0.03674700  1
  O  O100  1  0.34043200  0.85744500  0.96325300  1
  O  O101  1  0.79546800  0.24456900  0.93157700  1
  O  O102  1  0.20453200  0.75543100  0.06842300  1
