# generated using pymatgen
data_Ba5(Si2O7)2
_symmetry_space_group_name_H-M   'P 1'
_cell_length_a   7.82575300
_cell_length_b   7.82575300
_cell_length_c   11.92069000
_cell_angle_alpha   90.00000000
_cell_angle_beta   90.00000000
_cell_angle_gamma   90.00000000
_symmetry_Int_Tables_number   1
_chemical_formula_structural   Ba5(Si2O7)2
_chemical_formula_sum   'Ba10 Si8 O28'
_cell_volume   730.05178467
_cell_formula_units_Z   2
loop_
 _symmetry_equiv_pos_site_id
 _symmetry_equiv_pos_as_xyz
  1  'x, y, z'
loop_
 _atom_site_type_symbol
 _atom_site_label
 _atom_site_symmetry_multiplicity
 _atom_site_fract_x
 _atom_site_fract_y
 _atom_site_fract_z
 _atom_site_occupancy
  Ba  Ba0  1  0.83956800  0.33956800  0.25000000  1
  Ba  Ba1  1  0.16043200  0.66043200  0.25000000  1
  Ba  Ba2  1  0.66043200  0.83956800  0.75000000  1
  Ba  Ba3  1  0.33956800  0.16043200  0.75000000  1
  Ba  Ba4  1  0.33956800  0.16043200  0.25000000  1
  Ba  Ba5  1  0.66043200  0.83956800  0.25000000  1
  Ba  Ba6  1  0.83956800  0.33956800  0.75000000  1
  Ba  Ba7  1  0.16043200  0.66043200  0.75000000  1
  Ba  Ba8  1  0.50000000  0.50000000  0.50000000  1
  Ba  Ba9  1  0.00000000  0.00000000  0.00000000  1
  Si  Si10  1  0.77392100  0.61518100  0.00000000  1
  Si  Si11  1  0.22607900  0.38481900  0.00000000  1
  Si  Si12  1  0.72607900  0.11518100  0.50000000  1
  Si  Si13  1  0.27392100  0.88481900  0.50000000  1
  Si  Si14  1  0.61518100  0.22607900  0.00000000  1
  Si  Si15  1  0.38481900  0.77392100  0.00000000  1
  Si  Si16  1  0.11518100  0.27392100  0.50000000  1
  Si  Si17  1  0.88481900  0.72607900  0.50000000  1
  O  O18  1  0.83060900  0.62568300  0.38650900  1
  O  O19  1  0.16939100  0.37431700  0.38650900  1
  O  O20  1  0.66939100  0.12568300  0.88650900  1
  O  O21  1  0.33060900  0.87431700  0.88650900  1
  O  O22  1  0.62568300  0.16939100  0.38650900  1
  O  O23  1  0.37431700  0.83060900  0.38650900  1
  O  O24  1  0.12568300  0.33060900  0.88650900  1
  O  O25  1  0.87431700  0.66939100  0.88650900  1
  O  O26  1  0.16939100  0.37431700  0.61349100  1
  O  O27  1  0.83060900  0.62568300  0.61349100  1
  O  O28  1  0.33060900  0.87431700  0.11349100  1
  O  O29  1  0.66939100  0.12568300  0.11349100  1
  O  O30  1  0.37431700  0.83060900  0.61349100  1
  O  O31  1  0.62568300  0.16939100  0.61349100  1
  O  O32  1  0.87431700  0.66939100  0.11349100  1
  O  O33  1  0.12568300  0.33060900  0.11349100  1
  O  O34  1  0.77446400  0.90959700  0.50000000  1
  O  O35  1  0.22553600  0.09040300  0.50000000  1
  O  O36  1  0.72553600  0.40959700  0.00000000  1
  O  O37  1  0.27446400  0.59040300  0.00000000  1
  O  O38  1  0.90959700  0.22553600  0.50000000  1
  O  O39  1  0.09040300  0.77446400  0.50000000  1
  O  O40  1  0.40959700  0.27446400  0.00000000  1
  O  O41  1  0.59040300  0.72553600  0.00000000  1
  O  O42  1  0.50000000  0.50000000  0.25188700  1
  O  O43  1  0.00000000  0.00000000  0.75188700  1
  O  O44  1  0.50000000  0.50000000  0.74811300  1
  O  O45  1  0.00000000  0.00000000  0.24811300  1
