# generated using pymatgen
data_BiC3S3(NO)9
_symmetry_space_group_name_H-M   'P 1'
_cell_length_a   16.29949000
_cell_length_b   7.60056700
_cell_length_c   16.80371031
_cell_angle_alpha   87.55437942
_cell_angle_beta   90.00000000
_cell_angle_gamma   90.00000000
_symmetry_Int_Tables_number   1
_chemical_formula_structural   BiC3S3(NO)9
_chemical_formula_sum   'Bi4 C12 S12 N36 O36'
_cell_volume   2079.83769481
_cell_formula_units_Z   4
loop_
 _symmetry_equiv_pos_site_id
 _symmetry_equiv_pos_as_xyz
  1  'x, y, z'
loop_
 _atom_site_type_symbol
 _atom_site_label
 _atom_site_symmetry_multiplicity
 _atom_site_fract_x
 _atom_site_fract_y
 _atom_site_fract_z
 _atom_site_occupancy
  Bi  Bi0  1  0.65274100  0.70684300  0.72405500  1
  Bi  Bi1  1  0.15274100  0.29315700  0.77594500  1
  Bi  Bi2  1  0.34725900  0.29315700  0.27594500  1
  Bi  Bi3  1  0.84725900  0.70684300  0.22405500  1
  C  C4  1  0.72908400  0.11428800  0.52228200  1
  C  C5  1  0.22908400  0.88571200  0.97771800  1
  C  C6  1  0.27091600  0.88571200  0.47771800  1
  C  C7  1  0.77091600  0.11428800  0.02228200  1
  C  C8  1  0.84270000  0.80451700  0.86736300  1
  C  C9  1  0.34270000  0.19548300  0.63263700  1
  C  C10  1  0.15730000  0.19548300  0.13263700  1
  C  C11  1  0.65730000  0.80451700  0.36736300  1
  C  C12  1  0.89636200  0.54524400  0.64841900  1
  C  C13  1  0.39636200  0.45475600  0.85158100  1
  C  C14  1  0.10363800  0.45475600  0.35158100  1
  C  C15  1  0.60363800  0.54524400  0.14841900  1
  S  S16  1  0.74026800  0.08907400  0.67710400  1
  S  S17  1  0.24026800  0.91092600  0.82289600  1
  S  S18  1  0.25973200  0.91092600  0.32289600  1
  S  S19  1  0.75973200  0.08907400  0.17710400  1
  S  S20  1  0.86831200  0.00657100  0.72885400  1
  S  S21  1  0.36831200  0.99342900  0.77114600  1
  S  S22  1  0.13168800  0.99342900  0.27114600  1
  S  S23  1  0.63168800  0.00657100  0.22885400  1
  S  S24  1  0.80026100  0.65589700  0.52911000  1
  S  S25  1  0.30026100  0.34410300  0.97089000  1
  S  S26  1  0.19973900  0.34410300  0.47089000  1
  S  S27  1  0.69973900  0.65589700  0.02911000  1
  N  N28  1  0.77318500  0.08212200  0.58566900  1
  N  N29  1  0.27318500  0.91787800  0.91433100  1
  N  N30  1  0.22681500  0.91787800  0.41433100  1
  N  N31  1  0.72681500  0.08212200  0.08566900  1
  N  N32  1  0.69737300  0.13841700  0.45902500  1
  N  N33  1  0.19737300  0.86158300  0.04097500  1
  N  N34  1  0.30262700  0.86158300  0.54097500  1
  N  N35  1  0.80262700  0.13841700  0.95902500  1
  N  N36  1  0.82661900  0.70911300  0.92301400  1
  N  N37  1  0.32661900  0.29088700  0.57698600  1
  N  N38  1  0.17338100  0.29088700  0.07698600  1
  N  N39  1  0.67338100  0.70911300  0.42301400  1
  N  N40  1  0.86624100  0.90349000  0.80885100  1
  N  N41  1  0.36624100  0.09651000  0.69114900  1
  N  N42  1  0.13375900  0.09651000  0.19114900  1
  N  N43  1  0.63375900  0.90349000  0.30885100  1
  N  N44  1  0.87837400  0.62976100  0.58290500  1
  N  N45  1  0.37837400  0.37023900  0.91709500  1
  N  N46  1  0.12162600  0.37023900  0.41709500  1
  N  N47  1  0.62162600  0.62976100  0.08290500  1
  N  N48  1  0.91080700  0.46723600  0.70949100  1
  N  N49  1  0.41080700  0.53276400  0.79050900  1
  N  N50  1  0.08919300  0.53276400  0.29050900  1
  N  N51  1  0.58919300  0.46723600  0.20949100  1
  N  N52  1  0.51697400  0.69384200  0.58750000  1
  N  N53  1  0.01697400  0.30615800  0.91250000  1
  N  N54  1  0.48302600  0.30615800  0.41250000  1
  N  N55  1  0.98302600  0.69384200  0.08750000  1
  N  N56  1  0.56687700  0.86609800  0.85003200  1
  N  N57  1  0.06687700  0.13390200  0.64996800  1
  N  N58  1  0.43312300  0.13390200  0.14996800  1
  N  N59  1  0.93312300  0.86609800  0.35003200  1
  N  N60  1  0.64610300  0.38999200  0.82110200  1
  N  N61  1  0.14610300  0.61000800  0.67889800  1
  N  N62  1  0.35389700  0.61000800  0.17889800  1
  N  N63  1  0.85389700  0.38999200  0.32110200  1
  O  O64  1  0.60321300  0.69098400  0.60279300  1
  O  O65  1  0.10321300  0.30901600  0.89720700  1
  O  O66  1  0.39678700  0.30901600  0.39720700  1
  O  O67  1  0.89678700  0.69098400  0.10279300  1
  O  O68  1  0.49855300  0.69810700  0.51747100  1
  O  O69  1  0.99855300  0.30189300  0.98252900  1
  O  O70  1  0.50144700  0.30189300  0.48252900  1
  O  O71  1  0.00144700  0.69810700  0.01747100  1
  O  O72  1  0.47251700  0.69229300  0.64637000  1
  O  O73  1  0.97251700  0.30770700  0.85363000  1
  O  O74  1  0.52748300  0.30770700  0.35363000  1
  O  O75  1  0.02748300  0.69229300  0.14637000  1
  O  O76  1  0.55326600  0.88907100  0.77153500  1
  O  O77  1  0.05326600  0.11092900  0.72846500  1
  O  O78  1  0.44673400  0.11092900  0.22846500  1
  O  O79  1  0.94673400  0.88907100  0.27153500  1
  O  O80  1  0.63341300  0.78557000  0.86841400  1
  O  O81  1  0.13341300  0.21443000  0.63158600  1
  O  O82  1  0.36658700  0.21443000  0.13158600  1
  O  O83  1  0.86658700  0.78557000  0.36841400  1
  O  O84  1  0.51716100  0.91895500  0.89723200  1
  O  O85  1  0.01716100  0.08104500  0.60276800  1
  O  O86  1  0.48283900  0.08104500  0.10276800  1
  O  O87  1  0.98283900  0.91895500  0.39723200  1
  O  O88  1  0.58545600  0.47167500  0.77875600  1
  O  O89  1  0.08545600  0.52832500  0.72124400  1
  O  O90  1  0.41454400  0.52832500  0.22124400  1
  O  O91  1  0.91454400  0.47167500  0.27875600  1
  O  O92  1  0.71832200  0.44395900  0.80650800  1
  O  O93  1  0.21832200  0.55604100  0.69349200  1
  O  O94  1  0.28167800  0.55604100  0.19349200  1
  O  O95  1  0.78167800  0.44395900  0.30650800  1
  O  O96  1  0.62740000  0.27224800  0.86906600  1
  O  O97  1  0.12740000  0.72775200  0.63093400  1
  O  O98  1  0.37260000  0.72775200  0.13093400  1
  O  O99  1  0.87260000  0.27224800  0.36906600  1
