# generated using pymatgen
data_Y5Si4
_symmetry_space_group_name_H-M   'P 1'
_cell_length_a   7.44310600
_cell_length_b   7.71029100
_cell_length_c   14.62712100
_cell_angle_alpha   90.00000000
_cell_angle_beta   90.00000000
_cell_angle_gamma   90.00000000
_symmetry_Int_Tables_number   1
_chemical_formula_structural   Y5Si4
_chemical_formula_sum   'Y20 Si16'
_cell_volume   839.42872664
_cell_formula_units_Z   4
loop_
 _symmetry_equiv_pos_site_id
 _symmetry_equiv_pos_as_xyz
  1  'x, y, z'
loop_
 _atom_site_type_symbol
 _atom_site_label
 _atom_site_symmetry_multiplicity
 _atom_site_fract_x
 _atom_site_fract_y
 _atom_site_fract_z
 _atom_site_occupancy
  Y  Y0  1  0.68125500  0.17959300  0.62279000  1
  Y  Y1  1  0.18125500  0.32040700  0.87721000  1
  Y  Y2  1  0.31874500  0.82040700  0.12279000  1
  Y  Y3  1  0.81874500  0.67959300  0.37721000  1
  Y  Y4  1  0.31874500  0.82040700  0.37721000  1
  Y  Y5  1  0.81874500  0.67959300  0.12279000  1
  Y  Y6  1  0.68125500  0.17959300  0.87721000  1
  Y  Y7  1  0.18125500  0.32040700  0.62279000  1
  Y  Y8  1  0.52757800  0.68280500  0.59848000  1
  Y  Y9  1  0.02757800  0.81719500  0.90152000  1
  Y  Y10  1  0.47242200  0.31719500  0.09848000  1
  Y  Y11  1  0.97242200  0.18280500  0.40152000  1
  Y  Y12  1  0.47242200  0.31719500  0.40152000  1
  Y  Y13  1  0.97242200  0.18280500  0.09848000  1
  Y  Y14  1  0.52757800  0.68280500  0.90152000  1
  Y  Y15  1  0.02757800  0.81719500  0.59848000  1
  Y  Y16  1  0.84976400  0.51123300  0.75000000  1
  Y  Y17  1  0.34976400  0.98876700  0.75000000  1
  Y  Y18  1  0.15023600  0.48876700  0.25000000  1
  Y  Y19  1  0.65023600  0.01123300  0.25000000  1
  Si  Si20  1  0.64664000  0.97142600  0.45973000  1
  Si  Si21  1  0.14664000  0.52857400  0.04027000  1
  Si  Si22  1  0.35336000  0.02857400  0.95973000  1
  Si  Si23  1  0.85336000  0.47142600  0.54027000  1
  Si  Si24  1  0.35336000  0.02857400  0.54027000  1
  Si  Si25  1  0.85336000  0.47142600  0.95973000  1
  Si  Si26  1  0.64664000  0.97142600  0.04027000  1
  Si  Si27  1  0.14664000  0.52857400  0.45973000  1
  Si  Si28  1  0.47528800  0.39574400  0.75000000  1
  Si  Si29  1  0.97528800  0.10425600  0.75000000  1
  Si  Si30  1  0.52471200  0.60425600  0.25000000  1
  Si  Si31  1  0.02471200  0.89574400  0.25000000  1
  Si  Si32  1  0.73279700  0.87315300  0.75000000  1
  Si  Si33  1  0.23279700  0.62684700  0.75000000  1
  Si  Si34  1  0.26720300  0.12684700  0.25000000  1
  Si  Si35  1  0.76720300  0.37315300  0.25000000  1
