# generated using pymatgen
data_Li3V2BP4H2O17
_symmetry_space_group_name_H-M   'P 1'
_cell_length_a   8.40023300
_cell_length_b   9.55429282
_cell_length_c   15.72046359
_cell_angle_alpha   87.77013873
_cell_angle_beta   90.00000000
_cell_angle_gamma   90.00000000
_symmetry_Int_Tables_number   1
_chemical_formula_structural   Li3V2BP4H2O17
_chemical_formula_sum   'Li12 V8 B4 P16 H8 O68'
_cell_volume   1260.74207006
_cell_formula_units_Z   4
loop_
 _symmetry_equiv_pos_site_id
 _symmetry_equiv_pos_as_xyz
  1  'x, y, z'
loop_
 _atom_site_type_symbol
 _atom_site_label
 _atom_site_symmetry_multiplicity
 _atom_site_fract_x
 _atom_site_fract_y
 _atom_site_fract_z
 _atom_site_occupancy
  Li  Li0  1  0.34703600  0.63463400  0.51559700  1
  Li  Li1  1  0.84703600  0.86536600  0.98440300  1
  Li  Li2  1  0.65296400  0.36536600  0.48440300  1
  Li  Li3  1  0.15296400  0.13463400  0.01559700  1
  Li  Li4  1  0.64034100  0.78035400  0.56122300  1
  Li  Li5  1  0.14034100  0.71964600  0.93877700  1
  Li  Li6  1  0.35965900  0.21964600  0.43877700  1
  Li  Li7  1  0.85965900  0.28035400  0.06122300  1
  Li  Li8  1  0.40164200  0.10568300  0.23863000  1
  Li  Li9  1  0.90164200  0.39431700  0.26137000  1
  Li  Li10  1  0.59835800  0.89431700  0.76137000  1
  Li  Li11  1  0.09835800  0.60568300  0.73863000  1
  V  V12  1  0.47942300  0.42145000  0.29269400  1
  V  V13  1  0.97942300  0.07855000  0.20730600  1
  V  V14  1  0.52057700  0.57855000  0.70730600  1
  V  V15  1  0.02057700  0.92145000  0.79269400  1
  V  V16  1  0.51403100  0.75463400  0.00167300  1
  V  V17  1  0.01403100  0.74536600  0.49832700  1
  V  V18  1  0.48596900  0.24536600  0.99832700  1
  V  V19  1  0.98596900  0.25463400  0.50167300  1
  B  B20  1  0.70216400  0.89718600  0.28474700  1
  B  B21  1  0.20216400  0.60281400  0.21525300  1
  B  B22  1  0.29783600  0.10281400  0.71525300  1
  B  B23  1  0.79783600  0.39718600  0.78474700  1
  P  P24  1  0.65320100  0.67199900  0.39830500  1
  P  P25  1  0.15320100  0.82800100  0.10169500  1
  P  P26  1  0.34679900  0.32800100  0.60169500  1
  P  P27  1  0.84679900  0.17199900  0.89830500  1
  P  P28  1  0.71799300  0.15164900  0.35647300  1
  P  P29  1  0.21799300  0.34835100  0.14352700  1
  P  P30  1  0.28200700  0.84835100  0.64352700  1
  P  P31  1  0.78200700  0.65164900  0.85647300  1
  P  P32  1  0.14429100  0.48892900  0.37902500  1
  P  P33  1  0.64429100  0.01107100  0.12097500  1
  P  P34  1  0.85570900  0.51107100  0.62097500  1
  P  P35  1  0.35570900  0.98892900  0.87902500  1
  P  P36  1  0.66761800  0.49384500  0.11658100  1
  P  P37  1  0.16761800  0.00615500  0.38341900  1
  P  P38  1  0.33238200  0.50615500  0.88341900  1
  P  P39  1  0.83238200  0.99384500  0.61658100  1
  H  H40  1  0.89283900  0.61458500  0.07757600  1
  H  H41  1  0.39283900  0.88541500  0.42242400  1
  H  H42  1  0.10716100  0.38541500  0.92242400  1
  H  H43  1  0.60716100  0.11458500  0.57757600  1
  H  H44  1  0.43573800  0.67037200  0.21888000  1
  H  H45  1  0.93573800  0.82962800  0.28112000  1
  H  H46  1  0.56426200  0.32962800  0.78112000  1
  H  H47  1  0.06426200  0.17037200  0.71888000  1
  O  O48  1  0.32001000  0.82533500  0.06427000  1
  O  O49  1  0.82001000  0.67466500  0.43573000  1
  O  O50  1  0.67999000  0.17466500  0.93573000  1
  O  O51  1  0.17999000  0.32533500  0.56427000  1
  O  O52  1  0.52655800  0.73224200  0.45814700  1
  O  O53  1  0.02655800  0.76775800  0.04185300  1
  O  O54  1  0.47344200  0.26775800  0.54185300  1
  O  O55  1  0.97344200  0.23224200  0.95814700  1
  O  O56  1  0.61316700  0.51577500  0.38062200  1
  O  O57  1  0.11316700  0.98422500  0.11937800  1
  O  O58  1  0.38683300  0.48422500  0.61937800  1
  O  O59  1  0.88683300  0.01577500  0.88062200  1
  O  O60  1  0.64805400  0.75605500  0.30915500  1
  O  O61  1  0.14805400  0.74394500  0.19084500  1
  O  O62  1  0.35194600  0.24394500  0.69084500  1
  O  O63  1  0.85194600  0.25605500  0.80915500  1
  O  O64  1  0.72717300  0.69553500  0.94451100  1
  O  O65  1  0.22717300  0.80446500  0.55548900  1
  O  O66  1  0.27282700  0.30446500  0.05548900  1
  O  O67  1  0.77282700  0.19553500  0.44451100  1
  O  O68  1  0.34287100  0.30788900  0.21304100  1
  O  O69  1  0.84287100  0.19211100  0.28695900  1
  O  O70  1  0.65712900  0.69211100  0.78695900  1
  O  O71  1  0.15712900  0.80788900  0.71304100  1
  O  O72  1  0.55401700  0.22203800  0.33699500  1
  O  O73  1  0.05401700  0.27796200  0.16300500  1
  O  O74  1  0.44598300  0.77796200  0.66300500  1
  O  O75  1  0.94598300  0.72203800  0.83699500  1
  O  O76  1  0.69338800  0.98906300  0.35839000  1
  O  O77  1  0.19338800  0.51093700  0.14161000  1
  O  O78  1  0.30661200  0.01093700  0.64161000  1
  O  O79  1  0.80661200  0.48906300  0.85839000  1
  O  O80  1  0.66393900  0.88897900  0.06127700  1
  O  O81  1  0.16393900  0.61102100  0.43872300  1
  O  O82  1  0.33606100  0.11102100  0.93872300  1
  O  O83  1  0.83606100  0.38897900  0.56127700  1
  O  O84  1  0.49612900  0.89230200  0.90226700  1
  O  O85  1  0.99612900  0.60769800  0.59773300  1
  O  O86  1  0.50387100  0.10769800  0.09773300  1
  O  O87  1  0.00387100  0.39230200  0.40226700  1
  O  O88  1  0.30289100  0.40566700  0.37887800  1
  O  O89  1  0.80289100  0.09433300  0.12112200  1
  O  O90  1  0.69710900  0.59433300  0.62112200  1
  O  O91  1  0.19710900  0.90566700  0.87887800  1
  O  O92  1  0.09764400  0.54171600  0.28499800  1
  O  O93  1  0.59764400  0.95828400  0.21500200  1
  O  O94  1  0.90235600  0.45828400  0.71500200  1
  O  O95  1  0.40235600  0.04171600  0.78499800  1
  O  O96  1  0.55698800  0.61685700  0.09835600  1
  O  O97  1  0.05698800  0.88314300  0.40164400  1
  O  O98  1  0.44301200  0.38314300  0.90164400  1
  O  O99  1  0.94301200  0.11685700  0.59835600  1
  O  O100  1  0.35856200  0.62851100  0.94253500  1
  O  O101  1  0.85856200  0.87148900  0.55746500  1
  O  O102  1  0.64143800  0.37148900  0.05746500  1
  O  O103  1  0.14143800  0.12851100  0.44253500  1
  O  O104  1  0.66097000  0.44083400  0.21101400  1
  O  O105  1  0.16097000  0.05916600  0.28898600  1
  O  O106  1  0.33903000  0.55916600  0.78898600  1
  O  O107  1  0.83903000  0.94083400  0.71101400  1
  O  O108  1  0.85289800  0.52810200  0.10712600  1
  O  O109  1  0.35289800  0.97189800  0.39287400  1
  O  O110  1  0.14710200  0.47189800  0.89287400  1
  O  O111  1  0.64710200  0.02810200  0.60712600  1
  O  O112  1  0.36562800  0.60578800  0.25090600  1
  O  O113  1  0.86562800  0.89421200  0.24909400  1
  O  O114  1  0.63437200  0.39421200  0.74909400  1
  O  O115  1  0.13437200  0.10578800  0.75090600  1
