# generated using pymatgen
data_B10H16CSe
_symmetry_space_group_name_H-M   'P 1'
_cell_length_a   8.49486600
_cell_length_b   11.24298000
_cell_length_c   15.18839805
_cell_angle_alpha   90.00000000
_cell_angle_beta   102.94515696
_cell_angle_gamma   90.00000000
_symmetry_Int_Tables_number   1
_chemical_formula_structural   B10H16CSe
_chemical_formula_sum   'B40 H64 C4 Se4'
_cell_volume   1413.74029654
_cell_formula_units_Z   4
loop_
 _symmetry_equiv_pos_site_id
 _symmetry_equiv_pos_as_xyz
  1  'x, y, z'
loop_
 _atom_site_type_symbol
 _atom_site_label
 _atom_site_symmetry_multiplicity
 _atom_site_fract_x
 _atom_site_fract_y
 _atom_site_fract_z
 _atom_site_occupancy
  B  B0  1  0.28727400  0.32981300  0.75795100  1
  B  B1  1  0.71272600  0.82981300  0.74204900  1
  B  B2  1  0.71272600  0.67018700  0.24204900  1
  B  B3  1  0.28727400  0.17018700  0.25795100  1
  B  B4  1  0.12368900  0.39386900  0.68097900  1
  B  B5  1  0.87631100  0.89386900  0.81902100  1
  B  B6  1  0.87631100  0.60613100  0.31902100  1
  B  B7  1  0.12368900  0.10613100  0.18097900  1
  B  B8  1  0.28870500  0.33338000  0.64166000  1
  B  B9  1  0.71129500  0.83338000  0.85834000  1
  B  B10  1  0.71129500  0.66662000  0.35834000  1
  B  B11  1  0.28870500  0.16662000  0.14166000  1
  B  B12  1  0.38787800  0.28449800  0.21196700  1
  B  B13  1  0.61212200  0.78449800  0.28803300  1
  B  B14  1  0.61212200  0.71550200  0.78803300  1
  B  B15  1  0.38787800  0.21550200  0.71196700  1
  B  B16  1  0.09160600  0.29873700  0.76957500  1
  B  B17  1  0.90839400  0.79873700  0.73042500  1
  B  B18  1  0.90839400  0.70126300  0.23042500  1
  B  B19  1  0.09160600  0.20126300  0.26957500  1
  B  B20  1  0.94777500  0.30816300  0.66128100  1
  B  B21  1  0.05222500  0.80816300  0.83871900  1
  B  B22  1  0.05222500  0.69183700  0.33871900  1
  B  B23  1  0.94777500  0.19183700  0.16128100  1
  B  B24  1  0.09112000  0.31197000  0.57542700  1
  B  B25  1  0.90888000  0.81197000  0.92457300  1
  B  B26  1  0.90888000  0.68803000  0.42457300  1
  B  B27  1  0.09112000  0.18803000  0.07542700  1
  B  B28  1  0.26833100  0.18819400  0.60160800  1
  B  B29  1  0.73166900  0.68819400  0.89839200  1
  B  B30  1  0.73166900  0.81180600  0.39839200  1
  B  B31  1  0.26833100  0.31180600  0.10160800  1
  B  B32  1  0.27385300  0.41187500  0.19388600  1
  B  B33  1  0.72614700  0.91187500  0.30611400  1
  B  B34  1  0.72614700  0.58812500  0.80611400  1
  B  B35  1  0.27385300  0.08812500  0.69388600  1
  B  B36  1  0.25826200  0.31787100  0.28777500  1
  B  B37  1  0.74173800  0.81787100  0.21222500  1
  B  B38  1  0.74173800  0.68212900  0.71222500  1
  B  B39  1  0.25826200  0.18212900  0.78777500  1
  H  H40  1  0.68289200  0.28229500  0.91684500  1
  H  H41  1  0.31710800  0.78229500  0.58315500  1
  H  H42  1  0.31710800  0.71770500  0.08315500  1
  H  H43  1  0.68289200  0.21770500  0.41684500  1
  H  H44  1  0.76689400  0.14134700  0.96056300  1
  H  H45  1  0.23310600  0.64134700  0.53943700  1
  H  H46  1  0.23310600  0.85865300  0.03943700  1
  H  H47  1  0.76689400  0.35865300  0.46056300  1
  H  H48  1  0.62794900  0.21879300  0.01471400  1
  H  H49  1  0.37205100  0.71879300  0.48528600  1
  H  H50  1  0.37205100  0.78120700  0.98528600  1
  H  H51  1  0.62794900  0.28120700  0.51471400  1
  H  H52  1  0.36256100  0.39201100  0.81620800  1
  H  H53  1  0.63743900  0.89201100  0.68379200  1
  H  H54  1  0.63743900  0.60798900  0.18379200  1
  H  H55  1  0.36256100  0.10798900  0.31620800  1
  H  H56  1  0.89278500  0.50063300  0.31837600  1
  H  H57  1  0.10721500  0.00063300  0.18162400  1
  H  H58  1  0.10721500  0.49936700  0.68162400  1
  H  H59  1  0.89278500  0.99936700  0.81837600  1
  H  H60  1  0.36511600  0.39888000  0.60524800  1
  H  H61  1  0.63488400  0.89888000  0.89475200  1
  H  H62  1  0.63488400  0.60112000  0.39475200  1
  H  H63  1  0.36511600  0.10112000  0.10524800  1
  H  H64  1  0.53170900  0.29041500  0.23157900  1
  H  H65  1  0.46829100  0.79041500  0.26842100  1
  H  H66  1  0.46829100  0.70958500  0.76842100  1
  H  H67  1  0.53170900  0.20958500  0.73157900  1
  H  H68  1  0.04706600  0.33725200  0.83308600  1
  H  H69  1  0.95293400  0.83725200  0.66691400  1
  H  H70  1  0.95293400  0.66274800  0.16691400  1
  H  H71  1  0.04706600  0.16274800  0.33308600  1
  H  H72  1  0.82345900  0.35892300  0.65905900  1
  H  H73  1  0.17654100  0.85892300  0.84094100  1
  H  H74  1  0.17654100  0.64107700  0.34094100  1
  H  H75  1  0.82345900  0.14107700  0.15905900  1
  H  H76  1  0.06352100  0.36915000  0.50742100  1
  H  H77  1  0.93647900  0.86915000  0.99257900  1
  H  H78  1  0.93647900  0.63085000  0.49257900  1
  H  H79  1  0.06352100  0.13085000  0.00742100  1
  H  H80  1  0.31433200  0.34724400  0.03775900  1
  H  H81  1  0.68566800  0.84724400  0.46224100  1
  H  H82  1  0.68566800  0.65275600  0.96224100  1
  H  H83  1  0.31433200  0.15275600  0.53775900  1
  H  H84  1  0.68294500  0.48704600  0.80357300  1
  H  H85  1  0.31705500  0.98704600  0.69642700  1
  H  H86  1  0.31705500  0.51295400  0.19642700  1
  H  H87  1  0.68294500  0.01295400  0.30357300  1
  H  H88  1  0.30679000  0.35653800  0.36201400  1
  H  H89  1  0.69321000  0.85653800  0.13798600  1
  H  H90  1  0.69321000  0.64346200  0.63798600  1
  H  H91  1  0.30679000  0.14346200  0.86201400  1
  H  H92  1  0.98007600  0.27590000  0.22931600  1
  H  H93  1  0.01992400  0.77590000  0.27068400  1
  H  H94  1  0.01992400  0.72410000  0.77068400  1
  H  H95  1  0.98007600  0.22410000  0.72931600  1
  H  H96  1  0.16868800  0.39939400  0.11659100  1
  H  H97  1  0.83131200  0.89939400  0.38340900  1
  H  H98  1  0.83131200  0.60060600  0.88340900  1
  H  H99  1  0.16868800  0.10060600  0.61659100  1
  H  H100  1  0.16126800  0.40138100  0.24297100  1
  H  H101  1  0.83873200  0.90138100  0.25702900  1
  H  H102  1  0.83873200  0.59861900  0.75702900  1
  H  H103  1  0.16126800  0.09861900  0.74297100  1
  C  C104  1  0.72366400  0.22800500  0.97788700  1
  C  C105  1  0.27633600  0.72800500  0.52211300  1
  C  C106  1  0.27633600  0.77199500  0.02211300  1
  C  C107  1  0.72366400  0.27199500  0.47788700  1
  Se  Se108  1  0.90359400  0.31635500  0.05495000  1
  Se  Se109  1  0.09640600  0.81635500  0.44505000  1
  Se  Se110  1  0.09640600  0.68364500  0.94505000  1
  Se  Se111  1  0.90359400  0.18364500  0.55495000  1
