# generated using pymatgen
data_Co4GeP4(H6O11)2
_symmetry_space_group_name_H-M   'P 1'
_cell_length_a   6.53432172
_cell_length_b   7.62538385
_cell_length_c   16.56105800
_cell_angle_alpha   90.00000000
_cell_angle_beta   90.00000000
_cell_angle_gamma   97.61993819
_symmetry_Int_Tables_number   1
_chemical_formula_structural   Co4GeP4(H6O11)2
_chemical_formula_sum   'Co8 Ge2 P8 H24 O44'
_cell_volume   817.89624145
_cell_formula_units_Z   2
loop_
 _symmetry_equiv_pos_site_id
 _symmetry_equiv_pos_as_xyz
  1  'x, y, z'
loop_
 _atom_site_type_symbol
 _atom_site_label
 _atom_site_symmetry_multiplicity
 _atom_site_fract_x
 _atom_site_fract_y
 _atom_site_fract_z
 _atom_site_occupancy
  Co  Co0  1  0.80650400  0.23658400  0.35459700  1
  Co  Co1  1  0.30650400  0.73658400  0.14540300  1
  Co  Co2  1  0.19349600  0.76341600  0.64540300  1
  Co  Co3  1  0.69349600  0.26341600  0.85459700  1
  Co  Co4  1  0.56809800  0.47282400  0.23196100  1
  Co  Co5  1  0.06809800  0.97282400  0.26803900  1
  Co  Co6  1  0.43190200  0.52717600  0.76803900  1
  Co  Co7  1  0.93190200  0.02717600  0.73196100  1
  Ge  Ge8  1  0.50000000  0.00000000  0.50000000  1
  Ge  Ge9  1  0.00000000  0.50000000  0.00000000  1
  P  P10  1  0.32263700  0.28026400  0.38925400  1
  P  P11  1  0.82263700  0.78026400  0.11074600  1
  P  P12  1  0.67736300  0.71973600  0.61074600  1
  P  P13  1  0.17736300  0.21973600  0.88925400  1
  P  P14  1  0.54147900  0.86875400  0.31147400  1
  P  P15  1  0.04147900  0.36875400  0.18852600  1
  P  P16  1  0.45852100  0.13124600  0.68852600  1
  P  P17  1  0.95852100  0.63124600  0.81147400  1
  H  H18  1  0.59622300  0.33022700  0.09404400  1
  H  H19  1  0.09622300  0.83022700  0.40595600  1
  H  H20  1  0.40377700  0.66977300  0.90595600  1
  H  H21  1  0.90377700  0.16977300  0.59404400  1
  H  H22  1  0.57180100  0.16407400  0.15151100  1
  H  H23  1  0.07180100  0.66407400  0.34848900  1
  H  H24  1  0.42819900  0.83592600  0.84848900  1
  H  H25  1  0.92819900  0.33592600  0.65151100  1
  H  H26  1  0.77720000  0.49277900  0.48613000  1
  H  H27  1  0.27720000  0.99277900  0.01387000  1
  H  H28  1  0.22280000  0.50722100  0.51387000  1
  H  H29  1  0.72280000  0.00722100  0.98613000  1
  H  H30  1  0.75503100  0.56970700  0.39930200  1
  H  H31  1  0.25503100  0.06970700  0.10069800  1
  H  H32  1  0.24496900  0.43029300  0.60069800  1
  H  H33  1  0.74496900  0.93029300  0.89930200  1
  H  H34  1  0.76010600  0.23303900  0.49824100  1
  H  H35  1  0.26010600  0.73303900  0.00175900  1
  H  H36  1  0.23989400  0.76696100  0.50175900  1
  H  H37  1  0.73989400  0.26696100  0.99824100  1
  H  H38  1  0.40209100  0.56555900  0.37560600  1
  H  H39  1  0.90209100  0.06555900  0.12439400  1
  H  H40  1  0.59790900  0.43444100  0.62439400  1
  H  H41  1  0.09790900  0.93444100  0.87560600  1
  O  O42  1  0.52887400  0.28111200  0.14332500  1
  O  O43  1  0.02887400  0.78111200  0.35667500  1
  O  O44  1  0.47112600  0.71888800  0.85667500  1
  O  O45  1  0.97112600  0.21888800  0.64332500  1
  O  O46  1  0.82087300  0.48121400  0.42942100  1
  O  O47  1  0.32087300  0.98121400  0.07057900  1
  O  O48  1  0.17912700  0.51878600  0.57057900  1
  O  O49  1  0.67912700  0.01878600  0.92942100  1
  O  O50  1  0.11915700  0.18073300  0.35690900  1
  O  O51  1  0.61915700  0.68073300  0.14309100  1
  O  O52  1  0.88084300  0.81926700  0.64309100  1
  O  O53  1  0.38084300  0.31926700  0.85690900  1
  O  O54  1  0.50141800  0.28604700  0.32805900  1
  O  O55  1  0.00141800  0.78604700  0.17194100  1
  O  O56  1  0.49858200  0.71395300  0.67194100  1
  O  O57  1  0.99858200  0.21395300  0.82805900  1
  O  O58  1  0.57238300  0.66918200  0.31821700  1
  O  O59  1  0.07238300  0.16918200  0.18178300  1
  O  O60  1  0.42761700  0.33081800  0.68178300  1
  O  O61  1  0.92761700  0.83081800  0.81821700  1
  O  O62  1  0.74589000  0.99121900  0.29517400  1
  O  O63  1  0.24589000  0.49121900  0.20482600  1
  O  O64  1  0.25411000  0.00878100  0.70482600  1
  O  O65  1  0.75411000  0.50878100  0.79517400  1
  O  O66  1  0.87532900  0.39634200  0.25376900  1
  O  O67  1  0.37532900  0.89634200  0.24623100  1
  O  O68  1  0.12467100  0.60365800  0.74623100  1
  O  O69  1  0.62467100  0.10365800  0.75376900  1
  O  O70  1  0.76196900  0.12005300  0.47087200  1
  O  O71  1  0.26196900  0.62005300  0.02912800  1
  O  O72  1  0.23803100  0.87994700  0.52912800  1
  O  O73  1  0.73803100  0.37994700  0.97087200  1
  O  O74  1  0.29026600  0.48320400  0.40621500  1
  O  O75  1  0.79026600  0.98320400  0.09378500  1
  O  O76  1  0.70973400  0.51679600  0.59378500  1
  O  O77  1  0.20973400  0.01679600  0.90621500  1
  O  O78  1  0.37912400  0.21231100  0.47372000  1
  O  O79  1  0.87912400  0.71231100  0.02628000  1
  O  O80  1  0.62087600  0.78768900  0.52628000  1
  O  O81  1  0.12087600  0.28768900  0.97372000  1
  O  O82  1  0.44370500  0.91412000  0.39387400  1
  O  O83  1  0.94370500  0.41412000  0.10612600  1
  O  O84  1  0.55629500  0.08588000  0.60612600  1
  O  O85  1  0.05629500  0.58588000  0.89387400  1
