# generated using pymatgen
data_Nd6InFe13
_symmetry_space_group_name_H-M   'P 1'
_cell_length_a   8.09479000
_cell_length_b   8.09479000
_cell_length_c   13.12227260
_cell_angle_alpha   107.96506486
_cell_angle_beta   107.96506486
_cell_angle_gamma   90.00000000
_symmetry_Int_Tables_number   1
_chemical_formula_structural   Nd6InFe13
_chemical_formula_sum   'Nd12 In2 Fe26'
_cell_volume   773.73313426
_cell_formula_units_Z   2
loop_
 _symmetry_equiv_pos_site_id
 _symmetry_equiv_pos_as_xyz
  1  'x, y, z'
loop_
 _atom_site_type_symbol
 _atom_site_label
 _atom_site_symmetry_multiplicity
 _atom_site_fract_x
 _atom_site_fract_y
 _atom_site_fract_z
 _atom_site_occupancy
  Nd  Nd0  1  0.60432700  0.60432700  0.20865400  1
  Nd  Nd1  1  0.10432700  0.10432700  0.20865400  1
  Nd  Nd2  1  0.39567300  0.39567300  0.79134600  1
  Nd  Nd3  1  0.89567300  0.89567300  0.79134600  1
  Nd  Nd4  1  0.97891400  0.47891400  0.63097500  1
  Nd  Nd5  1  0.65206000  0.15206000  0.63097500  1
  Nd  Nd6  1  0.15206000  0.97891400  0.63097500  1
  Nd  Nd7  1  0.47891400  0.65206000  0.63097500  1
  Nd  Nd8  1  0.02108600  0.52108600  0.36902500  1
  Nd  Nd9  1  0.34794000  0.84794000  0.36902500  1
  Nd  Nd10  1  0.84794000  0.02108600  0.36902500  1
  Nd  Nd11  1  0.52108600  0.34794000  0.36902500  1
  In  In12  1  0.25000000  0.25000000  0.50000000  1
  In  In13  1  0.75000000  0.75000000  0.50000000  1
  Fe  Fe14  1  0.00000000  0.50000000  0.00000000  1
  Fe  Fe15  1  0.50000000  0.00000000  0.00000000  1
  Fe  Fe16  1  0.71003400  0.56650500  0.00000000  1
  Fe  Fe17  1  0.28996600  0.43349500  0.00000000  1
  Fe  Fe18  1  0.78996600  0.06650500  0.00000000  1
  Fe  Fe19  1  0.21003400  0.93349500  0.00000000  1
  Fe  Fe20  1  0.56650500  0.28996600  0.00000000  1
  Fe  Fe21  1  0.43349500  0.71003400  0.00000000  1
  Fe  Fe22  1  0.06650500  0.21003400  0.00000000  1
  Fe  Fe23  1  0.93349500  0.78996600  0.00000000  1
  Fe  Fe24  1  0.12067100  0.62067100  0.88318500  1
  Fe  Fe25  1  0.76251400  0.26251400  0.88318500  1
  Fe  Fe26  1  0.26251400  0.12067100  0.88318500  1
  Fe  Fe27  1  0.62067100  0.76251400  0.88318500  1
  Fe  Fe28  1  0.87932900  0.37932900  0.11681500  1
  Fe  Fe29  1  0.23748600  0.73748600  0.11681500  1
  Fe  Fe30  1  0.73748600  0.87932900  0.11681500  1
  Fe  Fe31  1  0.37932900  0.23748600  0.11681500  1
  Fe  Fe32  1  0.29371400  0.79371400  0.81303600  1
  Fe  Fe33  1  0.51932100  0.01932100  0.81303600  1
  Fe  Fe34  1  0.01932100  0.29371400  0.81303600  1
  Fe  Fe35  1  0.79371400  0.51932100  0.81303600  1
  Fe  Fe36  1  0.70628600  0.20628600  0.18696400  1
  Fe  Fe37  1  0.48067900  0.98067900  0.18696400  1
  Fe  Fe38  1  0.98067900  0.70628600  0.18696400  1
  Fe  Fe39  1  0.20628600  0.48067900  0.18696400  1
