# generated using pymatgen
data_Dy2H4(SO4)3
_symmetry_space_group_name_H-M   'P 1'
_cell_length_a   6.79039036
_cell_length_b   6.79039036
_cell_length_c   12.88338833
_cell_angle_alpha   79.88506032
_cell_angle_beta   79.88506032
_cell_angle_gamma   60.41443393
_symmetry_Int_Tables_number   1
_chemical_formula_structural   Dy2H4(SO4)3
_chemical_formula_sum   'Dy4 H8 S6 O24'
_cell_volume   505.81380042
_cell_formula_units_Z   2
loop_
 _symmetry_equiv_pos_site_id
 _symmetry_equiv_pos_as_xyz
  1  'x, y, z'
loop_
 _atom_site_type_symbol
 _atom_site_label
 _atom_site_symmetry_multiplicity
 _atom_site_fract_x
 _atom_site_fract_y
 _atom_site_fract_z
 _atom_site_occupancy
  Dy  Dy0  1  0.18887900  0.21574700  0.82585500  1
  Dy  Dy1  1  0.78425300  0.81112100  0.67414500  1
  Dy  Dy2  1  0.81112100  0.78425300  0.17414500  1
  Dy  Dy3  1  0.21574700  0.18887900  0.32585500  1
  H  H4  1  0.85213400  0.05532300  0.91700900  1
  H  H5  1  0.94467700  0.14786600  0.58299100  1
  H  H6  1  0.14786600  0.94467700  0.08299100  1
  H  H7  1  0.05532300  0.85213400  0.41700900  1
  H  H8  1  0.69752100  0.28583200  0.85307800  1
  H  H9  1  0.71416800  0.30247900  0.64692200  1
  H  H10  1  0.30247900  0.71416800  0.14692200  1
  H  H11  1  0.28583200  0.69752100  0.35307800  1
  S  S12  1  0.25330900  0.30313000  0.57777200  1
  S  S13  1  0.69687000  0.74669100  0.92222800  1
  S  S14  1  0.74669100  0.69687000  0.42222800  1
  S  S15  1  0.30313000  0.25330900  0.07777200  1
  S  S16  1  0.32932400  0.67067600  0.75000000  1
  S  S17  1  0.67067600  0.32932400  0.25000000  1
  O  O18  1  0.03688800  0.41421600  0.65950400  1
  O  O19  1  0.58578400  0.96311200  0.84049600  1
  O  O20  1  0.96311200  0.58578400  0.34049600  1
  O  O21  1  0.41421600  0.03688800  0.15950400  1
  O  O22  1  0.40576500  0.10508700  0.65667800  1
  O  O23  1  0.89491300  0.59423500  0.84332200  1
  O  O24  1  0.59423500  0.89491300  0.34332200  1
  O  O25  1  0.10508700  0.40576500  0.15667800  1
  O  O26  1  0.18264500  0.19333200  0.50687700  1
  O  O27  1  0.80666800  0.81735500  0.99312300  1
  O  O28  1  0.81735500  0.80666800  0.49312300  1
  O  O29  1  0.19333200  0.18264500  0.00687700  1
  O  O30  1  0.36855400  0.44416800  0.80799200  1
  O  O31  1  0.55583200  0.63144600  0.69200800  1
  O  O32  1  0.63144600  0.55583200  0.19200800  1
  O  O33  1  0.44416800  0.36855400  0.30799200  1
  O  O34  1  0.25140000  0.83960500  0.82671400  1
  O  O35  1  0.16039500  0.74860000  0.67328600  1
  O  O36  1  0.74860000  0.16039500  0.17328600  1
  O  O37  1  0.83960500  0.25140000  0.32671400  1
  O  O38  1  0.84561900  0.19980100  0.88186300  1
  O  O39  1  0.80019900  0.15438100  0.61813700  1
  O  O40  1  0.15438100  0.80019900  0.11813700  1
  O  O41  1  0.19980100  0.84561900  0.38186300  1
