# generated using pymatgen
data_Na2Ni(PO5)4
_symmetry_space_group_name_H-M   'P 1'
_cell_length_a   10.79806500
_cell_length_b   7.60164300
_cell_length_c   11.73113066
_cell_angle_alpha   59.95412961
_cell_angle_beta   90.00000000
_cell_angle_gamma   90.00000000
_symmetry_Int_Tables_number   1
_chemical_formula_structural   Na2Ni(PO5)4
_chemical_formula_sum   'Na4 Ni2 P8 O40'
_cell_volume   833.53335857
_cell_formula_units_Z   2
loop_
 _symmetry_equiv_pos_site_id
 _symmetry_equiv_pos_as_xyz
  1  'x, y, z'
loop_
 _atom_site_type_symbol
 _atom_site_label
 _atom_site_symmetry_multiplicity
 _atom_site_fract_x
 _atom_site_fract_y
 _atom_site_fract_z
 _atom_site_occupancy
  Na  Na0  1  0.34006600  0.70497100  0.99964000  1
  Na  Na1  1  0.15993400  0.70497100  0.49964000  1
  Na  Na2  1  0.65993400  0.29502900  0.00036000  1
  Na  Na3  1  0.84006600  0.29502900  0.50036000  1
  Ni  Ni4  1  0.50000000  0.00000000  0.50000000  1
  Ni  Ni5  1  0.00000000  0.00000000  0.00000000  1
  P  P6  1  0.26524000  0.21350300  0.59980100  1
  P  P7  1  0.23476000  0.21350300  0.09980100  1
  P  P8  1  0.73476000  0.78649700  0.40019900  1
  P  P9  1  0.76524000  0.78649700  0.90019900  1
  P  P10  1  0.04865400  0.56161900  0.20330900  1
  P  P11  1  0.45134600  0.56161900  0.70330900  1
  P  P12  1  0.95134600  0.43838100  0.79669100  1
  P  P13  1  0.54865400  0.43838100  0.29669100  1
  O  O14  1  0.67359800  0.61815700  0.96506600  1
  O  O15  1  0.82640200  0.61815700  0.46506600  1
  O  O16  1  0.32640200  0.38184300  0.03493400  1
  O  O17  1  0.17359800  0.38184300  0.53493400  1
  O  O18  1  0.28169500  0.09940400  0.74507700  1
  O  O19  1  0.21830500  0.09940400  0.24507700  1
  O  O20  1  0.71830500  0.90059600  0.25492300  1
  O  O21  1  0.78169500  0.90059600  0.75492300  1
  O  O22  1  0.83854800  0.84145000  0.98679600  1
  O  O23  1  0.66145200  0.84145000  0.48679600  1
  O  O24  1  0.16145200  0.15855000  0.01320400  1
  O  O25  1  0.33854800  0.15855000  0.51320400  1
  O  O26  1  0.59976400  0.04566500  0.88317400  1
  O  O27  1  0.90023600  0.04566500  0.38317400  1
  O  O28  1  0.40023600  0.95433500  0.11682600  1
  O  O29  1  0.09976400  0.95433500  0.61682600  1
  O  O30  1  0.96743500  0.48131400  0.13174300  1
  O  O31  1  0.53256500  0.48131400  0.63174300  1
  O  O32  1  0.03256500  0.51868600  0.86825700  1
  O  O33  1  0.46743500  0.51868600  0.36825700  1
  O  O34  1  0.02114700  0.78492900  0.17457300  1
  O  O35  1  0.47885300  0.78492900  0.67457300  1
  O  O36  1  0.97885300  0.21507100  0.82542700  1
  O  O37  1  0.52114700  0.21507100  0.32542700  1
  O  O38  1  0.68644600  0.41898300  0.33549500  1
  O  O39  1  0.81355400  0.41898300  0.83549500  1
  O  O40  1  0.31355400  0.58101700  0.66450500  1
  O  O41  1  0.18644600  0.58101700  0.16450500  1
  O  O42  1  0.01454900  0.41079600  0.34694500  1
  O  O43  1  0.48545100  0.41079600  0.84694500  1
  O  O44  1  0.98545100  0.58920400  0.65305500  1
  O  O45  1  0.51454900  0.58920400  0.15305500  1
  O  O46  1  0.00996900  0.98099700  0.67136600  1
  O  O47  1  0.49003100  0.98099700  0.17136600  1
  O  O48  1  0.99003100  0.01900300  0.32863400  1
  O  O49  1  0.50996900  0.01900300  0.82863400  1
  O  O50  1  0.60016800  0.11924100  0.56106300  1
  O  O51  1  0.89983200  0.11924100  0.06106300  1
  O  O52  1  0.39983200  0.88075900  0.43893700  1
  O  O53  1  0.10016800  0.88075900  0.93893700  1
