# generated using pymatgen
data_Pt(N2O3)2
_symmetry_space_group_name_H-M   'P 1'
_cell_length_a   9.59164500
_cell_length_b   10.03462100
_cell_length_c   13.65171000
_cell_angle_alpha   90.00000000
_cell_angle_beta   90.00000000
_cell_angle_gamma   90.00000000
_symmetry_Int_Tables_number   1
_chemical_formula_structural   Pt(N2O3)2
_chemical_formula_sum   'Pt8 N32 O48'
_cell_volume   1313.95691494
_cell_formula_units_Z   8
loop_
 _symmetry_equiv_pos_site_id
 _symmetry_equiv_pos_as_xyz
  1  'x, y, z'
loop_
 _atom_site_type_symbol
 _atom_site_label
 _atom_site_symmetry_multiplicity
 _atom_site_fract_x
 _atom_site_fract_y
 _atom_site_fract_z
 _atom_site_occupancy
  Pt  Pt0  1  0.61746200  0.11520500  0.41351000  1
  Pt  Pt1  1  0.11746200  0.38479500  0.58649000  1
  Pt  Pt2  1  0.38253800  0.61520500  0.08649000  1
  Pt  Pt3  1  0.88253800  0.88479500  0.91351000  1
  Pt  Pt4  1  0.38253800  0.88479500  0.58649000  1
  Pt  Pt5  1  0.88253800  0.61520500  0.41351000  1
  Pt  Pt6  1  0.61746200  0.38479500  0.91351000  1
  Pt  Pt7  1  0.11746200  0.11520500  0.08649000  1
  N  N8  1  0.54669400  0.19395500  0.52043400  1
  N  N9  1  0.04669400  0.30604500  0.47956600  1
  N  N10  1  0.45330600  0.69395500  0.97956600  1
  N  N11  1  0.95330600  0.80604500  0.02043400  1
  N  N12  1  0.45330600  0.80604500  0.47956600  1
  N  N13  1  0.95330600  0.69395500  0.52043400  1
  N  N14  1  0.54669400  0.30604500  0.02043400  1
  N  N15  1  0.04669400  0.19395500  0.97956600  1
  N  N16  1  0.51030800  0.13333000  0.30977700  1
  N  N17  1  0.01030800  0.36667000  0.69022200  1
  N  N18  1  0.48969200  0.63333000  0.19022300  1
  N  N19  1  0.98969200  0.86667000  0.80977800  1
  N  N20  1  0.48969200  0.86667000  0.69022200  1
  N  N21  1  0.98969200  0.63333000  0.30977700  1
  N  N22  1  0.51030800  0.36667000  0.80977800  1
  N  N23  1  0.01030800  0.13333000  0.19022300  1
  N  N24  1  0.74791600  0.91638000  0.28314200  1
  N  N25  1  0.24791600  0.58362000  0.71685800  1
  N  N26  1  0.25208400  0.41638000  0.21685800  1
  N  N27  1  0.75208400  0.08362000  0.78314200  1
  N  N28  1  0.25208400  0.08362000  0.71685800  1
  N  N29  1  0.75208400  0.41638000  0.28314200  1
  N  N30  1  0.74791600  0.58362000  0.78314200  1
  N  N31  1  0.24791600  0.91638000  0.21685800  1
  N  N32  1  0.82927600  0.00884900  0.55400500  1
  N  N33  1  0.32927600  0.49115100  0.44599500  1
  N  N34  1  0.17072400  0.50884900  0.94599500  1
  N  N35  1  0.67072400  0.99115100  0.05400500  1
  N  N36  1  0.17072400  0.99115100  0.44599500  1
  N  N37  1  0.67072400  0.50884900  0.55400500  1
  N  N38  1  0.82927600  0.49115100  0.05400500  1
  N  N39  1  0.32927600  0.00884900  0.94599500  1
  O  O40  1  0.76661800  0.04427300  0.31023200  1
  O  O41  1  0.26661800  0.45572700  0.68976800  1
  O  O42  1  0.23338200  0.54427300  0.18976800  1
  O  O43  1  0.73338200  0.95572700  0.81023200  1
  O  O44  1  0.23338200  0.95572700  0.68976800  1
  O  O45  1  0.73338200  0.54427300  0.31023200  1
  O  O46  1  0.76661800  0.45572700  0.81023200  1
  O  O47  1  0.26661800  0.04427300  0.18976800  1
  O  O48  1  0.65116800  0.85144500  0.31945600  1
  O  O49  1  0.15116800  0.64855500  0.68054400  1
  O  O50  1  0.34883200  0.35144500  0.18054400  1
  O  O51  1  0.84883200  0.14855500  0.81945600  1
  O  O52  1  0.34883200  0.14855500  0.68054400  1
  O  O53  1  0.84883200  0.35144500  0.31945600  1
  O  O54  1  0.65116800  0.64855500  0.81945600  1
  O  O55  1  0.15116800  0.85144500  0.18054400  1
  O  O56  1  0.83388900  0.87460800  0.22299600  1
  O  O57  1  0.33388900  0.62539200  0.77700400  1
  O  O58  1  0.16611100  0.37460800  0.27700400  1
  O  O59  1  0.66611100  0.12539200  0.72299600  1
  O  O60  1  0.16611100  0.12539200  0.77700400  1
  O  O61  1  0.66611100  0.37460800  0.22299600  1
  O  O62  1  0.83388900  0.62539200  0.72299600  1
  O  O63  1  0.33388900  0.87460800  0.27700400  1
  O  O64  1  0.80408500  0.12063500  0.50313400  1
  O  O65  1  0.30408500  0.37936500  0.49686600  1
  O  O66  1  0.19591500  0.62063500  0.99686600  1
  O  O67  1  0.69591500  0.87936500  0.00313400  1
  O  O68  1  0.19591500  0.87936500  0.49686600  1
  O  O69  1  0.69591500  0.62063500  0.50313400  1
  O  O70  1  0.80408500  0.37936500  0.00313400  1
  O  O71  1  0.30408500  0.12063500  0.99686600  1
  O  O72  1  0.93306600  0.01062500  0.60684900  1
  O  O73  1  0.43306600  0.48937500  0.39315100  1
  O  O74  1  0.06693400  0.51062500  0.89315100  1
  O  O75  1  0.56693400  0.98937500  0.10684900  1
  O  O76  1  0.06693400  0.98937500  0.39315100  1
  O  O77  1  0.56693400  0.51062500  0.60684900  1
  O  O78  1  0.93306600  0.48937500  0.10684900  1
  O  O79  1  0.43306600  0.01062500  0.89315100  1
  O  O80  1  0.74739100  0.91319300  0.54417200  1
  O  O81  1  0.24739100  0.58680700  0.45582800  1
  O  O82  1  0.25260900  0.41319300  0.95582800  1
  O  O83  1  0.75260900  0.08680700  0.04417200  1
  O  O84  1  0.25260900  0.08680700  0.45582800  1
  O  O85  1  0.75260900  0.41319300  0.54417200  1
  O  O86  1  0.74739100  0.58680700  0.04417200  1
  O  O87  1  0.24739100  0.91319300  0.95582800  1
