# generated using pymatgen
data_TmZn5
_symmetry_space_group_name_H-M   'P 1'
_cell_length_a   8.89419404
_cell_length_b   8.89419404
_cell_length_c   8.98395300
_cell_angle_alpha   90.00000000
_cell_angle_beta   90.00000000
_cell_angle_gamma   120.00000032
_symmetry_Int_Tables_number   1
_chemical_formula_structural   TmZn5
_chemical_formula_sum   'Tm6 Zn30'
_cell_volume   615.47625393
_cell_formula_units_Z   6
loop_
 _symmetry_equiv_pos_site_id
 _symmetry_equiv_pos_as_xyz
  1  'x, y, z'
loop_
 _atom_site_type_symbol
 _atom_site_label
 _atom_site_symmetry_multiplicity
 _atom_site_fract_x
 _atom_site_fract_y
 _atom_site_fract_z
 _atom_site_occupancy
  Tm  Tm0  1  0.19342900  0.80657100  0.25000000  1
  Tm  Tm1  1  0.19342900  0.38685800  0.25000000  1
  Tm  Tm2  1  0.61314200  0.80657100  0.25000000  1
  Tm  Tm3  1  0.80657100  0.19342900  0.75000000  1
  Tm  Tm4  1  0.80657100  0.61314200  0.75000000  1
  Tm  Tm5  1  0.38685800  0.19342900  0.75000000  1
  Zn  Zn6  1  0.00000000  0.00000000  0.50000000  1
  Zn  Zn7  1  0.00000000  0.00000000  0.00000000  1
  Zn  Zn8  1  0.33333300  0.66666700  0.48432900  1
  Zn  Zn9  1  0.66666700  0.33333300  0.51567100  1
  Zn  Zn10  1  0.66666700  0.33333300  0.98432900  1
  Zn  Zn11  1  0.33333300  0.66666700  0.01567100  1
  Zn  Zn12  1  0.50000000  0.50000000  0.50000000  1
  Zn  Zn13  1  0.50000000  0.00000000  0.50000000  1
  Zn  Zn14  1  0.00000000  0.50000000  0.50000000  1
  Zn  Zn15  1  0.50000000  0.50000000  0.00000000  1
  Zn  Zn16  1  0.50000000  0.00000000  0.00000000  1
  Zn  Zn17  1  0.00000000  0.50000000  0.00000000  1
  Zn  Zn18  1  0.56750300  0.43249700  0.25000000  1
  Zn  Zn19  1  0.56750300  0.13500600  0.25000000  1
  Zn  Zn20  1  0.86499400  0.43249700  0.25000000  1
  Zn  Zn21  1  0.43249700  0.56750300  0.75000000  1
  Zn  Zn22  1  0.43249700  0.86499400  0.75000000  1
  Zn  Zn23  1  0.13500600  0.56750300  0.75000000  1
  Zn  Zn24  1  0.84084600  0.15915400  0.40871400  1
  Zn  Zn25  1  0.84084600  0.68169100  0.40871400  1
  Zn  Zn26  1  0.31830900  0.15915400  0.40871400  1
  Zn  Zn27  1  0.15915400  0.84084600  0.59128600  1
  Zn  Zn28  1  0.15915400  0.31830900  0.59128600  1
  Zn  Zn29  1  0.68169100  0.84084600  0.59128600  1
  Zn  Zn30  1  0.15915400  0.84084600  0.90871400  1
  Zn  Zn31  1  0.15915400  0.31830900  0.90871400  1
  Zn  Zn32  1  0.68169100  0.84084600  0.90871400  1
  Zn  Zn33  1  0.84084600  0.15915400  0.09128600  1
  Zn  Zn34  1  0.84084600  0.68169100  0.09128600  1
  Zn  Zn35  1  0.31830900  0.15915400  0.09128600  1
