# generated using pymatgen
data_H4BrNO4
_symmetry_space_group_name_H-M   'P 1'
_cell_length_a   6.21869100
_cell_length_b   7.81609800
_cell_length_c   9.63523300
_cell_angle_alpha   90.00000000
_cell_angle_beta   90.00000000
_cell_angle_gamma   90.00000000
_symmetry_Int_Tables_number   1
_chemical_formula_structural   H4BrNO4
_chemical_formula_sum   'H16 Br4 N4 O16'
_cell_volume   468.32915518
_cell_formula_units_Z   4
loop_
 _symmetry_equiv_pos_site_id
 _symmetry_equiv_pos_as_xyz
  1  'x, y, z'
loop_
 _atom_site_type_symbol
 _atom_site_label
 _atom_site_symmetry_multiplicity
 _atom_site_fract_x
 _atom_site_fract_y
 _atom_site_fract_z
 _atom_site_occupancy
  H  H0  1  0.75000000  0.22327500  0.87741100  1
  H  H1  1  0.75000000  0.27672500  0.37741100  1
  H  H2  1  0.25000000  0.77672500  0.12258900  1
  H  H3  1  0.25000000  0.72327500  0.62258900  1
  H  H4  1  0.75000000  0.30845100  0.71720500  1
  H  H5  1  0.75000000  0.19154900  0.21720500  1
  H  H6  1  0.25000000  0.69154900  0.28279500  1
  H  H7  1  0.25000000  0.80845100  0.78279500  1
  H  H8  1  0.61562400  0.40605600  0.84691500  1
  H  H9  1  0.88437600  0.09394400  0.34691500  1
  H  H10  1  0.11562400  0.59394400  0.15308500  1
  H  H11  1  0.38437600  0.90605600  0.65308500  1
  H  H12  1  0.38437600  0.59394400  0.15308500  1
  H  H13  1  0.11562400  0.90605600  0.65308500  1
  H  H14  1  0.88437600  0.40605600  0.84691500  1
  H  H15  1  0.61562400  0.09394400  0.34691500  1
  Br  Br16  1  0.25000000  0.31357500  0.57382000  1
  Br  Br17  1  0.25000000  0.18642500  0.07382000  1
  Br  Br18  1  0.75000000  0.68642500  0.42618000  1
  Br  Br19  1  0.75000000  0.81357500  0.92618000  1
  N  N20  1  0.75000000  0.33592700  0.82179600  1
  N  N21  1  0.75000000  0.16407300  0.32179600  1
  N  N22  1  0.25000000  0.66407300  0.17820400  1
  N  N23  1  0.25000000  0.83592700  0.67820400  1
  O  O24  1  0.46613700  0.18970700  0.58215600  1
  O  O25  1  0.03386300  0.31029300  0.08215600  1
  O  O26  1  0.96613700  0.81029300  0.41784400  1
  O  O27  1  0.53386300  0.68970700  0.91784400  1
  O  O28  1  0.53386300  0.81029300  0.41784400  1
  O  O29  1  0.96613700  0.68970700  0.91784400  1
  O  O30  1  0.03386300  0.18970700  0.58215600  1
  O  O31  1  0.46613700  0.31029300  0.08215600  1
  O  O32  1  0.25000000  0.44761200  0.70644500  1
  O  O33  1  0.25000000  0.05238800  0.20644500  1
  O  O34  1  0.75000000  0.55238800  0.29355500  1
  O  O35  1  0.75000000  0.94761200  0.79355500  1
  O  O36  1  0.25000000  0.42022200  0.42706200  1
  O  O37  1  0.25000000  0.07977800  0.92706200  1
  O  O38  1  0.75000000  0.57977800  0.57293800  1
  O  O39  1  0.75000000  0.92022200  0.07293800  1
