# generated using pymatgen
data_SbSN2O4F3
_symmetry_space_group_name_H-M   'P 1'
_cell_length_a   8.88802400
_cell_length_b   9.56618500
_cell_length_c   18.36099400
_cell_angle_alpha   90.00000000
_cell_angle_beta   90.00000000
_cell_angle_gamma   90.00000000
_symmetry_Int_Tables_number   1
_chemical_formula_structural   SbSN2O4F3
_chemical_formula_sum   'Sb8 S8 N16 O32 F24'
_cell_volume   1561.13400144
_cell_formula_units_Z   8
loop_
 _symmetry_equiv_pos_site_id
 _symmetry_equiv_pos_as_xyz
  1  'x, y, z'
loop_
 _atom_site_type_symbol
 _atom_site_label
 _atom_site_symmetry_multiplicity
 _atom_site_fract_x
 _atom_site_fract_y
 _atom_site_fract_z
 _atom_site_occupancy
  Sb  Sb0  1  0.82824500  0.09332300  0.39141000  1
  Sb  Sb1  1  0.67175500  0.59332300  0.60859000  1
  Sb  Sb2  1  0.32824500  0.90667700  0.10859000  1
  Sb  Sb3  1  0.17175500  0.40667700  0.89141000  1
  Sb  Sb4  1  0.17175500  0.90667700  0.60859000  1
  Sb  Sb5  1  0.32824500  0.40667700  0.39141000  1
  Sb  Sb6  1  0.67175500  0.09332300  0.89141000  1
  Sb  Sb7  1  0.82824500  0.59332300  0.10859000  1
  S  S8  1  0.62218300  0.32025300  0.49991600  1
  S  S9  1  0.87781700  0.82025300  0.50008400  1
  S  S10  1  0.12218300  0.67974700  0.00008400  1
  S  S11  1  0.37781700  0.17974700  0.99991600  1
  S  S12  1  0.37781700  0.67974700  0.50008400  1
  S  S13  1  0.12218300  0.17974700  0.49991600  1
  S  S14  1  0.87781700  0.32025300  0.99991600  1
  S  S15  1  0.62218300  0.82025300  0.00008400  1
  N  N16  1  0.64233200  0.26342100  0.20735800  1
  N  N17  1  0.85766800  0.76342100  0.79264200  1
  N  N18  1  0.14233200  0.73657900  0.29264200  1
  N  N19  1  0.35766800  0.23657900  0.70735800  1
  N  N20  1  0.35766800  0.73657900  0.79264200  1
  N  N21  1  0.14233200  0.23657900  0.20735800  1
  N  N22  1  0.85766800  0.26342100  0.70735800  1
  N  N23  1  0.64233200  0.76342100  0.29264200  1
  N  N24  1  0.16689400  0.47542700  0.62411200  1
  N  N25  1  0.33310600  0.97542700  0.37588800  1
  N  N26  1  0.66689400  0.52457300  0.87588800  1
  N  N27  1  0.83310600  0.02457300  0.12411200  1
  N  N28  1  0.83310600  0.52457300  0.37588800  1
  N  N29  1  0.66689400  0.02457300  0.62411200  1
  N  N30  1  0.33310600  0.47542700  0.12411200  1
  N  N31  1  0.16689400  0.97542700  0.87588800  1
  O  O32  1  0.54270700  0.38104200  0.43284200  1
  O  O33  1  0.95729300  0.88104200  0.56715800  1
  O  O34  1  0.04270700  0.61895800  0.06715800  1
  O  O35  1  0.45729300  0.11895800  0.93284200  1
  O  O36  1  0.45729300  0.61895800  0.56715800  1
  O  O37  1  0.04270700  0.11895800  0.43284200  1
  O  O38  1  0.95729300  0.38104200  0.93284200  1
  O  O39  1  0.54270700  0.88104200  0.06715800  1
  O  O40  1  0.78678100  0.44361700  0.03054600  1
  O  O41  1  0.71321900  0.94361700  0.96945400  1
  O  O42  1  0.28678100  0.55638300  0.46945400  1
  O  O43  1  0.21321900  0.05638300  0.53054600  1
  O  O44  1  0.21321900  0.55638300  0.96945400  1
  O  O45  1  0.28678100  0.05638300  0.03054600  1
  O  O46  1  0.71321900  0.44361700  0.53054600  1
  O  O47  1  0.78678100  0.94361700  0.46945400  1
  O  O48  1  0.74640100  0.22769000  0.47207600  1
  O  O49  1  0.75359900  0.72769000  0.52792400  1
  O  O50  1  0.24640100  0.77231000  0.02792400  1
  O  O51  1  0.25359900  0.27231000  0.97207600  1
  O  O52  1  0.25359900  0.77231000  0.52792400  1
  O  O53  1  0.24640100  0.27231000  0.47207600  1
  O  O54  1  0.75359900  0.22769000  0.97207600  1
  O  O55  1  0.74640100  0.72769000  0.02792400  1
  O  O56  1  0.97569500  0.25587900  0.05102900  1
  O  O57  1  0.52430500  0.75587900  0.94897100  1
  O  O58  1  0.47569400  0.74412100  0.44897100  1
  O  O59  1  0.02430500  0.24412100  0.55102900  1
  O  O60  1  0.02430500  0.74412100  0.94897100  1
  O  O61  1  0.47569400  0.24412100  0.05102900  1
  O  O62  1  0.52430500  0.25587900  0.55102900  1
  O  O63  1  0.97569500  0.75587900  0.44897100  1
  F  F64  1  0.86508200  0.24785700  0.33056500  1
  F  F65  1  0.63491800  0.74785700  0.66943500  1
  F  F66  1  0.36508200  0.75214300  0.16943500  1
  F  F67  1  0.13491800  0.25214300  0.83056500  1
  F  F68  1  0.13491800  0.75214300  0.66943500  1
  F  F69  1  0.36508200  0.25214300  0.33056500  1
  F  F70  1  0.63491800  0.24785700  0.83056500  1
  F  F71  1  0.86508200  0.74785700  0.16943500  1
  F  F72  1  0.91514100  0.96216000  0.32750600  1
  F  F73  1  0.58485900  0.46216000  0.67249400  1
  F  F74  1  0.41514100  0.03784000  0.17249400  1
  F  F75  1  0.08485900  0.53784000  0.82750600  1
  F  F76  1  0.08485900  0.03784000  0.67249400  1
  F  F77  1  0.41514100  0.53784000  0.32750600  1
  F  F78  1  0.58485900  0.96216000  0.82750600  1
  F  F79  1  0.91514100  0.46216000  0.17249400  1
  F  F80  1  0.62885000  0.06665500  0.35962000  1
  F  F81  1  0.87115000  0.56665500  0.64038000  1
  F  F82  1  0.12885000  0.93334500  0.14038000  1
  F  F83  1  0.37115000  0.43334500  0.85962000  1
  F  F84  1  0.37115000  0.93334500  0.64038000  1
  F  F85  1  0.12885000  0.43334500  0.35962000  1
  F  F86  1  0.87115000  0.06665500  0.85962000  1
  F  F87  1  0.62885000  0.56665500  0.14038000  1
