# generated using pymatgen
data_Na2PrN5O16
_symmetry_space_group_name_H-M   'P 1'
_cell_length_a   8.03126236
_cell_length_b   15.26044268
_cell_length_c   21.42884315
_cell_angle_alpha   90.55072167
_cell_angle_beta   90.00000000
_cell_angle_gamma   90.00000000
_symmetry_Int_Tables_number   1
_chemical_formula_structural   Na2PrN5O16
_chemical_formula_sum   'Na16 Pr8 N40 O128'
_cell_volume   2626.21095665
_cell_formula_units_Z   8
loop_
 _symmetry_equiv_pos_site_id
 _symmetry_equiv_pos_as_xyz
  1  'x, y, z'
loop_
 _atom_site_type_symbol
 _atom_site_label
 _atom_site_symmetry_multiplicity
 _atom_site_fract_x
 _atom_site_fract_y
 _atom_site_fract_z
 _atom_site_occupancy
  Na  Na0  1  0.33185144  0.65881843  0.12697251  1
  Na  Na1  1  0.33185144  0.84118157  0.87302749  1
  Na  Na2  1  0.66814856  0.34118157  0.87302749  1
  Na  Na3  1  0.66814856  0.15881843  0.12697251  1
  Na  Na4  1  0.23520767  0.96869172  0.11923666  1
  Na  Na5  1  0.23520767  0.53130828  0.88076334  1
  Na  Na6  1  0.76479233  0.03130828  0.88076334  1
  Na  Na7  1  0.76479233  0.46869172  0.11923666  1
  Na  Na8  1  0.18581732  0.53839049  0.37093240  1
  Na  Na9  1  0.18581732  0.96160951  0.62906760  1
  Na  Na10  1  0.81418268  0.46160951  0.62906760  1
  Na  Na11  1  0.81418268  0.03839049  0.37093240  1
  Na  Na12  1  0.32979410  0.88051340  0.39161524  1
  Na  Na13  1  0.32979410  0.61948660  0.60838476  1
  Na  Na14  1  0.67020590  0.11948660  0.60838476  1
  Na  Na15  1  0.67020590  0.38051340  0.39161524  1
  Pr  Pr16  1  0.82519643  0.75000000  0.00000000  1
  Pr  Pr17  1  0.17480357  0.25000000  0.00000000  1
  Pr  Pr18  1  0.85291051  0.75000000  0.50000000  1
  Pr  Pr19  1  0.14708949  0.25000000  0.50000000  1
  Pr  Pr20  1  0.83119575  0.75473202  0.24850899  1
  Pr  Pr21  1  0.83119575  0.74526798  0.75149101  1
  Pr  Pr22  1  0.16880425  0.24526798  0.75149101  1
  Pr  Pr23  1  0.16880425  0.25473202  0.24850899  1
  N  N24  1  0.50886107  0.81457019  0.18159609  1
  N  N25  1  0.50886107  0.68542981  0.81840391  1
  N  N26  1  0.49113893  0.18542981  0.81840391  1
  N  N27  1  0.49113893  0.31457019  0.18159609  1
  N  N28  1  0.15913788  0.70887921  0.42230869  1
  N  N29  1  0.15913788  0.79112079  0.57769131  1
  N  N30  1  0.84086212  0.29112079  0.57769131  1
  N  N31  1  0.84086212  0.20887921  0.42230869  1
  N  N32  1  0.51976424  0.87103224  0.00404605  1
  N  N33  1  0.51976424  0.62896776  0.99595395  1
  N  N34  1  0.48023576  0.12896776  0.99595395  1
  N  N35  1  0.48023576  0.37103224  0.00404605  1
  N  N36  1  0.01868016  0.60781017  0.07052775  1
  N  N37  1  0.01868016  0.89218983  0.92947225  1
  N  N38  1  0.98131984  0.39218983  0.92947225  1
  N  N39  1  0.98131984  0.10781017  0.07052775  1
  N  N40  1  0.70683130  0.56630588  0.24630126  1
  N  N41  1  0.70683130  0.93369412  0.75369874  1
  N  N42  1  0.29316870  0.43369412  0.75369874  1
  N  N43  1  0.29316870  0.06630588  0.24630126  1
  N  N44  1  0.14652436  0.64219952  0.24923260  1
  N  N45  1  0.14652436  0.85780048  0.75076740  1
  N  N46  1  0.85347564  0.35780048  0.75076740  1
  N  N47  1  0.85347564  0.14219952  0.24923260  1
  N  N48  1  0.02094952  0.60032294  0.67955200  1
  N  N49  1  0.02094952  0.89967706  0.32044800  1
  N  N50  1  0.97905048  0.39967706  0.32044800  1
  N  N51  1  0.97905048  0.10032294  0.67955200  1
  N  N52  1  0.64872249  0.78244434  0.37848553  1
  N  N53  1  0.64872249  0.71755566  0.62151447  1
  N  N54  1  0.35127751  0.21755566  0.62151447  1
  N  N55  1  0.35127751  0.28244434  0.37848553  1
  N  N56  1  0.74344428  0.94562038  0.50397887  1
  N  N57  1  0.74344428  0.55437962  0.49602113  1
  N  N58  1  0.25655572  0.05437962  0.49602113  1
  N  N59  1  0.25655572  0.44562038  0.50397887  1
  N  N60  1  0.95393751  0.83786314  0.12454577  1
  N  N61  1  0.95393751  0.66213686  0.87545423  1
  N  N62  1  0.04606249  0.16213686  0.87545423  1
  N  N63  1  0.04606249  0.33786314  0.12454577  1
  O  O64  1  0.60981203  0.87299181  0.20096933  1
  O  O65  1  0.60981203  0.62700819  0.79903067  1
  O  O66  1  0.39018797  0.12700819  0.79903067  1
  O  O67  1  0.39018797  0.37299181  0.20096933  1
  O  O68  1  0.54703546  0.73422254  0.19373972  1
  O  O69  1  0.54703546  0.76577746  0.80626028  1
  O  O70  1  0.45296454  0.26577746  0.80626028  1
  O  O71  1  0.45296454  0.23422254  0.19373972  1
  O  O72  1  0.37993975  0.83077105  0.15190782  1
  O  O73  1  0.37993975  0.66922895  0.84809218  1
  O  O74  1  0.62006025  0.16922895  0.84809218  1
  O  O75  1  0.62006025  0.33077105  0.15190782  1
  O  O76  1  0.05177980  0.65023209  0.43605364  1
  O  O77  1  0.05177980  0.84976791  0.56394636  1
  O  O78  1  0.94822020  0.34976791  0.56394636  1
  O  O79  1  0.94822020  0.15023209  0.43605364  1
  O  O80  1  0.28765751  0.69084207  0.39302553  1
  O  O81  1  0.28765751  0.80915793  0.60697447  1
  O  O82  1  0.71234249  0.30915793  0.60697447  1
  O  O83  1  0.71234249  0.19084207  0.39302553  1
  O  O84  1  0.12630802  0.78776848  0.44021013  1
  O  O85  1  0.12630802  0.71223152  0.55978987  1
  O  O86  1  0.87369198  0.21223152  0.55978987  1
  O  O87  1  0.87369198  0.28776848  0.44021013  1
  O  O88  1  0.54734418  0.82132970  0.95578793  1
  O  O89  1  0.54734418  0.67867030  0.04421207  1
  O  O90  1  0.45265582  0.17867030  0.04421207  1
  O  O91  1  0.45265582  0.32132970  0.95578793  1
  O  O92  1  0.63123584  0.87017876  0.04662053  1
  O  O93  1  0.63123584  0.62982124  0.95337947  1
  O  O94  1  0.36876416  0.12982124  0.95337947  1
  O  O95  1  0.36876416  0.37017876  0.04662053  1
  O  O96  1  0.39223517  0.91606364  0.00805757  1
  O  O97  1  0.39223517  0.58393636  0.99194243  1
  O  O98  1  0.60776483  0.08393636  0.99194243  1
  O  O99  1  0.60776483  0.41606364  0.00805757  1
  O  O100  1  0.86690099  0.59689538  0.05342120  1
  O  O101  1  0.86690099  0.90310462  0.94657880  1
  O  O102  1  0.13309901  0.40310462  0.94657880  1
  O  O103  1  0.13309901  0.09689538  0.05342120  1
  O  O104  1  0.09305843  0.55215521  0.10182463  1
  O  O105  1  0.09305843  0.94784479  0.89817537  1
  O  O106  1  0.90694157  0.44784479  0.89817537  1
  O  O107  1  0.90694157  0.05215521  0.10182463  1
  O  O108  1  0.08919579  0.67969498  0.05468661  1
  O  O109  1  0.08919579  0.82030502  0.94531339  1
  O  O110  1  0.91080421  0.32030502  0.94531339  1
  O  O111  1  0.91080421  0.17969498  0.05468661  1
  O  O112  1  0.78966309  0.59834845  0.19998492  1
  O  O113  1  0.78966309  0.90165155  0.80001508  1
  O  O114  1  0.21033691  0.40165155  0.80001508  1
  O  O115  1  0.21033691  0.09834845  0.19998492  1
  O  O116  1  0.67633616  0.61837164  0.29185015  1
  O  O117  1  0.67633616  0.88162836  0.70814985  1
  O  O118  1  0.32366384  0.38162836  0.70814985  1
  O  O119  1  0.32366384  0.11837164  0.29185015  1
  O  O120  1  0.33910672  0.98901637  0.24552744  1
  O  O121  1  0.33910672  0.51098363  0.75447256  1
  O  O122  1  0.66089328  0.01098363  0.75447256  1
  O  O123  1  0.66089328  0.48901637  0.24552744  1
  O  O124  1  0.04143876  0.64033428  0.29440212  1
  O  O125  1  0.04143876  0.85966572  0.70559788  1
  O  O126  1  0.95856124  0.35966572  0.70559788  1
  O  O127  1  0.95856124  0.14033428  0.29440212  1
  O  O128  1  0.27300251  0.59600197  0.24880012  1
  O  O129  1  0.27300251  0.90399803  0.75119988  1
  O  O130  1  0.72699749  0.40399803  0.75119988  1
  O  O131  1  0.72699749  0.09600197  0.24880012  1
  O  O132  1  0.11253160  0.69457952  0.20430639  1
  O  O133  1  0.11253160  0.80542048  0.79569361  1
  O  O134  1  0.88746840  0.30542048  0.79569361  1
  O  O135  1  0.88746840  0.19457952  0.20430639  1
  O  O136  1  0.86865879  0.59142851  0.69676726  1
  O  O137  1  0.86865879  0.90857149  0.30323274  1
  O  O138  1  0.13134121  0.40857149  0.30323274  1
  O  O139  1  0.13134121  0.09142851  0.69676726  1
  O  O140  1  0.08923515  0.54271642  0.64649905  1
  O  O141  1  0.08923515  0.95728358  0.35350095  1
  O  O142  1  0.91076485  0.45728358  0.35350095  1
  O  O143  1  0.91076485  0.04271642  0.64649905  1
  O  O144  1  0.09733497  0.66946532  0.69638374  1
  O  O145  1  0.09733497  0.83053468  0.30361626  1
  O  O146  1  0.90266503  0.33053468  0.30361626  1
  O  O147  1  0.90266503  0.16946532  0.69638374  1
  O  O148  1  0.79852738  0.75333402  0.37557622  1
  O  O149  1  0.79852738  0.74666598  0.62442378  1
  O  O150  1  0.20147262  0.24666598  0.62442378  1
  O  O151  1  0.20147262  0.25333402  0.37557622  1
  O  O152  1  0.58343332  0.79410407  0.43159029  1
  O  O153  1  0.58343332  0.70589593  0.56840971  1
  O  O154  1  0.41656668  0.20589593  0.56840971  1
  O  O155  1  0.41656668  0.29410407  0.43159029  1
  O  O156  1  0.57297915  0.80010888  0.32897285  1
  O  O157  1  0.57297915  0.69989112  0.67102715  1
  O  O158  1  0.42702085  0.19989112  0.67102715  1
  O  O159  1  0.42702085  0.30010888  0.32897285  1
  O  O160  1  0.69466257  0.89151376  0.54500886  1
  O  O161  1  0.69466257  0.60848624  0.45499114  1
  O  O162  1  0.30533743  0.10848624  0.45499114  1
  O  O163  1  0.30533743  0.39151376  0.54500886  1
  O  O164  1  0.83692735  0.91494423  0.45993169  1
  O  O165  1  0.83692735  0.58505577  0.54006831  1
  O  O166  1  0.16307265  0.08505577  0.54006831  1
  O  O167  1  0.16307265  0.41494423  0.45993169  1
  O  O168  1  0.29678503  0.52426525  0.50525197  1
  O  O169  1  0.29678503  0.97573475  0.49474803  1
  O  O170  1  0.70321497  0.47573475  0.49474803  1
  O  O171  1  0.70321497  0.02426525  0.50525197  1
  O  O172  1  0.00929067  0.86290447  0.07291883  1
  O  O173  1  0.00929067  0.63709553  0.92708117  1
  O  O174  1  0.99070933  0.13709553  0.92708117  1
  O  O175  1  0.99070933  0.36290447  0.07291883  1
  O  O176  1  0.99766075  0.87205950  0.17543044  1
  O  O177  1  0.99766075  0.62794050  0.82456956  1
  O  O178  1  0.00233925  0.12794050  0.82456956  1
  O  O179  1  0.00233925  0.37205950  0.17543044  1
  O  O180  1  0.84948683  0.77349651  0.12534403  1
  O  O181  1  0.84948683  0.72650349  0.87465597  1
  O  O182  1  0.15051317  0.22650349  0.87465597  1
  O  O183  1  0.15051317  0.27349651  0.12534403  1
  O  O184  1  0.50745221  0.00541894  0.36980859  1
  O  O185  1  0.50745221  0.49458106  0.63019141  1
  O  O186  1  0.49254779  0.99458106  0.63019141  1
  O  O187  1  0.49254779  0.50541894  0.36980859  1
  O  O188  1  0.52537223  0.01410662  0.12848900  1
  O  O189  1  0.52537223  0.48589338  0.87151100  1
  O  O190  1  0.47462777  0.98589338  0.87151100  1
  O  O191  1  0.47462777  0.51410662  0.12848900  1
