# generated using pymatgen
data_SiO2
_symmetry_space_group_name_H-M   'P 1'
_cell_length_a   12.53908593
_cell_length_b   14.09496800
_cell_length_c   16.28671571
_cell_angle_alpha   115.63989808
_cell_angle_beta   103.67243220
_cell_angle_gamma   90.00000000
_symmetry_Int_Tables_number   1
_chemical_formula_structural   SiO2
_chemical_formula_sum   'Si38 O76'
_cell_volume   2504.25901977
_cell_formula_units_Z   38
loop_
 _symmetry_equiv_pos_site_id
 _symmetry_equiv_pos_as_xyz
  1  'x, y, z'
loop_
 _atom_site_type_symbol
 _atom_site_label
 _atom_site_symmetry_multiplicity
 _atom_site_fract_x
 _atom_site_fract_y
 _atom_site_fract_z
 _atom_site_occupancy
  Si  Si0  1  0.16734300  0.93738500  0.09577100  1
  Si  Si1  1  0.16734300  0.15838600  0.09577100  1
  Si  Si2  1  0.83265700  0.06261500  0.90422900  1
  Si  Si3  1  0.83265700  0.84161400  0.90422900  1
  Si  Si4  1  0.92153700  0.94860300  0.11891700  1
  Si  Si5  1  0.92153700  0.17031300  0.11891700  1
  Si  Si6  1  0.07846300  0.05139700  0.88108300  1
  Si  Si7  1  0.07846300  0.82968700  0.88108300  1
  Si  Si8  1  0.75666900  0.90828600  0.40734200  1
  Si  Si9  1  0.75666900  0.49905700  0.40734200  1
  Si  Si10  1  0.24333100  0.09171400  0.59265800  1
  Si  Si11  1  0.24333100  0.50094300  0.59265800  1
  Si  Si12  1  0.50141700  0.90462100  0.39788500  1
  Si  Si13  1  0.50141700  0.49326400  0.39788500  1
  Si  Si14  1  0.49858300  0.09537900  0.60211500  1
  Si  Si15  1  0.49858300  0.50673600  0.60211500  1
  Si  Si16  1  0.14268400  0.89814100  0.38609800  1
  Si  Si17  1  0.14268400  0.48795700  0.38609800  1
  Si  Si18  1  0.85731600  0.10185900  0.61390200  1
  Si  Si19  1  0.85731600  0.51204300  0.61390200  1
  Si  Si20  1  0.91629400  0.95914600  0.30909100  1
  Si  Si21  1  0.91629400  0.34994500  0.30909100  1
  Si  Si22  1  0.08370600  0.04085400  0.69090900  1
  Si  Si23  1  0.08370600  0.65005500  0.69090900  1
  Si  Si24  1  0.29197600  0.94370000  0.27728800  1
  Si  Si25  1  0.29197600  0.33358800  0.27728800  1
  Si  Si26  1  0.70802400  0.05630000  0.72271200  1
  Si  Si27  1  0.70802400  0.66641200  0.72271200  1
  Si  Si28  1  0.21500800  0.73366400  0.46732800  1
  Si  Si29  1  0.78499200  0.26633600  0.53267200  1
  Si  Si30  1  0.17267400  0.27424500  0.54848900  1
  Si  Si31  1  0.82732600  0.72575500  0.45151100  1
  Si  Si32  1  0.30725800  0.19546600  0.39093200  1
  Si  Si33  1  0.69274200  0.80453400  0.60906800  1
  Si  Si34  1  0.53972000  0.27192100  0.54384100  1
  Si  Si35  1  0.46028000  0.72807900  0.45615900  1
  Si  Si36  1  0.94405700  0.20714700  0.41429400  1
  Si  Si37  1  0.05594300  0.79285300  0.58570600  1
  O  O38  1  0.25990200  0.90244000  0.16316000  1
  O  O39  1  0.25990200  0.26072000  0.16316000  1
  O  O40  1  0.74009800  0.09756000  0.83684000  1
  O  O41  1  0.74009800  0.73928000  0.83684000  1
  O  O42  1  0.15984700  0.85949000  0.98542900  1
  O  O43  1  0.15984700  0.12593900  0.98542900  1
  O  O44  1  0.84015300  0.14051000  0.01457100  1
  O  O45  1  0.84015300  0.87406100  0.01457100  1
  O  O46  1  0.20293200  0.05982700  0.11965500  1
  O  O47  1  0.79706800  0.94017300  0.88034500  1
  O  O48  1  0.04900700  0.92770700  0.11798400  1
  O  O49  1  0.04900700  0.19027700  0.11798400  1
  O  O50  1  0.95099300  0.07229300  0.88201600  1
  O  O51  1  0.95099300  0.80972300  0.88201600  1
  O  O52  1  0.88886200  0.91603700  0.19495300  1
  O  O53  1  0.88886200  0.27891500  0.19495300  1
  O  O54  1  0.11113800  0.08396300  0.80504700  1
  O  O55  1  0.11113800  0.72108500  0.80504700  1
  O  O56  1  0.90816600  0.07362100  0.14724200  1
  O  O57  1  0.09183400  0.92637900  0.85275800  1
  O  O58  1  0.17805700  0.78307100  0.56614200  1
  O  O59  1  0.82194300  0.21692900  0.43385800  1
  O  O60  1  0.16454000  0.79621000  0.40636000  1
  O  O61  1  0.16454000  0.61015000  0.40636000  1
  O  O62  1  0.83546000  0.20379000  0.59364000  1
  O  O63  1  0.83546000  0.38985000  0.59364000  1
  O  O64  1  0.34927400  0.74687900  0.49375700  1
  O  O65  1  0.65072600  0.25312100  0.50624300  1
  O  O66  1  0.21468300  0.40021900  0.61122300  1
  O  O67  1  0.21468300  0.21100400  0.61122300  1
  O  O68  1  0.78531700  0.59978100  0.38877700  1
  O  O69  1  0.78531700  0.78899600  0.38877700  1
  O  O70  1  0.22213600  0.22831400  0.45662900  1
  O  O71  1  0.77786400  0.77168600  0.54337100  1
  O  O72  1  0.03828100  0.25728400  0.51456700  1
  O  O73  1  0.96171900  0.74271600  0.48543300  1
  O  O74  1  0.43560000  0.22543400  0.45086800  1
  O  O75  1  0.56440000  0.77456600  0.54913200  1
  O  O76  1  0.28307000  0.25659000  0.32612200  1
  O  O77  1  0.28307000  0.06953200  0.32612200  1
  O  O78  1  0.71692900  0.74341000  0.67387800  1
  O  O79  1  0.71692900  0.93046800  0.67387800  1
  O  O80  1  0.53489700  0.39756600  0.60683700  1
  O  O81  1  0.53489700  0.20927000  0.60683700  1
  O  O82  1  0.46510300  0.60243400  0.39316300  1
  O  O83  1  0.46510300  0.79073000  0.39316300  1
  O  O84  1  0.80501800  0.94152600  0.33800600  1
  O  O85  1  0.80501800  0.39647900  0.33800600  1
  O  O86  1  0.19498200  0.05847400  0.66199400  1
  O  O87  1  0.19498200  0.60352100  0.66199400  1
  O  O88  1  0.80988900  0.99119900  0.51824600  1
  O  O89  1  0.80988900  0.52704800  0.51824600  1
  O  O90  1  0.19011100  0.00880100  0.48175400  1
  O  O91  1  0.19011100  0.47295200  0.48175400  1
  O  O92  1  0.62359600  0.90896100  0.38207600  1
  O  O93  1  0.62359600  0.47311500  0.38207600  1
  O  O94  1  0.37640400  0.09103900  0.61792400  1
  O  O95  1  0.37640400  0.52688500  0.61792400  1
  O  O96  1  0.41593900  0.91851200  0.31273100  1
  O  O97  1  0.41593900  0.39421900  0.31273100  1
  O  O98  1  0.58406100  0.08148800  0.68726900  1
  O  O99  1  0.58406100  0.60578100  0.68726900  1
  O  O100  1  0.50000000  0.00000000  0.50000000  1
  O  O101  1  0.50000000  0.50000000  0.50000000  1
  O  O102  1  0.20299900  0.88679300  0.30489800  1
  O  O103  1  0.20299900  0.41810500  0.30489800  1
  O  O104  1  0.79700100  0.11320700  0.69510200  1
  O  O105  1  0.79700100  0.58189500  0.69510200  1
  O  O106  1  0.01045400  0.89705600  0.34662700  1
  O  O107  1  0.01045400  0.44957100  0.34662700  1
  O  O108  1  0.98954600  0.10294400  0.65337300  1
  O  O109  1  0.98954600  0.55042900  0.65337300  1
  O  O110  1  0.96069500  0.08416200  0.35579100  1
  O  O111  1  0.96069500  0.27162900  0.35579100  1
  O  O112  1  0.03930500  0.91583800  0.64420900  1
  O  O113  1  0.03930500  0.72837100  0.64420900  1
