# generated using pymatgen
data_AgH8C3S2NO3
_symmetry_space_group_name_H-M   'P 1'
_cell_length_a   9.26468127
_cell_length_b   17.22056005
_cell_length_c   21.86622575
_cell_angle_alpha   90.00000000
_cell_angle_beta   90.00000000
_cell_angle_gamma   90.00000000
_symmetry_Int_Tables_number   1
_chemical_formula_structural   AgH8C3S2NO3
_chemical_formula_sum   'Ag16 H128 C48 S32 N16 O48'
_cell_volume   3488.60325820
_cell_formula_units_Z   16
loop_
 _symmetry_equiv_pos_site_id
 _symmetry_equiv_pos_as_xyz
  1  'x, y, z'
loop_
 _atom_site_type_symbol
 _atom_site_label
 _atom_site_symmetry_multiplicity
 _atom_site_fract_x
 _atom_site_fract_y
 _atom_site_fract_z
 _atom_site_occupancy
  Ag  Ag0  1  0.58723670  0.75901502  0.47061331  1
  Ag  Ag1  1  0.08723670  0.74098498  0.52938669  1
  Ag  Ag2  1  0.41276330  0.25901502  0.02938669  1
  Ag  Ag3  1  0.91276330  0.24098498  0.97061331  1
  Ag  Ag4  1  0.41276330  0.24098498  0.52938669  1
  Ag  Ag5  1  0.91276330  0.25901502  0.47061331  1
  Ag  Ag6  1  0.58723670  0.74098498  0.97061331  1
  Ag  Ag7  1  0.08723670  0.75901502  0.02938669  1
  Ag  Ag8  1  0.46662612  0.75914905  0.67030711  1
  Ag  Ag9  1  0.96662612  0.74085095  0.32969289  1
  Ag  Ag10  1  0.53337388  0.25914905  0.82969289  1
  Ag  Ag11  1  0.03337388  0.24085095  0.17030711  1
  Ag  Ag12  1  0.53337388  0.24085095  0.32969289  1
  Ag  Ag13  1  0.03337388  0.25914905  0.67030711  1
  Ag  Ag14  1  0.46662612  0.74085095  0.17030711  1
  Ag  Ag15  1  0.96662612  0.75914905  0.82969289  1
  H  H16  1  0.43762336  0.58140627  0.74834582  1
  H  H17  1  0.93762336  0.91859373  0.25165418  1
  H  H18  1  0.56237664  0.08140627  0.75165418  1
  H  H19  1  0.06237664  0.41859373  0.24834582  1
  H  H20  1  0.56237664  0.41859373  0.25165418  1
  H  H21  1  0.06237664  0.08140627  0.74834582  1
  H  H22  1  0.43762336  0.91859373  0.24834582  1
  H  H23  1  0.93762336  0.58140627  0.75165418  1
  H  H24  1  0.56547840  0.55669636  0.68946280  1
  H  H25  1  0.06547840  0.94330364  0.31053720  1
  H  H26  1  0.43452160  0.05669636  0.81053720  1
  H  H27  1  0.93452160  0.44330364  0.18946280  1
  H  H28  1  0.43452160  0.44330364  0.31053720  1
  H  H29  1  0.93452160  0.05669636  0.68946280  1
  H  H30  1  0.56547840  0.94330364  0.18946280  1
  H  H31  1  0.06547840  0.55669636  0.81053720  1
  H  H32  1  0.60854732  0.53814266  0.76741424  1
  H  H33  1  0.10854732  0.96185734  0.23258576  1
  H  H34  1  0.39145268  0.03814266  0.73258576  1
  H  H35  1  0.89145268  0.46185734  0.26741424  1
  H  H36  1  0.39145268  0.46185734  0.23258576  1
  H  H37  1  0.89145268  0.03814266  0.76741424  1
  H  H38  1  0.60854732  0.96185734  0.26741424  1
  H  H39  1  0.10854732  0.53814266  0.73258576  1
  H  H40  1  0.56853838  0.77037160  0.80968732  1
  H  H41  1  0.06853838  0.72962840  0.19031268  1
  H  H42  1  0.43146162  0.27037160  0.69031268  1
  H  H43  1  0.93146162  0.22962840  0.30968732  1
  H  H44  1  0.43146162  0.22962840  0.19031268  1
  H  H45  1  0.93146162  0.27037160  0.80968732  1
  H  H46  1  0.56853838  0.72962840  0.30968732  1
  H  H47  1  0.06853838  0.77037160  0.69031268  1
  H  H48  1  0.48668330  0.67906053  0.82740361  1
  H  H49  1  0.98668330  0.82093947  0.17259639  1
  H  H50  1  0.51331670  0.17906053  0.67259639  1
  H  H51  1  0.01331670  0.32093947  0.32740361  1
  H  H52  1  0.51331670  0.32093947  0.17259639  1
  H  H53  1  0.01331670  0.17906053  0.82740361  1
  H  H54  1  0.48668330  0.82093947  0.32740361  1
  H  H55  1  0.98668330  0.67906053  0.67259639  1
  H  H56  1  0.62586537  0.95502781  0.54073356  1
  H  H57  1  0.12586537  0.54497219  0.45926644  1
  H  H58  1  0.37413463  0.45502781  0.95926644  1
  H  H59  1  0.87413463  0.04497219  0.04073356  1
  H  H60  1  0.37413463  0.04497219  0.45926644  1
  H  H61  1  0.87413463  0.45502781  0.54073356  1
  H  H62  1  0.62586537  0.54497219  0.04073356  1
  H  H63  1  0.12586537  0.95502781  0.95926644  1
  H  H64  1  0.44165792  0.93068490  0.55762210  1
  H  H65  1  0.94165792  0.56931510  0.44237790  1
  H  H66  1  0.55834208  0.43068490  0.94237790  1
  H  H67  1  0.05834208  0.06931510  0.05762210  1
  H  H68  1  0.55834208  0.06931510  0.44237790  1
  H  H69  1  0.05834208  0.43068490  0.55762210  1
  H  H70  1  0.44165792  0.56931510  0.05762210  1
  H  H71  1  0.94165792  0.93068490  0.94237790  1
  H  H72  1  0.56460805  0.95326544  0.61902991  1
  H  H73  1  0.06460805  0.54673456  0.38097009  1
  H  H74  1  0.43539195  0.45326544  0.88097009  1
  H  H75  1  0.93539195  0.04673456  0.11902991  1
  H  H76  1  0.43539195  0.04673456  0.38097009  1
  H  H77  1  0.93539195  0.45326544  0.61902991  1
  H  H78  1  0.56460805  0.54673456  0.11902991  1
  H  H79  1  0.06460805  0.95326544  0.88097009  1
  H  H80  1  0.56018984  0.58433840  0.38500806  1
  H  H81  1  0.06018984  0.91566160  0.61499194  1
  H  H82  1  0.43981016  0.08433840  0.11499194  1
  H  H83  1  0.93981016  0.41566160  0.88500806  1
  H  H84  1  0.43981016  0.41566160  0.61499194  1
  H  H85  1  0.93981016  0.08433840  0.38500806  1
  H  H86  1  0.56018984  0.91566160  0.88500806  1
  H  H87  1  0.06018984  0.58433840  0.11499194  1
  H  H88  1  0.59042956  0.55321227  0.46159067  1
  H  H89  1  0.09042956  0.94678773  0.53840933  1
  H  H90  1  0.40957044  0.05321227  0.03840933  1
  H  H91  1  0.90957044  0.44678773  0.96159067  1
  H  H92  1  0.40957044  0.44678773  0.53840933  1
  H  H93  1  0.90957044  0.05321227  0.46159067  1
  H  H94  1  0.59042956  0.94678773  0.96159067  1
  H  H95  1  0.09042956  0.55321227  0.03840933  1
  H  H96  1  0.43758074  0.51587762  0.42068377  1
  H  H97  1  0.93758074  0.98412238  0.57931623  1
  H  H98  1  0.56241926  0.01587762  0.07931623  1
  H  H99  1  0.06241926  0.48412238  0.92068377  1
  H  H100  1  0.56241926  0.48412238  0.57931623  1
  H  H101  1  0.06241926  0.01587762  0.42068377  1
  H  H102  1  0.43758074  0.98412238  0.92068377  1
  H  H103  1  0.93758074  0.51587762  0.07931623  1
  H  H104  1  0.29245046  0.62781651  0.36159004  1
  H  H105  1  0.79245046  0.87218349  0.63840996  1
  H  H106  1  0.70754954  0.12781651  0.13840996  1
  H  H107  1  0.20754954  0.37218349  0.86159004  1
  H  H108  1  0.70754954  0.37218349  0.63840996  1
  H  H109  1  0.20754954  0.12781651  0.36159004  1
  H  H110  1  0.29245046  0.87218349  0.86159004  1
  H  H111  1  0.79245046  0.62781651  0.13840996  1
  H  H112  1  0.30920579  0.72785099  0.38006769  1
  H  H113  1  0.80920579  0.77214901  0.61993231  1
  H  H114  1  0.69079421  0.22785099  0.11993231  1
  H  H115  1  0.19079421  0.27214901  0.88006769  1
  H  H116  1  0.69079421  0.27214901  0.61993231  1
  H  H117  1  0.19079421  0.22785099  0.38006769  1
  H  H118  1  0.30920579  0.77214901  0.88006769  1
  H  H119  1  0.80920579  0.72785099  0.11993231  1
  H  H120  1  0.62493936  0.93260304  0.38806331  1
  H  H121  1  0.12493936  0.56739696  0.61193669  1
  H  H122  1  0.37506064  0.43260304  0.11193669  1
  H  H123  1  0.87506064  0.06739696  0.88806331  1
  H  H124  1  0.37506064  0.06739696  0.61193669  1
  H  H125  1  0.87506064  0.43260304  0.38806331  1
  H  H126  1  0.62493936  0.56739696  0.88806331  1
  H  H127  1  0.12493936  0.93260304  0.11193669  1
  H  H128  1  0.80461425  0.92035947  0.41771579  1
  H  H129  1  0.30461425  0.57964053  0.58228421  1
  H  H130  1  0.19538575  0.42035947  0.08228421  1
  H  H131  1  0.69538575  0.07964053  0.91771579  1
  H  H132  1  0.19538575  0.07964053  0.58228421  1
  H  H133  1  0.69538575  0.42035947  0.41771579  1
  H  H134  1  0.80461425  0.57964053  0.91771579  1
  H  H135  1  0.30461425  0.92035947  0.08228421  1
  H  H136  1  0.77887241  0.93428572  0.33743663  1
  H  H137  1  0.27887241  0.56571428  0.66256337  1
  H  H138  1  0.22112759  0.43428572  0.16256337  1
  H  H139  1  0.72112759  0.06571428  0.83743663  1
  H  H140  1  0.22112759  0.06571428  0.66256337  1
  H  H141  1  0.72112759  0.43428572  0.33743663  1
  H  H142  1  0.77887241  0.56571428  0.83743663  1
  H  H143  1  0.27887241  0.93428572  0.16256337  1
  C  C144  1  0.58669581  0.70756233  0.81267416  1
  C  C145  1  0.08669581  0.79243767  0.18732584  1
  C  C146  1  0.41330419  0.20756233  0.68732584  1
  C  C147  1  0.91330419  0.29243767  0.31267416  1
  C  C148  1  0.41330419  0.29243767  0.18732584  1
  C  C149  1  0.91330419  0.20756233  0.81267416  1
  C  C150  1  0.58669581  0.79243767  0.31267416  1
  C  C151  1  0.08669581  0.70756233  0.68732584  1
  C  C152  1  0.28300784  0.67054477  0.39860094  1
  C  C153  1  0.78300784  0.82945523  0.60139906  1
  C  C154  1  0.71699216  0.17054477  0.10139906  1
  C  C155  1  0.21699216  0.32945523  0.89860094  1
  C  C156  1  0.71699216  0.32945523  0.60139906  1
  C  C157  1  0.21699216  0.17054477  0.39860094  1
  C  C158  1  0.28300784  0.82945523  0.89860094  1
  C  C159  1  0.78300784  0.67054477  0.10139906  1
  C  C160  1  0.55225286  0.57777441  0.73642249  1
  C  C161  1  0.05225286  0.92222559  0.26357751  1
  C  C162  1  0.44774714  0.07777441  0.76357751  1
  C  C163  1  0.94774714  0.42222559  0.23642249  1
  C  C164  1  0.44774714  0.42222559  0.26357751  1
  C  C165  1  0.94774714  0.07777441  0.73642249  1
  C  C166  1  0.55225286  0.92222559  0.23642249  1
  C  C167  1  0.05225286  0.57777441  0.76357751  1
  C  C168  1  0.55336480  0.92704052  0.57367067  1
  C  C169  1  0.05336480  0.57295948  0.42632933  1
  C  C170  1  0.44663520  0.42704052  0.92632933  1
  C  C171  1  0.94663520  0.07295948  0.07367067  1
  C  C172  1  0.44663520  0.07295948  0.42632933  1
  C  C173  1  0.94663520  0.42704052  0.57367067  1
  C  C174  1  0.55336480  0.57295948  0.07367067  1
  C  C175  1  0.05336480  0.92704052  0.92632933  1
  C  C176  1  0.50712829  0.56673722  0.42758273  1
  C  C177  1  0.00712829  0.93326278  0.57241727  1
  C  C178  1  0.49287171  0.06673722  0.07241727  1
  C  C179  1  0.99287171  0.43326278  0.92758273  1
  C  C180  1  0.49287171  0.43326278  0.57241727  1
  C  C181  1  0.99287171  0.06673722  0.42758273  1
  C  C182  1  0.50712829  0.93326278  0.92758273  1
  C  C183  1  0.00712829  0.56673722  0.07241727  1
  C  C184  1  0.73263707  0.90902420  0.37896875  1
  C  C185  1  0.23263707  0.59097580  0.62103125  1
  C  C186  1  0.26736293  0.40902420  0.12103125  1
  C  C187  1  0.76736293  0.09097580  0.87896875  1
  C  C188  1  0.26736293  0.09097580  0.62103125  1
  C  C189  1  0.76736293  0.40902420  0.37896875  1
  C  C190  1  0.73263707  0.59097580  0.87896875  1
  C  C191  1  0.23263707  0.90902420  0.12103125  1
  S  S192  1  0.63542038  0.67313752  0.73701768  1
  S  S193  1  0.13542038  0.82686248  0.26298232  1
  S  S194  1  0.36457962  0.17313752  0.76298232  1
  S  S195  1  0.86457962  0.32686248  0.23701768  1
  S  S196  1  0.36457962  0.32686248  0.26298232  1
  S  S197  1  0.86457962  0.17313752  0.73701768  1
  S  S198  1  0.63542038  0.82686248  0.23701768  1
  S  S199  1  0.13542038  0.67313752  0.76298232  1
  S  S200  1  0.59505444  0.82477337  0.57835282  1
  S  S201  1  0.09505444  0.67522663  0.42164718  1
  S  S202  1  0.40494556  0.32477337  0.92164718  1
  S  S203  1  0.90494556  0.17522663  0.07835282  1
  S  S204  1  0.40494556  0.17522663  0.42164718  1
  S  S205  1  0.90494556  0.32477337  0.57835282  1
  S  S206  1  0.59505444  0.67522663  0.07835282  1
  S  S207  1  0.09505444  0.82477337  0.92164718  1
  S  S208  1  0.40530712  0.64606803  0.46093120  1
  S  S209  1  0.90530712  0.85393197  0.53906880  1
  S  S210  1  0.59469288  0.14606803  0.03906880  1
  S  S211  1  0.09469288  0.35393197  0.96093120  1
  S  S212  1  0.59469288  0.35393197  0.53906880  1
  S  S213  1  0.09469288  0.14606803  0.46093120  1
  S  S214  1  0.40530712  0.85393197  0.96093120  1
  S  S215  1  0.90530712  0.64606803  0.03906880  1
  S  S216  1  0.72095042  0.80447418  0.37307363  1
  S  S217  1  0.22095042  0.69552582  0.62692637  1
  S  S218  1  0.27904958  0.30447418  0.12692637  1
  S  S219  1  0.77904958  0.19552582  0.87307363  1
  S  S220  1  0.27904958  0.19552582  0.62692637  1
  S  S221  1  0.77904958  0.30447418  0.37307363  1
  S  S222  1  0.72095042  0.69552582  0.87307363  1
  S  S223  1  0.22095042  0.80447418  0.12692637  1
  N  N224  1  0.27355034  0.88354123  0.73076911  1
  N  N225  1  0.77355034  0.61645877  0.26923089  1
  N  N226  1  0.72644966  0.38354123  0.76923089  1
  N  N227  1  0.22644966  0.11645877  0.23076911  1
  N  N228  1  0.72644966  0.11645877  0.26923089  1
  N  N229  1  0.22644966  0.38354123  0.73076911  1
  N  N230  1  0.27355034  0.61645877  0.23076911  1
  N  N231  1  0.77355034  0.88354123  0.76923089  1
  N  N232  1  0.76635873  0.63601093  0.56087956  1
  N  N233  1  0.26635873  0.86398907  0.43912044  1
  N  N234  1  0.23364127  0.13601093  0.93912044  1
  N  N235  1  0.73364127  0.36398907  0.06087956  1
  N  N236  1  0.23364127  0.36398907  0.43912044  1
  N  N237  1  0.73364127  0.13601093  0.56087956  1
  N  N238  1  0.76635873  0.86398907  0.06087956  1
  N  N239  1  0.26635873  0.63601093  0.93912044  1
  O  O240  1  0.34158626  0.82392023  0.75238213  1
  O  O241  1  0.84158626  0.67607977  0.24761787  1
  O  O242  1  0.65841374  0.32392023  0.74761787  1
  O  O243  1  0.15841374  0.17607977  0.25238213  1
  O  O244  1  0.65841374  0.17607977  0.24761787  1
  O  O245  1  0.15841374  0.32392023  0.75238213  1
  O  O246  1  0.34158626  0.67607977  0.25238213  1
  O  O247  1  0.84158626  0.82392023  0.74761787  1
  O  O248  1  0.27954032  0.89718019  0.67392683  1
  O  O249  1  0.77954032  0.60281981  0.32607317  1
  O  O250  1  0.72045968  0.39718019  0.82607317  1
  O  O251  1  0.22045968  0.10281981  0.17392683  1
  O  O252  1  0.72045968  0.10281981  0.32607317  1
  O  O253  1  0.22045968  0.39718019  0.67392683  1
  O  O254  1  0.27954032  0.60281981  0.17392683  1
  O  O255  1  0.77954032  0.89718019  0.82607317  1
  O  O256  1  0.20274978  0.92599840  0.76658207  1
  O  O257  1  0.70274978  0.57400160  0.23341793  1
  O  O258  1  0.79725022  0.42599840  0.73341793  1
  O  O259  1  0.29725022  0.07400160  0.26658207  1
  O  O260  1  0.79725022  0.07400160  0.23341793  1
  O  O261  1  0.29725022  0.42599840  0.76658207  1
  O  O262  1  0.20274978  0.57400160  0.26658207  1
  O  O263  1  0.70274978  0.92599840  0.73341793  1
  O  O264  1  0.79329683  0.67185998  0.51045079  1
  O  O265  1  0.29329683  0.82814002  0.48954921  1
  O  O266  1  0.20670317  0.17185998  0.98954921  1
  O  O267  1  0.70670317  0.32814002  0.01045079  1
  O  O268  1  0.20670317  0.32814002  0.48954921  1
  O  O269  1  0.70670317  0.17185998  0.51045079  1
  O  O270  1  0.79329683  0.82814002  0.01045079  1
  O  O271  1  0.29329683  0.67185998  0.98954921  1
  O  O272  1  0.63709113  0.62178801  0.57571781  1
  O  O273  1  0.13709113  0.87821199  0.42428219  1
  O  O274  1  0.36290887  0.12178801  0.92428219  1
  O  O275  1  0.86290887  0.37821199  0.07571781  1
  O  O276  1  0.36290887  0.37821199  0.42428219  1
  O  O277  1  0.86290887  0.12178801  0.57571781  1
  O  O278  1  0.63709113  0.87821199  0.07571781  1
  O  O279  1  0.13709113  0.62178801  0.92428219  1
  O  O280  1  0.87033974  0.61614681  0.59488336  1
  O  O281  1  0.37033974  0.88385319  0.40511664  1
  O  O282  1  0.12966026  0.11614681  0.90511664  1
  O  O283  1  0.62966026  0.38385319  0.09488336  1
  O  O284  1  0.12966026  0.38385319  0.40511664  1
  O  O285  1  0.62966026  0.11614681  0.59488336  1
  O  O286  1  0.87033974  0.88385319  0.09488336  1
  O  O287  1  0.37033974  0.61614681  0.90511664  1
