# generated using pymatgen
data_KSc(BH4)4
_symmetry_space_group_name_H-M   'P 1'
_cell_length_a   12.58270800
_cell_length_b   8.24986200
_cell_length_c   9.97139300
_cell_angle_alpha   90.00000000
_cell_angle_beta   90.00000000
_cell_angle_gamma   90.00000000
_symmetry_Int_Tables_number   1
_chemical_formula_structural   KSc(BH4)4
_chemical_formula_sum   'K4 Sc4 B16 H64'
_cell_volume   1035.08647893
_cell_formula_units_Z   4
loop_
 _symmetry_equiv_pos_site_id
 _symmetry_equiv_pos_as_xyz
  1  'x, y, z'
loop_
 _atom_site_type_symbol
 _atom_site_label
 _atom_site_symmetry_multiplicity
 _atom_site_fract_x
 _atom_site_fract_y
 _atom_site_fract_z
 _atom_site_occupancy
  K  K0  1  0.69300100  0.25000000  0.84796800  1
  K  K1  1  0.19300100  0.25000000  0.65203200  1
  K  K2  1  0.30699900  0.75000000  0.15203200  1
  K  K3  1  0.80699900  0.75000000  0.34796800  1
  Sc  Sc4  1  0.55798500  0.25000000  0.29603000  1
  Sc  Sc5  1  0.05798500  0.25000000  0.20397000  1
  Sc  Sc6  1  0.44201500  0.75000000  0.70397000  1
  Sc  Sc7  1  0.94201500  0.75000000  0.79603000  1
  B  B8  1  0.66632300  0.25000000  0.48272600  1
  B  B9  1  0.16632300  0.25000000  0.01727400  1
  B  B10  1  0.33367700  0.75000000  0.51727400  1
  B  B11  1  0.83367700  0.75000000  0.98272600  1
  B  B12  1  0.88762000  0.25000000  0.12125600  1
  B  B13  1  0.38762000  0.25000000  0.37874400  1
  B  B14  1  0.11238000  0.75000000  0.87874400  1
  B  B15  1  0.61238000  0.75000000  0.62125600  1
  B  B16  1  0.58723400  0.01575000  0.16558500  1
  B  B17  1  0.08723400  0.48425000  0.33441500  1
  B  B18  1  0.41276600  0.51575000  0.83441500  1
  B  B19  1  0.91276600  0.98425000  0.66558500  1
  B  B20  1  0.41276600  0.98425000  0.83441500  1
  B  B21  1  0.91276600  0.51575000  0.66558500  1
  B  B22  1  0.58723400  0.48425000  0.16558500  1
  B  B23  1  0.08723400  0.01575000  0.33441500  1
  H  H24  1  0.72833000  0.25000000  0.38696800  1
  H  H25  1  0.22833000  0.25000000  0.11303200  1
  H  H26  1  0.27167000  0.75000000  0.61303200  1
  H  H27  1  0.77167000  0.75000000  0.88696800  1
  H  H28  1  0.71038000  0.25000000  0.58923000  1
  H  H29  1  0.21038000  0.25000000  0.91077000  1
  H  H30  1  0.28962000  0.75000000  0.41077000  1
  H  H31  1  0.78962000  0.75000000  0.08923000  1
  H  H32  1  0.60823000  0.37057800  0.47057700  1
  H  H33  1  0.10823000  0.12942200  0.02942300  1
  H  H34  1  0.39177000  0.87057800  0.52942300  1
  H  H35  1  0.89177000  0.62942200  0.97057700  1
  H  H36  1  0.39177000  0.62942200  0.52942300  1
  H  H37  1  0.89177000  0.87057800  0.97057700  1
  H  H38  1  0.60823000  0.12942200  0.47057700  1
  H  H39  1  0.10823000  0.37057800  0.02942300  1
  H  H40  1  0.88710100  0.25000000  0.24558600  1
  H  H41  1  0.38710100  0.25000000  0.25441400  1
  H  H42  1  0.11289900  0.75000000  0.75441400  1
  H  H43  1  0.61289900  0.75000000  0.74558600  1
  H  H44  1  0.79920900  0.25000000  0.07563500  1
  H  H45  1  0.29920900  0.25000000  0.42436500  1
  H  H46  1  0.20079100  0.75000000  0.92436500  1
  H  H47  1  0.70079100  0.75000000  0.57563500  1
  H  H48  1  0.93936400  0.37032800  0.08641000  1
  H  H49  1  0.43936400  0.12967200  0.41359000  1
  H  H50  1  0.06063600  0.87032800  0.91359000  1
  H  H51  1  0.56063600  0.62967200  0.58641000  1
  H  H52  1  0.06063600  0.62967200  0.91359000  1
  H  H53  1  0.56063600  0.87032800  0.58641000  1
  H  H54  1  0.93936400  0.12967200  0.08641000  1
  H  H55  1  0.43936400  0.37032800  0.41359000  1
  H  H56  1  0.58135700  0.89530500  0.09740700  1
  H  H57  1  0.08135700  0.60469500  0.40259300  1
  H  H58  1  0.41864300  0.39530500  0.90259300  1
  H  H59  1  0.91864300  0.10469500  0.59740700  1
  H  H60  1  0.41864300  0.10469500  0.90259300  1
  H  H61  1  0.91864300  0.39530500  0.59740700  1
  H  H62  1  0.58135700  0.60469500  0.09740700  1
  H  H63  1  0.08135700  0.89530500  0.40259300  1
  H  H64  1  0.55257900  0.99003700  0.28011600  1
  H  H65  1  0.05257900  0.50996300  0.21988400  1
  H  H66  1  0.44742100  0.49003700  0.71988400  1
  H  H67  1  0.94742100  0.00996300  0.78011600  1
  H  H68  1  0.44742100  0.00996300  0.71988400  1
  H  H69  1  0.94742100  0.49003700  0.78011600  1
  H  H70  1  0.55257900  0.50996300  0.28011600  1
  H  H71  1  0.05257900  0.99003700  0.21988400  1
  H  H72  1  0.67796200  0.07012400  0.17695600  1
  H  H73  1  0.17796200  0.42987600  0.32304400  1
  H  H74  1  0.32203800  0.57012400  0.82304400  1
  H  H75  1  0.82203800  0.92987600  0.67695600  1
  H  H76  1  0.32203800  0.92987600  0.82304400  1
  H  H77  1  0.82203800  0.57012400  0.67695600  1
  H  H78  1  0.67796200  0.42987600  0.17695600  1
  H  H79  1  0.17796200  0.07012400  0.32304400  1
  H  H80  1  0.53101300  0.12334400  0.11560500  1
  H  H81  1  0.03101300  0.37665600  0.38439500  1
  H  H82  1  0.46898700  0.62334400  0.88439500  1
  H  H83  1  0.96898700  0.87665600  0.61560500  1
  H  H84  1  0.46898700  0.87665600  0.88439500  1
  H  H85  1  0.96898700  0.62334400  0.61560500  1
  H  H86  1  0.53101300  0.37665600  0.11560500  1
  H  H87  1  0.03101300  0.12334400  0.38439500  1
