# generated using pymatgen
data_HgC6(N4Cl)3
_symmetry_space_group_name_H-M   'P 1'
_cell_length_a   7.17617200
_cell_length_b   9.82376500
_cell_length_c   12.42461971
_cell_angle_alpha   80.10346728
_cell_angle_beta   90.00000000
_cell_angle_gamma   90.00000000
_symmetry_Int_Tables_number   1
_chemical_formula_structural   HgC6(N4Cl)3
_chemical_formula_sum   'Hg2 C12 N24 Cl6'
_cell_volume   862.86514427
_cell_formula_units_Z   2
loop_
 _symmetry_equiv_pos_site_id
 _symmetry_equiv_pos_as_xyz
  1  'x, y, z'
loop_
 _atom_site_type_symbol
 _atom_site_label
 _atom_site_symmetry_multiplicity
 _atom_site_fract_x
 _atom_site_fract_y
 _atom_site_fract_z
 _atom_site_occupancy
  Hg  Hg0  1  0.73705700  0.00765300  0.24537300  1
  Hg  Hg1  1  0.23705700  0.99234700  0.75462700  1
  C  C2  1  0.32855600  0.37625500  0.42215500  1
  C  C3  1  0.82855600  0.62374500  0.57784500  1
  C  C4  1  0.31496500  0.37683600  0.23797600  1
  C  C5  1  0.81496500  0.62316400  0.76202400  1
  C  C6  1  0.37796300  0.57705100  0.30219300  1
  C  C7  1  0.87796300  0.42294900  0.69780700  1
  C  C8  1  0.88512200  0.59224800  0.17232300  1
  C  C9  1  0.38512200  0.40775200  0.82767700  1
  C  C10  1  0.82162700  0.39236500  0.29138800  1
  C  C11  1  0.32162700  0.60763500  0.70861200  1
  C  C12  1  0.81389500  0.39455800  0.10665500  1
  C  C13  1  0.31389500  0.60544200  0.89334500  1
  N  N14  1  0.78145600  0.32199600  0.20864800  1
  N  N15  1  0.28145600  0.67800400  0.79135200  1
  N  N16  1  0.36700000  0.51352400  0.40856100  1
  N  N17  1  0.86700000  0.48647600  0.59143900  1
  N  N18  1  0.36259700  0.51284000  0.21338500  1
  N  N19  1  0.86259700  0.48716000  0.78661500  1
  N  N20  1  0.41043100  0.71478600  0.28253400  1
  N  N21  1  0.91043100  0.28521400  0.71746600  1
  N  N22  1  0.87692000  0.52696000  0.27829500  1
  N  N23  1  0.37692000  0.47304000  0.72170500  1
  N  N24  1  0.29283800  0.30320300  0.34062200  1
  N  N25  1  0.79283800  0.69679700  0.65937800  1
  N  N26  1  0.80190600  0.32240500  0.39465400  1
  N  N27  1  0.30190600  0.67759500  0.60534600  1
  N  N28  1  0.86383700  0.53019500  0.08333900  1
  N  N29  1  0.36383700  0.46980500  0.91666100  1
  N  N30  1  0.79190000  0.32524700  0.02217000  1
  N  N31  1  0.29190000  0.67475300  0.97783000  1
  N  N32  1  0.32143500  0.30569500  0.52597600  1
  N  N33  1  0.82143500  0.69430500  0.47402400  1
  N  N34  1  0.28288300  0.30921500  0.15348000  1
  N  N35  1  0.78288300  0.69078500  0.84652000  1
  N  N36  1  0.91912100  0.73007300  0.15481000  1
  N  N37  1  0.41912100  0.26992700  0.84519000  1
  Cl  Cl38  1  0.56208100  0.01265800  0.08289200  1
  Cl  Cl39  1  0.06208100  0.98734200  0.91710800  1
  Cl  Cl40  1  0.56314600  0.00938200  0.41627900  1
  Cl  Cl41  1  0.06314600  0.99061800  0.58372100  1
  Cl  Cl42  1  0.06356600  0.00768800  0.28617400  1
  Cl  Cl43  1  0.56356600  0.99231200  0.71382600  1
