# generated using pymatgen
data_Cs2Mg(SeO7)2
_symmetry_space_group_name_H-M   'P 1'
_cell_length_a   12.71601500
_cell_length_b   6.58343000
_cell_length_c   9.58174085
_cell_angle_alpha   85.09570176
_cell_angle_beta   90.00000000
_cell_angle_gamma   90.00000000
_symmetry_Int_Tables_number   1
_chemical_formula_structural   Cs2Mg(SeO7)2
_chemical_formula_sum   'Cs4 Mg2 Se4 O28'
_cell_volume   799.19867436
_cell_formula_units_Z   2
loop_
 _symmetry_equiv_pos_site_id
 _symmetry_equiv_pos_as_xyz
  1  'x, y, z'
loop_
 _atom_site_type_symbol
 _atom_site_label
 _atom_site_symmetry_multiplicity
 _atom_site_fract_x
 _atom_site_fract_y
 _atom_site_fract_z
 _atom_site_occupancy
  Cs  Cs0  1  0.15380400  0.81235600  0.35998000  1
  Cs  Cs1  1  0.65380400  0.18764400  0.14002000  1
  Cs  Cs2  1  0.84619600  0.18764400  0.64002000  1
  Cs  Cs3  1  0.34619600  0.81235600  0.85998000  1
  Mg  Mg4  1  0.00000000  0.50000000  0.00000000  1
  Mg  Mg5  1  0.50000000  0.50000000  0.50000000  1
  Se  Se6  1  0.15742300  0.27022400  0.61953500  1
  Se  Se7  1  0.65742300  0.72977600  0.88046500  1
  Se  Se8  1  0.84257700  0.72977600  0.38046500  1
  Se  Se9  1  0.34257700  0.27022400  0.11953500  1
  O  O10  1  0.20354200  0.50633100  0.64698000  1
  O  O11  1  0.70354200  0.49366900  0.85302000  1
  O  O12  1  0.79645800  0.49366900  0.35302000  1
  O  O13  1  0.29645800  0.50633100  0.14698000  1
  O  O14  1  0.08735600  0.18082900  0.76027800  1
  O  O15  1  0.58735600  0.81917100  0.73972200  1
  O  O16  1  0.91264400  0.81917100  0.23972200  1
  O  O17  1  0.41264400  0.18082900  0.26027800  1
  O  O18  1  0.26104500  0.10505800  0.60394900  1
  O  O19  1  0.76104500  0.89494200  0.89605100  1
  O  O20  1  0.73895500  0.89494200  0.39605100  1
  O  O21  1  0.23895500  0.10505800  0.10394900  1
  O  O22  1  0.08316700  0.28043300  0.47715800  1
  O  O23  1  0.58316700  0.71956700  0.02284200  1
  O  O24  1  0.91683300  0.71956700  0.52284200  1
  O  O25  1  0.41683300  0.28043300  0.97715800  1
  O  O26  1  0.88347600  0.33323000  0.09749500  1
  O  O27  1  0.38347600  0.66677000  0.40250500  1
  O  O28  1  0.11652400  0.66677000  0.90250500  1
  O  O29  1  0.61652400  0.33323000  0.59749500  1
  O  O30  1  0.13451300  0.51410400  0.11305500  1
  O  O31  1  0.63451300  0.48589600  0.38694500  1
  O  O32  1  0.86548700  0.48589600  0.88694500  1
  O  O33  1  0.36548700  0.51410400  0.61305500  1
  O  O34  1  0.10255600  0.23328400  0.00969700  1
  O  O35  1  0.60255600  0.76671600  0.49030300  1
  O  O36  1  0.89744400  0.76671600  0.99030300  1
  O  O37  1  0.39744400  0.23328400  0.50969700  1
