# generated using pymatgen
data_SiC
_symmetry_space_group_name_H-M   'P 1'
_cell_length_a   3.09771981
_cell_length_b   3.09771981
_cell_length_c   73.25353179
_cell_angle_alpha   88.78845802
_cell_angle_beta   88.78845802
_cell_angle_gamma   60.00000395
_symmetry_Int_Tables_number   1
_chemical_formula_structural   SiC
_chemical_formula_sum   'Si29 C29'
_cell_volume   608.57486130
_cell_formula_units_Z   29
loop_
 _symmetry_equiv_pos_site_id
 _symmetry_equiv_pos_as_xyz
  1  'x, y, z'
loop_
 _atom_site_type_symbol
 _atom_site_label
 _atom_site_symmetry_multiplicity
 _atom_site_fract_x
 _atom_site_fract_y
 _atom_site_fract_z
 _atom_site_occupancy
  Si  Si0  1  0.00001400  0.00001400  0.99995800  1
  Si  Si1  1  0.97701700  0.97701700  0.06894800  1
  Si  Si2  1  0.93105100  0.93105100  0.20684800  1
  Si  Si3  1  0.90805700  0.90805700  0.27582900  1
  Si  Si4  1  0.86208700  0.86208700  0.41373800  1
  Si  Si5  1  0.83908600  0.83908600  0.48274200  1
  Si  Si6  1  0.79311900  0.79311900  0.62064400  1
  Si  Si7  1  0.77012000  0.77012000  0.68964100  1
  Si  Si8  1  0.72415800  0.72415800  0.82752700  1
  Si  Si9  1  0.70115800  0.70115800  0.89652700  1
  Si  Si10  1  0.65518200  0.65518200  0.03445300  1
  Si  Si11  1  0.62069900  0.62069900  0.13790400  1
  Si  Si12  1  0.58621900  0.58621900  0.24134400  1
  Si  Si13  1  0.55173600  0.55173600  0.34479300  1
  Si  Si14  1  0.51725100  0.51725100  0.44824800  1
  Si  Si15  1  0.48276700  0.48276700  0.55169800  1
  Si  Si16  1  0.44828500  0.44828500  0.65514500  1
  Si  Si17  1  0.41380300  0.41380300  0.75859200  1
  Si  Si18  1  0.37932200  0.37932200  0.86203400  1
  Si  Si19  1  0.34484000  0.34484000  0.96548000  1
  Si  Si20  1  0.29886700  0.29886700  0.10339900  1
  Si  Si21  1  0.27586600  0.27586600  0.17240100  1
  Si  Si22  1  0.22990600  0.22990600  0.31028200  1
  Si  Si23  1  0.20690600  0.20690600  0.37928300  1
  Si  Si24  1  0.16093600  0.16093600  0.51719200  1
  Si  Si25  1  0.13793700  0.13793700  0.58619000  1
  Si  Si26  1  0.09196700  0.09196700  0.72409800  1
  Si  Si27  1  0.06897400  0.06897400  0.79307800  1
  Si  Si28  1  0.02300800  0.02300800  0.93097500  1
  C  C29  1  0.99138400  0.99138400  0.02584800  1
  C  C30  1  0.96838100  0.96838100  0.09485600  1
  C  C31  1  0.92241400  0.92241400  0.23275700  1
  C  C32  1  0.89941800  0.89941800  0.30174700  1
  C  C33  1  0.85345100  0.85345100  0.43964700  1
  C  C34  1  0.83045200  0.83045200  0.50864400  1
  C  C35  1  0.78448600  0.78448600  0.64654200  1
  C  C36  1  0.76148500  0.76148500  0.71554600  1
  C  C37  1  0.71551800  0.71551800  0.85344500  1
  C  C38  1  0.69252000  0.69252000  0.92244100  1
  C  C39  1  0.64652500  0.64652500  0.06042600  1
  C  C40  1  0.61204200  0.61204200  0.16387300  1
  C  C41  1  0.57755900  0.57755900  0.26732200  1
  C  C42  1  0.54307400  0.54307400  0.37077700  1
  C  C43  1  0.50859400  0.50859400  0.47421900  1
  C  C44  1  0.47411100  0.47411100  0.57766600  1
  C  C45  1  0.43962700  0.43962700  0.68111800  1
  C  C46  1  0.40514000  0.40514000  0.78457900  1
  C  C47  1  0.37066100  0.37066100  0.88801700  1
  C  C48  1  0.33618200  0.33618200  0.99145400  1
  C  C49  1  0.29023100  0.29023100  0.12930600  1
  C  C50  1  0.26723100  0.26723100  0.19830700  1
  C  C51  1  0.22126300  0.22126300  0.33621000  1
  C  C52  1  0.19827000  0.19827000  0.40519100  1
  C  C53  1  0.15230200  0.15230200  0.54309300  1
  C  C54  1  0.12930200  0.12930200  0.61209500  1
  C  C55  1  0.08333200  0.08333200  0.75000300  1
  C  C56  1  0.06033400  0.06033400  0.81899800  1
  C  C57  1  0.01437200  0.01437200  0.95688300  1
