# generated using pymatgen
data_LiB2O3
_symmetry_space_group_name_H-M   'P 1'
_cell_length_a   10.31779447
_cell_length_b   10.31779447
_cell_length_c   10.31779447
_cell_angle_alpha   109.05084608
_cell_angle_beta   109.68181595
_cell_angle_gamma   109.68181595
_symmetry_Int_Tables_number   1
_chemical_formula_structural   LiB2O3
_chemical_formula_sum   'Li8 B16 O24'
_cell_volume   845.51478930
_cell_formula_units_Z   8
loop_
 _symmetry_equiv_pos_site_id
 _symmetry_equiv_pos_as_xyz
  1  'x, y, z'
loop_
 _atom_site_type_symbol
 _atom_site_label
 _atom_site_symmetry_multiplicity
 _atom_site_fract_x
 _atom_site_fract_y
 _atom_site_fract_z
 _atom_site_occupancy
  Li  Li0  1  0.02882800  0.65547800  0.15476800  1
  Li  Li1  1  0.50071000  0.15547800  0.12665000  1
  Li  Li2  1  0.00071000  0.37665000  0.90547800  1
  Li  Li3  1  0.52882800  0.40476800  0.40547800  1
  Li  Li4  1  0.97117200  0.12594000  0.62665000  1
  Li  Li5  1  0.49929000  0.62594000  0.65476800  1
  Li  Li6  1  0.99929000  0.90476800  0.37594000  1
  Li  Li7  1  0.47117200  0.87665000  0.87594000  1
  B  B8  1  0.72122500  0.18746900  0.64169900  1
  B  B9  1  0.54577000  0.68746900  0.96624400  1
  B  B10  1  0.04577000  0.21624400  0.43746900  1
  B  B11  1  0.22122500  0.89169900  0.93746900  1
  B  B12  1  0.27877500  0.92047400  0.46624400  1
  B  B13  1  0.45423000  0.42047400  0.14169900  1
  B  B14  1  0.95423000  0.39169900  0.17047400  1
  B  B15  1  0.77877500  0.71624400  0.67047400  1
  B  B16  1  0.52881500  0.00642600  0.70600800  1
  B  B17  1  0.30041800  0.50642600  0.97761100  1
  B  B18  1  0.80041800  0.22761100  0.25642600  1
  B  B19  1  0.02881500  0.95600800  0.75642600  1
  B  B20  1  0.47118500  0.17719300  0.47761100  1
  B  B21  1  0.69958200  0.67719300  0.20600800  1
  B  B22  1  0.19958200  0.45600800  0.42719300  1
  B  B23  1  0.97118500  0.72761100  0.92719300  1
  O  O24  1  0.87219000  0.23550100  0.68586800  1
  O  O25  1  0.54963300  0.73550100  0.86331100  1
  O  O26  1  0.04963300  0.11331100  0.48550100  1
  O  O27  1  0.37219000  0.93586800  0.98550100  1
  O  O28  1  0.12781000  0.81367800  0.36331100  1
  O  O29  1  0.45036700  0.31367800  0.18586800  1
  O  O30  1  0.95036700  0.43586800  0.06367800  1
  O  O31  1  0.62781000  0.61331100  0.56367800  1
  O  O32  1  0.65084700  0.11580700  0.71496200  1
  O  O33  1  0.40084500  0.61580700  0.96496000  1
  O  O34  1  0.90084500  0.21496000  0.36580700  1
  O  O35  1  0.15084700  0.96496200  0.86580700  1
  O  O36  1  0.34915300  0.06411500  0.46496000  1
  O  O37  1  0.59915500  0.56411500  0.21496200  1
  O  O38  1  0.09915500  0.46496200  0.31411500  1
  O  O39  1  0.84915300  0.71496000  0.81411500  1
  O  O40  1  0.62514000  0.21470100  0.52981800  1
  O  O41  1  0.68488300  0.71470100  0.08956100  1
  O  O42  1  0.18488300  0.33956100  0.46470100  1
  O  O43  1  0.12514000  0.77981800  0.96470100  1
  O  O44  1  0.37486000  0.90467800  0.58956100  1
  O  O45  1  0.31511700  0.40467800  0.02981800  1
  O  O46  1  0.81511700  0.27981800  0.15467800  1
  O  O47  1  0.87486000  0.83956100  0.65467800  1
