# generated using pymatgen
data_Rb3Cr(HO)6
_symmetry_space_group_name_H-M   'P 1'
_cell_length_a   7.63883748
_cell_length_b   7.63883748
_cell_length_c   7.63883712
_cell_angle_alpha   95.43711978
_cell_angle_beta   95.43711978
_cell_angle_gamma   95.43712485
_symmetry_Int_Tables_number   1
_chemical_formula_structural   Rb3Cr(HO)6
_chemical_formula_sum   'Rb6 Cr2 H12 O12'
_cell_volume   439.31172377
_cell_formula_units_Z   2
loop_
 _symmetry_equiv_pos_site_id
 _symmetry_equiv_pos_as_xyz
  1  'x, y, z'
loop_
 _atom_site_type_symbol
 _atom_site_label
 _atom_site_symmetry_multiplicity
 _atom_site_fract_x
 _atom_site_fract_y
 _atom_site_fract_z
 _atom_site_occupancy
  Rb  Rb0  1  0.62613000  0.87387000  0.25000000  1
  Rb  Rb1  1  0.87387000  0.25000000  0.62613000  1
  Rb  Rb2  1  0.25000000  0.62613000  0.87387000  1
  Rb  Rb3  1  0.12613000  0.75000000  0.37387000  1
  Rb  Rb4  1  0.75000000  0.37387000  0.12613000  1
  Rb  Rb5  1  0.37387000  0.12613000  0.75000000  1
  Cr  Cr6  1  0.50000000  0.50000000  0.50000000  1
  Cr  Cr7  1  0.00000000  0.00000000  0.00000000  1
  H  H8  1  0.07509600  0.12446100  0.31225300  1
  H  H9  1  0.12446100  0.31225300  0.07509600  1
  H  H10  1  0.31225300  0.07509600  0.12446100  1
  H  H11  1  0.57509600  0.81225300  0.62446100  1
  H  H12  1  0.81225300  0.62446100  0.57509600  1
  H  H13  1  0.62446100  0.57509600  0.81225300  1
  H  H14  1  0.92490400  0.87553900  0.68774700  1
  H  H15  1  0.87553900  0.68774700  0.92490400  1
  H  H16  1  0.68774700  0.92490400  0.87553900  1
  H  H17  1  0.42490400  0.18774700  0.37553900  1
  H  H18  1  0.18774700  0.37553900  0.42490400  1
  H  H19  1  0.37553900  0.42490400  0.18774700  1
  O  O20  1  0.95653200  0.09523500  0.25159500  1
  O  O21  1  0.09523500  0.25159500  0.95653200  1
  O  O22  1  0.25159500  0.95653200  0.09523500  1
  O  O23  1  0.45653200  0.75159500  0.59523500  1
  O  O24  1  0.75159500  0.59523500  0.45653200  1
  O  O25  1  0.59523500  0.45653200  0.75159500  1
  O  O26  1  0.04346800  0.90476500  0.74840500  1
  O  O27  1  0.90476500  0.74840500  0.04346800  1
  O  O28  1  0.74840500  0.04346800  0.90476500  1
  O  O29  1  0.54346800  0.24840500  0.40476500  1
  O  O30  1  0.24840500  0.40476500  0.54346800  1
  O  O31  1  0.40476500  0.54346800  0.24840500  1
