# generated using pymatgen
data_La4Fe(SbSe5)2
_symmetry_space_group_name_H-M   'P 1'
_cell_length_a   7.96031200
_cell_length_b   13.83732800
_cell_length_c   15.73608100
_cell_angle_alpha   90.00000000
_cell_angle_beta   90.00000000
_cell_angle_gamma   90.00000000
_symmetry_Int_Tables_number   1
_chemical_formula_structural   La4Fe(SbSe5)2
_chemical_formula_sum   'La16 Fe4 Sb8 Se40'
_cell_volume   1733.32063782
_cell_formula_units_Z   4
loop_
 _symmetry_equiv_pos_site_id
 _symmetry_equiv_pos_as_xyz
  1  'x, y, z'
loop_
 _atom_site_type_symbol
 _atom_site_label
 _atom_site_symmetry_multiplicity
 _atom_site_fract_x
 _atom_site_fract_y
 _atom_site_fract_z
 _atom_site_occupancy
  La  La0  1  0.12932100  0.75000000  0.06490400  1
  La  La1  1  0.87067900  0.25000000  0.93509600  1
  La  La2  1  0.37067900  0.25000000  0.06490400  1
  La  La3  1  0.62932100  0.75000000  0.93509600  1
  La  La4  1  0.37405100  0.75000000  0.68885200  1
  La  La5  1  0.62594900  0.25000000  0.31114800  1
  La  La6  1  0.12594900  0.25000000  0.68885200  1
  La  La7  1  0.87405100  0.75000000  0.31114800  1
  La  La8  1  0.25000000  0.50000000  0.37744300  1
  La  La9  1  0.75000000  0.00000000  0.62255700  1
  La  La10  1  0.75000000  0.50000000  0.62255700  1
  La  La11  1  0.25000000  0.00000000  0.37744300  1
  La  La12  1  0.25000000  0.50000000  0.87482600  1
  La  La13  1  0.75000000  0.00000000  0.12517400  1
  La  La14  1  0.75000000  0.50000000  0.12517400  1
  La  La15  1  0.25000000  0.00000000  0.87482600  1
  Fe  Fe16  1  0.25000000  0.50000000  0.12352600  1
  Fe  Fe17  1  0.75000000  0.00000000  0.87647400  1
  Fe  Fe18  1  0.75000000  0.50000000  0.87647400  1
  Fe  Fe19  1  0.25000000  0.00000000  0.12352600  1
  Sb  Sb20  1  0.44707000  0.75000000  0.21544400  1
  Sb  Sb21  1  0.55293000  0.25000000  0.78455600  1
  Sb  Sb22  1  0.05293000  0.25000000  0.21544400  1
  Sb  Sb23  1  0.94707000  0.75000000  0.78455600  1
  Sb  Sb24  1  0.05120800  0.75000000  0.53576100  1
  Sb  Sb25  1  0.94879200  0.25000000  0.46423900  1
  Sb  Sb26  1  0.44879200  0.25000000  0.53576100  1
  Sb  Sb27  1  0.55120800  0.75000000  0.46423900  1
  Se  Se28  1  0.41672200  0.60149000  0.54509200  1
  Se  Se29  1  0.58327800  0.10149000  0.45490800  1
  Se  Se30  1  0.08327800  0.39851000  0.54509200  1
  Se  Se31  1  0.91672200  0.89851000  0.45490800  1
  Se  Se32  1  0.58327800  0.39851000  0.45490800  1
  Se  Se33  1  0.41672200  0.89851000  0.54509200  1
  Se  Se34  1  0.91672200  0.60149000  0.45490800  1
  Se  Se35  1  0.08327800  0.10149000  0.54509200  1
  Se  Se36  1  0.25681200  0.75000000  0.37422800  1
  Se  Se37  1  0.74318800  0.25000000  0.62577200  1
  Se  Se38  1  0.24318800  0.25000000  0.37422800  1
  Se  Se39  1  0.75681200  0.75000000  0.62577200  1
  Se  Se40  1  0.41578300  0.60470900  0.03640700  1
  Se  Se41  1  0.58421700  0.10470900  0.96359300  1
  Se  Se42  1  0.08421700  0.39529100  0.03640700  1
  Se  Se43  1  0.91578300  0.89529100  0.96359300  1
  Se  Se44  1  0.58421700  0.39529100  0.96359300  1
  Se  Se45  1  0.41578300  0.89529100  0.03640700  1
  Se  Se46  1  0.91578300  0.60470900  0.96359300  1
  Se  Se47  1  0.08421700  0.10470900  0.03640700  1
  Se  Se48  1  0.08576300  0.60142000  0.70595000  1
  Se  Se49  1  0.91423700  0.10142000  0.29405000  1
  Se  Se50  1  0.41423700  0.39858000  0.70595000  1
  Se  Se51  1  0.58576300  0.89858000  0.29405000  1
  Se  Se52  1  0.91423700  0.39858000  0.29405000  1
  Se  Se53  1  0.08576300  0.89858000  0.70595000  1
  Se  Se54  1  0.58576300  0.60142000  0.29405000  1
  Se  Se55  1  0.41423700  0.10142000  0.70595000  1
  Se  Se56  1  0.07781300  0.60206900  0.20997200  1
  Se  Se57  1  0.92218700  0.10206900  0.79002800  1
  Se  Se58  1  0.42218700  0.39793100  0.20997200  1
  Se  Se59  1  0.57781300  0.89793100  0.79002800  1
  Se  Se60  1  0.92218700  0.39793100  0.79002800  1
  Se  Se61  1  0.07781300  0.89793100  0.20997200  1
  Se  Se62  1  0.57781300  0.60206900  0.79002800  1
  Se  Se63  1  0.42218700  0.10206900  0.20997200  1
  Se  Se64  1  0.74298300  0.75000000  0.12585200  1
  Se  Se65  1  0.25701700  0.25000000  0.87414800  1
  Se  Se66  1  0.75701700  0.25000000  0.12585200  1
  Se  Se67  1  0.24298300  0.75000000  0.87414800  1
