# generated using pymatgen
data_CrSi(Ag3O4)2
_symmetry_space_group_name_H-M   'P 1'
_cell_length_a   10.51205051
_cell_length_b   10.51205051
_cell_length_c   10.51205051
_cell_angle_alpha   140.67049916
_cell_angle_beta   140.67049916
_cell_angle_gamma   56.83664238
_symmetry_Int_Tables_number   1
_chemical_formula_structural   CrSi(Ag3O4)2
_chemical_formula_sum   'Cr2 Si2 Ag12 O16'
_cell_volume   462.77275611
_cell_formula_units_Z   2
loop_
 _symmetry_equiv_pos_site_id
 _symmetry_equiv_pos_as_xyz
  1  'x, y, z'
loop_
 _atom_site_type_symbol
 _atom_site_label
 _atom_site_symmetry_multiplicity
 _atom_site_fract_x
 _atom_site_fract_y
 _atom_site_fract_z
 _atom_site_occupancy
  Cr  Cr0  1  0.75000000  0.25000000  0.50000000  1
  Cr  Cr1  1  0.00000000  0.00000000  0.00000000  1
  Si  Si2  1  0.25000000  0.75000000  0.50000000  1
  Si  Si3  1  0.50000000  0.50000000  0.00000000  1
  Ag  Ag4  1  0.17039500  0.62500000  0.04539500  1
  Ag  Ag5  1  0.57960500  0.62500000  0.45460500  1
  Ag  Ag6  1  0.37500000  0.42039500  0.54539500  1
  Ag  Ag7  1  0.87500000  0.42039500  0.04539500  1
  Ag  Ag8  1  0.17039500  0.12500000  0.54539500  1
  Ag  Ag9  1  0.57960500  0.12500000  0.95460500  1
  Ag  Ag10  1  0.37500000  0.82960500  0.95460500  1
  Ag  Ag11  1  0.87500000  0.82960500  0.45460500  1
  Ag  Ag12  1  0.74009300  0.74009300  0.00000000  1
  Ag  Ag13  1  0.49009300  0.99009300  0.50000000  1
  Ag  Ag14  1  0.00990700  0.50990700  0.50000000  1
  Ag  Ag15  1  0.25990700  0.25990700  0.00000000  1
  O  O16  1  0.10937300  0.80180000  0.30757300  1
  O  O17  1  0.49422700  0.80180000  0.69242700  1
  O  O18  1  0.55180000  0.35937300  0.80757300  1
  O  O19  1  0.55180000  0.74422700  0.19242700  1
  O  O20  1  0.64062700  0.44820000  0.19242700  1
  O  O21  1  0.25577300  0.44820000  0.80757300  1
  O  O22  1  0.19820000  0.89062700  0.69242700  1
  O  O23  1  0.19820000  0.50577300  0.30757300  1
  O  O24  1  0.80139400  0.10617600  0.30478200  1
  O  O25  1  0.85617600  0.05139400  0.80478200  1
  O  O26  1  0.24661200  0.05139400  0.19521800  1
  O  O27  1  0.80139400  0.49661200  0.69521800  1
  O  O28  1  0.94860600  0.14382400  0.19521800  1
  O  O29  1  0.89382400  0.19860600  0.69521800  1
  O  O30  1  0.50338800  0.19860600  0.30478200  1
  O  O31  1  0.94860600  0.75338800  0.80478200  1
