# generated using pymatgen
data_ZnH14C2N10(ClO7)2
_symmetry_space_group_name_H-M   'P 1'
_cell_length_a   8.23807984
_cell_length_b   8.67530984
_cell_length_c   12.93143400
_cell_angle_alpha   90.00000000
_cell_angle_beta   90.00000000
_cell_angle_gamma   102.74634589
_symmetry_Int_Tables_number   1
_chemical_formula_structural   ZnH14C2N10(ClO7)2
_chemical_formula_sum   'Zn2 H28 C4 N20 Cl4 O28'
_cell_volume   901.40718271
_cell_formula_units_Z   2
loop_
 _symmetry_equiv_pos_site_id
 _symmetry_equiv_pos_as_xyz
  1  'x, y, z'
loop_
 _atom_site_type_symbol
 _atom_site_label
 _atom_site_symmetry_multiplicity
 _atom_site_fract_x
 _atom_site_fract_y
 _atom_site_fract_z
 _atom_site_occupancy
  Zn  Zn0  1  0.50000000  0.50000000  0.00000000  1
  Zn  Zn1  1  0.00000000  0.00000000  0.50000000  1
  H  H2  1  0.47760400  0.14318900  0.81312000  1
  H  H3  1  0.02239600  0.35681100  0.31312000  1
  H  H4  1  0.52239600  0.85681100  0.18688000  1
  H  H5  1  0.97760400  0.64318900  0.68688000  1
  H  H6  1  0.30432200  0.93077400  0.90370100  1
  H  H7  1  0.19567800  0.56922600  0.40370100  1
  H  H8  1  0.69567800  0.06922600  0.09629900  1
  H  H9  1  0.80432200  0.43077400  0.59629900  1
  H  H10  1  0.63087500  0.40480900  0.82982000  1
  H  H11  1  0.86912500  0.09519100  0.32982000  1
  H  H12  1  0.36912500  0.59519100  0.17018000  1
  H  H13  1  0.13087500  0.90480900  0.67018000  1
  H  H14  1  0.20382500  0.97561800  0.01730900  1
  H  H15  1  0.29617500  0.52438200  0.51730800  1
  H  H16  1  0.79617500  0.02438200  0.98269200  1
  H  H17  1  0.70382500  0.47561800  0.48269100  1
  H  H18  1  0.44135400  0.41912800  0.79543700  1
  H  H19  1  0.05864600  0.08087200  0.29543700  1
  H  H20  1  0.55864600  0.58087200  0.20456300  1
  H  H21  1  0.94135400  0.91912800  0.70456300  1
  H  H22  1  0.75079200  0.41222100  0.11448500  1
  H  H23  1  0.74920800  0.08777900  0.61448500  1
  H  H24  1  0.24920800  0.58777900  0.88551500  1
  H  H25  1  0.25079200  0.91222100  0.38551500  1
  H  H26  1  0.79114800  0.39861600  0.99795700  1
  H  H27  1  0.70885200  0.10138400  0.49795700  1
  H  H28  1  0.20885200  0.60138400  0.00204300  1
  H  H29  1  0.29114800  0.89861600  0.50204300  1
  C  C30  1  0.34971000  0.16348000  0.94895800  1
  C  C31  1  0.15029000  0.33652000  0.44895800  1
  C  C32  1  0.65029000  0.83652000  0.05104200  1
  C  C33  1  0.84971000  0.66348000  0.55104200  1
  N  N34  1  0.50891600  0.38170900  0.85360400  1
  N  N35  1  0.99108400  0.11829100  0.35360400  1
  N  N36  1  0.49108400  0.61829100  0.14639600  1
  N  N37  1  0.00891600  0.88170900  0.64639600  1
  N  N38  1  0.45442500  0.21782100  0.86973500  1
  N  N39  1  0.04557500  0.28217900  0.36973500  1
  N  N40  1  0.54557500  0.78217900  0.13026500  1
  N  N41  1  0.95442500  0.71782100  0.63026500  1
  N  N42  1  0.28878800  0.00959800  0.95945300  1
  N  N43  1  0.21121200  0.49040200  0.45945300  1
  N  N44  1  0.71121200  0.99040200  0.04054700  1
  N  N45  1  0.78878800  0.50959800  0.54054700  1
  N  N46  1  0.32234000  0.27962000  0.01343500  1
  N  N47  1  0.17766000  0.22038000  0.51343500  1
  N  N48  1  0.67766000  0.72038000  0.98656500  1
  N  N49  1  0.82234000  0.77962000  0.48656500  1
  N  N50  1  0.20185700  0.25003100  0.08695800  1
  N  N51  1  0.29814300  0.24996900  0.58695800  1
  N  N52  1  0.79814300  0.74996900  0.91304200  1
  N  N53  1  0.70185700  0.75003100  0.41304200  1
  Cl  Cl54  1  0.51895100  0.17134000  0.29706800  1
  Cl  Cl55  1  0.98104900  0.32866000  0.79706800  1
  Cl  Cl56  1  0.48104900  0.82866000  0.70293200  1
  Cl  Cl57  1  0.01895100  0.67134000  0.20293200  1
  O  O58  1  0.17948200  0.36922000  0.13416100  1
  O  O59  1  0.32051800  0.13078000  0.63416100  1
  O  O60  1  0.82051800  0.63078000  0.86583900  1
  O  O61  1  0.67948200  0.86922000  0.36583900  1
  O  O62  1  0.11843900  0.11397500  0.10595500  1
  O  O63  1  0.38156100  0.38602500  0.60595500  1
  O  O64  1  0.88156100  0.88602500  0.89404500  1
  O  O65  1  0.61843900  0.61397500  0.39404500  1
  O  O66  1  0.69911200  0.37450400  0.04791000  1
  O  O67  1  0.80088800  0.12549600  0.54791000  1
  O  O68  1  0.30088800  0.62549600  0.95209000  1
  O  O69  1  0.19911200  0.87450400  0.45209000  1
  O  O70  1  0.38986100  0.02675100  0.27938400  1
  O  O71  1  0.11013900  0.47324900  0.77938400  1
  O  O72  1  0.61013900  0.97324900  0.72061600  1
  O  O73  1  0.88986100  0.52675100  0.22061600  1
  O  O74  1  0.46048500  0.30680200  0.25941600  1
  O  O75  1  0.03951500  0.19319800  0.75941600  1
  O  O76  1  0.53951500  0.69319800  0.74058400  1
  O  O77  1  0.96048500  0.80680200  0.24058400  1
  O  O78  1  0.55682400  0.19003100  0.40753100  1
  O  O79  1  0.94317600  0.30996900  0.90753100  1
  O  O80  1  0.44317600  0.80996900  0.59246900  1
  O  O81  1  0.05682400  0.69003100  0.09246900  1
  O  O82  1  0.67012600  0.15666900  0.24084300  1
  O  O83  1  0.82987400  0.34333100  0.74084300  1
  O  O84  1  0.32987400  0.84333100  0.75915700  1
  O  O85  1  0.17012600  0.65666900  0.25915700  1
