# generated using pymatgen
data_Sm2Se3O20
_symmetry_space_group_name_H-M   'P 1'
_cell_length_a   7.42838344
_cell_length_b   7.42838344
_cell_length_c   18.32580669
_cell_angle_alpha   88.25406597
_cell_angle_beta   88.25406597
_cell_angle_gamma   123.82792324
_symmetry_Int_Tables_number   1
_chemical_formula_structural   Sm2Se3O20
_chemical_formula_sum   'Sm4 Se6 O40'
_cell_volume   838.28470649
_cell_formula_units_Z   2
loop_
 _symmetry_equiv_pos_site_id
 _symmetry_equiv_pos_as_xyz
  1  'x, y, z'
loop_
 _atom_site_type_symbol
 _atom_site_label
 _atom_site_symmetry_multiplicity
 _atom_site_fract_x
 _atom_site_fract_y
 _atom_site_fract_z
 _atom_site_occupancy
  Sm  Sm0  1  0.83747700  0.70253000  0.89758400  1
  Sm  Sm1  1  0.29747000  0.16252300  0.60241600  1
  Sm  Sm2  1  0.16252300  0.29747000  0.10241600  1
  Sm  Sm3  1  0.70253000  0.83747700  0.39758400  1
  Se  Se4  1  0.31873200  0.68126800  0.25000000  1
  Se  Se5  1  0.68126800  0.31873200  0.75000000  1
  Se  Se6  1  0.80402200  0.67498000  0.09880800  1
  Se  Se7  1  0.32502000  0.19597800  0.40119200  1
  Se  Se8  1  0.19597800  0.32502000  0.90119200  1
  Se  Se9  1  0.67498000  0.80402200  0.59880800  1
  O  O10  1  0.15270500  0.64654100  0.32341500  1
  O  O11  1  0.35345900  0.84729500  0.17658500  1
  O  O12  1  0.84729500  0.35345900  0.67658500  1
  O  O13  1  0.64654100  0.15270500  0.82341500  1
  O  O14  1  0.21859000  0.43386400  0.21971800  1
  O  O15  1  0.56613600  0.78141000  0.28028200  1
  O  O16  1  0.78141000  0.56613600  0.78028200  1
  O  O17  1  0.43386400  0.21859000  0.71971800  1
  O  O18  1  0.06803200  0.30277400  0.98166300  1
  O  O19  1  0.69722600  0.93196800  0.51833700  1
  O  O20  1  0.93196800  0.69722600  0.01833700  1
  O  O21  1  0.30277400  0.06803200  0.48166300  1
  O  O22  1  0.88383400  0.92380600  0.12426200  1
  O  O23  1  0.07619400  0.11616600  0.37573800  1
  O  O24  1  0.11616600  0.07619400  0.87573800  1
  O  O25  1  0.92380600  0.88383400  0.62426200  1
  O  O26  1  0.45748400  0.46184700  0.41523100  1
  O  O27  1  0.53815300  0.54251600  0.08476900  1
  O  O28  1  0.54251600  0.53815300  0.58476900  1
  O  O29  1  0.46184700  0.45748400  0.91523100  1
  O  O30  1  0.85463400  0.55352000  0.16469900  1
  O  O31  1  0.44648000  0.14536600  0.33530100  1
  O  O32  1  0.14536600  0.44648000  0.83530100  1
  O  O33  1  0.55352000  0.85463400  0.66469900  1
  O  O34  1  0.86987600  0.65669800  0.43865900  1
  O  O35  1  0.34330200  0.13012400  0.06134100  1
  O  O36  1  0.13012400  0.34330200  0.56134100  1
  O  O37  1  0.65669800  0.86987600  0.93865900  1
  O  O38  1  0.32316900  0.73092600  0.43126100  1
  O  O39  1  0.26907400  0.67683100  0.06873900  1
  O  O40  1  0.67683100  0.26907400  0.56873900  1
  O  O41  1  0.73092600  0.32316900  0.93126100  1
  O  O42  1  0.93762900  0.74077600  0.32276200  1
  O  O43  1  0.25922400  0.06237100  0.17723800  1
  O  O44  1  0.06237100  0.25922400  0.67723800  1
  O  O45  1  0.74077600  0.93762900  0.82276200  1
  O  O46  1  0.75242600  0.18678000  0.35743500  1
  O  O47  1  0.81322000  0.24757400  0.14256500  1
  O  O48  1  0.24757400  0.81322000  0.64256500  1
  O  O49  1  0.18678000  0.75242600  0.85743500  1
