# generated using pymatgen
data_Na2SrP2H16(S3O4)2
_symmetry_space_group_name_H-M   'P 1'
_cell_length_a   8.84211517
_cell_length_b   8.84211517
_cell_length_c   14.00050037
_cell_angle_alpha   95.53910048
_cell_angle_beta   105.29453763
_cell_angle_gamma   115.43555221
_symmetry_Int_Tables_number   1
_chemical_formula_structural   Na2SrP2H16(S3O4)2
_chemical_formula_sum   'Na4 Sr2 P4 H32 S12 O16'
_cell_volume   925.41701241
_cell_formula_units_Z   2
loop_
 _symmetry_equiv_pos_site_id
 _symmetry_equiv_pos_as_xyz
  1  'x, y, z'
loop_
 _atom_site_type_symbol
 _atom_site_label
 _atom_site_symmetry_multiplicity
 _atom_site_fract_x
 _atom_site_fract_y
 _atom_site_fract_z
 _atom_site_occupancy
  Na  Na0  1  0.00000000  0.50000000  0.00000000  1
  Na  Na1  1  0.00000000  0.00000000  0.50000000  1
  Na  Na2  1  0.43783900  0.18783900  0.25000000  1
  Na  Na3  1  0.56216100  0.81216100  0.75000000  1
  Sr  Sr4  1  0.99905600  0.74905600  0.25000000  1
  Sr  Sr5  1  0.00094400  0.25094400  0.75000000  1
  P  P6  1  0.60237900  0.96125900  0.04295100  1
  P  P7  1  0.41830800  0.55942800  0.45704900  1
  P  P8  1  0.39762100  0.03874100  0.95704900  1
  P  P9  1  0.58169200  0.44057200  0.54295100  1
  H  H10  1  0.61097700  0.69021700  0.19506100  1
  H  H11  1  0.99515600  0.41591600  0.30493900  1
  H  H12  1  0.38902300  0.30978300  0.80493900  1
  H  H13  1  0.00484400  0.58408400  0.69506100  1
  H  H14  1  0.64338800  0.64209300  0.29862100  1
  H  H15  1  0.84347200  0.34476700  0.20137900  1
  H  H16  1  0.35661200  0.35790700  0.70137900  1
  H  H17  1  0.15652800  0.65523300  0.79862100  1
  H  H18  1  0.03353500  0.03613500  0.12425700  1
  H  H19  1  0.41187700  0.90927800  0.37574300  1
  H  H20  1  0.96646500  0.96386500  0.87574300  1
  H  H21  1  0.58812300  0.09072200  0.62425700  1
  H  H22  1  0.12413900  0.94040000  0.08030100  1
  H  H23  1  0.36009900  0.04383800  0.41969900  1
  H  H24  1  0.87586100  0.05960000  0.91969900  1
  H  H25  1  0.63990100  0.95616200  0.58030100  1
  H  H26  1  0.70139000  0.47153800  0.04928400  1
  H  H27  1  0.92225400  0.65210500  0.45071600  1
  H  H28  1  0.29861000  0.52846200  0.95071600  1
  H  H29  1  0.07774600  0.34789500  0.54928400  1
  H  H30  1  0.75456900  0.64871500  0.02114400  1
  H  H31  1  0.12757000  0.73342500  0.47885600  1
  H  H32  1  0.24543100  0.35128500  0.97885600  1
  H  H33  1  0.87243000  0.26657500  0.52114400  1
  H  H34  1  0.22327400  0.56777400  0.21704000  1
  H  H35  1  0.85073500  0.00623500  0.28296000  1
  H  H36  1  0.77672600  0.43222600  0.78296000  1
  H  H37  1  0.14926500  0.99376500  0.71704000  1
  H  H38  1  0.30676300  0.72969200  0.17180800  1
  H  H39  1  0.05788400  0.13495500  0.32819200  1
  H  H40  1  0.69323700  0.27030800  0.82819200  1
  H  H41  1  0.94211600  0.86504500  0.67180800  1
  S  S42  1  0.54922200  0.73837600  0.95293900  1
  S  S43  1  0.28543700  0.59628200  0.54706100  1
  S  S44  1  0.45077800  0.26162400  0.04706100  1
  S  S45  1  0.71456300  0.40371800  0.45293900  1
  S  S46  1  0.84923400  0.15718500  0.06278000  1
  S  S47  1  0.59440500  0.78645400  0.43722000  1
  S  S48  1  0.15076600  0.84281500  0.93722000  1
  S  S49  1  0.40559500  0.21354600  0.56278000  1
  S  S50  1  0.56943500  0.94054500  0.18118400  1
  S  S51  1  0.25936100  0.38825100  0.31881600  1
  S  S52  1  0.43056500  0.05945500  0.81881600  1
  S  S53  1  0.74063900  0.61174900  0.68118400  1
  O  O54  1  0.66723200  0.62985400  0.23427100  1
  O  O55  1  0.89558300  0.43296100  0.26572900  1
  O  O56  1  0.33276800  0.37014600  0.76572900  1
  O  O57  1  0.10441700  0.56703900  0.73427100  1
  O  O58  1  0.10914600  0.98017200  0.14462000  1
  O  O59  1  0.33555300  0.96452600  0.35538000  1
  O  O60  1  0.89085400  0.01982800  0.85538000  1
  O  O61  1  0.66444700  0.03547400  0.64462000  1
  O  O62  1  0.80823800  0.58111300  0.05462300  1
  O  O63  1  0.02649000  0.75361500  0.44537700  1
  O  O64  1  0.19176200  0.41888700  0.94537700  1
  O  O65  1  0.97351000  0.24638500  0.55462300  1
  O  O66  1  0.19203800  0.64128900  0.17487500  1
  O  O67  1  0.96641500  0.01716300  0.32512500  1
  O  O68  1  0.80796200  0.35871100  0.82512500  1
  O  O69  1  0.03358500  0.98283700  0.67487500  1
