# generated using pymatgen
data_H21C7S3N3O8
_symmetry_space_group_name_H-M   'P 1'
_cell_length_a   22.53005900
_cell_length_b   5.91574200
_cell_length_c   13.13172877
_cell_angle_alpha   67.42307992
_cell_angle_beta   90.00000000
_cell_angle_gamma   90.00000000
_symmetry_Int_Tables_number   1
_chemical_formula_structural   H21C7S3N3O8
_chemical_formula_sum   'H84 C28 S12 N12 O32'
_cell_volume   1616.09482810
_cell_formula_units_Z   4
loop_
 _symmetry_equiv_pos_site_id
 _symmetry_equiv_pos_as_xyz
  1  'x, y, z'
loop_
 _atom_site_type_symbol
 _atom_site_label
 _atom_site_symmetry_multiplicity
 _atom_site_fract_x
 _atom_site_fract_y
 _atom_site_fract_z
 _atom_site_occupancy
  H  H0  1  0.62160900  0.60190400  0.50906900  1
  H  H1  1  0.87839100  0.60190400  0.00906900  1
  H  H2  1  0.37839100  0.39809600  0.49093100  1
  H  H3  1  0.12160900  0.39809600  0.99093100  1
  H  H4  1  0.57064900  0.82880400  0.51835400  1
  H  H5  1  0.92935100  0.82880400  0.01835400  1
  H  H6  1  0.42935100  0.17119600  0.48164600  1
  H  H7  1  0.07064900  0.17119600  0.98164600  1
  H  H8  1  0.54670600  0.61209900  0.46215900  1
  H  H9  1  0.95329400  0.61209900  0.96215900  1
  H  H10  1  0.45329400  0.38790100  0.53784100  1
  H  H11  1  0.04670600  0.38790100  0.03784100  1
  H  H12  1  0.69255400  0.93061800  0.39880300  1
  H  H13  1  0.80744600  0.93061800  0.89880300  1
  H  H14  1  0.30744600  0.06938200  0.60119700  1
  H  H15  1  0.19255400  0.06938200  0.10119700  1
  H  H16  1  0.66523200  0.18279000  0.28118700  1
  H  H17  1  0.83476800  0.18279000  0.78118700  1
  H  H18  1  0.33476800  0.81721000  0.71881300  1
  H  H19  1  0.16523200  0.81721000  0.21881300  1
  H  H20  1  0.64281000  0.14478100  0.41924400  1
  H  H21  1  0.85719000  0.14478100  0.91924400  1
  H  H22  1  0.35719000  0.85521900  0.58075600  1
  H  H23  1  0.14281000  0.85521900  0.08075600  1
  H  H24  1  0.58250500  0.64853000  0.27882200  1
  H  H25  1  0.91749500  0.64853000  0.77882200  1
  H  H26  1  0.41749500  0.35147000  0.72117800  1
  H  H27  1  0.08250500  0.35147000  0.22117800  1
  H  H28  1  0.63429900  0.88962100  0.20534600  1
  H  H29  1  0.86570100  0.88962100  0.70534600  1
  H  H30  1  0.36570100  0.11037900  0.79465400  1
  H  H31  1  0.13429900  0.11037900  0.29465400  1
  H  H32  1  0.65743600  0.63652800  0.32677600  1
  H  H33  1  0.84256400  0.63652800  0.82677600  1
  H  H34  1  0.34256400  0.36347200  0.67322400  1
  H  H35  1  0.15743600  0.36347200  0.17322400  1
  H  H36  1  0.32452000  0.22214900  0.17770300  1
  H  H37  1  0.17548000  0.22214900  0.67770300  1
  H  H38  1  0.67548000  0.77785100  0.82229700  1
  H  H39  1  0.82452000  0.77785100  0.32229700  1
  H  H40  1  0.34091000  0.91440000  0.27257400  1
  H  H41  1  0.15909000  0.91440000  0.77257400  1
  H  H42  1  0.65909000  0.08560000  0.72742600  1
  H  H43  1  0.84091000  0.08560000  0.22742600  1
  H  H44  1  0.38371200  0.16633900  0.27555700  1
  H  H45  1  0.11628800  0.16633900  0.77555700  1
  H  H46  1  0.61628800  0.83366100  0.72444300  1
  H  H47  1  0.88371200  0.83366100  0.22444300  1
  H  H48  1  0.45118900  0.38722700  0.12655600  1
  H  H49  1  0.04881100  0.38722700  0.62655600  1
  H  H50  1  0.54881100  0.61277300  0.87344400  1
  H  H51  1  0.95118900  0.61277300  0.37344400  1
  H  H52  1  0.46170900  0.28926600  0.01395000  1
  H  H53  1  0.03829100  0.28926600  0.51395000  1
  H  H54  1  0.53829100  0.71073400  0.98605000  1
  H  H55  1  0.96170900  0.71073400  0.48605000  1
  H  H56  1  0.39385400  0.43562000  0.02598500  1
  H  H57  1  0.10614600  0.43562000  0.52598500  1
  H  H58  1  0.60614600  0.56438000  0.97401500  1
  H  H59  1  0.89385400  0.56438000  0.47401500  1
  H  H60  1  0.40429900  0.93946600  0.00826200  1
  H  H61  1  0.09570100  0.93946600  0.50826200  1
  H  H62  1  0.59570100  0.06053400  0.99173800  1
  H  H63  1  0.90429900  0.06053400  0.49173800  1
  H  H64  1  0.34988700  0.79300400  0.11367200  1
  H  H65  1  0.15011300  0.79300400  0.61367200  1
  H  H66  1  0.65011300  0.20699600  0.88632800  1
  H  H67  1  0.84988700  0.20699600  0.38632800  1
  H  H68  1  0.33776200  0.09845900  0.01708000  1
  H  H69  1  0.16223800  0.09845900  0.51708000  1
  H  H70  1  0.66223800  0.90154100  0.98292000  1
  H  H71  1  0.83776200  0.90154100  0.48292000  1
  H  H72  1  0.27381900  0.49956700  0.79954100  1
  H  H73  1  0.22618100  0.49956700  0.29954100  1
  H  H74  1  0.72618100  0.50043300  0.20045900  1
  H  H75  1  0.77381900  0.50043300  0.70045900  1
  H  H76  1  0.24393300  0.19563100  0.85709400  1
  H  H77  1  0.25606700  0.19563100  0.35709400  1
  H  H78  1  0.75606700  0.80436900  0.14290600  1
  H  H79  1  0.74393300  0.80436900  0.64290600  1
  H  H80  1  0.19634600  0.45583800  0.83070200  1
  H  H81  1  0.30365400  0.45583800  0.33070200  1
  H  H82  1  0.80365400  0.54416200  0.16929800  1
  H  H83  1  0.69634600  0.54416200  0.66929800  1
  C  C84  1  0.58413300  0.72239700  0.47003400  1
  C  C85  1  0.91586700  0.72239700  0.97003400  1
  C  C86  1  0.41586700  0.27760300  0.52996600  1
  C  C87  1  0.08413300  0.27760300  0.02996600  1
  C  C88  1  0.65448700  0.05166500  0.36435700  1
  C  C89  1  0.84551300  0.05166500  0.86435700  1
  C  C90  1  0.34551300  0.94833500  0.63564300  1
  C  C91  1  0.15448700  0.94833500  0.13564300  1
  C  C92  1  0.62026600  0.75761200  0.28617400  1
  C  C93  1  0.87973400  0.75761200  0.78617400  1
  C  C94  1  0.37973400  0.24238800  0.71382600  1
  C  C95  1  0.12026600  0.24238800  0.21382600  1
  C  C96  1  0.35965600  0.09349500  0.22231700  1
  C  C97  1  0.14034400  0.09349500  0.72231700  1
  C  C98  1  0.64034400  0.90650500  0.77768300  1
  C  C99  1  0.85965600  0.90650500  0.27768300  1
  C  C100  1  0.42957300  0.31217800  0.07173700  1
  C  C101  1  0.07042700  0.31217800  0.57173700  1
  C  C102  1  0.57042700  0.68782200  0.92826300  1
  C  C103  1  0.92957300  0.68782200  0.42826300  1
  C  C104  1  0.37150500  0.96620200  0.06422800  1
  C  C105  1  0.12849500  0.96620200  0.56422800  1
  C  C106  1  0.62849500  0.03379800  0.93577200  1
  C  C107  1  0.87150500  0.03379800  0.43577200  1
  C  C108  1  0.24093000  0.38081400  0.85665100  1
  C  C109  1  0.25907000  0.38081400  0.35665100  1
  C  C110  1  0.75907000  0.61918600  0.14334900  1
  C  C111  1  0.74093000  0.61918600  0.64334900  1
  S  S112  1  0.54025700  0.11381800  0.28981900  1
  S  S113  1  0.95974300  0.11381800  0.78981900  1
  S  S114  1  0.45974300  0.88618200  0.71018100  1
  S  S115  1  0.04025700  0.88618200  0.21018100  1
  S  S116  1  0.46173800  0.83769800  0.21394600  1
  S  S117  1  0.03826200  0.83769800  0.71394600  1
  S  S118  1  0.53826200  0.16230200  0.78605400  1
  S  S119  1  0.96173800  0.16230200  0.28605400  1
  S  S120  1  0.25166000  0.62500500  0.98449400  1
  S  S121  1  0.24834000  0.62500500  0.48449400  1
  S  S122  1  0.74834000  0.37499500  0.01550600  1
  S  S123  1  0.75166000  0.37499500  0.51550600  1
  N  N124  1  0.48536200  0.93491300  0.30367600  1
  N  N125  1  0.01463800  0.93491300  0.80367600  1
  N  N126  1  0.51463800  0.06508700  0.69632400  1
  N  N127  1  0.98536200  0.06508700  0.19632400  1
  N  N128  1  0.60353700  0.89359300  0.35738500  1
  N  N129  1  0.89646300  0.89359300  0.85738500  1
  N  N130  1  0.39646300  0.10640700  0.64261500  1
  N  N131  1  0.10353700  0.10640700  0.14261500  1
  N  N132  1  0.40189800  0.07028200  0.13863900  1
  N  N133  1  0.09810200  0.07028200  0.63863900  1
  N  N134  1  0.59810200  0.92971800  0.86136100  1
  N  N135  1  0.90189800  0.92971800  0.36136100  1
  O  O136  1  0.53264700  0.23552800  0.36506400  1
  O  O137  1  0.96735300  0.23552800  0.86506400  1
  O  O138  1  0.46735300  0.76447200  0.63493600  1
  O  O139  1  0.03264700  0.76447200  0.13493600  1
  O  O140  1  0.56192400  0.24743900  0.18004500  1
  O  O141  1  0.93807600  0.24743900  0.68004500  1
  O  O142  1  0.43807600  0.75256100  0.81995500  1
  O  O143  1  0.06192400  0.75256100  0.31995500  1
  O  O144  1  0.50197400  0.84969000  0.12689200  1
  O  O145  1  0.99802600  0.84969000  0.62689200  1
  O  O146  1  0.49802600  0.15031000  0.87310800  1
  O  O147  1  0.00197400  0.15031000  0.37310800  1
  O  O148  1  0.42705300  0.62034900  0.26823200  1
  O  O149  1  0.07294700  0.62034900  0.76823200  1
  O  O150  1  0.57294700  0.37965100  0.73176800  1
  O  O151  1  0.92705300  0.37965100  0.23176800  1
  O  O152  1  0.25275600  0.36054900  0.96818100  1
  O  O153  1  0.24724400  0.36054900  0.46818100  1
  O  O154  1  0.74724400  0.63945100  0.03181900  1
  O  O155  1  0.75275600  0.63945100  0.53181900  1
  O  O156  1  0.19208200  0.72528700  0.95054200  1
  O  O157  1  0.30791800  0.72528700  0.45054200  1
  O  O158  1  0.80791800  0.27471300  0.04945800  1
  O  O159  1  0.69208200  0.27471300  0.54945800  1
  O  O160  1  0.29928800  0.77248600  0.91484600  1
  O  O161  1  0.20071200  0.77248600  0.41484600  1
  O  O162  1  0.70071200  0.22751400  0.08515400  1
  O  O163  1  0.79928800  0.22751400  0.58515400  1
  O  O164  1  0.26249800  0.54228700  0.10310500  1
  O  O165  1  0.23750200  0.54228700  0.60310500  1
  O  O166  1  0.73750200  0.45771300  0.89689500  1
  O  O167  1  0.76249800  0.45771300  0.39689500  1
