# generated using pymatgen
data_IrWN5ClO4
_symmetry_space_group_name_H-M   'P 1'
_cell_length_a   8.99499000
_cell_length_b   9.21402600
_cell_length_c   12.27369500
_cell_angle_alpha   90.00000000
_cell_angle_beta   90.00000000
_cell_angle_gamma   90.00000000
_symmetry_Int_Tables_number   1
_chemical_formula_structural   IrWN5ClO4
_chemical_formula_sum   'Ir4 W4 N20 Cl4 O16'
_cell_volume   1017.24472199
_cell_formula_units_Z   4
loop_
 _symmetry_equiv_pos_site_id
 _symmetry_equiv_pos_as_xyz
  1  'x, y, z'
loop_
 _atom_site_type_symbol
 _atom_site_label
 _atom_site_symmetry_multiplicity
 _atom_site_fract_x
 _atom_site_fract_y
 _atom_site_fract_z
 _atom_site_occupancy
  Ir  Ir0  1  0.25000000  0.37586200  0.64837600  1
  Ir  Ir1  1  0.25000000  0.12413800  0.14837600  1
  Ir  Ir2  1  0.75000000  0.62413800  0.35162400  1
  Ir  Ir3  1  0.75000000  0.87586200  0.85162400  1
  W  W4  1  0.25000000  0.81839100  0.54390300  1
  W  W5  1  0.25000000  0.68160900  0.04390300  1
  W  W6  1  0.75000000  0.18160900  0.45609700  1
  W  W7  1  0.75000000  0.31839100  0.95609700  1
  N  N8  1  0.09017600  0.28162500  0.60825600  1
  N  N9  1  0.40982400  0.21837500  0.10825600  1
  N  N10  1  0.59017600  0.71837500  0.39174400  1
  N  N11  1  0.90982400  0.78162500  0.89174400  1
  N  N12  1  0.90982400  0.71837500  0.39174400  1
  N  N13  1  0.59017600  0.78162500  0.89174400  1
  N  N14  1  0.40982400  0.28162500  0.60825600  1
  N  N15  1  0.09017600  0.21837500  0.10825600  1
  N  N16  1  0.05266900  0.59423500  0.69686100  1
  N  N17  1  0.44733100  0.90576500  0.19686100  1
  N  N18  1  0.55266900  0.40576500  0.30313900  1
  N  N19  1  0.94733100  0.09423500  0.80313900  1
  N  N20  1  0.94733100  0.40576500  0.30313900  1
  N  N21  1  0.55266900  0.09423500  0.80313900  1
  N  N22  1  0.44733100  0.59423500  0.69686100  1
  N  N23  1  0.05266900  0.90576500  0.19686100  1
  N  N24  1  0.25000000  0.39263700  0.79145700  1
  N  N25  1  0.25000000  0.10736300  0.29145700  1
  N  N26  1  0.75000000  0.60736300  0.20854300  1
  N  N27  1  0.75000000  0.89263700  0.70854300  1
  Cl  Cl28  1  0.25000000  0.55156200  0.49039100  1
  Cl  Cl29  1  0.25000000  0.94843800  0.99039100  1
  Cl  Cl30  1  0.75000000  0.44843800  0.50960900  1
  Cl  Cl31  1  0.75000000  0.05156200  0.00960900  1
  O  O32  1  0.25000000  0.97749000  0.62192600  1
  O  O33  1  0.25000000  0.52251000  0.12192600  1
  O  O34  1  0.75000000  0.02251000  0.37807400  1
  O  O35  1  0.75000000  0.47749000  0.87807400  1
  O  O36  1  0.08278000  0.71570300  0.67312500  1
  O  O37  1  0.41722000  0.78429700  0.17312500  1
  O  O38  1  0.58278000  0.28429700  0.32687500  1
  O  O39  1  0.91722000  0.21570300  0.82687500  1
  O  O40  1  0.91722000  0.28429700  0.32687500  1
  O  O41  1  0.58278000  0.21570300  0.82687500  1
  O  O42  1  0.41722000  0.71570300  0.67312500  1
  O  O43  1  0.08278000  0.78429700  0.17312500  1
  O  O44  1  0.25000000  0.86539400  0.40595400  1
  O  O45  1  0.25000000  0.63460600  0.90595400  1
  O  O46  1  0.75000000  0.13460600  0.59404600  1
  O  O47  1  0.75000000  0.36539400  0.09404600  1
