# generated using pymatgen
data_HgH4C2S2(O4F3)2
_symmetry_space_group_name_H-M   'P 1'
_cell_length_a   8.00197800
_cell_length_b   8.13455321
_cell_length_c   10.22447287
_cell_angle_alpha   97.87318036
_cell_angle_beta   98.44466781
_cell_angle_gamma   96.39121164
_symmetry_Int_Tables_number   1
_chemical_formula_structural   HgH4C2S2(O4F3)2
_chemical_formula_sum   'Hg2 H8 C4 S4 O16 F12'
_cell_volume   646.22210828
_cell_formula_units_Z   2
loop_
 _symmetry_equiv_pos_site_id
 _symmetry_equiv_pos_as_xyz
  1  'x, y, z'
loop_
 _atom_site_type_symbol
 _atom_site_label
 _atom_site_symmetry_multiplicity
 _atom_site_fract_x
 _atom_site_fract_y
 _atom_site_fract_z
 _atom_site_occupancy
  Hg  Hg0  1  0.71856100  0.73760700  0.50556000  1
  Hg  Hg1  1  0.28143900  0.26239300  0.49444000  1
  H  H2  1  0.44762300  0.75787300  0.32133900  1
  H  H3  1  0.55237700  0.24212700  0.67866100  1
  H  H4  1  0.55005500  0.94349500  0.35554800  1
  H  H5  1  0.44994500  0.05650500  0.64445200  1
  H  H6  1  0.82178500  0.52459300  0.67375600  1
  H  H7  1  0.17821500  0.47540700  0.32624400  1
  H  H8  1  0.98498800  0.65820600  0.66817300  1
  H  H9  1  0.01501200  0.34179400  0.33182700  1
  C  C10  1  0.56382600  0.29277600  0.12834200  1
  C  C11  1  0.43617400  0.70722400  0.87165800  1
  C  C12  1  0.02423400  0.84249800  0.15976700  1
  C  C13  1  0.97576600  0.15750200  0.84023300  1
  S  S14  1  0.62045900  0.29990300  0.31395000  1
  S  S15  1  0.37954100  0.70009700  0.68605000  1
  S  S16  1  0.09963600  0.79109600  0.33029700  1
  S  S17  1  0.90036400  0.20890400  0.66970300  1
  O  O18  1  0.56454200  0.82244200  0.34030200  1
  O  O19  1  0.43545800  0.17755800  0.65969800  1
  O  O20  1  0.86033100  0.64576400  0.67154900  1
  O  O21  1  0.13966900  0.35423600  0.32845100  1
  O  O22  1  0.80234300  0.29159200  0.33747500  1
  O  O23  1  0.19765700  0.70840800  0.66252500  1
  O  O24  1  0.51404700  0.15365200  0.34404800  1
  O  O25  1  0.48595300  0.84634800  0.65595200  1
  O  O26  1  0.56589800  0.45749800  0.37003600  1
  O  O27  1  0.43410200  0.54250200  0.62996400  1
  O  O28  1  0.23224000  0.68104400  0.30822300  1
  O  O29  1  0.76776000  0.31895600  0.69177700  1
  O  O30  1  0.94923200  0.70028400  0.36540300  1
  O  O31  1  0.05076800  0.29971600  0.63459700  1
  O  O32  1  0.16592700  0.95259700  0.41222100  1
  O  O33  1  0.83407300  0.04740300  0.58777900  1
  F  F34  1  0.60060000  0.14908200  0.06295000  1
  F  F35  1  0.39940000  0.85091800  0.93705000  1
  F  F36  1  0.65550300  0.42336900  0.09121200  1
  F  F37  1  0.34449700  0.57663100  0.90878800  1
  F  F38  1  0.39616900  0.30240500  0.09371200  1
  F  F39  1  0.60383100  0.69759500  0.90628800  1
  F  F40  1  0.15141700  0.93650900  0.11913400  1
  F  F41  1  0.84858300  0.06349100  0.88086600  1
  F  F42  1  0.97412600  0.70137600  0.06996500  1
  F  F43  1  0.02587400  0.29862400  0.93003500  1
  F  F44  1  0.89123900  0.93045600  0.16646400  1
  F  F45  1  0.10876100  0.06954400  0.83353600  1
