# generated using pymatgen
data_Cd2Cu2P2SO17
_symmetry_space_group_name_H-M   'P 1'
_cell_length_a   10.57119800
_cell_length_b   20.93941200
_cell_length_c   6.04270400
_cell_angle_alpha   90.00000000
_cell_angle_beta   90.00000000
_cell_angle_gamma   90.00000000
_symmetry_Int_Tables_number   1
_chemical_formula_structural   Cd2Cu2P2SO17
_chemical_formula_sum   'Cd8 Cu8 P8 S4 O68'
_cell_volume   1337.58075137
_cell_formula_units_Z   4
loop_
 _symmetry_equiv_pos_site_id
 _symmetry_equiv_pos_as_xyz
  1  'x, y, z'
loop_
 _atom_site_type_symbol
 _atom_site_label
 _atom_site_symmetry_multiplicity
 _atom_site_fract_x
 _atom_site_fract_y
 _atom_site_fract_z
 _atom_site_occupancy
  Cd  Cd0  1  0.40194900  0.61129000  0.97956300  1
  Cd  Cd1  1  0.90194900  0.88871000  0.52043700  1
  Cd  Cd2  1  0.59805100  0.11129000  0.02043700  1
  Cd  Cd3  1  0.09805100  0.38871000  0.47956300  1
  Cd  Cd4  1  0.59805100  0.38871000  0.02043700  1
  Cd  Cd5  1  0.09805100  0.11129000  0.47956300  1
  Cd  Cd6  1  0.40194900  0.88871000  0.97956300  1
  Cd  Cd7  1  0.90194900  0.61129000  0.52043700  1
  Cu  Cu8  1  0.61272700  0.56959800  0.37519400  1
  Cu  Cu9  1  0.11272700  0.93040200  0.12480600  1
  Cu  Cu10  1  0.38727300  0.06959800  0.62480600  1
  Cu  Cu11  1  0.88727300  0.43040200  0.87519400  1
  Cu  Cu12  1  0.38727300  0.43040200  0.62480600  1
  Cu  Cu13  1  0.88727300  0.06959800  0.87519400  1
  Cu  Cu14  1  0.61272700  0.93040200  0.37519400  1
  Cu  Cu15  1  0.11272700  0.56959800  0.12480600  1
  P  P16  1  0.68280100  0.54371500  0.86242400  1
  P  P17  1  0.18280100  0.95628500  0.63757600  1
  P  P18  1  0.31719900  0.04371500  0.13757600  1
  P  P19  1  0.81719900  0.45628500  0.36242400  1
  P  P20  1  0.31719900  0.45628500  0.13757600  1
  P  P21  1  0.81719900  0.04371500  0.36242400  1
  P  P22  1  0.68280100  0.95628500  0.86242400  1
  P  P23  1  0.18280100  0.54371500  0.63757600  1
  S  S24  1  0.45104800  0.75000000  0.74002800  1
  S  S25  1  0.95104800  0.75000000  0.75997200  1
  S  S26  1  0.54895200  0.25000000  0.25997200  1
  S  S27  1  0.04895200  0.25000000  0.24002800  1
  O  O28  1  0.48088900  0.75000000  0.49786900  1
  O  O29  1  0.98088900  0.75000000  0.00213100  1
  O  O30  1  0.51911100  0.25000000  0.50213100  1
  O  O31  1  0.01911100  0.25000000  0.99786900  1
  O  O32  1  0.31039000  0.75000000  0.75278500  1
  O  O33  1  0.81039000  0.75000000  0.74721500  1
  O  O34  1  0.68961000  0.25000000  0.24721500  1
  O  O35  1  0.18961000  0.25000000  0.25278500  1
  O  O36  1  0.50728500  0.69296100  0.84776300  1
  O  O37  1  0.00728500  0.80703900  0.65223700  1
  O  O38  1  0.49271500  0.19296100  0.15223700  1
  O  O39  1  0.99271500  0.30703900  0.34776300  1
  O  O40  1  0.49271500  0.30703900  0.15223700  1
  O  O41  1  0.99271500  0.19296100  0.34776300  1
  O  O42  1  0.50728500  0.80703900  0.84776300  1
  O  O43  1  0.00728500  0.69296100  0.65223700  1
  O  O44  1  0.79481200  0.58785700  0.83888400  1
  O  O45  1  0.29481200  0.91214300  0.66111600  1
  O  O46  1  0.20518800  0.08785700  0.16111600  1
  O  O47  1  0.70518800  0.41214300  0.33888400  1
  O  O48  1  0.20518800  0.41214300  0.16111600  1
  O  O49  1  0.70518800  0.08785700  0.33888400  1
  O  O50  1  0.79481200  0.91214300  0.83888400  1
  O  O51  1  0.29481200  0.58785700  0.66111600  1
  O  O52  1  0.58083400  0.54777600  0.67507500  1
  O  O53  1  0.08083400  0.95222400  0.82492500  1
  O  O54  1  0.41916600  0.04777600  0.32492500  1
  O  O55  1  0.91916600  0.45222400  0.17507500  1
  O  O56  1  0.41916600  0.45222400  0.32492500  1
  O  O57  1  0.91916600  0.04777600  0.17507500  1
  O  O58  1  0.58083400  0.95222400  0.67507500  1
  O  O59  1  0.08083400  0.54777600  0.82492500  1
  O  O60  1  0.72595400  0.47165400  0.88770400  1
  O  O61  1  0.22595400  0.02834600  0.61229600  1
  O  O62  1  0.27404600  0.97165400  0.11229600  1
  O  O63  1  0.77404600  0.52834600  0.38770400  1
  O  O64  1  0.27404600  0.52834600  0.11229600  1
  O  O65  1  0.77404600  0.97165400  0.38770400  1
  O  O66  1  0.72595400  0.02834600  0.88770400  1
  O  O67  1  0.22595400  0.47165400  0.61229600  1
  O  O68  1  0.59311400  0.55784600  0.06485900  1
  O  O69  1  0.09311400  0.94215400  0.43514100  1
  O  O70  1  0.40688600  0.05784600  0.93514100  1
  O  O71  1  0.90688600  0.44215400  0.56485900  1
  O  O72  1  0.40688600  0.44215400  0.93514100  1
  O  O73  1  0.90688600  0.05784600  0.56485900  1
  O  O74  1  0.59311400  0.94215400  0.06485900  1
  O  O75  1  0.09311400  0.55784600  0.43514100  1
  O  O76  1  0.47287200  0.61848000  0.35938500  1
  O  O77  1  0.97287200  0.88152000  0.14061500  1
  O  O78  1  0.52712800  0.11848000  0.64061500  1
  O  O79  1  0.02712800  0.38152000  0.85938500  1
  O  O80  1  0.52712800  0.38152000  0.64061500  1
  O  O81  1  0.02712800  0.11848000  0.85938500  1
  O  O82  1  0.47287200  0.88152000  0.35938500  1
  O  O83  1  0.97287200  0.61848000  0.14061500  1
  O  O84  1  0.71274800  0.66029600  0.39027000  1
  O  O85  1  0.21274800  0.83970400  0.10973000  1
  O  O86  1  0.28725200  0.16029600  0.60973000  1
  O  O87  1  0.78725200  0.33970400  0.89027000  1
  O  O88  1  0.28725200  0.33970400  0.60973000  1
  O  O89  1  0.78725200  0.16029600  0.89027000  1
  O  O90  1  0.71274800  0.83970400  0.39027000  1
  O  O91  1  0.21274800  0.66029600  0.10973000  1
  O  O92  1  0.20353000  0.75000000  0.29409000  1
  O  O93  1  0.70353000  0.75000000  0.20591000  1
  O  O94  1  0.79647000  0.25000000  0.70591000  1
  O  O95  1  0.29647000  0.25000000  0.79409000  1
