# generated using pymatgen
data_YP4NO12
_symmetry_space_group_name_H-M   'P 1'
_cell_length_a   8.02102567
_cell_length_b   8.02102567
_cell_length_c   17.58961500
_cell_angle_alpha   90.00000000
_cell_angle_beta   90.00000000
_cell_angle_gamma   98.05602575
_symmetry_Int_Tables_number   1
_chemical_formula_structural   YP4NO12
_chemical_formula_sum   'Y4 P16 N4 O48'
_cell_volume   1120.49268641
_cell_formula_units_Z   4
loop_
 _symmetry_equiv_pos_site_id
 _symmetry_equiv_pos_as_xyz
  1  'x, y, z'
loop_
 _atom_site_type_symbol
 _atom_site_label
 _atom_site_symmetry_multiplicity
 _atom_site_fract_x
 _atom_site_fract_y
 _atom_site_fract_z
 _atom_site_occupancy
  Y  Y0  1  0.90450200  0.52983300  0.14005400  1
  Y  Y1  1  0.47016700  0.09549800  0.35994600  1
  Y  Y2  1  0.09549800  0.47016700  0.64005400  1
  Y  Y3  1  0.52983300  0.90450200  0.85994600  1
  P  P4  1  0.15752200  0.15752200  0.50000000  1
  P  P5  1  0.84247800  0.84247800  0.00000000  1
  P  P6  1  0.27669900  0.82877500  0.51696000  1
  P  P7  1  0.17122500  0.72330100  0.98304000  1
  P  P8  1  0.72330100  0.17122500  0.01696000  1
  P  P9  1  0.82877500  0.27669900  0.48304000  1
  P  P10  1  0.46177200  0.77625800  0.65685500  1
  P  P11  1  0.22374200  0.53822800  0.84314500  1
  P  P12  1  0.53822800  0.22374200  0.15685500  1
  P  P13  1  0.77625800  0.46177200  0.34314500  1
  P  P14  1  0.81062800  0.77808000  0.69602800  1
  P  P15  1  0.22192000  0.18937200  0.80397200  1
  P  P16  1  0.18937200  0.22192000  0.19602800  1
  P  P17  1  0.77808000  0.81062800  0.30397200  1
  P  P18  1  0.87408300  0.12591700  0.75000000  1
  P  P19  1  0.12591700  0.87408300  0.25000000  1
  N  N20  1  0.28330000  0.54519000  0.36760000  1
  N  N21  1  0.45481000  0.71670000  0.13240000  1
  N  N22  1  0.71670000  0.45481000  0.86760000  1
  N  N23  1  0.54519000  0.28330000  0.63240000  1
  O  O24  1  0.27343200  0.18992300  0.43328100  1
  O  O25  1  0.81007700  0.72656800  0.06671900  1
  O  O26  1  0.72656800  0.81007700  0.93328100  1
  O  O27  1  0.18992300  0.27343200  0.56671900  1
  O  O28  1  0.96528000  0.14857000  0.47206300  1
  O  O29  1  0.85143000  0.03472000  0.02793700  1
  O  O30  1  0.03472000  0.85143000  0.97206300  1
  O  O31  1  0.14857000  0.96528000  0.52793700  1
  O  O32  1  0.18128300  0.65765600  0.53085700  1
  O  O33  1  0.34234400  0.81871700  0.96914300  1
  O  O34  1  0.81871700  0.34234400  0.03085700  1
  O  O35  1  0.65765600  0.18128300  0.46914300  1
  O  O36  1  0.37897400  0.86651600  0.44585200  1
  O  O37  1  0.13348400  0.62102600  0.05414800  1
  O  O38  1  0.62102600  0.13348400  0.94585200  1
  O  O39  1  0.86651600  0.37897400  0.55414800  1
  O  O40  1  0.40507300  0.88333300  0.58777000  1
  O  O41  1  0.11666700  0.59492700  0.91223000  1
  O  O42  1  0.59492700  0.11666700  0.08777000  1
  O  O43  1  0.88333300  0.40507300  0.41223000  1
  O  O44  1  0.37103000  0.59816100  0.65601400  1
  O  O45  1  0.40183900  0.62897000  0.84398600  1
  O  O46  1  0.62897000  0.40183900  0.15601400  1
  O  O47  1  0.59816100  0.37103000  0.34398600  1
  O  O48  1  0.44335300  0.87192500  0.72927400  1
  O  O49  1  0.12807500  0.55664700  0.77072600  1
  O  O50  1  0.55664700  0.12807500  0.22927400  1
  O  O51  1  0.87192500  0.44335300  0.27072600  1
  O  O52  1  0.65558300  0.77484800  0.63560400  1
  O  O53  1  0.22515200  0.34441700  0.86439600  1
  O  O54  1  0.34441700  0.22515200  0.13560400  1
  O  O55  1  0.77484800  0.65558300  0.36439600  1
  O  O56  1  0.74276000  0.73780100  0.77460000  1
  O  O57  1  0.26219900  0.25724000  0.72540000  1
  O  O58  1  0.25724000  0.26219900  0.27460000  1
  O  O59  1  0.73780100  0.74276000  0.22540000  1
  O  O60  1  0.93436600  0.68079400  0.65923400  1
  O  O61  1  0.31920600  0.06563400  0.84076600  1
  O  O62  1  0.06563400  0.31920600  0.15923400  1
  O  O63  1  0.68079400  0.93436600  0.34076600  1
  O  O64  1  0.89026900  0.97492600  0.69087100  1
  O  O65  1  0.02507400  0.10973100  0.80912900  1
  O  O66  1  0.10973100  0.02507400  0.19087100  1
  O  O67  1  0.97492600  0.89026900  0.30912900  1
  O  O68  1  0.90701300  0.28589100  0.70560200  1
  O  O69  1  0.71410900  0.09298700  0.79439800  1
  O  O70  1  0.09298700  0.71410900  0.20560200  1
  O  O71  1  0.28589100  0.90701300  0.29439800  1
