# generated using pymatgen
data_KAlCO6
_symmetry_space_group_name_H-M   'P 1'
_cell_length_a   6.02099800
_cell_length_b   8.00655400
_cell_length_c   11.36229100
_cell_angle_alpha   90.00000000
_cell_angle_beta   90.00000000
_cell_angle_gamma   90.00000000
_symmetry_Int_Tables_number   1
_chemical_formula_structural   KAlCO6
_chemical_formula_sum   'K4 Al4 C4 O24'
_cell_volume   547.74702551
_cell_formula_units_Z   4
loop_
 _symmetry_equiv_pos_site_id
 _symmetry_equiv_pos_as_xyz
  1  'x, y, z'
loop_
 _atom_site_type_symbol
 _atom_site_label
 _atom_site_symmetry_multiplicity
 _atom_site_fract_x
 _atom_site_fract_y
 _atom_site_fract_z
 _atom_site_occupancy
  K  K0  1  0.74619200  0.66010800  0.31762000  1
  K  K1  1  0.24619200  0.33989200  0.68238000  1
  K  K2  1  0.24619200  0.83989200  0.81762000  1
  K  K3  1  0.74619200  0.16010800  0.18238000  1
  Al  Al4  1  0.99370300  0.01429500  0.49575900  1
  Al  Al5  1  0.49370300  0.98570500  0.50424100  1
  Al  Al6  1  0.49370300  0.48570500  0.99575900  1
  Al  Al7  1  0.99370300  0.51429500  0.00424100  1
  C  C8  1  0.25278800  0.95292800  0.27953200  1
  C  C9  1  0.75278800  0.04707200  0.72046800  1
  C  C10  1  0.75278800  0.54707200  0.77953200  1
  C  C11  1  0.25278800  0.45292800  0.22046800  1
  O  O12  1  0.06075000  0.94837200  0.33594400  1
  O  O13  1  0.56075000  0.05162800  0.66405600  1
  O  O14  1  0.56075000  0.55162800  0.83594400  1
  O  O15  1  0.06075000  0.44837200  0.16405600  1
  O  O16  1  0.44154600  0.94196400  0.33849100  1
  O  O17  1  0.94154600  0.05803600  0.66150900  1
  O  O18  1  0.94154600  0.55803600  0.83849100  1
  O  O19  1  0.44154600  0.44196400  0.16150900  1
  O  O20  1  0.25685000  0.96330900  0.16879300  1
  O  O21  1  0.75685000  0.03669100  0.83120700  1
  O  O22  1  0.75685000  0.53669100  0.66879300  1
  O  O23  1  0.25685000  0.46330900  0.33120700  1
  O  O24  1  0.25356800  0.10588800  0.51520300  1
  O  O25  1  0.75356800  0.89411200  0.48479700  1
  O  O26  1  0.75356800  0.39411200  0.01520300  1
  O  O27  1  0.25356800  0.60588800  0.98479700  1
  O  O28  1  0.30628000  0.77075800  0.55852100  1
  O  O29  1  0.80628000  0.22924200  0.44147900  1
  O  O30  1  0.80628000  0.72924200  0.05852100  1
  O  O31  1  0.30628000  0.27075800  0.94147900  1
  O  O32  1  0.35032300  0.12145700  0.96862500  1
  O  O33  1  0.85032300  0.87854300  0.03137500  1
  O  O34  1  0.85032300  0.37854300  0.46862500  1
  O  O35  1  0.35032300  0.62145700  0.53137500  1
