# generated using pymatgen
data_BaV2SeO8
_symmetry_space_group_name_H-M   'P 1'
_cell_length_a   5.46162900
_cell_length_b   9.23576000
_cell_length_c   14.19203000
_cell_angle_alpha   90.00000000
_cell_angle_beta   90.00000000
_cell_angle_gamma   90.00000000
_symmetry_Int_Tables_number   1
_chemical_formula_structural   BaV2SeO8
_chemical_formula_sum   'Ba4 V8 Se4 O32'
_cell_volume   715.87855898
_cell_formula_units_Z   4
loop_
 _symmetry_equiv_pos_site_id
 _symmetry_equiv_pos_as_xyz
  1  'x, y, z'
loop_
 _atom_site_type_symbol
 _atom_site_label
 _atom_site_symmetry_multiplicity
 _atom_site_fract_x
 _atom_site_fract_y
 _atom_site_fract_z
 _atom_site_occupancy
  Ba  Ba0  1  0.25000000  0.30404000  0.57706200  1
  Ba  Ba1  1  0.25000000  0.19596000  0.07706200  1
  Ba  Ba2  1  0.75000000  0.69596000  0.42293800  1
  Ba  Ba3  1  0.75000000  0.80404000  0.92293800  1
  V  V4  1  0.25000000  0.06802500  0.78630500  1
  V  V5  1  0.25000000  0.43197500  0.28630500  1
  V  V6  1  0.75000000  0.93197500  0.21369500  1
  V  V7  1  0.75000000  0.56802500  0.71369500  1
  V  V8  1  0.25000000  0.47534500  0.84009500  1
  V  V9  1  0.25000000  0.02465500  0.34009500  1
  V  V10  1  0.75000000  0.52465500  0.15990500  1
  V  V11  1  0.75000000  0.97534500  0.65990500  1
  Se  Se12  1  0.25000000  0.72103800  0.60184300  1
  Se  Se13  1  0.25000000  0.77896200  0.10184300  1
  Se  Se14  1  0.75000000  0.27896200  0.39815700  1
  Se  Se15  1  0.75000000  0.22103800  0.89815700  1
  O  O16  1  0.25000000  0.89366400  0.80200000  1
  O  O17  1  0.25000000  0.60633600  0.30200000  1
  O  O18  1  0.75000000  0.10633600  0.19800000  1
  O  O19  1  0.75000000  0.39366400  0.69800000  1
  O  O20  1  0.48709600  0.08498000  0.69184500  1
  O  O21  1  0.01290400  0.41502000  0.19184500  1
  O  O22  1  0.98709600  0.91502000  0.30815500  1
  O  O23  1  0.51290400  0.58498000  0.80815500  1
  O  O24  1  0.51290400  0.91502000  0.30815500  1
  O  O25  1  0.98709600  0.58498000  0.80815500  1
  O  O26  1  0.01290400  0.08498000  0.69184500  1
  O  O27  1  0.48709600  0.41502000  0.19184500  1
  O  O28  1  0.50275600  0.09643000  0.88877200  1
  O  O29  1  0.99724400  0.40357000  0.38877200  1
  O  O30  1  0.00275600  0.90357000  0.11122800  1
  O  O31  1  0.49724400  0.59643000  0.61122800  1
  O  O32  1  0.49724400  0.90357000  0.11122800  1
  O  O33  1  0.00275600  0.59643000  0.61122800  1
  O  O34  1  0.99724400  0.09643000  0.88877200  1
  O  O35  1  0.50275600  0.40357000  0.38877200  1
  O  O36  1  0.25000000  0.31873400  0.77556300  1
  O  O37  1  0.25000000  0.18126600  0.27556300  1
  O  O38  1  0.75000000  0.68126600  0.22443700  1
  O  O39  1  0.75000000  0.81873400  0.72443700  1
  O  O40  1  0.25000000  0.42625400  0.95318100  1
  O  O41  1  0.25000000  0.07374600  0.45318100  1
  O  O42  1  0.75000000  0.57374600  0.04681900  1
  O  O43  1  0.75000000  0.92625400  0.54681900  1
  O  O44  1  0.25000000  0.76350500  0.98408600  1
  O  O45  1  0.25000000  0.73649500  0.48408600  1
  O  O46  1  0.75000000  0.23649500  0.01591400  1
  O  O47  1  0.75000000  0.26350500  0.51591400  1
