# generated using pymatgen
data_RbAuC4S4(OF)12
_symmetry_space_group_name_H-M   'P 1'
_cell_length_a   21.92170000
_cell_length_b   9.62812500
_cell_length_c   14.76235318
_cell_angle_alpha   49.51438423
_cell_angle_beta   90.00000000
_cell_angle_gamma   90.00000000
_symmetry_Int_Tables_number   1
_chemical_formula_structural   RbAuC4S4(OF)12
_chemical_formula_sum   'Rb4 Au4 C16 S16 O48 F48'
_cell_volume   2369.79159005
_cell_formula_units_Z   4
loop_
 _symmetry_equiv_pos_site_id
 _symmetry_equiv_pos_as_xyz
  1  'x, y, z'
loop_
 _atom_site_type_symbol
 _atom_site_label
 _atom_site_symmetry_multiplicity
 _atom_site_fract_x
 _atom_site_fract_y
 _atom_site_fract_z
 _atom_site_occupancy
  Rb  Rb0  1  0.75135600  0.09741300  0.88844500  1
  Rb  Rb1  1  0.74864400  0.09741300  0.38844500  1
  Rb  Rb2  1  0.24864400  0.90258700  0.11155500  1
  Rb  Rb3  1  0.25135600  0.90258700  0.61155500  1
  Au  Au4  1  0.75013000  0.59858700  0.38714500  1
  Au  Au5  1  0.74987000  0.59858700  0.88714500  1
  Au  Au6  1  0.24987000  0.40141300  0.61285500  1
  Au  Au7  1  0.25013000  0.40141300  0.11285500  1
  C  C8  1  0.58326900  0.58070000  0.24870000  1
  C  C9  1  0.91673100  0.58070000  0.74870000  1
  C  C10  1  0.41673100  0.41930000  0.75130000  1
  C  C11  1  0.08326900  0.41930000  0.25130000  1
  C  C12  1  0.91606600  0.89178100  0.25310600  1
  C  C13  1  0.58393400  0.89178100  0.75310600  1
  C  C14  1  0.08393400  0.10821900  0.74689400  1
  C  C15  1  0.41606600  0.10821900  0.24689400  1
  C  C16  1  0.91498300  0.29683500  0.52635200  1
  C  C17  1  0.58501700  0.29683500  0.02635200  1
  C  C18  1  0.08501700  0.70316500  0.47364800  1
  C  C19  1  0.41498300  0.70316500  0.97364800  1
  C  C20  1  0.58524500  0.61045100  0.53432800  1
  C  C21  1  0.91475500  0.61045100  0.03432800  1
  C  C22  1  0.41475500  0.38954900  0.46567200  1
  C  C23  1  0.08524500  0.38954900  0.96567200  1
  S  S24  1  0.66737000  0.54730200  0.57763500  1
  S  S25  1  0.83263000  0.54730200  0.07763500  1
  S  S26  1  0.33263000  0.45269800  0.42236500  1
  S  S27  1  0.16737000  0.45269800  0.92236500  1
  S  S28  1  0.83527000  0.92367800  0.20033500  1
  S  S29  1  0.66473000  0.92367800  0.70033500  1
  S  S30  1  0.16473000  0.07632200  0.79966500  1
  S  S31  1  0.33527000  0.07632200  0.29966500  1
  S  S32  1  0.66468200  0.64935000  0.19929200  1
  S  S33  1  0.83531800  0.64935000  0.69929200  1
  S  S34  1  0.33531800  0.35065000  0.80070800  1
  S  S35  1  0.16468200  0.35065000  0.30070800  1
  S  S36  1  0.83376300  0.27043800  0.57526100  1
  S  S37  1  0.66623700  0.27043800  0.07526100  1
  S  S38  1  0.16623700  0.72956200  0.42473900  1
  S  S39  1  0.33376300  0.72956200  0.92473900  1
  O  O40  1  0.81583800  0.72713300  0.25678200  1
  O  O41  1  0.68416200  0.72713300  0.75678200  1
  O  O42  1  0.18416200  0.27286700  0.74321800  1
  O  O43  1  0.31583800  0.27286700  0.24321800  1
  O  O44  1  0.81592200  0.46860000  0.51729300  1
  O  O45  1  0.68407800  0.46860000  0.01729300  1
  O  O46  1  0.18407800  0.53140000  0.48270700  1
  O  O47  1  0.31592200  0.53140000  0.98270700  1
  O  O48  1  0.68405200  0.73072400  0.25752400  1
  O  O49  1  0.81594800  0.73072400  0.75752400  1
  O  O50  1  0.31594800  0.26927600  0.74247600  1
  O  O51  1  0.18405200  0.26927600  0.24247600  1
  O  O52  1  0.68473800  0.46678500  0.51805400  1
  O  O53  1  0.81526200  0.46678500  0.01805400  1
  O  O54  1  0.31526200  0.53321500  0.48194600  1
  O  O55  1  0.18473800  0.53321500  0.98194600  1
  O  O56  1  0.83979700  0.03261800  0.07328200  1
  O  O57  1  0.66020300  0.03261800  0.57328200  1
  O  O58  1  0.16020300  0.96738200  0.92671800  1
  O  O59  1  0.33979700  0.96738200  0.42671800  1
  O  O60  1  0.66146100  0.79476900  0.07216500  1
  O  O61  1  0.83853900  0.79476900  0.57216500  1
  O  O62  1  0.33853900  0.20523100  0.92783500  1
  O  O63  1  0.16146100  0.20523100  0.42783500  1
  O  O64  1  0.83714000  0.16185900  0.70249300  1
  O  O65  1  0.66286000  0.16185900  0.20249300  1
  O  O66  1  0.16286000  0.83814100  0.29750700  1
  O  O67  1  0.33714000  0.83814100  0.79750700  1
  O  O68  1  0.66616800  0.40243000  0.70496500  1
  O  O69  1  0.83383200  0.40243000  0.20496500  1
  O  O70  1  0.33383200  0.59757000  0.29503500  1
  O  O71  1  0.16616800  0.59757000  0.79503500  1
  O  O72  1  0.80068900  0.20665400  0.52412900  1
  O  O73  1  0.69931100  0.20665400  0.02412900  1
  O  O74  1  0.19931100  0.79334600  0.47587100  1
  O  O75  1  0.30068900  0.79334600  0.97587100  1
  O  O76  1  0.69910200  0.71564600  0.52457300  1
  O  O77  1  0.80089800  0.71564600  0.02457300  1
  O  O78  1  0.30089800  0.28435400  0.47542700  1
  O  O79  1  0.19910200  0.28435400  0.97542700  1
  O  O80  1  0.80227800  0.98907800  0.25063000  1
  O  O81  1  0.69772200  0.98907800  0.75063000  1
  O  O82  1  0.19772200  0.01092200  0.74937000  1
  O  O83  1  0.30227800  0.01092200  0.24937000  1
  O  O84  1  0.69666900  0.48220400  0.25014900  1
  O  O85  1  0.80333100  0.48220400  0.75014900  1
  O  O86  1  0.30333100  0.51779600  0.74985100  1
  O  O87  1  0.19666900  0.51779600  0.24985100  1
  F  F88  1  0.58079500  0.45126900  0.36837400  1
  F  F89  1  0.91920500  0.45126900  0.86837400  1
  F  F90  1  0.41920500  0.54873100  0.63162600  1
  F  F91  1  0.08079500  0.54873100  0.13162600  1
  F  F92  1  0.91798000  0.40686800  0.40672200  1
  F  F93  1  0.58202000  0.40686800  0.90672200  1
  F  F94  1  0.08202000  0.59313200  0.59327800  1
  F  F95  1  0.41798000  0.59313200  0.09327800  1
  F  F96  1  0.91704300  0.78256400  0.37284400  1
  F  F97  1  0.58295700  0.78256400  0.87284400  1
  F  F98  1  0.08295700  0.21743600  0.62715600  1
  F  F99  1  0.41704300  0.21743600  0.12715600  1
  F  F100  1  0.57983700  0.73690800  0.41498500  1
  F  F101  1  0.92016300  0.73690800  0.91498500  1
  F  F102  1  0.42016300  0.26309200  0.58501500  1
  F  F103  1  0.07983700  0.26309200  0.08501500  1
  F  F104  1  0.56086800  0.51138700  0.20009700  1
  F  F105  1  0.93913200  0.51138700  0.70009700  1
  F  F106  1  0.43913200  0.48861300  0.79990300  1
  F  F107  1  0.06086800  0.48861300  0.29990300  1
  F  F108  1  0.93877800  0.05702700  0.20568300  1
  F  F109  1  0.56122200  0.05702700  0.70568300  1
  F  F110  1  0.06122200  0.94297300  0.79431700  1
  F  F111  1  0.43877800  0.94297300  0.29431700  1
  F  F112  1  0.93663400  0.13020200  0.57457900  1
  F  F113  1  0.56336600  0.13020200  0.07457900  1
  F  F114  1  0.06336600  0.86979800  0.42542100  1
  F  F115  1  0.43663400  0.86979800  0.92542100  1
  F  F116  1  0.56397600  0.68037200  0.58324800  1
  F  F117  1  0.93602400  0.68037200  0.08324800  1
  F  F118  1  0.43602400  0.31962800  0.41675200  1
  F  F119  1  0.06397600  0.31962800  0.91675200  1
  F  F120  1  0.95041300  0.81835100  0.21799300  1
  F  F121  1  0.54958700  0.81835100  0.71799300  1
  F  F122  1  0.04958700  0.18164900  0.78200700  1
  F  F123  1  0.45041300  0.18164900  0.28200700  1
  F  F124  1  0.54959700  0.72594400  0.21210500  1
  F  F125  1  0.95040300  0.72594400  0.71210500  1
  F  F126  1  0.45040300  0.27405600  0.78789500  1
  F  F127  1  0.04959700  0.27405600  0.28789500  1
  F  F128  1  0.55267200  0.46092700  0.57583300  1
  F  F129  1  0.94732800  0.46092700  0.07583300  1
  F  F130  1  0.44732800  0.53907300  0.42416700  1
  F  F131  1  0.05267200  0.53907300  0.92416700  1
  F  F132  1  0.94893300  0.36689500  0.56425500  1
  F  F133  1  0.55106700  0.36689500  0.06425500  1
  F  F134  1  0.05106700  0.63310500  0.43574500  1
  F  F135  1  0.44893300  0.63310500  0.93574500  1
