# generated using pymatgen
data_Mo3Se(NO6)2
_symmetry_space_group_name_H-M   'P 1'
_cell_length_a   7.31315970
_cell_length_b   7.31315970
_cell_length_c   14.10192000
_cell_angle_alpha   90.00000000
_cell_angle_beta   90.00000000
_cell_angle_gamma   119.99999732
_symmetry_Int_Tables_number   1
_chemical_formula_structural   Mo3Se(NO6)2
_chemical_formula_sum   'Mo6 Se2 N4 O24'
_cell_volume   653.15913500
_cell_formula_units_Z   2
loop_
 _symmetry_equiv_pos_site_id
 _symmetry_equiv_pos_as_xyz
  1  'x, y, z'
loop_
 _atom_site_type_symbol
 _atom_site_label
 _atom_site_symmetry_multiplicity
 _atom_site_fract_x
 _atom_site_fract_y
 _atom_site_fract_z
 _atom_site_occupancy
  Mo  Mo0  1  0.80635700  0.14884100  0.59472700  1
  Mo  Mo1  1  0.85115900  0.65751600  0.59472700  1
  Mo  Mo2  1  0.34248400  0.19364300  0.59472700  1
  Mo  Mo3  1  0.19364300  0.85115900  0.09472700  1
  Mo  Mo4  1  0.14884100  0.34248400  0.09472700  1
  Mo  Mo5  1  0.65751600  0.80635700  0.09472700  1
  Se  Se6  1  0.00000000  0.00000000  0.79872200  1
  Se  Se7  1  0.00000000  0.00000000  0.29872200  1
  N  N8  1  0.33333300  0.66666700  0.39886500  1
  N  N9  1  0.66666700  0.33333300  0.89886500  1
  N  N10  1  0.33333300  0.66666700  0.77103800  1
  N  N11  1  0.66666700  0.33333300  0.27103800  1
  O  O12  1  0.76089100  0.87514200  0.61396100  1
  O  O13  1  0.12485800  0.88574900  0.61396100  1
  O  O14  1  0.11425100  0.23910900  0.61396100  1
  O  O15  1  0.23910900  0.12485800  0.11396100  1
  O  O16  1  0.87514200  0.11425100  0.11396100  1
  O  O17  1  0.88574900  0.76089100  0.11396100  1
  O  O18  1  0.79455500  0.16802800  0.47494800  1
  O  O19  1  0.83197200  0.62652700  0.47494800  1
  O  O20  1  0.37347300  0.20544500  0.47494800  1
  O  O21  1  0.20544500  0.83197200  0.97494800  1
  O  O22  1  0.16802800  0.37347300  0.97494800  1
  O  O23  1  0.62652700  0.79455500  0.97494800  1
  O  O24  1  0.53821900  0.09210400  0.63443200  1
  O  O25  1  0.90789600  0.44611600  0.63443200  1
  O  O26  1  0.55388400  0.46178100  0.63443200  1
  O  O27  1  0.46178100  0.90789600  0.13443200  1
  O  O28  1  0.09210400  0.55388400  0.13443200  1
  O  O29  1  0.44611600  0.53821900  0.13443200  1
  O  O30  1  0.86871400  0.12675100  0.79838000  1
  O  O31  1  0.87324900  0.74196400  0.79838000  1
  O  O32  1  0.25803600  0.13128600  0.79838000  1
  O  O33  1  0.13128600  0.87324900  0.29838000  1
  O  O34  1  0.12675100  0.25803600  0.29838000  1
  O  O35  1  0.74196400  0.86871400  0.29838000  1
