# generated using pymatgen
data_K3Al3OF12
_symmetry_space_group_name_H-M   'P 1'
_cell_length_a   6.76015300
_cell_length_b   7.17330500
_cell_length_c   12.26738800
_cell_angle_alpha   90.00000000
_cell_angle_beta   90.00000000
_cell_angle_gamma   90.00000000
_symmetry_Int_Tables_number   1
_chemical_formula_structural   K3Al3OF12
_chemical_formula_sum   'K6 Al6 O2 F24'
_cell_volume   594.87802163
_cell_formula_units_Z   2
loop_
 _symmetry_equiv_pos_site_id
 _symmetry_equiv_pos_as_xyz
  1  'x, y, z'
loop_
 _atom_site_type_symbol
 _atom_site_label
 _atom_site_symmetry_multiplicity
 _atom_site_fract_x
 _atom_site_fract_y
 _atom_site_fract_z
 _atom_site_occupancy
  K  K0  1  0.47946300  0.00000000  0.32582800  1
  K  K1  1  0.47946300  0.00000000  0.67417200  1
  K  K2  1  0.52053700  0.50000000  0.17417200  1
  K  K3  1  0.52053700  0.50000000  0.82582800  1
  K  K4  1  0.82879000  0.00000000  0.00000000  1
  K  K5  1  0.17121000  0.50000000  0.50000000  1
  Al  Al6  1  0.00000000  0.75000000  0.75000000  1
  Al  Al7  1  0.00000000  0.25000000  0.75000000  1
  Al  Al8  1  0.00000000  0.75000000  0.25000000  1
  Al  Al9  1  0.00000000  0.25000000  0.25000000  1
  Al  Al10  1  0.95337100  0.00000000  0.50000000  1
  Al  Al11  1  0.04662900  0.50000000  0.00000000  1
  O  O12  1  0.38903300  0.00000000  0.00000000  1
  O  O13  1  0.61096700  0.50000000  0.50000000  1
  F  F14  1  0.95024700  0.81252400  0.60575300  1
  F  F15  1  0.95024700  0.18747600  0.60575300  1
  F  F16  1  0.95024700  0.81252400  0.39424700  1
  F  F17  1  0.95024700  0.18747600  0.39424700  1
  F  F18  1  0.04975300  0.68747600  0.89424700  1
  F  F19  1  0.04975300  0.31252400  0.89424700  1
  F  F20  1  0.04975300  0.68747600  0.10575300  1
  F  F21  1  0.04975300  0.31252400  0.10575300  1
  F  F22  1  0.74696000  0.78879400  0.78460800  1
  F  F23  1  0.74696000  0.21120600  0.78460800  1
  F  F24  1  0.74696000  0.78879400  0.21539200  1
  F  F25  1  0.74696000  0.21120600  0.21539200  1
  F  F26  1  0.25304000  0.71120600  0.71539200  1
  F  F27  1  0.25304000  0.28879400  0.71539200  1
  F  F28  1  0.25304000  0.71120600  0.28460800  1
  F  F29  1  0.25304000  0.28879400  0.28460800  1
  F  F30  1  0.94233300  0.50000000  0.71525400  1
  F  F31  1  0.94233300  0.50000000  0.28474600  1
  F  F32  1  0.05766700  0.00000000  0.78474600  1
  F  F33  1  0.05766700  0.00000000  0.21525400  1
  F  F34  1  0.69156500  0.00000000  0.50000000  1
  F  F35  1  0.30843500  0.50000000  0.00000000  1
  F  F36  1  0.21646900  0.00000000  0.50000000  1
  F  F37  1  0.78353100  0.50000000  0.00000000  1
