# generated using pymatgen
data_MnHC4N3O5
_symmetry_space_group_name_H-M   'P 1'
_cell_length_a   12.30085117
_cell_length_b   12.30085117
_cell_length_c   12.30085117
_cell_angle_alpha   121.16798329
_cell_angle_beta   121.16798329
_cell_angle_gamma   87.98862496
_symmetry_Int_Tables_number   1
_chemical_formula_structural   MnHC4N3O5
_chemical_formula_sum   'Mn8 H8 C32 N24 O40'
_cell_volume   1292.00578419
_cell_formula_units_Z   8
loop_
 _symmetry_equiv_pos_site_id
 _symmetry_equiv_pos_as_xyz
  1  'x, y, z'
loop_
 _atom_site_type_symbol
 _atom_site_label
 _atom_site_symmetry_multiplicity
 _atom_site_fract_x
 _atom_site_fract_y
 _atom_site_fract_z
 _atom_site_occupancy
  Mn  Mn0  1  0.50202000  0.81420800  0.50472500  1
  Mn  Mn1  1  0.30948300  0.99729500  0.49527500  1
  Mn  Mn2  1  0.44051700  0.25270500  0.00472500  1
  Mn  Mn3  1  0.24798000  0.43579200  0.99527500  1
  Mn  Mn4  1  0.00270500  0.49798000  0.31218800  1
  Mn  Mn5  1  0.18579200  0.69051700  0.68781200  1
  Mn  Mn6  1  0.56420800  0.55948300  0.81218800  1
  Mn  Mn7  1  0.74729500  0.75202000  0.18781200  1
  H  H8  1  0.98006300  0.80345200  0.91466800  1
  H  H9  1  0.88878500  0.06539500  0.08533200  1
  H  H10  1  0.86121600  0.18460500  0.41466800  1
  H  H11  1  0.76993700  0.44654800  0.58533200  1
  H  H12  1  0.93460500  0.01993700  0.82338900  1
  H  H13  1  0.19654800  0.11121600  0.17661100  1
  H  H14  1  0.55345200  0.13878500  0.32338900  1
  H  H15  1  0.81539500  0.23006300  0.67661100  1
  C  C16  1  0.61872300  0.69529700  0.69803200  1
  C  C17  1  0.99726500  0.92069000  0.30196800  1
  C  C18  1  0.75273500  0.32931000  0.19803200  1
  C  C19  1  0.13127700  0.55470300  0.80196800  1
  C  C20  1  0.07931000  0.38127700  0.07657400  1
  C  C21  1  0.30470300  0.00273500  0.92342600  1
  C  C22  1  0.44529700  0.24726500  0.57657400  1
  C  C23  1  0.67069000  0.86872300  0.42342600  1
  C  C24  1  0.46894900  0.64803500  0.60857500  1
  C  C25  1  0.03946100  0.86037400  0.39142500  1
  C  C26  1  0.71053900  0.38962600  0.10857500  1
  C  C27  1  0.28105100  0.60196500  0.89142500  1
  C  C28  1  0.13962600  0.53105100  0.17908600  1
  C  C29  1  0.35196500  0.96053900  0.82091400  1
  C  C30  1  0.39803500  0.28946100  0.67908600  1
  C  C31  1  0.61037400  0.71894900  0.32091400  1
  C  C32  1  0.82320000  0.69702800  0.87881400  1
  C  C33  1  0.81821400  0.94438600  0.12118600  1
  C  C34  1  0.93178600  0.30561400  0.37881400  1
  C  C35  1  0.92680000  0.55297200  0.62118600  1
  C  C36  1  0.05561400  0.17680000  0.87382800  1
  C  C37  1  0.30297200  0.18178600  0.12617200  1
  C  C38  1  0.44702800  0.06821400  0.37382800  1
  C  C39  1  0.69438600  0.07320000  0.62617200  1
  C  C40  1  0.80448800  0.80359700  0.74862700  1
  C  C41  1  0.05497000  0.05586100  0.25137300  1
  C  C42  1  0.69503000  0.19413900  0.24862700  1
  C  C43  1  0.94551200  0.44640300  0.75137300  1
  C  C44  1  0.94413900  0.19551200  0.99910900  1
  C  C45  1  0.19640300  0.94503000  0.00089100  1
  C  C46  1  0.55359700  0.30497000  0.49910900  1
  C  C47  1  0.80586100  0.05448800  0.50089100  1
  N  N48  1  0.68401400  0.65625600  0.79090100  1
  N  N49  1  0.86535500  0.89311300  0.20909900  1
  N  N50  1  0.88464500  0.35688700  0.29090100  1
  N  N51  1  0.06598600  0.59374400  0.70909900  1
  N  N52  1  0.10688700  0.31598600  0.97224100  1
  N  N53  1  0.34374400  0.13464500  0.02775900  1
  N  N54  1  0.40625600  0.11535500  0.47224100  1
  N  N55  1  0.64311300  0.93401400  0.52775900  1
  N  N56  1  0.87588900  0.76968100  0.85125800  1
  N  N57  1  0.91842300  0.02463100  0.14874200  1
  N  N58  1  0.83157700  0.22536900  0.35125800  1
  N  N59  1  0.87411100  0.48031900  0.64874200  1
  N  N60  1  0.97536900  0.12411100  0.89379200  1
  N  N61  1  0.23031900  0.08157700  0.10620800  1
  N  N62  1  0.51968100  0.16842300  0.39379200  1
  N  N63  1  0.77463100  0.12588900  0.60620800  1
  N  N64  1  0.66692800  0.76761700  0.67292200  1
  N  N65  1  0.09469500  0.99400500  0.32707800  1
  N  N66  1  0.65530500  0.25599500  0.17292200  1
  N  N67  1  0.08307200  0.48238300  0.82707800  1
  N  N68  1  0.00599500  0.33307200  0.10068900  1
  N  N69  1  0.23238300  0.90530500  0.89931100  1
  N  N70  1  0.51761700  0.34469500  0.60068900  1
  N  N71  1  0.74400500  0.91692800  0.39931100  1
  O  O72  1  0.41927900  0.40993300  0.13132100  1
  O  O73  1  0.27861100  0.28795800  0.86867900  1
  O  O74  1  0.47138900  0.96204200  0.63132100  1
  O  O75  1  0.33072100  0.84006700  0.36867900  1
  O  O76  1  0.71204200  0.58072100  0.99065400  1
  O  O77  1  0.59006700  0.72138900  0.00934600  1
  O  O78  1  0.15993300  0.52861100  0.49065400  1
  O  O79  1  0.03795800  0.66927900  0.50934600  1
  O  O80  1  0.42535000  0.58521600  0.64205000  1
  O  O81  1  0.94316600  0.78329900  0.35795000  1
  O  O82  1  0.80683400  0.46670100  0.14205000  1
  O  O83  1  0.32465000  0.66478400  0.85795000  1
  O  O84  1  0.21670100  0.57465000  0.15986600  1
  O  O85  1  0.41478400  0.05683400  0.84013400  1
  O  O86  1  0.33521600  0.19316600  0.65986600  1
  O  O87  1  0.53329900  0.67535000  0.34013400  1
  O  O88  1  0.40160300  0.67297200  0.50988100  1
  O  O89  1  0.16309100  0.89172100  0.49011900  1
  O  O90  1  0.58690900  0.35827800  0.00988100  1
  O  O91  1  0.34839700  0.57702800  0.99011900  1
  O  O92  1  0.10827800  0.59839700  0.27137000  1
  O  O93  1  0.32702800  0.83690900  0.72863000  1
  O  O94  1  0.42297200  0.41309100  0.77137000  1
  O  O95  1  0.64172200  0.65160300  0.22863000  1
  O  O96  1  0.89624000  0.67326400  0.97428600  1
  O  O97  1  0.69897800  0.92195400  0.02571400  1
  O  O98  1  0.05102200  0.32804600  0.47428600  1
  O  O99  1  0.85376000  0.57673600  0.52571400  1
  O  O100  1  0.07804600  0.10376000  0.77702500  1
  O  O101  1  0.32673600  0.30102200  0.22297500  1
  O  O102  1  0.42326400  0.94897800  0.27702500  1
  O  O103  1  0.67195400  0.14624000  0.72297500  1
  O  O104  1  0.86348800  0.86203400  0.72750200  1
  O  O105  1  0.13453200  0.13598600  0.27249800  1
  O  O106  1  0.61546800  0.11401400  0.22750200  1
  O  O107  1  0.88651200  0.38796600  0.77249800  1
  O  O108  1  0.86401400  0.13651200  0.99854700  1
  O  O109  1  0.13796600  0.86546800  0.00145300  1
  O  O110  1  0.61203400  0.38453200  0.49854700  1
  O  O111  1  0.88598600  0.11348800  0.50145300  1
