# generated using pymatgen
data_K3As2O11
_symmetry_space_group_name_H-M   'P 1'
_cell_length_a   8.89602800
_cell_length_b   11.47796300
_cell_length_c   13.89797400
_cell_angle_alpha   90.00000000
_cell_angle_beta   90.00000000
_cell_angle_gamma   90.00000000
_symmetry_Int_Tables_number   1
_chemical_formula_structural   K3As2O11
_chemical_formula_sum   'K12 As8 O44'
_cell_volume   1419.09822383
_cell_formula_units_Z   4
loop_
 _symmetry_equiv_pos_site_id
 _symmetry_equiv_pos_as_xyz
  1  'x, y, z'
loop_
 _atom_site_type_symbol
 _atom_site_label
 _atom_site_symmetry_multiplicity
 _atom_site_fract_x
 _atom_site_fract_y
 _atom_site_fract_z
 _atom_site_occupancy
  K  K0  1  0.74342900  0.88356900  0.96249400  1
  K  K1  1  0.25657100  0.11643100  0.46249400  1
  K  K2  1  0.74342900  0.61643100  0.46249400  1
  K  K3  1  0.25657100  0.38356900  0.96249400  1
  K  K4  1  0.72969400  0.90841800  0.68623600  1
  K  K5  1  0.27030600  0.09158200  0.18623600  1
  K  K6  1  0.72969400  0.59158200  0.18623600  1
  K  K7  1  0.27030600  0.40841800  0.68623600  1
  K  K8  1  0.16464100  0.88854900  0.68383000  1
  K  K9  1  0.83535900  0.11145100  0.18383000  1
  K  K10  1  0.16464100  0.61145100  0.18383000  1
  K  K11  1  0.83535900  0.38854900  0.68383000  1
  As  As12  1  0.63195900  0.89095400  0.27846800  1
  As  As13  1  0.36804100  0.10904600  0.77846800  1
  As  As14  1  0.63195900  0.60904600  0.77846800  1
  As  As15  1  0.36804100  0.39095400  0.27846800  1
  As  As16  1  0.33818800  0.84108300  0.31748400  1
  As  As17  1  0.66181200  0.15891700  0.81748400  1
  As  As18  1  0.33818800  0.65891700  0.81748400  1
  As  As19  1  0.66181200  0.34108300  0.31748400  1
  O  O20  1  0.45574100  0.97245900  0.29983100  1
  O  O21  1  0.54425900  0.02754100  0.79983100  1
  O  O22  1  0.45574100  0.52754100  0.79983100  1
  O  O23  1  0.54425900  0.47245900  0.29983100  1
  O  O24  1  0.76023900  0.92671600  0.35947500  1
  O  O25  1  0.23976100  0.07328400  0.85947500  1
  O  O26  1  0.76023900  0.57328400  0.85947500  1
  O  O27  1  0.23976100  0.42671600  0.35947500  1
  O  O28  1  0.68245600  0.89099500  0.16148500  1
  O  O29  1  0.31754400  0.10900500  0.66148500  1
  O  O30  1  0.68245600  0.60900500  0.66148500  1
  O  O31  1  0.31754400  0.39099500  0.16148500  1
  O  O32  1  0.26096400  0.84141200  0.42618100  1
  O  O33  1  0.73903600  0.15858800  0.92618100  1
  O  O34  1  0.26096400  0.65858800  0.92618100  1
  O  O35  1  0.73903600  0.34141200  0.42618100  1
  O  O36  1  0.23701800  0.82583500  0.21684400  1
  O  O37  1  0.76298200  0.17416500  0.71684400  1
  O  O38  1  0.23701800  0.67416500  0.71684400  1
  O  O39  1  0.76298200  0.32583500  0.21684400  1
  O  O40  1  0.52255100  0.67487200  0.02918400  1
  O  O41  1  0.47744900  0.32512800  0.52918400  1
  O  O42  1  0.52255100  0.82512800  0.52918400  1
  O  O43  1  0.47744900  0.17487200  0.02918400  1
  O  O44  1  0.52022000  0.74016900  0.80720300  1
  O  O45  1  0.47978000  0.25983100  0.30720300  1
  O  O46  1  0.52022000  0.75983100  0.30720300  1
  O  O47  1  0.47978000  0.24016900  0.80720300  1
  O  O48  1  0.49152400  0.07046200  0.05103100  1
  O  O49  1  0.50847600  0.92953800  0.55103100  1
  O  O50  1  0.49152400  0.42953800  0.55103100  1
  O  O51  1  0.50847600  0.57046200  0.05103100  1
  O  O52  1  0.02870700  0.05300100  0.01435500  1
  O  O53  1  0.97129300  0.94699900  0.51435500  1
  O  O54  1  0.02870700  0.44699900  0.51435500  1
  O  O55  1  0.97129300  0.55300100  0.01435500  1
  O  O56  1  0.92747300  0.65555400  0.02291500  1
  O  O57  1  0.07252700  0.34444600  0.52291500  1
  O  O58  1  0.92747300  0.84444600  0.52291500  1
  O  O59  1  0.07252700  0.15555400  0.02291500  1
  O  O60  1  0.93599700  0.88119800  0.81188500  1
  O  O61  1  0.06400300  0.11880200  0.31188500  1
  O  O62  1  0.93599700  0.61880200  0.31188500  1
  O  O63  1  0.06400300  0.38119800  0.81188500  1
