# generated using pymatgen
data_AgH14C3S3N6ClO
_symmetry_space_group_name_H-M   'P 1'
_cell_length_a   6.26399500
_cell_length_b   10.13147383
_cell_length_c   11.34117445
_cell_angle_alpha   100.50019194
_cell_angle_beta   91.87667399
_cell_angle_gamma   101.96046359
_symmetry_Int_Tables_number   1
_chemical_formula_structural   AgH14C3S3N6ClO
_chemical_formula_sum   'Ag2 H28 C6 S6 N12 Cl2 O2'
_cell_volume   690.47158923
_cell_formula_units_Z   2
loop_
 _symmetry_equiv_pos_site_id
 _symmetry_equiv_pos_as_xyz
  1  'x, y, z'
loop_
 _atom_site_type_symbol
 _atom_site_label
 _atom_site_symmetry_multiplicity
 _atom_site_fract_x
 _atom_site_fract_y
 _atom_site_fract_z
 _atom_site_occupancy
  Ag  Ag0  1  0.37249300  0.46493200  0.61391800  1
  Ag  Ag1  1  0.62750700  0.53506800  0.38608200  1
  H  H2  1  0.82277100  0.16401500  0.57046400  1
  H  H3  1  0.17722900  0.83598500  0.42953600  1
  H  H4  1  0.68026700  0.29164600  0.62500300  1
  H  H5  1  0.31973300  0.70835400  0.37499700  1
  H  H6  1  0.72885300  0.03719400  0.36841900  1
  H  H7  1  0.27114700  0.96280600  0.63158100  1
  H  H8  1  0.50573900  0.06839500  0.28781800  1
  H  H9  1  0.49426100  0.93160500  0.71218200  1
  H  H10  1  0.98104400  0.26767400  0.87644400  1
  H  H11  1  0.01895600  0.73232600  0.12355600  1
  H  H12  1  0.08813300  0.41473000  0.81928000  1
  H  H13  1  0.91186700  0.58527000  0.18072000  1
  H  H14  1  0.20081800  0.12620800  0.91827900  1
  H  H15  1  0.79918200  0.87379200  0.08172100  1
  H  H16  1  0.47589800  0.15491200  0.88435000  1
  H  H17  1  0.52410200  0.84508800  0.11565000  1
  H  H18  1  0.01883100  0.84599800  0.90222600  1
  H  H19  1  0.98116900  0.15400200  0.09777400  1
  H  H20  1  0.84321200  0.76504300  0.77429700  1
  H  H21  1  0.15678800  0.23495700  0.22570300  1
  H  H22  1  0.33751600  0.77589900  0.93543500  1
  H  H23  1  0.66248400  0.22410100  0.06456500  1
  H  H24  1  0.39542300  0.63094400  0.84195000  1
  H  H25  1  0.60457700  0.36905600  0.15805000  1
  H  H26  1  0.94314200  0.04199600  0.71294900  1
  H  H27  1  0.05685800  0.95800400  0.28705100  1
  H  H28  1  0.89212200  0.93839800  0.59245300  1
  H  H29  1  0.10787800  0.06160200  0.40754700  1
  C  C30  1  0.58079800  0.19021000  0.45388000  1
  C  C31  1  0.41920200  0.80979000  0.54612000  1
  C  C32  1  0.31195700  0.30473000  0.85568600  1
  C  C33  1  0.68804300  0.69527000  0.14431400  1
  C  C34  1  0.11145800  0.68384300  0.79358900  1
  C  C35  1  0.88854200  0.31615700  0.20641100  1
  S  S36  1  0.37561400  0.27757400  0.43332600  1
  S  S37  1  0.62438600  0.72242600  0.56667400  1
  S  S38  1  0.53645600  0.40876300  0.81088700  1
  S  S39  1  0.46354400  0.59123700  0.18911300  1
  S  S40  1  0.03445700  0.55676500  0.66820000  1
  S  S41  1  0.96554300  0.44323500  0.33180000  1
  N  N42  1  0.71158500  0.22156800  0.55452500  1
  N  N43  1  0.28841500  0.77843200  0.44547500  1
  N  N44  1  0.60375900  0.08832700  0.36533400  1
  N  N45  1  0.39624100  0.91167300  0.63466600  1
  N  N46  1  0.11557200  0.33740500  0.86026100  1
  N  N47  1  0.88442800  0.66259500  0.13973900  1
  N  N48  1  0.33286900  0.18859800  0.89203300  1
  N  N49  1  0.66713100  0.81140200  0.10796700  1
  N  N50  1  0.97727300  0.76838400  0.82888800  1
  N  N51  1  0.02272700  0.23161600  0.17111200  1
  N  N52  1  0.30144500  0.70258700  0.85887500  1
  N  N53  1  0.69855500  0.29741300  0.14112500  1
  Cl  Cl54  1  0.22875800  0.94670000  0.10491800  1
  Cl  Cl55  1  0.77124200  0.05330000  0.89508200  1
  O  O56  1  0.98574200  0.02842400  0.62926600  1
  O  O57  1  0.01425800  0.97157600  0.37073400  1
