# generated using pymatgen
data_MgB6H28(C2O)2
_symmetry_space_group_name_H-M   'P 1'
_cell_length_a   7.34879100
_cell_length_b   14.62616000
_cell_length_c   16.67481900
_cell_angle_alpha   90.00000000
_cell_angle_beta   90.00000000
_cell_angle_gamma   90.00000000
_symmetry_Int_Tables_number   1
_chemical_formula_structural   MgB6H28(C2O)2
_chemical_formula_sum   'Mg4 B24 H112 C16 O8'
_cell_volume   1792.28613311
_cell_formula_units_Z   4
loop_
 _symmetry_equiv_pos_site_id
 _symmetry_equiv_pos_as_xyz
  1  'x, y, z'
loop_
 _atom_site_type_symbol
 _atom_site_label
 _atom_site_symmetry_multiplicity
 _atom_site_fract_x
 _atom_site_fract_y
 _atom_site_fract_z
 _atom_site_occupancy
  Mg  Mg0  1  0.71116500  0.53839100  0.61119600  1
  Mg  Mg1  1  0.28883500  0.46160900  0.11119600  1
  Mg  Mg2  1  0.71116500  0.96160900  0.11119600  1
  Mg  Mg3  1  0.28883500  0.03839100  0.61119600  1
  B  B4  1  0.67777000  0.68833100  0.53214100  1
  B  B5  1  0.32223000  0.31166900  0.03214100  1
  B  B6  1  0.67777000  0.81166900  0.03214100  1
  B  B7  1  0.32223000  0.18833100  0.53214100  1
  B  B8  1  0.47242200  0.62394400  0.52629800  1
  B  B9  1  0.52757800  0.37605600  0.02629800  1
  B  B10  1  0.47242200  0.87605600  0.02629800  1
  B  B11  1  0.52757800  0.12394400  0.52629800  1
  B  B12  1  0.58653500  0.65836700  0.43604400  1
  B  B13  1  0.41346500  0.34163300  0.93604400  1
  B  B14  1  0.58653500  0.84163300  0.93604400  1
  B  B15  1  0.41346500  0.15836700  0.43604400  1
  B  B16  1  0.93769700  0.56204200  0.72690700  1
  B  B17  1  0.06230300  0.43795800  0.22690700  1
  B  B18  1  0.93769700  0.93795800  0.22690700  1
  B  B19  1  0.06230300  0.06204200  0.72690700  1
  B  B20  1  0.71942700  0.60483700  0.75340700  1
  B  B21  1  0.28057300  0.39516300  0.25340700  1
  B  B22  1  0.71942700  0.89516300  0.25340700  1
  B  B23  1  0.28057300  0.10483700  0.75340700  1
  B  B24  1  0.91420800  0.67839400  0.76017100  1
  B  B25  1  0.08579200  0.32160600  0.26017100  1
  B  B26  1  0.91420800  0.82160600  0.26017100  1
  B  B27  1  0.08579200  0.17839400  0.76017100  1
  H  H28  1  0.81249800  0.64799500  0.55769100  1
  H  H29  1  0.18750200  0.35200500  0.05769100  1
  H  H30  1  0.81249800  0.85200500  0.05769100  1
  H  H31  1  0.18750200  0.14799500  0.55769100  1
  H  H32  1  0.65523000  0.76154100  0.56349300  1
  H  H33  1  0.34477000  0.23845900  0.06349300  1
  H  H34  1  0.65523000  0.73845900  0.06349300  1
  H  H35  1  0.34477000  0.26154100  0.56349300  1
  H  H36  1  0.74328900  0.70788000  0.46395100  1
  H  H37  1  0.25671100  0.29212000  0.96395100  1
  H  H38  1  0.74328900  0.79212000  0.96395100  1
  H  H39  1  0.25671100  0.20788000  0.46395100  1
  H  H40  1  0.48061200  0.54382700  0.54841700  1
  H  H41  1  0.51938800  0.45617300  0.04841700  1
  H  H42  1  0.48061200  0.95617300  0.04841700  1
  H  H43  1  0.51938800  0.04382700  0.54841700  1
  H  H44  1  0.34470400  0.66407900  0.55458300  1
  H  H45  1  0.65529600  0.33592100  0.05458300  1
  H  H46  1  0.34470400  0.83592100  0.05458300  1
  H  H47  1  0.65529600  0.16407900  0.55458300  1
  H  H48  1  0.42351800  0.60745100  0.45492500  1
  H  H49  1  0.57648200  0.39254900  0.95492500  1
  H  H50  1  0.42351800  0.89254900  0.95492500  1
  H  H51  1  0.57648200  0.10745100  0.45492500  1
  H  H52  1  0.66468200  0.60037300  0.39794700  1
  H  H53  1  0.33531800  0.39962700  0.89794700  1
  H  H54  1  0.66468200  0.89962700  0.89794700  1
  H  H55  1  0.33531800  0.10037300  0.39794700  1
  H  H56  1  0.51573300  0.71935600  0.39888500  1
  H  H57  1  0.48426700  0.28064400  0.89888500  1
  H  H58  1  0.51573300  0.78064400  0.89888500  1
  H  H59  1  0.48426700  0.21935600  0.39888500  1
  H  H60  1  0.96256400  0.54676900  0.65506200  1
  H  H61  1  0.03743600  0.45323100  0.15506200  1
  H  H62  1  0.96256400  0.95323100  0.15506200  1
  H  H63  1  0.03743600  0.04676900  0.65506200  1
  H  H64  1  0.98531000  0.49975600  0.76917500  1
  H  H65  1  0.01469000  0.50024400  0.26917500  1
  H  H66  1  0.98531000  0.00024400  0.26917500  1
  H  H67  1  0.01469000  0.99975600  0.76917500  1
  H  H68  1  0.06315600  0.62047800  0.73454200  1
  H  H69  1  0.93684400  0.37952200  0.23454200  1
  H  H70  1  0.06315600  0.87952200  0.23454200  1
  H  H71  1  0.93684400  0.12047800  0.73454200  1
  H  H72  1  0.61125600  0.61613400  0.69799400  1
  H  H73  1  0.38874400  0.38386600  0.19799400  1
  H  H74  1  0.61125600  0.88386600  0.19799400  1
  H  H75  1  0.38874400  0.11613400  0.69799400  1
  H  H76  1  0.65442500  0.56327000  0.80868600  1
  H  H77  1  0.34557500  0.43673000  0.30868600  1
  H  H78  1  0.65442500  0.93673000  0.30868600  1
  H  H79  1  0.34557500  0.06327000  0.80868600  1
  H  H80  1  0.72331300  0.68688400  0.77797500  1
  H  H81  1  0.27668700  0.31311600  0.27797500  1
  H  H82  1  0.72331300  0.81311600  0.27797500  1
  H  H83  1  0.27668700  0.18688400  0.77797500  1
  H  H84  1  0.92883800  0.73755400  0.71025000  1
  H  H85  1  0.07116200  0.26244600  0.21025000  1
  H  H86  1  0.92883800  0.76244600  0.21025000  1
  H  H87  1  0.07116200  0.23755400  0.71025000  1
  H  H88  1  0.97202700  0.69565500  0.82611500  1
  H  H89  1  0.02797300  0.30434500  0.32611500  1
  H  H90  1  0.97202700  0.80434500  0.32611500  1
  H  H91  1  0.02797300  0.19565500  0.82611500  1
  H  H92  1  0.09046300  0.41044500  0.48935300  1
  H  H93  1  0.90953700  0.58955500  0.98935300  1
  H  H94  1  0.09046300  0.08955500  0.98935300  1
  H  H95  1  0.90953700  0.91044500  0.48935300  1
  H  H96  1  0.08419300  0.52579500  0.52691900  1
  H  H97  1  0.91580700  0.47420500  0.02691900  1
  H  H98  1  0.08419300  0.97420500  0.02691900  1
  H  H99  1  0.91580700  0.02579500  0.52691900  1
  H  H100  1  0.99779500  0.50069200  0.42833300  1
  H  H101  1  0.00220500  0.49930800  0.92833300  1
  H  H102  1  0.99779500  0.99930800  0.92833300  1
  H  H103  1  0.00220500  0.00069200  0.42833300  1
  H  H104  1  0.72026500  0.41771900  0.41566300  1
  H  H105  1  0.27973500  0.58228100  0.91566300  1
  H  H106  1  0.72026500  0.08228100  0.91566300  1
  H  H107  1  0.27973500  0.91771900  0.41566300  1
  H  H108  1  0.60932300  0.37684100  0.50510500  1
  H  H109  1  0.39067700  0.62315900  0.00510500  1
  H  H110  1  0.60932300  0.12315900  0.00510500  1
  H  H111  1  0.39067700  0.87684100  0.50510500  1
  H  H112  1  0.82173800  0.32771100  0.47449100  1
  H  H113  1  0.17826200  0.67228900  0.97449100  1
  H  H114  1  0.82173800  0.17228900  0.97449100  1
  H  H115  1  0.17826200  0.82771100  0.47449100  1
  H  H116  1  0.70702900  0.36074500  0.75698000  1
  H  H117  1  0.29297100  0.63925500  0.25698000  1
  H  H118  1  0.70702900  0.13925500  0.25698000  1
  H  H119  1  0.29297100  0.86074500  0.75698000  1
  H  H120  1  0.81415600  0.34354100  0.66131400  1
  H  H121  1  0.18584400  0.65645900  0.16131400  1
  H  H122  1  0.81415600  0.15645900  0.16131400  1
  H  H123  1  0.18584400  0.84354100  0.66131400  1
  H  H124  1  0.60463700  0.28590400  0.68329300  1
  H  H125  1  0.39536300  0.71409600  0.18329300  1
  H  H126  1  0.60463700  0.21409600  0.18329300  1
  H  H127  1  0.39536300  0.78590400  0.68329300  1
  H  H128  1  0.33573500  0.36269500  0.68277700  1
  H  H129  1  0.66426500  0.63730500  0.18277700  1
  H  H130  1  0.33573500  0.13730500  0.18277700  1
  H  H131  1  0.66426500  0.86269500  0.68277700  1
  H  H132  1  0.32746000  0.48345000  0.66319000  1
  H  H133  1  0.67254000  0.51655000  0.16319000  1
  H  H134  1  0.32746000  0.01655000  0.16319000  1
  H  H135  1  0.67254000  0.98345000  0.66319000  1
  H  H136  1  0.41238000  0.44280400  0.75788300  1
  H  H137  1  0.58762000  0.55719600  0.25788300  1
  H  H138  1  0.41238000  0.05719600  0.25788300  1
  H  H139  1  0.58762000  0.94280400  0.75788300  1
  C  C140  1  0.01374900  0.47506000  0.49002500  1
  C  C141  1  0.98625100  0.52494000  0.99002500  1
  C  C142  1  0.01374900  0.02494000  0.99002500  1
  C  C143  1  0.98625100  0.97506000  0.49002500  1
  C  C144  1  0.74020900  0.39078900  0.47667400  1
  C  C145  1  0.25979100  0.60921100  0.97667400  1
  C  C146  1  0.74020900  0.10921100  0.97667400  1
  C  C147  1  0.25979100  0.89078900  0.47667400  1
  C  C148  1  0.68409400  0.34881300  0.69259500  1
  C  C149  1  0.31590600  0.65118700  0.19259500  1
  C  C150  1  0.68409400  0.15118700  0.19259500  1
  C  C151  1  0.31590600  0.84881300  0.69259500  1
  C  C152  1  0.40279600  0.42877600  0.69311100  1
  C  C153  1  0.59720400  0.57122400  0.19311100  1
  C  C154  1  0.40279600  0.07122400  0.19311100  1
  C  C155  1  0.59720400  0.92877600  0.69311100  1
  O  O156  1  0.83621300  0.45805600  0.52433100  1
  O  O157  1  0.16378700  0.54194400  0.02433100  1
  O  O158  1  0.83621300  0.04194400  0.02433100  1
  O  O159  1  0.16378700  0.95805600  0.52433100  1
  O  O160  1  0.58347500  0.42462400  0.65881700  1
  O  O161  1  0.41652500  0.57537600  0.15881700  1
  O  O162  1  0.58347500  0.07537600  0.15881700  1
  O  O163  1  0.41652500  0.92462400  0.65881700  1
