# generated using pymatgen
data_Mg2CO5
_symmetry_space_group_name_H-M   'P 1'
_cell_length_a   8.90861300
_cell_length_b   3.24725000
_cell_length_c   12.77063871
_cell_angle_alpha   83.32486675
_cell_angle_beta   90.00000000
_cell_angle_gamma   90.00000000
_symmetry_Int_Tables_number   1
_chemical_formula_structural   Mg2CO5
_chemical_formula_sum   'Mg8 C4 O20'
_cell_volume   366.93100844
_cell_formula_units_Z   4
loop_
 _symmetry_equiv_pos_site_id
 _symmetry_equiv_pos_as_xyz
  1  'x, y, z'
loop_
 _atom_site_type_symbol
 _atom_site_label
 _atom_site_symmetry_multiplicity
 _atom_site_fract_x
 _atom_site_fract_y
 _atom_site_fract_z
 _atom_site_occupancy
  Mg  Mg0  1  0.49398000  0.98668900  0.29209200  1
  Mg  Mg1  1  0.99398000  0.01331100  0.20790800  1
  Mg  Mg2  1  0.50602000  0.01331100  0.70790800  1
  Mg  Mg3  1  0.00602000  0.98668900  0.79209200  1
  Mg  Mg4  1  0.71723400  0.58396500  0.08249900  1
  Mg  Mg5  1  0.21723400  0.41603500  0.41750100  1
  Mg  Mg6  1  0.28276600  0.41603500  0.91750100  1
  Mg  Mg7  1  0.78276600  0.58396500  0.58249900  1
  C  C8  1  0.77330200  0.53109700  0.34420000  1
  C  C9  1  0.27330200  0.46890300  0.15580000  1
  C  C10  1  0.22669800  0.46890300  0.65580000  1
  C  C11  1  0.72669800  0.53109700  0.84420000  1
  O  O12  1  0.62960500  0.46361700  0.34604200  1
  O  O13  1  0.12960500  0.53638300  0.15395800  1
  O  O14  1  0.37039500  0.53638300  0.65395800  1
  O  O15  1  0.87039500  0.46361700  0.84604200  1
  O  O16  1  0.84808200  0.50175800  0.25705800  1
  O  O17  1  0.34808200  0.49824200  0.24294200  1
  O  O18  1  0.15191800  0.49824200  0.74294200  1
  O  O19  1  0.65191800  0.50175800  0.75705800  1
  O  O20  1  0.84114900  0.64452000  0.42415800  1
  O  O21  1  0.34114900  0.35548000  0.07584200  1
  O  O22  1  0.15885100  0.35548000  0.57584200  1
  O  O23  1  0.65885100  0.64452000  0.92415800  1
  O  O24  1  0.60297700  0.05317700  0.14901300  1
  O  O25  1  0.10297700  0.94682300  0.35098700  1
  O  O26  1  0.39702300  0.94682300  0.85098700  1
  O  O27  1  0.89702300  0.05317700  0.64901300  1
  O  O28  1  0.85527500  0.08634200  0.08120000  1
  O  O29  1  0.35527500  0.91365800  0.41880000  1
  O  O30  1  0.14472500  0.91365800  0.91880000  1
  O  O31  1  0.64472500  0.08634200  0.58120000  1
