# generated using pymatgen
data_MnTeH18(SN2)3
_symmetry_space_group_name_H-M   'P 1'
_cell_length_a   7.54338700
_cell_length_b   11.11234300
_cell_length_c   17.64269085
_cell_angle_alpha   90.00000000
_cell_angle_beta   93.12069546
_cell_angle_gamma   90.00000000
_symmetry_Int_Tables_number   1
_chemical_formula_structural   MnTeH18(SN2)3
_chemical_formula_sum   'Mn4 Te4 H72 S12 N24'
_cell_volume   1476.70024028
_cell_formula_units_Z   4
loop_
 _symmetry_equiv_pos_site_id
 _symmetry_equiv_pos_as_xyz
  1  'x, y, z'
loop_
 _atom_site_type_symbol
 _atom_site_label
 _atom_site_symmetry_multiplicity
 _atom_site_fract_x
 _atom_site_fract_y
 _atom_site_fract_z
 _atom_site_occupancy
  Mn  Mn0  1  0.68171600  0.26510300  0.60948500  1
  Mn  Mn1  1  0.31828400  0.76510300  0.89051500  1
  Mn  Mn2  1  0.31828400  0.73489700  0.39051500  1
  Mn  Mn3  1  0.68171600  0.23489700  0.10948500  1
  Te  Te4  1  0.83043100  0.76982000  0.65372000  1
  Te  Te5  1  0.16956900  0.26982000  0.84628000  1
  Te  Te6  1  0.16956900  0.23018000  0.34628000  1
  Te  Te7  1  0.83043100  0.73018000  0.15372000  1
  H  H8  1  0.96811000  0.42498200  0.60080800  1
  H  H9  1  0.03189000  0.92498200  0.89919200  1
  H  H10  1  0.03189000  0.57501800  0.39919200  1
  H  H11  1  0.96811000  0.07501800  0.10080800  1
  H  H12  1  0.91168800  0.43142300  0.68886300  1
  H  H13  1  0.08831200  0.93142300  0.81113700  1
  H  H14  1  0.08831200  0.56857700  0.31113700  1
  H  H15  1  0.91168800  0.06857700  0.18886300  1
  H  H16  1  0.03232000  0.31546800  0.66102000  1
  H  H17  1  0.96768000  0.81546800  0.83898000  1
  H  H18  1  0.96768000  0.68453200  0.33898000  1
  H  H19  1  0.03232000  0.18453200  0.16102000  1
  H  H20  1  0.56628900  0.33625200  0.46099700  1
  H  H21  1  0.43371100  0.83625200  0.03900300  1
  H  H22  1  0.43371100  0.66374800  0.53900300  1
  H  H23  1  0.56628900  0.16374800  0.96099700  1
  H  H24  1  0.66862000  0.45236300  0.50632000  1
  H  H25  1  0.33138000  0.95236300  0.99368000  1
  H  H26  1  0.33138000  0.54763700  0.49368000  1
  H  H27  1  0.66862000  0.04763700  0.00632000  1
  H  H28  1  0.78699400  0.34619600  0.46853100  1
  H  H29  1  0.21300600  0.84619600  0.03146900  1
  H  H30  1  0.21300600  0.65380400  0.53146900  1
  H  H31  1  0.78699400  0.15380400  0.96853100  1
  H  H32  1  0.45490300  0.38171400  0.70767500  1
  H  H33  1  0.54509700  0.88171400  0.79232500  1
  H  H34  1  0.54509700  0.61828600  0.29232500  1
  H  H35  1  0.45490300  0.11828600  0.20767500  1
  H  H36  1  0.58049100  0.48577600  0.67242700  1
  H  H37  1  0.41950900  0.98577600  0.82757300  1
  H  H38  1  0.41950900  0.51422400  0.32757300  1
  H  H39  1  0.58049100  0.01422400  0.17242700  1
  H  H40  1  0.40548700  0.43428000  0.62102300  1
  H  H41  1  0.59451300  0.93428000  0.87897700  1
  H  H42  1  0.59451300  0.56572000  0.37897700  1
  H  H43  1  0.40548700  0.06572000  0.12102300  1
  H  H44  1  0.65151800  0.07653200  0.71079800  1
  H  H45  1  0.34848200  0.57653200  0.78920200  1
  H  H46  1  0.34848200  0.92346800  0.28920200  1
  H  H47  1  0.65151800  0.42346800  0.21079800  1
  H  H48  1  0.82206700  0.15874400  0.74335300  1
  H  H49  1  0.17793300  0.65874400  0.75664700  1
  H  H50  1  0.17793300  0.84125600  0.25664700  1
  H  H51  1  0.82206700  0.34125600  0.24335300  1
  H  H52  1  0.61507300  0.20052000  0.76013700  1
  H  H53  1  0.38492700  0.70052000  0.73986300  1
  H  H54  1  0.38492700  0.79948000  0.23986300  1
  H  H55  1  0.61507300  0.29948000  0.26013700  1
  H  H56  1  0.34867300  0.16168400  0.61627100  1
  H  H57  1  0.65132700  0.66168400  0.88372900  1
  H  H58  1  0.65132700  0.83831600  0.38372900  1
  H  H59  1  0.34867300  0.33831600  0.11627100  1
  H  H60  1  0.37841000  0.17816900  0.52418800  1
  H  H61  1  0.62159000  0.67816900  0.97581200  1
  H  H62  1  0.62159000  0.82183100  0.47581200  1
  H  H63  1  0.37841000  0.32183100  0.02418800  1
  H  H64  1  0.47181500  0.06322700  0.57356800  1
  H  H65  1  0.52818500  0.56322700  0.92643200  1
  H  H66  1  0.52818500  0.93677300  0.42643200  1
  H  H67  1  0.47181500  0.43677300  0.07356800  1
  H  H68  1  0.80773700  0.05445300  0.53615800  1
  H  H69  1  0.19226300  0.55445300  0.96384200  1
  H  H70  1  0.19226300  0.94554700  0.46384200  1
  H  H71  1  0.80773700  0.44554700  0.03615800  1
  H  H72  1  0.95177300  0.16610400  0.52417000  1
  H  H73  1  0.04822700  0.66610400  0.97583000  1
  H  H74  1  0.04822700  0.83389600  0.47583000  1
  H  H75  1  0.95177300  0.33389600  0.02417000  1
  H  H76  1  0.95251400  0.09243900  0.60583200  1
  H  H77  1  0.04748600  0.59243900  0.89416800  1
  H  H78  1  0.04748600  0.90756100  0.39416800  1
  H  H79  1  0.95251400  0.40756100  0.10583200  1
  S  S80  1  0.81859000  0.62739200  0.75402000  1
  S  S81  1  0.18141000  0.12739200  0.74598000  1
  S  S82  1  0.18141000  0.37260800  0.24598000  1
  S  S83  1  0.81859000  0.87260800  0.25402000  1
  S  S84  1  0.85637100  0.65882500  0.54039600  1
  S  S85  1  0.14362900  0.15882500  0.95960400  1
  S  S86  1  0.14362900  0.34117500  0.45960400  1
  S  S87  1  0.85637100  0.84117500  0.04039600  1
  S  S88  1  0.54374400  0.85637700  0.64353400  1
  S  S89  1  0.45625600  0.35637700  0.85646600  1
  S  S90  1  0.45625600  0.14362300  0.35646600  1
  S  S91  1  0.54374400  0.64362300  0.14353400  1
  N  N92  1  0.93006100  0.37250500  0.64488100  1
  N  N93  1  0.06993900  0.87250500  0.85511900  1
  N  N94  1  0.06993900  0.62749500  0.35511900  1
  N  N95  1  0.93006100  0.12749500  0.14488100  1
  N  N96  1  0.67242200  0.36150900  0.49620800  1
  N  N97  1  0.32757800  0.86150900  0.00379200  1
  N  N98  1  0.32757800  0.63849100  0.50379200  1
  N  N99  1  0.67242200  0.13849100  0.99620800  1
  N  N100  1  0.50800500  0.40974800  0.65816400  1
  N  N101  1  0.49199500  0.90974800  0.84183600  1
  N  N102  1  0.49199500  0.59025200  0.34183600  1
  N  N103  1  0.50800500  0.09025200  0.15816400  1
  N  N104  1  0.69395600  0.16326500  0.72054900  1
  N  N105  1  0.30604400  0.66326500  0.77945100  1
  N  N106  1  0.30604400  0.83673500  0.27945100  1
  N  N107  1  0.69395600  0.33673500  0.22054900  1
  N  N108  1  0.43939000  0.15292100  0.57519600  1
  N  N109  1  0.56061000  0.65292100  0.92480400  1
  N  N110  1  0.56061000  0.84707900  0.42480400  1
  N  N111  1  0.43939000  0.34707900  0.07519600  1
  N  N112  1  0.87172200  0.12555700  0.56217000  1
  N  N113  1  0.12827800  0.62555700  0.93783000  1
  N  N114  1  0.12827800  0.87444300  0.43783000  1
  N  N115  1  0.87172200  0.37444300  0.06217000  1
