# generated using pymatgen
data_Na2YbPWO8
_symmetry_space_group_name_H-M   'P 1'
_cell_length_a   11.57637127
_cell_length_b   11.57637127
_cell_length_c   11.57637127
_cell_angle_alpha   144.94785132
_cell_angle_beta   115.79999124
_cell_angle_gamma   75.29391816
_symmetry_Int_Tables_number   1
_chemical_formula_structural   Na2YbPWO8
_chemical_formula_sum   'Na8 Yb4 P4 W4 O32'
_cell_volume   786.27695733
_cell_formula_units_Z   4
loop_
 _symmetry_equiv_pos_site_id
 _symmetry_equiv_pos_as_xyz
  1  'x, y, z'
loop_
 _atom_site_type_symbol
 _atom_site_label
 _atom_site_symmetry_multiplicity
 _atom_site_fract_x
 _atom_site_fract_y
 _atom_site_fract_z
 _atom_site_occupancy
  Na  Na0  1  0.28314400  0.33836800  0.92751900  1
  Na  Na1  1  0.91084900  0.35562500  0.57248100  1
  Na  Na2  1  0.58915100  0.16163200  0.44477600  1
  Na  Na3  1  0.21685600  0.14437500  0.05522400  1
  Na  Na4  1  0.71685600  0.66163200  0.07248100  1
  Na  Na5  1  0.08915100  0.64437500  0.42751900  1
  Na  Na6  1  0.41084900  0.83836800  0.55522400  1
  Na  Na7  1  0.78314400  0.85562500  0.94477600  1
  Yb  Yb8  1  0.32005000  0.75000000  0.07005000  1
  Yb  Yb9  1  0.17995000  0.25000000  0.42995000  1
  Yb  Yb10  1  0.67995000  0.25000000  0.92995000  1
  Yb  Yb11  1  0.82005000  0.75000000  0.57005000  1
  P  P12  1  0.93140300  0.25000000  0.18140300  1
  P  P13  1  0.56859700  0.75000000  0.31859700  1
  P  P14  1  0.06859700  0.75000000  0.81859700  1
  P  P15  1  0.43140300  0.25000000  0.68140300  1
  W  W16  1  0.92682200  0.17682200  0.75000000  1
  W  W17  1  0.57317800  0.32317800  0.25000000  1
  W  W18  1  0.07317800  0.82317800  0.25000000  1
  W  W19  1  0.42682200  0.67682200  0.75000000  1
  O  O20  1  0.93531100  0.19587600  0.26829600  1
  O  O21  1  0.42758000  0.66701500  0.23170400  1
  O  O22  1  0.07242000  0.30412400  0.23943500  1
  O  O23  1  0.56468900  0.83298500  0.26056500  1
  O  O24  1  0.06468900  0.80412400  0.73170400  1
  O  O25  1  0.57242000  0.33298500  0.76829600  1
  O  O26  1  0.92758000  0.69587600  0.76056500  1
  O  O27  1  0.43531100  0.16701500  0.73943500  1
  O  O28  1  0.84652100  0.06498100  0.92947900  1
  O  O29  1  0.63550200  0.91704200  0.57052100  1
  O  O30  1  0.86449800  0.43501900  0.28154000  1
  O  O31  1  0.65347900  0.58295800  0.21846000  1
  O  O32  1  0.15347900  0.93501900  0.07052100  1
  O  O33  1  0.36449800  0.08295800  0.42947900  1
  O  O34  1  0.13550200  0.56498100  0.71846000  1
  O  O35  1  0.34652100  0.41704200  0.78154000  1
  O  O36  1  0.84611700  0.33246800  0.93709700  1
  O  O37  1  0.89537000  0.90902000  0.56290300  1
  O  O38  1  0.60463000  0.16753200  0.01364900  1
  O  O39  1  0.65388300  0.59098000  0.48635100  1
  O  O40  1  0.15388300  0.66753200  0.06290300  1
  O  O41  1  0.10463000  0.09098000  0.43709700  1
  O  O42  1  0.39537000  0.83246800  0.98635100  1
  O  O43  1  0.34611700  0.40902000  0.51364900  1
  O  O44  1  0.86060100  0.18872500  0.58696300  1
  O  O45  1  0.10176200  0.27363800  0.91303700  1
  O  O46  1  0.39823800  0.31127500  0.17187600  1
  O  O47  1  0.63939900  0.22636200  0.32812400  1
  O  O48  1  0.13939900  0.81127500  0.41303700  1
  O  O49  1  0.89823800  0.72636200  0.08696300  1
  O  O50  1  0.60176200  0.68872500  0.82812400  1
  O  O51  1  0.36060100  0.77363800  0.67187600  1
