# generated using pymatgen
data_Fe7Sb3P3(ClO6)3
_symmetry_space_group_name_H-M   'P 1'
_cell_length_a   5.26816800
_cell_length_b   15.10095300
_cell_length_c   26.03856100
_cell_angle_alpha   90.00000000
_cell_angle_beta   90.00000000
_cell_angle_gamma   90.00000000
_symmetry_Int_Tables_number   1
_chemical_formula_structural   Fe7Sb3P3(ClO6)3
_chemical_formula_sum   'Fe28 Sb12 P12 Cl12 O72'
_cell_volume   2071.48098704
_cell_formula_units_Z   4
loop_
 _symmetry_equiv_pos_site_id
 _symmetry_equiv_pos_as_xyz
  1  'x, y, z'
loop_
 _atom_site_type_symbol
 _atom_site_label
 _atom_site_symmetry_multiplicity
 _atom_site_fract_x
 _atom_site_fract_y
 _atom_site_fract_z
 _atom_site_occupancy
  Fe  Fe0  1  0.18685200  0.35446300  0.07174000  1
  Fe  Fe1  1  0.68685200  0.14553700  0.42826000  1
  Fe  Fe2  1  0.81314800  0.85446300  0.92826000  1
  Fe  Fe3  1  0.31314800  0.64553700  0.57174000  1
  Fe  Fe4  1  0.81314800  0.64553700  0.92826000  1
  Fe  Fe5  1  0.31314800  0.85446300  0.57174000  1
  Fe  Fe6  1  0.18685200  0.14553700  0.07174000  1
  Fe  Fe7  1  0.68685200  0.35446300  0.42826000  1
  Fe  Fe8  1  0.19265800  0.93109300  0.28612900  1
  Fe  Fe9  1  0.69265800  0.56890700  0.21387100  1
  Fe  Fe10  1  0.80734200  0.43109300  0.71387100  1
  Fe  Fe11  1  0.30734200  0.06890700  0.78612900  1
  Fe  Fe12  1  0.80734200  0.06890700  0.71387100  1
  Fe  Fe13  1  0.30734200  0.43109300  0.78612900  1
  Fe  Fe14  1  0.19265800  0.56890700  0.28612900  1
  Fe  Fe15  1  0.69265800  0.93109300  0.21387100  1
  Fe  Fe16  1  0.31447900  0.96481800  0.89171400  1
  Fe  Fe17  1  0.81447900  0.53518200  0.60828600  1
  Fe  Fe18  1  0.68552100  0.46481800  0.10828600  1
  Fe  Fe19  1  0.18552100  0.03518200  0.39171400  1
  Fe  Fe20  1  0.68552100  0.03518200  0.10828600  1
  Fe  Fe21  1  0.18552100  0.46481800  0.39171400  1
  Fe  Fe22  1  0.31447900  0.53518200  0.89171400  1
  Fe  Fe23  1  0.81447900  0.96481800  0.60828600  1
  Fe  Fe24  1  0.59432700  0.75000000  0.75025800  1
  Fe  Fe25  1  0.09432700  0.75000000  0.74974200  1
  Fe  Fe26  1  0.40567300  0.25000000  0.24974200  1
  Fe  Fe27  1  0.90567300  0.25000000  0.25025800  1
  Sb  Sb28  1  0.74984100  0.44087500  0.97976600  1
  Sb  Sb29  1  0.24984100  0.05912500  0.52023400  1
  Sb  Sb30  1  0.25015900  0.94087500  0.02023400  1
  Sb  Sb31  1  0.75015900  0.55912500  0.47976600  1
  Sb  Sb32  1  0.25015900  0.55912500  0.02023400  1
  Sb  Sb33  1  0.75015900  0.94087500  0.47976600  1
  Sb  Sb34  1  0.74984100  0.05912500  0.97976600  1
  Sb  Sb35  1  0.24984100  0.44087500  0.52023400  1
  Sb  Sb36  1  0.72623600  0.75000000  0.29068100  1
  Sb  Sb37  1  0.22623600  0.75000000  0.20931900  1
  Sb  Sb38  1  0.27376400  0.25000000  0.70931900  1
  Sb  Sb39  1  0.77376400  0.25000000  0.79068100  1
  P  P40  1  0.81639900  0.75000000  0.62647700  1
  P  P41  1  0.31639900  0.75000000  0.87352300  1
  P  P42  1  0.18360100  0.25000000  0.37352300  1
  P  P43  1  0.68360100  0.25000000  0.12647700  1
  P  P44  1  0.68020700  0.06461400  0.31168100  1
  P  P45  1  0.18020700  0.43538600  0.18831900  1
  P  P46  1  0.31979300  0.56461400  0.68831900  1
  P  P47  1  0.81979300  0.93538600  0.81168100  1
  P  P48  1  0.31979300  0.93538600  0.68831900  1
  P  P49  1  0.81979300  0.56461400  0.81168100  1
  P  P50  1  0.68020700  0.43538600  0.31168100  1
  P  P51  1  0.18020700  0.06461400  0.18831900  1
  Cl  Cl52  1  0.37747800  0.12465200  0.87528400  1
  Cl  Cl53  1  0.87747800  0.37534800  0.62471600  1
  Cl  Cl54  1  0.62252200  0.62465200  0.12471600  1
  Cl  Cl55  1  0.12252200  0.87534800  0.37528400  1
  Cl  Cl56  1  0.62252200  0.87534800  0.12471600  1
  Cl  Cl57  1  0.12252200  0.62465200  0.37528400  1
  Cl  Cl58  1  0.37747800  0.37534800  0.87528400  1
  Cl  Cl59  1  0.87747800  0.12465200  0.62471600  1
  Cl  Cl60  1  0.38997900  0.75000000  0.49989200  1
  Cl  Cl61  1  0.88997900  0.75000000  0.00010800  1
  Cl  Cl62  1  0.61002100  0.25000000  0.50010800  1
  Cl  Cl63  1  0.11002100  0.25000000  0.99989200  1
  O  O64  1  0.05328300  0.52777200  0.95401200  1
  O  O65  1  0.55328400  0.97222800  0.54598800  1
  O  O66  1  0.94671600  0.02777200  0.04598800  1
  O  O67  1  0.44671700  0.47222800  0.45401200  1
  O  O68  1  0.94671600  0.47222800  0.04598800  1
  O  O69  1  0.44671700  0.02777200  0.45401200  1
  O  O70  1  0.05328300  0.97222800  0.95401200  1
  O  O71  1  0.55328400  0.52777200  0.54598800  1
  O  O72  1  0.47163800  0.83452600  0.25315200  1
  O  O73  1  0.97163800  0.66547400  0.24684800  1
  O  O74  1  0.52836200  0.33452600  0.74684800  1
  O  O75  1  0.02836200  0.16547400  0.75315200  1
  O  O76  1  0.52836200  0.16547400  0.74684800  1
  O  O77  1  0.02836200  0.33452600  0.75315200  1
  O  O78  1  0.47163800  0.66547400  0.25315200  1
  O  O79  1  0.97163800  0.83452600  0.24684800  1
  O  O80  1  0.55301200  0.55614800  0.96371400  1
  O  O81  1  0.05301200  0.94385200  0.53628600  1
  O  O82  1  0.44698800  0.05614800  0.03628600  1
  O  O83  1  0.94698800  0.44385200  0.46371400  1
  O  O84  1  0.44698800  0.44385200  0.03628600  1
  O  O85  1  0.94698800  0.05614800  0.46371400  1
  O  O86  1  0.55301200  0.94385200  0.96371400  1
  O  O87  1  0.05301200  0.55614800  0.53628600  1
  O  O88  1  0.84129000  0.75000000  0.68655400  1
  O  O89  1  0.34129000  0.75000000  0.81344600  1
  O  O90  1  0.15871000  0.25000000  0.31344600  1
  O  O91  1  0.65871000  0.25000000  0.18655400  1
  O  O92  1  0.66613100  0.83233300  0.60823900  1
  O  O93  1  0.16613100  0.66766700  0.89176100  1
  O  O94  1  0.33386900  0.33233300  0.39176100  1
  O  O95  1  0.83386900  0.16766700  0.10823900  1
  O  O96  1  0.33386900  0.16766700  0.39176100  1
  O  O97  1  0.83386900  0.33233300  0.10823900  1
  O  O98  1  0.66613100  0.66766700  0.60823900  1
  O  O99  1  0.16613100  0.83233300  0.89176100  1
  O  O100  1  0.08301000  0.75000000  0.60115500  1
  O  O101  1  0.58301000  0.75000000  0.89884500  1
  O  O102  1  0.91699000  0.25000000  0.39884500  1
  O  O103  1  0.41699000  0.25000000  0.10115500  1
  O  O104  1  0.41253400  0.02630000  0.32418200  1
  O  O105  1  0.91253400  0.47370000  0.17581800  1
  O  O106  1  0.58746600  0.52630000  0.67581800  1
  O  O107  1  0.08746600  0.97370000  0.82418200  1
  O  O108  1  0.58746600  0.97370000  0.67581800  1
  O  O109  1  0.08746600  0.52630000  0.82418200  1
  O  O110  1  0.41253400  0.47370000  0.32418200  1
  O  O111  1  0.91253400  0.02630000  0.17581800  1
  O  O112  1  0.82915100  0.99587900  0.27981900  1
  O  O113  1  0.32915100  0.50412100  0.22018100  1
  O  O114  1  0.17084900  0.49587900  0.72018100  1
  O  O115  1  0.67084900  0.00412100  0.77981900  1
  O  O116  1  0.17084900  0.00412100  0.72018100  1
  O  O117  1  0.67084900  0.49587900  0.77981900  1
  O  O118  1  0.82915100  0.50412100  0.27981900  1
  O  O119  1  0.32915100  0.99587900  0.22018100  1
  O  O120  1  0.83028700  0.07806700  0.36222100  1
  O  O121  1  0.33028700  0.42193300  0.13777900  1
  O  O122  1  0.16971300  0.57806700  0.63777900  1
  O  O123  1  0.66971300  0.92193300  0.86222100  1
  O  O124  1  0.16971300  0.92193300  0.63777900  1
  O  O125  1  0.66971300  0.57806700  0.86222100  1
  O  O126  1  0.83028700  0.42193300  0.36222100  1
  O  O127  1  0.33028700  0.07806700  0.13777900  1
  O  O128  1  0.65533500  0.15447300  0.28192300  1
  O  O129  1  0.15533500  0.34552700  0.21807700  1
  O  O130  1  0.34466500  0.65447300  0.71807700  1
  O  O131  1  0.84466500  0.84552700  0.78192300  1
  O  O132  1  0.34466500  0.84552700  0.71807700  1
  O  O133  1  0.84466500  0.65447300  0.78192300  1
  O  O134  1  0.65533500  0.34552700  0.28192300  1
  O  O135  1  0.15533500  0.15447300  0.21807700  1
