# generated using pymatgen
data_Na4Ce2(Si4O11)3
_symmetry_space_group_name_H-M   'P 1'
_cell_length_a   7.11020800
_cell_length_b   7.51929300
_cell_length_c   15.31668900
_cell_angle_alpha   90.00000000
_cell_angle_beta   90.00000000
_cell_angle_gamma   90.00000000
_symmetry_Int_Tables_number   1
_chemical_formula_structural   Na4Ce2(Si4O11)3
_chemical_formula_sum   'Na4 Ce2 Si12 O33'
_cell_volume   818.88743613
_cell_formula_units_Z   1
loop_
 _symmetry_equiv_pos_site_id
 _symmetry_equiv_pos_as_xyz
  1  'x, y, z'
loop_
 _atom_site_type_symbol
 _atom_site_label
 _atom_site_symmetry_multiplicity
 _atom_site_fract_x
 _atom_site_fract_y
 _atom_site_fract_z
 _atom_site_occupancy
  Na  Na0  1  0.00681200  0.50000000  0.23857400  1
  Na  Na1  1  0.00681200  0.50000000  0.76142600  1
  Na  Na2  1  0.87156700  0.77079500  0.50000000  1
  Na  Na3  1  0.87156700  0.22920500  0.50000000  1
  Ce  Ce4  1  0.99780500  0.00000000  0.25261900  1
  Ce  Ce5  1  0.99780500  0.00000000  0.74738100  1
  Si  Si6  1  0.74666300  0.70885300  0.09966900  1
  Si  Si7  1  0.74666300  0.29114700  0.90033100  1
  Si  Si8  1  0.74666300  0.70885300  0.90033100  1
  Si  Si9  1  0.74666300  0.29114700  0.09966900  1
  Si  Si10  1  0.28966500  0.70371500  0.39965300  1
  Si  Si11  1  0.28966500  0.29628500  0.60034700  1
  Si  Si12  1  0.28966500  0.70371500  0.60034700  1
  Si  Si13  1  0.28966500  0.29628500  0.39965300  1
  Si  Si14  1  0.48352200  0.00000000  0.15839100  1
  Si  Si15  1  0.48352200  0.00000000  0.84160900  1
  Si  Si16  1  0.59313300  0.00000000  0.35723600  1
  Si  Si17  1  0.59313300  0.00000000  0.64276400  1
  O  O18  1  0.82739200  0.72365300  0.00000000  1
  O  O19  1  0.82739200  0.27634700  0.00000000  1
  O  O20  1  0.12334400  0.75691400  0.33248400  1
  O  O21  1  0.12334400  0.24308600  0.66751600  1
  O  O22  1  0.12334400  0.75691400  0.66751600  1
  O  O23  1  0.12334400  0.24308600  0.33248400  1
  O  O24  1  0.90043600  0.77718000  0.17043800  1
  O  O25  1  0.90043600  0.22282000  0.82956200  1
  O  O26  1  0.90043600  0.77718000  0.82956200  1
  O  O27  1  0.90043600  0.22282000  0.17043800  1
  O  O28  1  0.54936300  0.82042000  0.10653100  1
  O  O29  1  0.54936300  0.17958000  0.89346900  1
  O  O30  1  0.54936300  0.82042000  0.89346900  1
  O  O31  1  0.54936300  0.17958000  0.10653100  1
  O  O32  1  0.47871600  0.82464900  0.39067700  1
  O  O33  1  0.47871600  0.17535100  0.60932300  1
  O  O34  1  0.47871600  0.82464900  0.60932300  1
  O  O35  1  0.47871600  0.17535100  0.39067700  1
  O  O36  1  0.20880100  0.72780700  0.50000000  1
  O  O37  1  0.20880100  0.27219300  0.50000000  1
  O  O38  1  0.26378700  0.00000000  0.18236100  1
  O  O39  1  0.26378700  0.00000000  0.81763900  1
  O  O40  1  0.60921800  0.00000000  0.25034200  1
  O  O41  1  0.60921800  0.00000000  0.74965800  1
  O  O42  1  0.80838400  0.00000000  0.38980200  1
  O  O43  1  0.80838400  0.00000000  0.61019800  1
  O  O44  1  0.70093200  0.50000000  0.12245900  1
  O  O45  1  0.70093200  0.50000000  0.87754100  1
  O  O46  1  0.36270200  0.50000000  0.38506200  1
  O  O47  1  0.36270200  0.50000000  0.61493800  1
  O  O48  1  0.91880400  0.50000000  0.38319700  1
  O  O49  1  0.91880400  0.50000000  0.61680300  1
  O  O50  1  0.18153300  0.00000000  0.00000000  1
