# generated using pymatgen
data_Nd4(ErS2)11
_symmetry_space_group_name_H-M   'P 1'
_cell_length_a   19.63976311
_cell_length_b   19.63976311
_cell_length_c   11.34314518
_cell_angle_alpha   88.67318175
_cell_angle_beta   88.67318175
_cell_angle_gamma   11.50477464
_symmetry_Int_Tables_number   1
_chemical_formula_structural   Nd4(ErS2)11
_chemical_formula_sum   'Nd4 Er11 S22'
_cell_volume   872.41173201
_cell_formula_units_Z   1
loop_
 _symmetry_equiv_pos_site_id
 _symmetry_equiv_pos_as_xyz
  1  'x, y, z'
loop_
 _atom_site_type_symbol
 _atom_site_label
 _atom_site_symmetry_multiplicity
 _atom_site_fract_x
 _atom_site_fract_y
 _atom_site_fract_z
 _atom_site_occupancy
  Nd  Nd0  1  0.10423200  0.10423200  0.98769700  1
  Nd  Nd1  1  0.89576800  0.89576800  0.01230300  1
  Nd  Nd2  1  0.36717000  0.36717000  0.65290800  1
  Nd  Nd3  1  0.63283000  0.63283000  0.34709200  1
  Er  Er4  1  0.79812100  0.79812100  0.94222900  1
  Er  Er5  1  0.20187900  0.20187900  0.05777100  1
  Er  Er6  1  0.46171400  0.46171400  0.72835300  1
  Er  Er7  1  0.53828600  0.53828600  0.27164700  1
  Er  Er8  1  0.65765000  0.65765000  0.69766400  1
  Er  Er9  1  0.34235000  0.34235000  0.30233600  1
  Er  Er10  1  0.26421400  0.26421400  0.64796500  1
  Er  Er11  1  0.73578600  0.73578600  0.35203500  1
  Er  Er12  1  0.06934000  0.06934000  0.64038300  1
  Er  Er13  1  0.93066000  0.93066000  0.35961700  1
  Er  Er14  1  0.00000000  0.00000000  0.00000000  1
  S  S15  1  0.08766400  0.08766400  0.24758800  1
  S  S16  1  0.91233600  0.91233600  0.75241200  1
  S  S17  1  0.18840800  0.18840800  0.30783500  1
  S  S18  1  0.81159200  0.81159200  0.69216500  1
  S  S19  1  0.27998400  0.27998400  0.40996600  1
  S  S20  1  0.72001600  0.72001600  0.59003400  1
  S  S21  1  0.44584900  0.44584900  0.50452000  1
  S  S22  1  0.55415100  0.55415100  0.49548000  1
  S  S23  1  0.13430400  0.13430400  0.54531000  1
  S  S24  1  0.86569600  0.86569600  0.45469000  1
  S  S25  1  0.59293200  0.59293200  0.78870200  1
  S  S26  1  0.40706800  0.40706800  0.21129800  1
  S  S27  1  0.45276400  0.45276400  0.96843900  1
  S  S28  1  0.54723600  0.54723600  0.03156100  1
  S  S29  1  0.35110900  0.35110900  0.90803300  1
  S  S30  1  0.64889100  0.64889100  0.09196700  1
  S  S31  1  0.16821100  0.16821100  0.84874600  1
  S  S32  1  0.83178900  0.83178900  0.15125400  1
  S  S33  1  0.00781000  0.00781000  0.76120800  1
  S  S34  1  0.99219000  0.99219000  0.23879200  1
  S  S35  1  0.25513600  0.25513600  0.88057700  1
  S  S36  1  0.74486400  0.74486400  0.11942300  1
