# generated using pymatgen
data_KNaH12CO9
_symmetry_space_group_name_H-M   'P 1'
_cell_length_a   8.64686400
_cell_length_b   11.90846100
_cell_length_c   11.45181397
_cell_angle_alpha   90.00000000
_cell_angle_beta   124.88965994
_cell_angle_gamma   90.00000000
_symmetry_Int_Tables_number   1
_chemical_formula_structural   KNaH12CO9
_chemical_formula_sum   'K4 Na4 H48 C4 O36'
_cell_volume   967.24724071
_cell_formula_units_Z   4
loop_
 _symmetry_equiv_pos_site_id
 _symmetry_equiv_pos_as_xyz
  1  'x, y, z'
loop_
 _atom_site_type_symbol
 _atom_site_label
 _atom_site_symmetry_multiplicity
 _atom_site_fract_x
 _atom_site_fract_y
 _atom_site_fract_z
 _atom_site_occupancy
  K  K0  1  0.98169000  0.59179000  0.83868400  1
  K  K1  1  0.01831000  0.09179000  0.66131600  1
  K  K2  1  0.01831000  0.40821000  0.16131600  1
  K  K3  1  0.98169000  0.90821000  0.33868400  1
  Na  Na4  1  0.81072300  0.58624300  0.38140700  1
  Na  Na5  1  0.18927700  0.08624300  0.11859300  1
  Na  Na6  1  0.18927700  0.41375700  0.61859300  1
  Na  Na7  1  0.81072300  0.91375700  0.88140700  1
  H  H8  1  0.61847100  0.60043700  0.53329000  1
  H  H9  1  0.38152900  0.10043700  0.96671000  1
  H  H10  1  0.38152900  0.39956300  0.46671000  1
  H  H11  1  0.61847100  0.89956300  0.03329000  1
  H  H12  1  0.68902300  0.47847700  0.53732200  1
  H  H13  1  0.31097700  0.97847700  0.96267800  1
  H  H14  1  0.31097700  0.52152300  0.46267800  1
  H  H15  1  0.68902300  0.02152300  0.03732200  1
  H  H16  1  0.32506100  0.56244400  0.15252000  1
  H  H17  1  0.67493900  0.06244400  0.34748000  1
  H  H18  1  0.67493900  0.43755600  0.84748000  1
  H  H19  1  0.32506100  0.93755600  0.65252000  1
  H  H20  1  0.21166000  0.64279200  0.18998500  1
  H  H21  1  0.78834000  0.14279200  0.31001500  1
  H  H22  1  0.78834000  0.35720800  0.81001500  1
  H  H23  1  0.21166000  0.85720800  0.68998500  1
  H  H24  1  0.62172800  0.79330900  0.35874900  1
  H  H25  1  0.37827200  0.29330900  0.14125100  1
  H  H26  1  0.37827200  0.20669100  0.64125100  1
  H  H27  1  0.62172800  0.70669100  0.85874900  1
  H  H28  1  0.58652800  0.78892000  0.20822200  1
  H  H29  1  0.41347200  0.28892000  0.29177800  1
  H  H30  1  0.41347200  0.21108000  0.79177800  1
  H  H31  1  0.58652800  0.71108000  0.70822200  1
  H  H32  1  0.83761000  0.33988400  0.34241300  1
  H  H33  1  0.16239000  0.83988400  0.15758700  1
  H  H34  1  0.16239000  0.66011600  0.65758700  1
  H  H35  1  0.83761000  0.16011600  0.84241300  1
  H  H36  1  0.78870000  0.35490000  0.45465700  1
  H  H37  1  0.21130000  0.85490000  0.04534300  1
  H  H38  1  0.21130000  0.64510000  0.54534300  1
  H  H39  1  0.78870000  0.14510000  0.95465700  1
  H  H40  1  0.79290900  0.65419300  0.13363800  1
  H  H41  1  0.20709100  0.15419300  0.36636200  1
  H  H42  1  0.20709100  0.34580700  0.86636200  1
  H  H43  1  0.79290900  0.84580700  0.63363800  1
  H  H44  1  0.01335100  0.66791800  0.24990100  1
  H  H45  1  0.98664900  0.16791800  0.25009900  1
  H  H46  1  0.98664900  0.33208200  0.75009900  1
  H  H47  1  0.01335100  0.83208200  0.74990100  1
  H  H48  1  0.52415000  0.58120000  0.09441200  1
  H  H49  1  0.47585000  0.08120000  0.40558800  1
  H  H50  1  0.47585000  0.41880000  0.90558800  1
  H  H51  1  0.52415000  0.91880000  0.59441200  1
  H  H52  1  0.53290100  0.45254100  0.13237200  1
  H  H53  1  0.46709900  0.95254100  0.36762800  1
  H  H54  1  0.46709900  0.54745900  0.86762800  1
  H  H55  1  0.53290100  0.04745900  0.63237200  1
  C  C56  1  0.37315400  0.74843100  0.92564300  1
  C  C57  1  0.62684600  0.24843100  0.57435700  1
  C  C58  1  0.62684600  0.25156900  0.07435700  1
  C  C59  1  0.37315400  0.75156900  0.42564300  1
  O  O60  1  0.40877200  0.82892600  0.01541200  1
  O  O61  1  0.59122800  0.32892600  0.48458800  1
  O  O62  1  0.59122800  0.17107400  0.98458800  1
  O  O63  1  0.40877200  0.67107400  0.51541200  1
  O  O64  1  0.20942100  0.74231400  0.80415500  1
  O  O65  1  0.79057900  0.24231400  0.69584500  1
  O  O66  1  0.79057900  0.25768600  0.19584500  1
  O  O67  1  0.20942100  0.75768600  0.30415500  1
  O  O68  1  0.50380200  0.67424000  0.95864500  1
  O  O69  1  0.49619800  0.17424000  0.54135500  1
  O  O70  1  0.49619800  0.32576000  0.04135500  1
  O  O71  1  0.50380200  0.82576000  0.45864500  1
  O  O72  1  0.72664200  0.55825200  0.54813900  1
  O  O73  1  0.27335800  0.05825200  0.95186100  1
  O  O74  1  0.27335800  0.44174800  0.45186100  1
  O  O75  1  0.72664200  0.94174800  0.04813900  1
  O  O76  1  0.19697300  0.58147200  0.12664300  1
  O  O77  1  0.80302700  0.08147200  0.37335700  1
  O  O78  1  0.80302700  0.41852800  0.87335700  1
  O  O79  1  0.19697300  0.91852800  0.62664300  1
  O  O80  1  0.68291300  0.77415300  0.31057100  1
  O  O81  1  0.31708700  0.27415300  0.18942900  1
  O  O82  1  0.31708700  0.22584700  0.68942900  1
  O  O83  1  0.68291300  0.72584700  0.81057100  1
  O  O84  1  0.87511800  0.38114200  0.43070200  1
  O  O85  1  0.12488200  0.88114200  0.06929800  1
  O  O86  1  0.12488200  0.61885800  0.56929800  1
  O  O87  1  0.87511800  0.11885800  0.93070200  1
  O  O88  1  0.90278100  0.61831100  0.21699700  1
  O  O89  1  0.09721900  0.11831100  0.28300300  1
  O  O90  1  0.09721900  0.38168900  0.78300300  1
  O  O91  1  0.90278100  0.88168900  0.71699700  1
  O  O92  1  0.52784800  0.52975700  0.16396200  1
  O  O93  1  0.47215200  0.02975700  0.33603800  1
  O  O94  1  0.47215200  0.47024300  0.83603800  1
  O  O95  1  0.52784800  0.97024300  0.66396200  1
