# generated using pymatgen
data_HfCdC6O17
_symmetry_space_group_name_H-M   'P 1'
_cell_length_a   17.02676300
_cell_length_b   8.94650700
_cell_length_c   9.95080118
_cell_angle_alpha   73.48673541
_cell_angle_beta   90.00000000
_cell_angle_gamma   90.00000000
_symmetry_Int_Tables_number   1
_chemical_formula_structural   HfCdC6O17
_chemical_formula_sum   'Hf4 Cd4 C24 O68'
_cell_volume   1453.28508078
_cell_formula_units_Z   4
loop_
 _symmetry_equiv_pos_site_id
 _symmetry_equiv_pos_as_xyz
  1  'x, y, z'
loop_
 _atom_site_type_symbol
 _atom_site_label
 _atom_site_symmetry_multiplicity
 _atom_site_fract_x
 _atom_site_fract_y
 _atom_site_fract_z
 _atom_site_occupancy
  Hf  Hf0  1  0.41018400  0.81118900  0.87342100  1
  Hf  Hf1  1  0.91018400  0.18881100  0.62657900  1
  Hf  Hf2  1  0.58981600  0.18881100  0.12657900  1
  Hf  Hf3  1  0.08981600  0.81118900  0.37342100  1
  Cd  Cd4  1  0.37370800  0.45348900  0.47248800  1
  Cd  Cd5  1  0.87370800  0.54651100  0.02751200  1
  Cd  Cd6  1  0.62629200  0.54651100  0.52751200  1
  Cd  Cd7  1  0.12629200  0.45348900  0.97248800  1
  C  C8  1  0.56411600  0.37549700  0.31537200  1
  C  C9  1  0.06411600  0.62450300  0.18462800  1
  C  C10  1  0.43588400  0.62450300  0.68462800  1
  C  C11  1  0.93588400  0.37549700  0.81537200  1
  C  C12  1  0.65434700  0.34409300  0.32124700  1
  C  C13  1  0.15434700  0.65590700  0.17875300  1
  C  C14  1  0.34565300  0.65590700  0.67875300  1
  C  C15  1  0.84565300  0.34409300  0.82124700  1
  C  C16  1  0.40852400  0.70461500  0.18839400  1
  C  C17  1  0.90852400  0.29538500  0.31160600  1
  C  C18  1  0.59147600  0.29538500  0.81160600  1
  C  C19  1  0.09147600  0.70461500  0.68839400  1
  C  C20  1  0.37400100  0.56363300  0.14687400  1
  C  C21  1  0.87400100  0.43636700  0.35312600  1
  C  C22  1  0.62599900  0.43636700  0.85312600  1
  C  C23  1  0.12599900  0.56363300  0.64687400  1
  C  C24  1  0.88983000  0.84164500  0.75664500  1
  C  C25  1  0.38983000  0.15835500  0.74335500  1
  C  C26  1  0.11017000  0.15835500  0.24335500  1
  C  C27  1  0.61017000  0.84164500  0.25664500  1
  C  C28  1  0.40552300  0.09574300  0.61603300  1
  C  C29  1  0.90552300  0.90425700  0.88396700  1
  C  C30  1  0.59447700  0.90425700  0.38396700  1
  C  C31  1  0.09447700  0.09574300  0.11603300  1
  O  O32  1  0.53214600  0.43427700  0.39976700  1
  O  O33  1  0.03214600  0.56572300  0.10023300  1
  O  O34  1  0.46785400  0.56572300  0.60023300  1
  O  O35  1  0.96785400  0.43427700  0.89976700  1
  O  O36  1  0.47173200  0.66470600  0.78419900  1
  O  O37  1  0.97173200  0.33529400  0.71580100  1
  O  O38  1  0.52826800  0.33529400  0.21580100  1
  O  O39  1  0.02826800  0.66470600  0.28419900  1
  O  O40  1  0.32171100  0.73232300  0.76479800  1
  O  O41  1  0.82171100  0.26767700  0.73520200  1
  O  O42  1  0.67828900  0.26767700  0.23520200  1
  O  O43  1  0.17828900  0.73232300  0.26479800  1
  O  O44  1  0.30372800  0.61029000  0.59662100  1
  O  O45  1  0.80372800  0.38971000  0.90337900  1
  O  O46  1  0.69627200  0.38971000  0.40337900  1
  O  O47  1  0.19627200  0.61029000  0.09662100  1
  O  O48  1  0.93565900  0.18729300  0.41806800  1
  O  O49  1  0.43565900  0.81270700  0.08193200  1
  O  O50  1  0.06434100  0.81270700  0.58193200  1
  O  O51  1  0.56434100  0.18729300  0.91806800  1
  O  O52  1  0.90791400  0.29192500  0.18817600  1
  O  O53  1  0.40791400  0.70807500  0.31182400  1
  O  O54  1  0.09208600  0.70807500  0.81182400  1
  O  O55  1  0.59208600  0.29192500  0.68817600  1
  O  O56  1  0.37091500  0.58798600  0.01312600  1
  O  O57  1  0.87091500  0.41201400  0.48687400  1
  O  O58  1  0.62908500  0.41201400  0.98687400  1
  O  O59  1  0.12908500  0.58798600  0.51312600  1
  O  O60  1  0.85321000  0.55530100  0.26137600  1
  O  O61  1  0.35321000  0.44469900  0.23862400  1
  O  O62  1  0.14679000  0.44469900  0.73862400  1
  O  O63  1  0.64679000  0.55530100  0.76137600  1
  O  O64  1  0.89314100  0.95042100  0.63839600  1
  O  O65  1  0.39314100  0.04957900  0.86160400  1
  O  O66  1  0.10685900  0.04957900  0.36160400  1
  O  O67  1  0.60685900  0.95042100  0.13839600  1
  O  O68  1  0.37536300  0.29779300  0.72691900  1
  O  O69  1  0.87536300  0.70220700  0.77308100  1
  O  O70  1  0.62463700  0.70220700  0.27308100  1
  O  O71  1  0.12463700  0.29779300  0.22691900  1
  O  O72  1  0.39727400  0.18309300  0.49487200  1
  O  O73  1  0.89727400  0.81690700  0.00512800  1
  O  O74  1  0.60272600  0.81690700  0.50512800  1
  O  O75  1  0.10272600  0.18309300  0.99487200  1
  O  O76  1  0.57457300  0.04872700  0.34820300  1
  O  O77  1  0.07457300  0.95127300  0.15179700  1
  O  O78  1  0.42542700  0.95127300  0.65179700  1
  O  O79  1  0.92542700  0.04872700  0.84820300  1
  O  O80  1  0.44832600  0.11786800  0.13348000  1
  O  O81  1  0.94832600  0.88213200  0.36652000  1
  O  O82  1  0.55167400  0.88213200  0.86652000  1
  O  O83  1  0.05167400  0.11786800  0.63348000  1
  O  O84  1  0.24001800  0.34879900  0.48023000  1
  O  O85  1  0.74001800  0.65120100  0.01977000  1
  O  O86  1  0.75998200  0.65120100  0.51977000  1
  O  O87  1  0.25998200  0.34879900  0.98023000  1
  O  O88  1  0.26712100  0.90537000  0.99417500  1
  O  O89  1  0.76712100  0.09463000  0.50582500  1
  O  O90  1  0.73287900  0.09463000  0.00582500  1
  O  O91  1  0.23287900  0.90537000  0.49417500  1
  O  O92  1  0.27251900  0.99247900  0.06966300  1
  O  O93  1  0.77251900  0.00752100  0.43033700  1
  O  O94  1  0.72748100  0.00752100  0.93033700  1
  O  O95  1  0.22748100  0.99247900  0.56966300  1
  O  O96  1  0.59437800  0.92028600  0.76253000  1
  O  O97  1  0.09437800  0.07971400  0.73747000  1
  O  O98  1  0.40562200  0.07971400  0.23747000  1
  O  O99  1  0.90562200  0.92028600  0.26253000  1
