# generated using pymatgen
data_PdS2O7
_symmetry_space_group_name_H-M   'P 1'
_cell_length_a   5.13737000
_cell_length_b   13.06720800
_cell_length_c   9.58750380
_cell_angle_alpha   90.00000000
_cell_angle_beta   120.99335948
_cell_angle_gamma   90.00000000
_symmetry_Int_Tables_number   1
_chemical_formula_structural   PdS2O7
_chemical_formula_sum   'Pd4 S8 O28'
_cell_volume   551.72801129
_cell_formula_units_Z   4
loop_
 _symmetry_equiv_pos_site_id
 _symmetry_equiv_pos_as_xyz
  1  'x, y, z'
loop_
 _atom_site_type_symbol
 _atom_site_label
 _atom_site_symmetry_multiplicity
 _atom_site_fract_x
 _atom_site_fract_y
 _atom_site_fract_z
 _atom_site_occupancy
  Pd  Pd0  1  0.36820800  0.34993700  0.16786300  1
  Pd  Pd1  1  0.36820800  0.15006300  0.66786300  1
  Pd  Pd2  1  0.63179200  0.65006300  0.83213700  1
  Pd  Pd3  1  0.63179200  0.84993700  0.33213700  1
  S  S4  1  0.77339100  0.31283000  0.58124200  1
  S  S5  1  0.77339100  0.18717000  0.08124200  1
  S  S6  1  0.22660900  0.68717000  0.41875800  1
  S  S7  1  0.22660900  0.81283000  0.91875800  1
  S  S8  1  0.86899100  0.52331100  0.19459400  1
  S  S9  1  0.86899100  0.97668900  0.69459400  1
  S  S10  1  0.13100900  0.47668900  0.80540600  1
  S  S11  1  0.13100900  0.02331100  0.30540600  1
  O  O12  1  0.73791600  0.25449300  0.70073100  1
  O  O13  1  0.73791600  0.24550700  0.20073100  1
  O  O14  1  0.26208400  0.74550700  0.29926900  1
  O  O15  1  0.26208400  0.75449300  0.79926900  1
  O  O16  1  0.04475100  0.28764300  0.57552400  1
  O  O17  1  0.04475100  0.21235700  0.07552400  1
  O  O18  1  0.95524900  0.71235700  0.42447600  1
  O  O19  1  0.95524900  0.78764300  0.92447600  1
  O  O20  1  0.68639700  0.48516600  0.26140900  1
  O  O21  1  0.68639700  0.01483400  0.76140900  1
  O  O22  1  0.31360300  0.51483400  0.73859100  1
  O  O23  1  0.31360300  0.98516600  0.23859100  1
  O  O24  1  0.72807100  0.61044900  0.08481000  1
  O  O25  1  0.72807100  0.88955100  0.58481000  1
  O  O26  1  0.27192900  0.38955100  0.91519000  1
  O  O27  1  0.27192900  0.11044900  0.41519000  1
  O  O28  1  0.97954600  0.44392400  0.13204200  1
  O  O29  1  0.97954600  0.05607600  0.63204200  1
  O  O30  1  0.02045400  0.55607600  0.86795800  1
  O  O31  1  0.02045400  0.94392400  0.36795800  1
  O  O32  1  0.18009500  0.56621800  0.35487200  1
  O  O33  1  0.18009500  0.93378200  0.85487200  1
  O  O34  1  0.81990500  0.43378200  0.64512800  1
  O  O35  1  0.81990500  0.06621800  0.14512800  1
  O  O36  1  0.49152900  0.32208700  0.42479700  1
  O  O37  1  0.49152900  0.17791300  0.92479700  1
  O  O38  1  0.50847100  0.67791300  0.57520300  1
  O  O39  1  0.50847100  0.82208700  0.07520300  1
