# generated using pymatgen
data_K2Re3Se4O7
_symmetry_space_group_name_H-M   'P 1'
_cell_length_a   9.30147300
_cell_length_b   9.83562726
_cell_length_c   10.23963579
_cell_angle_alpha   86.61410063
_cell_angle_beta   113.58230983
_cell_angle_gamma   115.51517004
_symmetry_Int_Tables_number   1
_chemical_formula_structural   K2Re3Se4O7
_chemical_formula_sum   'K4 Re6 Se8 O14'
_cell_volume   767.51453300
_cell_formula_units_Z   2
loop_
 _symmetry_equiv_pos_site_id
 _symmetry_equiv_pos_as_xyz
  1  'x, y, z'
loop_
 _atom_site_type_symbol
 _atom_site_label
 _atom_site_symmetry_multiplicity
 _atom_site_fract_x
 _atom_site_fract_y
 _atom_site_fract_z
 _atom_site_occupancy
  K  K0  1  0.58899700  0.16126400  0.38499700  1
  K  K1  1  0.41100300  0.83873600  0.61500300  1
  K  K2  1  0.80056600  0.79454100  0.38727500  1
  K  K3  1  0.19943400  0.20545900  0.61272500  1
  Re  Re4  1  0.04437400  0.41571100  0.30750000  1
  Re  Re5  1  0.95562600  0.58428900  0.69250000  1
  Re  Re6  1  0.88543700  0.68701100  0.03433900  1
  Re  Re7  1  0.11456300  0.31298900  0.96566100  1
  Re  Re8  1  0.31867300  0.71319000  0.11038400  1
  Re  Re9  1  0.68132700  0.28681000  0.88961600  1
  Se  Se10  1  0.14818600  0.70485900  0.24804900  1
  Se  Se11  1  0.85181400  0.29514100  0.75195100  1
  Se  Se12  1  0.10554900  0.79542900  0.92974400  1
  Se  Se13  1  0.89445100  0.20457100  0.07025600  1
  Se  Se14  1  0.74934000  0.43828400  0.11393500  1
  Se  Se15  1  0.25066000  0.56171600  0.88606500  1
  Se  Se16  1  0.29543500  0.46882100  0.20748300  1
  Se  Se17  1  0.70456500  0.53117900  0.79251700  1
  O  O18  1  0.88416800  0.27234300  0.35210400  1
  O  O19  1  0.11583200  0.72765700  0.64789600  1
  O  O20  1  0.81070800  0.80966200  0.05912700  1
  O  O21  1  0.18929200  0.19033800  0.94087300  1
  O  O22  1  0.52790700  0.85831400  0.19029300  1
  O  O23  1  0.47209300  0.14168600  0.80970700  1
  O  O24  1  0.76673100  0.49582000  0.53143600  1
  O  O25  1  0.23326900  0.50418000  0.46856400  1
  O  O26  1  0.18152200  0.04527200  0.33276800  1
  O  O27  1  0.81847800  0.95472800  0.66723200  1
  O  O28  1  0.95026000  0.93735900  0.65777100  1
  O  O29  1  0.04974000  0.06264100  0.34222900  1
  O  O30  1  0.68036600  0.93243200  0.53388600  1
  O  O31  1  0.31963400  0.06756800  0.46611400  1
