# generated using pymatgen
data_Na3(PO4)2
_symmetry_space_group_name_H-M   'P 1'
_cell_length_a   7.01182100
_cell_length_b   9.45880100
_cell_length_c   13.27247388
_cell_angle_alpha   54.59221046
_cell_angle_beta   90.00000000
_cell_angle_gamma   90.00000000
_symmetry_Int_Tables_number   1
_chemical_formula_structural   Na3(PO4)2
_chemical_formula_sum   'Na12 P8 O32'
_cell_volume   717.46798248
_cell_formula_units_Z   4
loop_
 _symmetry_equiv_pos_site_id
 _symmetry_equiv_pos_as_xyz
  1  'x, y, z'
loop_
 _atom_site_type_symbol
 _atom_site_label
 _atom_site_symmetry_multiplicity
 _atom_site_fract_x
 _atom_site_fract_y
 _atom_site_fract_z
 _atom_site_occupancy
  Na  Na0  1  0.84881400  0.33417700  0.73349000  1
  Na  Na1  1  0.65118600  0.33417700  0.23349000  1
  Na  Na2  1  0.15118600  0.66582300  0.26651000  1
  Na  Na3  1  0.34881400  0.66582300  0.76651000  1
  Na  Na4  1  0.87728700  0.99718800  0.24823900  1
  Na  Na5  1  0.62271300  0.99718800  0.74823900  1
  Na  Na6  1  0.12271300  0.00281200  0.75176100  1
  Na  Na7  1  0.37728700  0.00281200  0.25176100  1
  Na  Na8  1  0.64349200  0.70672300  0.56149200  1
  Na  Na9  1  0.85650800  0.70672300  0.06149200  1
  Na  Na10  1  0.35650800  0.29327700  0.43850800  1
  Na  Na11  1  0.14349200  0.29327700  0.93850800  1
  P  P12  1  0.33542600  0.33723600  0.67559600  1
  P  P13  1  0.16457400  0.33723600  0.17559600  1
  P  P14  1  0.66457400  0.66276400  0.32440400  1
  P  P15  1  0.83542600  0.66276400  0.82440400  1
  P  P16  1  0.15608200  0.68424900  0.51534100  1
  P  P17  1  0.34391800  0.68424900  0.01534100  1
  P  P18  1  0.84391800  0.31575100  0.48465900  1
  P  P19  1  0.65608200  0.31575100  0.98465900  1
  O  O20  1  0.38223100  0.20716500  0.64599700  1
  O  O21  1  0.11776900  0.20716500  0.14599700  1
  O  O22  1  0.61776900  0.79283500  0.35400300  1
  O  O23  1  0.88223100  0.79283500  0.85400300  1
  O  O24  1  0.51710600  0.39934900  0.70493000  1
  O  O25  1  0.98289400  0.39934900  0.20493000  1
  O  O26  1  0.48289400  0.60065100  0.29507000  1
  O  O27  1  0.01710600  0.60065100  0.79507000  1
  O  O28  1  0.17880300  0.27358500  0.77176700  1
  O  O29  1  0.32119700  0.27358500  0.27176700  1
  O  O30  1  0.82119700  0.72641500  0.22823300  1
  O  O31  1  0.67880300  0.72641500  0.72823300  1
  O  O32  1  0.96721900  0.63118500  0.58649200  1
  O  O33  1  0.53278100  0.63118500  0.08649200  1
  O  O34  1  0.03278100  0.36881500  0.41350800  1
  O  O35  1  0.46721900  0.36881500  0.91350800  1
  O  O36  1  0.30490400  0.75768300  0.56030300  1
  O  O37  1  0.19509600  0.75768300  0.06030300  1
  O  O38  1  0.69509600  0.24231700  0.43969700  1
  O  O39  1  0.80490400  0.24231700  0.93969700  1
  O  O40  1  0.12618600  0.79839800  0.37595800  1
  O  O41  1  0.37381400  0.79839800  0.87595800  1
  O  O42  1  0.87381400  0.20160200  0.62404200  1
  O  O43  1  0.62618600  0.20160200  0.12404200  1
  O  O44  1  0.25553600  0.50821000  0.54344300  1
  O  O45  1  0.24446400  0.50821000  0.04344300  1
  O  O46  1  0.74446400  0.49179000  0.45655700  1
  O  O47  1  0.75553600  0.49179000  0.95655700  1
  O  O48  1  0.77820200  0.02783700  0.42845500  1
  O  O49  1  0.72179800  0.02783700  0.92845500  1
  O  O50  1  0.22179800  0.97216300  0.57154500  1
  O  O51  1  0.27820200  0.97216300  0.07154500  1
