# generated using pymatgen
data_Lu2Ga3Ni14
_symmetry_space_group_name_H-M   'P 1'
_cell_length_a   8.29934782
_cell_length_b   8.29934782
_cell_length_c   8.11461000
_cell_angle_alpha   90.00000000
_cell_angle_beta   90.00000000
_cell_angle_gamma   119.99999860
_symmetry_Int_Tables_number   1
_chemical_formula_structural   Lu2Ga3Ni14
_chemical_formula_sum   'Lu4 Ga6 Ni28'
_cell_volume   484.04553904
_cell_formula_units_Z   2
loop_
 _symmetry_equiv_pos_site_id
 _symmetry_equiv_pos_as_xyz
  1  'x, y, z'
loop_
 _atom_site_type_symbol
 _atom_site_label
 _atom_site_symmetry_multiplicity
 _atom_site_fract_x
 _atom_site_fract_y
 _atom_site_fract_z
 _atom_site_occupancy
  Lu  Lu0  1  0.00000000  0.00000000  0.25000000  1
  Lu  Lu1  1  0.00000000  0.00000000  0.75000000  1
  Lu  Lu2  1  0.33333300  0.66666700  0.75000000  1
  Lu  Lu3  1  0.66666700  0.33333300  0.25000000  1
  Ga  Ga4  1  0.50000000  0.50000000  0.50000000  1
  Ga  Ga5  1  0.50000000  0.00000000  0.50000000  1
  Ga  Ga6  1  0.00000000  0.50000000  0.50000000  1
  Ga  Ga7  1  0.50000000  0.50000000  0.00000000  1
  Ga  Ga8  1  0.50000000  0.00000000  0.00000000  1
  Ga  Ga9  1  0.00000000  0.50000000  0.00000000  1
  Ni  Ni10  1  0.33333300  0.66666700  0.39650000  1
  Ni  Ni11  1  0.66666700  0.33333300  0.60350000  1
  Ni  Ni12  1  0.66666700  0.33333300  0.89650000  1
  Ni  Ni13  1  0.33333300  0.66666700  0.10350000  1
  Ni  Ni14  1  0.32461300  0.35865000  0.25000000  1
  Ni  Ni15  1  0.64135000  0.96596300  0.25000000  1
  Ni  Ni16  1  0.03403700  0.67538700  0.25000000  1
  Ni  Ni17  1  0.64135000  0.67538700  0.25000000  1
  Ni  Ni18  1  0.03403700  0.35865000  0.25000000  1
  Ni  Ni19  1  0.32461300  0.96596300  0.25000000  1
  Ni  Ni20  1  0.67538700  0.64135000  0.75000000  1
  Ni  Ni21  1  0.35865000  0.03403700  0.75000000  1
  Ni  Ni22  1  0.96596300  0.32461300  0.75000000  1
  Ni  Ni23  1  0.35865000  0.32461300  0.75000000  1
  Ni  Ni24  1  0.96596300  0.64135000  0.75000000  1
  Ni  Ni25  1  0.67538700  0.03403700  0.75000000  1
  Ni  Ni26  1  0.16524000  0.83476000  0.51972300  1
  Ni  Ni27  1  0.16524000  0.33048000  0.51972300  1
  Ni  Ni28  1  0.66952000  0.83476000  0.51972300  1
  Ni  Ni29  1  0.83476000  0.16524000  0.48027700  1
  Ni  Ni30  1  0.83476000  0.66952000  0.48027700  1
  Ni  Ni31  1  0.33048000  0.16524000  0.48027700  1
  Ni  Ni32  1  0.83476000  0.16524000  0.01972300  1
  Ni  Ni33  1  0.83476000  0.66952000  0.01972300  1
  Ni  Ni34  1  0.33048000  0.16524000  0.01972300  1
  Ni  Ni35  1  0.16524000  0.83476000  0.98027700  1
  Ni  Ni36  1  0.16524000  0.33048000  0.98027700  1
  Ni  Ni37  1  0.66952000  0.83476000  0.98027700  1
