# generated using pymatgen
data_CeB7IO15
_symmetry_space_group_name_H-M   'P 1'
_cell_length_a   17.47814300
_cell_length_b   8.21456700
_cell_length_c   12.78339897
_cell_angle_alpha   50.54703750
_cell_angle_beta   90.00000000
_cell_angle_gamma   90.00000000
_symmetry_Int_Tables_number   1
_chemical_formula_structural   CeB7IO15
_chemical_formula_sum   'Ce4 B28 I4 O60'
_cell_volume   1417.18329714
_cell_formula_units_Z   4
loop_
 _symmetry_equiv_pos_site_id
 _symmetry_equiv_pos_as_xyz
  1  'x, y, z'
loop_
 _atom_site_type_symbol
 _atom_site_label
 _atom_site_symmetry_multiplicity
 _atom_site_fract_x
 _atom_site_fract_y
 _atom_site_fract_z
 _atom_site_occupancy
  Ce  Ce0  1  0.81621400  0.43399200  0.74748500  1
  Ce  Ce1  1  0.68378600  0.43399200  0.24748500  1
  Ce  Ce2  1  0.18378600  0.56600800  0.25251500  1
  Ce  Ce3  1  0.31621400  0.56600800  0.75251500  1
  B  B4  1  0.91561800  0.09692700  0.21509700  1
  B  B5  1  0.58438200  0.09692700  0.71509700  1
  B  B6  1  0.08438200  0.90307300  0.78490300  1
  B  B7  1  0.41561800  0.90307300  0.28490300  1
  B  B8  1  0.80451400  0.93243000  0.36534100  1
  B  B9  1  0.69548600  0.93243000  0.86534100  1
  B  B10  1  0.19548600  0.06757000  0.63465900  1
  B  B11  1  0.30451400  0.06757000  0.13465900  1
  B  B12  1  0.79865600  0.84850200  0.74781000  1
  B  B13  1  0.70134400  0.84850200  0.24781000  1
  B  B14  1  0.20134400  0.15149800  0.25219000  1
  B  B15  1  0.29865600  0.15149800  0.75219000  1
  B  B16  1  0.78778500  0.19534200  0.10793700  1
  B  B17  1  0.71221500  0.19534200  0.60793700  1
  B  B18  1  0.21221500  0.80465800  0.89206300  1
  B  B19  1  0.28778500  0.80465800  0.39206300  1
  B  B20  1  0.75105400  0.57008200  0.47627700  1
  B  B21  1  0.74894600  0.57008200  0.97627700  1
  B  B22  1  0.24894600  0.42991800  0.52372300  1
  B  B23  1  0.25105400  0.42991800  0.02372300  1
  B  B24  1  0.94436800  0.91915000  0.72701600  1
  B  B25  1  0.55563200  0.91915000  0.22701600  1
  B  B26  1  0.05563200  0.08085000  0.27298400  1
  B  B27  1  0.44436800  0.08085000  0.77298400  1
  B  B28  1  0.72842100  0.04464900  0.00405500  1
  B  B29  1  0.77157900  0.04464900  0.50405500  1
  B  B30  1  0.27157900  0.95535100  0.99594500  1
  B  B31  1  0.22842100  0.95535100  0.49594500  1
  I  I32  1  0.56014400  0.60548000  0.69424600  1
  I  I33  1  0.93985600  0.60548000  0.19424600  1
  I  I34  1  0.43985600  0.39452000  0.30575400  1
  I  I35  1  0.06014400  0.39452000  0.80575400  1
  O  O36  1  0.87127900  0.90015000  0.77304700  1
  O  O37  1  0.62872100  0.90015000  0.27304700  1
  O  O38  1  0.12872100  0.09985000  0.22695300  1
  O  O39  1  0.37127900  0.09985000  0.72695300  1
  O  O40  1  0.78242500  0.71613900  0.48398100  1
  O  O41  1  0.71757500  0.71613900  0.98398100  1
  O  O42  1  0.21757500  0.28386100  0.51601900  1
  O  O43  1  0.28242500  0.28386100  0.01601900  1
  O  O44  1  0.76186000  0.20750000  0.99312800  1
  O  O45  1  0.73814000  0.20750000  0.49312800  1
  O  O46  1  0.23814000  0.79250000  0.00687200  1
  O  O47  1  0.26186000  0.79250000  0.50687200  1
  O  O48  1  0.73630400  0.98630100  0.73967000  1
  O  O49  1  0.76369600  0.98630100  0.23967000  1
  O  O50  1  0.26369600  0.01369900  0.26033000  1
  O  O51  1  0.23630400  0.01369900  0.76033000  1
  O  O52  1  0.79552100  0.86265600  0.62662000  1
  O  O53  1  0.70447900  0.86265600  0.12662000  1
  O  O54  1  0.20447900  0.13734400  0.37338000  1
  O  O55  1  0.29552100  0.13734400  0.87338000  1
  O  O56  1  0.99382000  0.12156900  0.19202400  1
  O  O57  1  0.50618000  0.12156900  0.69202400  1
  O  O58  1  0.00618000  0.87843100  0.80797600  1
  O  O59  1  0.49382000  0.87843100  0.30797600  1
  O  O60  1  0.86925600  0.22145300  0.10295300  1
  O  O61  1  0.63074400  0.22145300  0.60295300  1
  O  O62  1  0.13074400  0.77854700  0.89704700  1
  O  O63  1  0.36925600  0.77854700  0.39704700  1
  O  O64  1  0.88569500  0.95176100  0.34292800  1
  O  O65  1  0.61430500  0.95176100  0.84292800  1
  O  O66  1  0.11430500  0.04823900  0.65707200  1
  O  O67  1  0.38569500  0.04823900  0.15707200  1
  O  O68  1  0.75220900  0.36681400  0.59799000  1
  O  O69  1  0.74779100  0.36681400  0.09799000  1
  O  O70  1  0.24779100  0.63318600  0.40201000  1
  O  O71  1  0.25220900  0.63318600  0.90201000  1
  O  O72  1  0.96157400  0.47497600  0.81597400  1
  O  O73  1  0.53842600  0.47497600  0.31597400  1
  O  O74  1  0.03842600  0.52502400  0.18402600  1
  O  O75  1  0.46157400  0.52502400  0.68402600  1
  O  O76  1  0.77918400  0.62391300  0.85900100  1
  O  O77  1  0.72081600  0.62391300  0.35900100  1
  O  O78  1  0.22081600  0.37608700  0.14099900  1
  O  O79  1  0.27918400  0.37608700  0.64099900  1
  O  O80  1  0.89087300  0.19895400  0.84198400  1
  O  O81  1  0.60912700  0.19895400  0.34198400  1
  O  O82  1  0.10912700  0.80104600  0.15801600  1
  O  O83  1  0.39087300  0.80104600  0.65801600  1
  O  O84  1  0.72454200  0.08446700  0.88239900  1
  O  O85  1  0.77545800  0.08446700  0.38239900  1
  O  O86  1  0.27545800  0.91553300  0.11760100  1
  O  O87  1  0.22454200  0.91553300  0.61760100  1
  O  O88  1  0.91721700  0.51078500  0.63462700  1
  O  O89  1  0.58278300  0.51078500  0.13462700  1
  O  O90  1  0.08278300  0.48921500  0.36537300  1
  O  O91  1  0.41721700  0.48921500  0.86537300  1
  O  O92  1  0.95225200  0.97325000  0.60255700  1
  O  O93  1  0.54774800  0.97325000  0.10255700  1
  O  O94  1  0.04774800  0.02675000  0.39744300  1
  O  O95  1  0.45225200  0.02675000  0.89744300  1
