# generated using pymatgen
data_Yb(Ga2Cu)4
_symmetry_space_group_name_H-M   'P 1'
_cell_length_a   10.01036174
_cell_length_b   10.01036174
_cell_length_c   10.01036174
_cell_angle_alpha   126.42774212
_cell_angle_beta   126.42774212
_cell_angle_gamma   79.18624778
_symmetry_Int_Tables_number   1
_chemical_formula_structural   Yb(Ga2Cu)4
_chemical_formula_sum   'Yb3 Ga24 Cu12'
_cell_volume   627.96193479
_cell_formula_units_Z   3
loop_
 _symmetry_equiv_pos_site_id
 _symmetry_equiv_pos_as_xyz
  1  'x, y, z'
loop_
 _atom_site_type_symbol
 _atom_site_label
 _atom_site_symmetry_multiplicity
 _atom_site_fract_x
 _atom_site_fract_y
 _atom_site_fract_z
 _atom_site_occupancy
  Yb  Yb0  1  0.00000000  0.00000000  0.00000000  1
  Yb  Yb1  1  0.34085400  0.34085400  0.00000000  1
  Yb  Yb2  1  0.65914600  0.65914600  0.00000000  1
  Ga  Ga3  1  0.34361700  0.99671600  0.65309900  1
  Ga  Ga4  1  0.34361700  0.69051800  0.34690100  1
  Ga  Ga5  1  0.99671600  0.34361700  0.65309900  1
  Ga  Ga6  1  0.69051800  0.34361700  0.34690100  1
  Ga  Ga7  1  0.65638300  0.00328400  0.34690100  1
  Ga  Ga8  1  0.65638300  0.30948200  0.65309900  1
  Ga  Ga9  1  0.00328400  0.65638300  0.34690100  1
  Ga  Ga10  1  0.30948200  0.65638300  0.65309900  1
  Ga  Ga11  1  0.05284100  0.84013300  0.21270800  1
  Ga  Ga12  1  0.62742500  0.84013300  0.78729200  1
  Ga  Ga13  1  0.84013300  0.62742500  0.78729200  1
  Ga  Ga14  1  0.84013300  0.05284100  0.21270800  1
  Ga  Ga15  1  0.94715900  0.15986700  0.78729200  1
  Ga  Ga16  1  0.37257500  0.15986700  0.21270800  1
  Ga  Ga17  1  0.15986700  0.37257500  0.21270800  1
  Ga  Ga18  1  0.15986700  0.94715900  0.78729200  1
  Ga  Ga19  1  0.00000000  0.00000000  0.50000000  1
  Ga  Ga20  1  0.50000000  0.50000000  0.50000000  1
  Ga  Ga21  1  0.00000000  0.50000000  0.00000000  1
  Ga  Ga22  1  0.50000000  0.00000000  0.00000000  1
  Ga  Ga23  1  0.00000000  0.34949400  0.34949400  1
  Ga  Ga24  1  0.00000000  0.65050600  0.65050600  1
  Ga  Ga25  1  0.34949400  0.00000000  0.34949400  1
  Ga  Ga26  1  0.65050600  0.00000000  0.65050600  1
  Cu  Cu27  1  0.28701900  0.50000000  0.78701900  1
  Cu  Cu28  1  0.71298100  0.50000000  0.21298100  1
  Cu  Cu29  1  0.50000000  0.71298100  0.21298100  1
  Cu  Cu30  1  0.50000000  0.28701900  0.78701900  1
  Cu  Cu31  1  0.17302600  0.17302600  0.50690900  1
  Cu  Cu32  1  0.66611700  0.66611700  0.49309100  1
  Cu  Cu33  1  0.17302600  0.66611700  0.00000000  1
  Cu  Cu34  1  0.66611700  0.17302600  0.00000000  1
  Cu  Cu35  1  0.82697400  0.82697400  0.49309100  1
  Cu  Cu36  1  0.33388300  0.33388300  0.50690900  1
  Cu  Cu37  1  0.82697400  0.33388300  0.00000000  1
  Cu  Cu38  1  0.33388300  0.82697400  0.00000000  1
