# generated using pymatgen
data_U(SO4)2
_symmetry_space_group_name_H-M   'P 1'
_cell_length_a   9.06640400
_cell_length_b   9.52562200
_cell_length_c   13.66665500
_cell_angle_alpha   90.00000000
_cell_angle_beta   90.00000000
_cell_angle_gamma   90.00000000
_symmetry_Int_Tables_number   1
_chemical_formula_structural   U(SO4)2
_chemical_formula_sum   'U8 S16 O64'
_cell_volume   1180.29520361
_cell_formula_units_Z   8
loop_
 _symmetry_equiv_pos_site_id
 _symmetry_equiv_pos_as_xyz
  1  'x, y, z'
loop_
 _atom_site_type_symbol
 _atom_site_label
 _atom_site_symmetry_multiplicity
 _atom_site_fract_x
 _atom_site_fract_y
 _atom_site_fract_z
 _atom_site_occupancy
  U  U0  1  0.78078200  0.03546900  0.10398300  1
  U  U1  1  0.71921800  0.53546900  0.89601700  1
  U  U2  1  0.28078200  0.96453100  0.39601700  1
  U  U3  1  0.21921800  0.46453100  0.60398300  1
  U  U4  1  0.21921800  0.96453100  0.89601700  1
  U  U5  1  0.28078200  0.46453100  0.10398300  1
  U  U6  1  0.71921800  0.03546900  0.60398300  1
  U  U7  1  0.78078200  0.53546900  0.39601700  1
  S  S8  1  0.99644200  0.72288800  0.05729000  1
  S  S9  1  0.50355800  0.22288800  0.94271000  1
  S  S10  1  0.49644200  0.27711200  0.44271000  1
  S  S11  1  0.00355800  0.77711200  0.55729000  1
  S  S12  1  0.00355800  0.27711200  0.94271000  1
  S  S13  1  0.49644200  0.77711200  0.05729000  1
  S  S14  1  0.50355800  0.72288800  0.55729000  1
  S  S15  1  0.99644200  0.22288800  0.44271000  1
  S  S16  1  0.82029000  0.89569300  0.84449100  1
  S  S17  1  0.67971000  0.39569300  0.15550900  1
  S  S18  1  0.32028900  0.10430700  0.65550900  1
  S  S19  1  0.17971000  0.60430700  0.34449100  1
  S  S20  1  0.17971000  0.10430700  0.15550900  1
  S  S21  1  0.32028900  0.60430700  0.84449100  1
  S  S22  1  0.67971000  0.89569300  0.34449100  1
  S  S23  1  0.82029000  0.39569300  0.65550900  1
  O  O24  1  0.89363700  0.80507900  0.11934700  1
  O  O25  1  0.60636300  0.30507900  0.88065300  1
  O  O26  1  0.39363700  0.19492100  0.38065300  1
  O  O27  1  0.10636300  0.69492100  0.61934700  1
  O  O28  1  0.10636300  0.19492100  0.88065300  1
  O  O29  1  0.39363700  0.69492100  0.11934700  1
  O  O30  1  0.60636300  0.80507900  0.61934700  1
  O  O31  1  0.89363700  0.30507900  0.38065300  1
  O  O32  1  0.91645500  0.64273700  0.98115800  1
  O  O33  1  0.58354500  0.14273700  0.01884200  1
  O  O34  1  0.41645500  0.35726300  0.51884200  1
  O  O35  1  0.08354500  0.85726300  0.48115800  1
  O  O36  1  0.08354500  0.35726300  0.01884200  1
  O  O37  1  0.41645500  0.85726300  0.98115800  1
  O  O38  1  0.58354500  0.64273700  0.48115800  1
  O  O39  1  0.91645500  0.14273700  0.51884200  1
  O  O40  1  0.08134100  0.62270900  0.11885500  1
  O  O41  1  0.41865900  0.12270900  0.88114500  1
  O  O42  1  0.58134100  0.37729100  0.38114500  1
  O  O43  1  0.91865900  0.87729100  0.61885500  1
  O  O44  1  0.91865900  0.37729100  0.88114500  1
  O  O45  1  0.58134100  0.87729100  0.11885500  1
  O  O46  1  0.41865900  0.62270900  0.61885500  1
  O  O47  1  0.08134100  0.12270900  0.38114500  1
  O  O48  1  0.10059900  0.82280200  0.00956600  1
  O  O49  1  0.39940100  0.32280200  0.99043400  1
  O  O50  1  0.60059900  0.17719800  0.49043400  1
  O  O51  1  0.89940100  0.67719800  0.50956600  1
  O  O52  1  0.89940100  0.17719800  0.99043400  1
  O  O53  1  0.60059900  0.67719800  0.00956600  1
  O  O54  1  0.39940100  0.82280200  0.50956600  1
  O  O55  1  0.10059900  0.32280200  0.49043400  1
  O  O56  1  0.77116000  0.92703400  0.94528600  1
  O  O57  1  0.72884000  0.42703400  0.05471400  1
  O  O58  1  0.27116000  0.07296600  0.55471400  1
  O  O59  1  0.22884000  0.57296600  0.44528600  1
  O  O60  1  0.22884000  0.07296600  0.05471400  1
  O  O61  1  0.27116000  0.57296600  0.94528600  1
  O  O62  1  0.72884000  0.92703400  0.44528600  1
  O  O63  1  0.77116000  0.42703400  0.55471400  1
  O  O64  1  0.74634000  0.99040400  0.77344000  1
  O  O65  1  0.75366000  0.49040400  0.22656000  1
  O  O66  1  0.24634000  0.00959600  0.72656000  1
  O  O67  1  0.25366000  0.50959600  0.27344000  1
  O  O68  1  0.25366000  0.00959600  0.22656000  1
  O  O69  1  0.24634000  0.50959600  0.77344000  1
  O  O70  1  0.75366000  0.99040400  0.27344000  1
  O  O71  1  0.74634000  0.49040400  0.72656000  1
  O  O72  1  0.77905500  0.74784700  0.82025900  1
  O  O73  1  0.72094500  0.24784700  0.17974100  1
  O  O74  1  0.27905500  0.25215300  0.67974100  1
  O  O75  1  0.22094500  0.75215300  0.32025900  1
  O  O76  1  0.22094500  0.25215300  0.17974100  1
  O  O77  1  0.27905500  0.75215300  0.82025900  1
  O  O78  1  0.72094500  0.74784700  0.32025900  1
  O  O79  1  0.77905500  0.24784700  0.67974100  1
  O  O80  1  0.98247600  0.91452600  0.83580800  1
  O  O81  1  0.51752400  0.41452600  0.16419200  1
  O  O82  1  0.48247600  0.08547400  0.66419200  1
  O  O83  1  0.01752400  0.58547400  0.33580800  1
  O  O84  1  0.01752400  0.08547400  0.16419200  1
  O  O85  1  0.48247600  0.58547400  0.83580800  1
  O  O86  1  0.51752400  0.91452600  0.33580800  1
  O  O87  1  0.98247600  0.41452600  0.66419200  1
