# generated using pymatgen
data_KAl3Si3(HO6)2
_symmetry_space_group_name_H-M   'P 1'
_cell_length_a   9.08652800
_cell_length_b   5.23354700
_cell_length_c   20.44006743
_cell_angle_alpha   84.35849675
_cell_angle_beta   90.00000000
_cell_angle_gamma   90.00000000
_symmetry_Int_Tables_number   1
_chemical_formula_structural   KAl3Si3(HO6)2
_chemical_formula_sum   'K4 Al12 Si12 H8 O48'
_cell_volume   967.31469519
_cell_formula_units_Z   4
loop_
 _symmetry_equiv_pos_site_id
 _symmetry_equiv_pos_as_xyz
  1  'x, y, z'
loop_
 _atom_site_type_symbol
 _atom_site_label
 _atom_site_symmetry_multiplicity
 _atom_site_fract_x
 _atom_site_fract_y
 _atom_site_fract_z
 _atom_site_occupancy
  K  K0  1  0.59784000  0.00000000  0.25000000  1
  K  K1  1  0.40216000  0.00000000  0.75000000  1
  K  K2  1  0.10297000  0.50000000  0.25000000  1
  K  K3  1  0.89703000  0.50000000  0.75000000  1
  Al  Al4  1  0.08608300  0.25148400  0.00127900  1
  Al  Al5  1  0.26032800  0.03716000  0.13501400  1
  Al  Al6  1  0.08608300  0.74851600  0.49872100  1
  Al  Al7  1  0.26032800  0.96284000  0.36498600  1
  Al  Al8  1  0.91391700  0.74851600  0.99872100  1
  Al  Al9  1  0.73967200  0.96284000  0.86498600  1
  Al  Al10  1  0.91391700  0.25148400  0.50127900  1
  Al  Al11  1  0.73967200  0.03716000  0.63501400  1
  Al  Al12  1  0.58441000  0.75258700  0.99902100  1
  Al  Al13  1  0.58441000  0.24741300  0.50097900  1
  Al  Al14  1  0.41559000  0.24741300  0.00097900  1
  Al  Al15  1  0.41559000  0.75258700  0.49902100  1
  Si  Si16  1  0.93036300  0.03949700  0.13433700  1
  Si  Si17  1  0.93036300  0.96050300  0.36566300  1
  Si  Si18  1  0.06963700  0.96050300  0.86566300  1
  Si  Si19  1  0.06963700  0.03949700  0.63433700  1
  Si  Si20  1  0.43100600  0.51823700  0.13510400  1
  Si  Si21  1  0.75678800  0.55140100  0.13340600  1
  Si  Si22  1  0.43100600  0.48176300  0.36489600  1
  Si  Si23  1  0.75678800  0.44859900  0.36659400  1
  Si  Si24  1  0.56899400  0.48176300  0.86489600  1
  Si  Si25  1  0.24321200  0.44859900  0.86659400  1
  Si  Si26  1  0.56899400  0.51823700  0.63510400  1
  Si  Si27  1  0.24321200  0.55140100  0.63340600  1
  H  H28  1  0.65718900  0.13677200  0.05365200  1
  H  H29  1  0.65718900  0.86322800  0.44634800  1
  H  H30  1  0.34281100  0.86322800  0.94634800  1
  H  H31  1  0.34281100  0.13677200  0.55365200  1
  H  H32  1  0.14414700  0.62365800  0.06718900  1
  H  H33  1  0.14414700  0.37634200  0.43281100  1
  H  H34  1  0.85585300  0.37634200  0.93281100  1
  H  H35  1  0.85585300  0.62365800  0.56718900  1
  O  O36  1  0.94403200  0.03668300  0.05420500  1
  O  O37  1  0.25028600  0.12488200  0.04992800  1
  O  O38  1  0.56584800  0.04501300  0.04803500  1
  O  O39  1  0.08527300  0.08394200  0.16947700  1
  O  O40  1  0.81183000  0.25672600  0.15623300  1
  O  O41  1  0.86366000  0.75843100  0.16618600  1
  O  O42  1  0.94403200  0.96331700  0.44579500  1
  O  O43  1  0.25028600  0.87511800  0.45007200  1
  O  O44  1  0.56584800  0.95498700  0.45196500  1
  O  O45  1  0.08527300  0.91605800  0.33052300  1
  O  O46  1  0.81183000  0.74327400  0.34376700  1
  O  O47  1  0.86366000  0.24156900  0.33381400  1
  O  O48  1  0.05596800  0.96331700  0.94579500  1
  O  O49  1  0.74971400  0.87511800  0.95007200  1
  O  O50  1  0.43415200  0.95498700  0.95196500  1
  O  O51  1  0.91472700  0.91605800  0.83052300  1
  O  O52  1  0.18817000  0.74327400  0.84376700  1
  O  O53  1  0.13634000  0.24156900  0.83381400  1
  O  O54  1  0.05596800  0.03668300  0.55420500  1
  O  O55  1  0.74971400  0.12488200  0.54992800  1
  O  O56  1  0.43415200  0.04501300  0.54803500  1
  O  O57  1  0.91472700  0.08394200  0.66947700  1
  O  O58  1  0.18817000  0.25672600  0.65623300  1
  O  O59  1  0.13634000  0.75843100  0.66618600  1
  O  O60  1  0.45048900  0.53249200  0.05431000  1
  O  O61  1  0.75176000  0.60879900  0.05401800  1
  O  O62  1  0.05824900  0.54561600  0.04883100  1
  O  O63  1  0.59441400  0.58613100  0.16621800  1
  O  O64  1  0.30717300  0.71635900  0.15614100  1
  O  O65  1  0.38886400  0.23462600  0.16891700  1
  O  O66  1  0.45048900  0.46750800  0.44569000  1
  O  O67  1  0.75176000  0.39120100  0.44598200  1
  O  O68  1  0.05824900  0.45438400  0.45116900  1
  O  O69  1  0.59441400  0.41386900  0.33378200  1
  O  O70  1  0.30717300  0.28364100  0.34385900  1
  O  O71  1  0.38886400  0.76537400  0.33108300  1
  O  O72  1  0.54951100  0.46750800  0.94569000  1
  O  O73  1  0.24824000  0.39120100  0.94598200  1
  O  O74  1  0.94175100  0.45438400  0.95116900  1
  O  O75  1  0.40558600  0.41386900  0.83378200  1
  O  O76  1  0.69282700  0.28364100  0.84385900  1
  O  O77  1  0.61113600  0.76537400  0.83108300  1
  O  O78  1  0.54951100  0.53249200  0.55431000  1
  O  O79  1  0.24824000  0.60879900  0.55401800  1
  O  O80  1  0.94175100  0.54561600  0.54883100  1
  O  O81  1  0.40558600  0.58613100  0.66621800  1
  O  O82  1  0.69282700  0.71635900  0.65614100  1
  O  O83  1  0.61113600  0.23462600  0.66891700  1
