# generated using pymatgen
data_Ca2P2O11
_symmetry_space_group_name_H-M   'P 1'
_cell_length_a   7.59468600
_cell_length_b   10.73256000
_cell_length_c   12.41554938
_cell_angle_alpha   67.75535302
_cell_angle_beta   90.00000000
_cell_angle_gamma   90.00000000
_symmetry_Int_Tables_number   1
_chemical_formula_structural   Ca2P2O11
_chemical_formula_sum   'Ca8 P8 O44'
_cell_volume   936.67971777
_cell_formula_units_Z   4
loop_
 _symmetry_equiv_pos_site_id
 _symmetry_equiv_pos_as_xyz
  1  'x, y, z'
loop_
 _atom_site_type_symbol
 _atom_site_label
 _atom_site_symmetry_multiplicity
 _atom_site_fract_x
 _atom_site_fract_y
 _atom_site_fract_z
 _atom_site_occupancy
  Ca  Ca0  1  0.49536400  0.76361800  0.48377400  1
  Ca  Ca1  1  0.99536400  0.73638200  0.51622600  1
  Ca  Ca2  1  0.50463600  0.23638200  0.51622600  1
  Ca  Ca3  1  0.00463600  0.26361800  0.48377400  1
  Ca  Ca4  1  0.63888400  0.15854900  0.26946200  1
  Ca  Ca5  1  0.13888400  0.34145100  0.73053800  1
  Ca  Ca6  1  0.36111600  0.84145100  0.73053800  1
  Ca  Ca7  1  0.86111600  0.65854900  0.26946200  1
  P  P8  1  0.52075000  0.51751200  0.75311200  1
  P  P9  1  0.02075000  0.98248800  0.24688800  1
  P  P10  1  0.47925000  0.48248800  0.24688800  1
  P  P11  1  0.97925000  0.01751200  0.75311200  1
  P  P12  1  0.74525800  0.98770800  0.56375000  1
  P  P13  1  0.24525800  0.51229200  0.43625000  1
  P  P14  1  0.25474200  0.01229200  0.43625000  1
  P  P15  1  0.75474200  0.48770800  0.56375000  1
  O  O16  1  0.74921300  0.37118400  0.52106800  1
  O  O17  1  0.24921300  0.12881600  0.47893200  1
  O  O18  1  0.25078700  0.62881600  0.47893200  1
  O  O19  1  0.75078700  0.87118400  0.52106800  1
  O  O20  1  0.73868300  0.62804800  0.46130400  1
  O  O21  1  0.23868300  0.87195200  0.53869600  1
  O  O22  1  0.26131700  0.37195200  0.53869600  1
  O  O23  1  0.76131700  0.12804800  0.46130400  1
  O  O24  1  0.48210200  0.67041300  0.68598000  1
  O  O25  1  0.98210200  0.82958700  0.31402000  1
  O  O26  1  0.51789800  0.32958700  0.31402000  1
  O  O27  1  0.01789800  0.17041300  0.68598000  1
  O  O28  1  0.65074500  0.56052900  0.20900100  1
  O  O29  1  0.15074500  0.93947100  0.79099900  1
  O  O30  1  0.34925500  0.43947100  0.79099900  1
  O  O31  1  0.84925500  0.06052900  0.20900100  1
  O  O32  1  0.58383000  0.46933200  0.64210200  1
  O  O33  1  0.08383000  0.03066800  0.35789800  1
  O  O34  1  0.41617000  0.53066800  0.35789800  1
  O  O35  1  0.91617000  0.96933200  0.64210200  1
  O  O36  1  0.57536400  0.99302200  0.62932800  1
  O  O37  1  0.07536400  0.50697800  0.37067200  1
  O  O38  1  0.42463600  0.00697800  0.37067200  1
  O  O39  1  0.92463600  0.49302200  0.62932800  1
  O  O40  1  0.66884100  0.48765000  0.83751800  1
  O  O41  1  0.16884100  0.01235000  0.16248200  1
  O  O42  1  0.33115900  0.51235000  0.16248200  1
  O  O43  1  0.83115900  0.98765000  0.83751800  1
  O  O44  1  0.54255300  0.83570200  0.22701800  1
  O  O45  1  0.04255300  0.66429800  0.77298200  1
  O  O46  1  0.45744700  0.16429800  0.77298200  1
  O  O47  1  0.95744700  0.33570200  0.22701800  1
  O  O48  1  0.52093900  0.76664400  0.95905700  1
  O  O49  1  0.02093900  0.73335600  0.04094300  1
  O  O50  1  0.47906100  0.23335600  0.04094300  1
  O  O51  1  0.97906100  0.26664400  0.95905700  1
  O  O52  1  0.59412000  0.31295100  0.04589100  1
  O  O53  1  0.09412000  0.18704900  0.95410900  1
  O  O54  1  0.40588000  0.68704900  0.95410900  1
  O  O55  1  0.90588000  0.81295100  0.04589100  1
  O  O56  1  0.56869800  0.15285800  0.84857500  1
  O  O57  1  0.06869800  0.34714200  0.15142500  1
  O  O58  1  0.43130200  0.84714200  0.15142500  1
  O  O59  1  0.93130200  0.65285800  0.84857500  1
