# generated using pymatgen
data_CrC32O5
_symmetry_space_group_name_H-M   'P 1'
_cell_length_a   16.26915000
_cell_length_b   9.24609700
_cell_length_c   19.50055474
_cell_angle_alpha   64.03270362
_cell_angle_beta   90.00000000
_cell_angle_gamma   90.00000000
_symmetry_Int_Tables_number   1
_chemical_formula_structural   CrC32O5
_chemical_formula_sum   'Cr4 C128 O20'
_cell_volume   2637.24985899
_cell_formula_units_Z   4
loop_
 _symmetry_equiv_pos_site_id
 _symmetry_equiv_pos_as_xyz
  1  'x, y, z'
loop_
 _atom_site_type_symbol
 _atom_site_label
 _atom_site_symmetry_multiplicity
 _atom_site_fract_x
 _atom_site_fract_y
 _atom_site_fract_z
 _atom_site_occupancy
  Cr  Cr0  1  0.47885500  0.85078900  0.50480400  1
  Cr  Cr1  1  0.02114500  0.85078900  0.00480400  1
  Cr  Cr2  1  0.52114500  0.14921100  0.49519600  1
  Cr  Cr3  1  0.97885500  0.14921100  0.99519600  1
  C  C4  1  0.37031800  0.90282700  0.69542700  1
  C  C5  1  0.12968200  0.90282700  0.19542700  1
  C  C6  1  0.62968200  0.09717300  0.30457300  1
  C  C7  1  0.87031800  0.09717300  0.80457300  1
  C  C8  1  0.38910200  0.77429800  0.76612500  1
  C  C9  1  0.11089800  0.77429800  0.26612500  1
  C  C10  1  0.61089800  0.22570200  0.23387500  1
  C  C11  1  0.88910200  0.22570200  0.73387500  1
  C  C12  1  0.45782000  0.67270900  0.78562200  1
  C  C13  1  0.04218000  0.67270900  0.28562200  1
  C  C14  1  0.54218000  0.32729100  0.21437800  1
  C  C15  1  0.95782000  0.32729100  0.71437800  1
  C  C16  1  0.46806700  0.55698000  0.85126700  1
  C  C17  1  0.03193300  0.55698000  0.35126700  1
  C  C18  1  0.53193300  0.44302000  0.14873300  1
  C  C19  1  0.96806700  0.44302000  0.64873300  1
  C  C20  1  0.41482700  0.52817500  0.90753300  1
  C  C21  1  0.08517300  0.52817500  0.40753300  1
  C  C22  1  0.58517300  0.47182500  0.09246700  1
  C  C23  1  0.91482700  0.47182500  0.59246700  1
  C  C24  1  0.34794300  0.60205600  0.90362400  1
  C  C25  1  0.15205700  0.60205600  0.40362400  1
  C  C26  1  0.65205700  0.39794400  0.09637600  1
  C  C27  1  0.84794300  0.39794400  0.59637600  1
  C  C28  1  0.32784200  0.73366600  0.83343600  1
  C  C29  1  0.17215800  0.73366600  0.33343600  1
  C  C30  1  0.67215800  0.26633400  0.16656400  1
  C  C31  1  0.82784200  0.26633400  0.66656400  1
  C  C32  1  0.26087500  0.83228700  0.81405200  1
  C  C33  1  0.23912500  0.83228700  0.31405200  1
  C  C34  1  0.73912500  0.16771300  0.18594800  1
  C  C35  1  0.76087500  0.16771300  0.68594800  1
  C  C36  1  0.23678500  0.95814300  0.74777400  1
  C  C37  1  0.26321500  0.95814300  0.24777400  1
  C  C38  1  0.76321500  0.04185700  0.25222600  1
  C  C39  1  0.73678500  0.04185700  0.75222600  1
  C  C40  1  0.16523200  0.05404200  0.73099500  1
  C  C41  1  0.33476800  0.05404200  0.23099500  1
  C  C42  1  0.83476800  0.94595800  0.26900500  1
  C  C43  1  0.66523200  0.94595800  0.76900500  1
  C  C44  1  0.15440100  0.16264500  0.66356100  1
  C  C45  1  0.34559900  0.16264500  0.16356100  1
  C  C46  1  0.84559900  0.83735500  0.33643900  1
  C  C47  1  0.65440100  0.83735500  0.83643900  1
  C  C48  1  0.20768700  0.20030100  0.60662400  1
  C  C49  1  0.29231300  0.20030100  0.10662400  1
  C  C50  1  0.79231300  0.79969900  0.39337600  1
  C  C51  1  0.70768700  0.79969900  0.89337600  1
  C  C52  1  0.27444300  0.12460100  0.61242700  1
  C  C53  1  0.22555700  0.12460100  0.11242700  1
  C  C54  1  0.72555700  0.87539900  0.38757300  1
  C  C55  1  0.77444300  0.87539900  0.88757300  1
  C  C56  1  0.29913000  0.99775500  0.68163400  1
  C  C57  1  0.20087000  0.99775500  0.18163400  1
  C  C58  1  0.70087000  0.00224500  0.31836600  1
  C  C59  1  0.79913000  0.00224500  0.81836600  1
  C  C60  1  0.28741900  0.18910500  0.38362800  1
  C  C61  1  0.21258100  0.18910500  0.88362800  1
  C  C62  1  0.71258100  0.81089500  0.61637200  1
  C  C63  1  0.78741900  0.81089500  0.11637200  1
  C  C64  1  0.29420400  0.34066500  0.32048200  1
  C  C65  1  0.20579600  0.34066500  0.82048200  1
  C  C66  1  0.70579600  0.65933500  0.67951800  1
  C  C67  1  0.79420400  0.65933500  0.17951800  1
  C  C68  1  0.36196000  0.44382500  0.29777700  1
  C  C69  1  0.13804000  0.44382500  0.79777700  1
  C  C70  1  0.63804000  0.55617500  0.70222300  1
  C  C71  1  0.86196000  0.55617500  0.20222300  1
  C  C72  1  0.36384900  0.57737800  0.23836800  1
  C  C73  1  0.13615100  0.57737800  0.73836800  1
  C  C74  1  0.63615100  0.42262200  0.76163200  1
  C  C75  1  0.86384900  0.42262200  0.26163200  1
  C  C76  1  0.29869000  0.62290000  0.19253200  1
  C  C77  1  0.20131000  0.62290000  0.69253200  1
  C  C78  1  0.70131000  0.37710000  0.80746800  1
  C  C79  1  0.79869000  0.37710000  0.30746800  1
  C  C80  1  0.22974300  0.55318400  0.20021500  1
  C  C81  1  0.27025700  0.55318400  0.70021500  1
  C  C82  1  0.77025700  0.44681600  0.79978500  1
  C  C83  1  0.72974300  0.44681600  0.29978500  1
  C  C84  1  0.21987100  0.40445100  0.26540200  1
  C  C85  1  0.28012900  0.40445100  0.76540200  1
  C  C86  1  0.78012900  0.59554900  0.73459800  1
  C  C87  1  0.71987100  0.59554900  0.23459800  1
  C  C88  1  0.15265300  0.30599300  0.28888100  1
  C  C89  1  0.34734700  0.30599300  0.78888100  1
  C  C90  1  0.84734700  0.69400700  0.71111900  1
  C  C91  1  0.65265300  0.69400700  0.21111900  1
  C  C92  1  0.13762100  0.16356800  0.35127100  1
  C  C93  1  0.36237900  0.16356800  0.85127100  1
  C  C94  1  0.86237900  0.83643200  0.64872900  1
  C  C95  1  0.63762100  0.83643200  0.14872900  1
  C  C96  1  0.06428000  0.07141400  0.37392800  1
  C  C97  1  0.43572000  0.07141400  0.87392800  1
  C  C98  1  0.93572000  0.92858600  0.62607200  1
  C  C99  1  0.56428000  0.92858600  0.12607200  1
  C  C100  1  0.06824300  0.94456700  0.43639000  1
  C  C101  1  0.43175700  0.94456700  0.93639000  1
  C  C102  1  0.93175700  0.05543300  0.56361000  1
  C  C103  1  0.56824300  0.05543300  0.06361000  1
  C  C104  1  0.13137500  0.87808900  0.48324700  1
  C  C105  1  0.36862500  0.87808900  0.98324700  1
  C  C106  1  0.86862500  0.12191100  0.51675300  1
  C  C107  1  0.63137500  0.12191100  0.01675300  1
  C  C108  1  0.19921400  0.95362300  0.46687300  1
  C  C109  1  0.30078600  0.95362300  0.96687300  1
  C  C110  1  0.80078600  0.04637700  0.53312700  1
  C  C111  1  0.69921400  0.04637700  0.03312700  1
  C  C112  1  0.21436700  0.09871400  0.40296000  1
  C  C113  1  0.28563300  0.09871400  0.90296000  1
  C  C114  1  0.78563300  0.90128600  0.59704000  1
  C  C115  1  0.71436700  0.90128600  0.09704000  1
  C  C116  1  0.49647400  0.45998200  0.60642500  1
  C  C117  1  0.00352600  0.45998200  0.10642500  1
  C  C118  1  0.50352600  0.54001800  0.39357500  1
  C  C119  1  0.99647400  0.54001800  0.89357500  1
  C  C120  1  0.46815400  0.60053800  0.43613300  1
  C  C121  1  0.03184600  0.60053800  0.93613300  1
  C  C122  1  0.53184600  0.39946200  0.56386700  1
  C  C123  1  0.96815400  0.39946200  0.06386700  1
  C  C124  1  0.42469600  0.93538400  0.62769000  1
  C  C125  1  0.07530400  0.93538400  0.12769000  1
  C  C126  1  0.57530400  0.06461600  0.37231000  1
  C  C127  1  0.92469600  0.06461600  0.87231000  1
  C  C128  1  0.36277000  0.11801700  0.42985100  1
  C  C129  1  0.13723000  0.11801700  0.92985100  1
  C  C130  1  0.63723000  0.88198300  0.57014900  1
  C  C131  1  0.86277000  0.88198300  0.07014900  1
  O  O132  1  0.44530100  0.63002500  0.48862000  1
  O  O133  1  0.05469900  0.63002500  0.98862000  1
  O  O134  1  0.55469900  0.36997500  0.51138000  1
  O  O135  1  0.94530100  0.36997500  0.01138000  1
  O  O136  1  0.42747600  0.82602800  0.60478000  1
  O  O137  1  0.07252400  0.82602800  0.10478000  1
  O  O138  1  0.57252400  0.17397200  0.39522000  1
  O  O139  1  0.92747600  0.17397200  0.89522000  1
  O  O140  1  0.37514500  0.96748700  0.45153100  1
  O  O141  1  0.12485500  0.96748700  0.95153100  1
  O  O142  1  0.62485500  0.03251300  0.54846900  1
  O  O143  1  0.87514500  0.03251300  0.04846900  1
  O  O144  1  0.46173000  0.07074400  0.59684300  1
  O  O145  1  0.03827000  0.07074400  0.09684300  1
  O  O146  1  0.53827000  0.92925600  0.40315700  1
  O  O147  1  0.96173000  0.92925600  0.90315700  1
  O  O148  1  0.41078400  0.21218000  0.44294400  1
  O  O149  1  0.08921600  0.21218000  0.94294400  1
  O  O150  1  0.58921600  0.78782000  0.55705600  1
  O  O151  1  0.91078400  0.78782000  0.05705600  1
