# generated using pymatgen
data_SiP4H28(C5Cl2)2
_symmetry_space_group_name_H-M   'P 1'
_cell_length_a   7.06977400
_cell_length_b   9.18894296
_cell_length_c   9.26297255
_cell_angle_alpha   92.63362808
_cell_angle_beta   91.08681401
_cell_angle_gamma   93.73488069
_symmetry_Int_Tables_number   1
_chemical_formula_structural   SiP4H28(C5Cl2)2
_chemical_formula_sum   'Si1 P4 H28 C10 Cl4'
_cell_volume   599.69956425
_cell_formula_units_Z   1
loop_
 _symmetry_equiv_pos_site_id
 _symmetry_equiv_pos_as_xyz
  1  'x, y, z'
loop_
 _atom_site_type_symbol
 _atom_site_label
 _atom_site_symmetry_multiplicity
 _atom_site_fract_x
 _atom_site_fract_y
 _atom_site_fract_z
 _atom_site_occupancy
  Si  Si0  1  0.00000000  0.50000000  0.50000000  1
  P  P1  1  0.16294800  0.70654200  0.62819000  1
  P  P2  1  0.83705200  0.29345800  0.37181000  1
  P  P3  1  0.38500600  0.82148000  0.91222500  1
  P  P4  1  0.61499400  0.17852000  0.08777500  1
  H  H5  1  0.17169400  0.59907900  0.85940600  1
  H  H6  1  0.82830600  0.40092100  0.14059400  1
  H  H7  1  0.39021800  0.59182400  0.76859900  1
  H  H8  1  0.60978200  0.40817600  0.23140100  1
  H  H9  1  0.93053300  0.87893000  0.57667800  1
  H  H10  1  0.06946700  0.12107000  0.42332200  1
  H  H11  1  0.90096800  0.81015900  0.75218300  1
  H  H12  1  0.09903200  0.18984100  0.24781700  1
  H  H13  1  0.08969700  0.94588500  0.72237600  1
  H  H14  1  0.91030300  0.05411500  0.27762400  1
  H  H15  1  0.46259200  0.72657800  0.50415900  1
  H  H16  1  0.53740800  0.27342200  0.49584100  1
  H  H17  1  0.28610000  0.82902000  0.42251400  1
  H  H18  1  0.71390000  0.17098000  0.57748600  1
  H  H19  1  0.40325200  0.89696100  0.58915000  1
  H  H20  1  0.59674800  0.10303900  0.41085000  1
  H  H21  1  0.48860700  0.63129300  0.07431100  1
  H  H22  1  0.51139300  0.36870700  0.92568900  1
  H  H23  1  0.66714700  0.68439700  0.94883400  1
  H  H24  1  0.33285300  0.31560300  0.05116600  1
  H  H25  1  0.62138800  0.80263500  0.10063300  1
  H  H26  1  0.37861200  0.19736500  0.89936700  1
  H  H27  1  0.25135900  0.92251900  0.13030300  1
  H  H28  1  0.74864100  0.07748100  0.86969700  1
  H  H29  1  0.06928300  0.87412000  0.99804400  1
  H  H30  1  0.93071700  0.12588000  0.00195600  1
  H  H31  1  0.16551700  0.73559000  0.10181600  1
  H  H32  1  0.83448300  0.26441000  0.89818400  1
  C  C33  1  0.27645700  0.66298500  0.79799900  1
  C  C34  1  0.72354300  0.33701500  0.20200100  1
  C  C35  1  0.00542900  0.84986900  0.67518400  1
  C  C36  1  0.99457100  0.15013100  0.32481600  1
  C  C37  1  0.34780200  0.79870700  0.52578900  1
  C  C38  1  0.65219800  0.20129300  0.47421100  1
  C  C39  1  0.55566600  0.72388000  0.01874400  1
  C  C40  1  0.44433400  0.27612000  0.98125600  1
  C  C41  1  0.19925100  0.83839500  0.04841200  1
  C  C42  1  0.80074900  0.16160500  0.95158800  1
  Cl  Cl43  1  0.14137000  0.34195100  0.63557700  1
  Cl  Cl44  1  0.85863000  0.65804900  0.36442300  1
  Cl  Cl45  1  0.23051200  0.48713700  0.33787400  1
  Cl  Cl46  1  0.76948800  0.51286300  0.66212600  1
