# generated using pymatgen
data_UCrO9
_symmetry_space_group_name_H-M   'P 1'
_cell_length_a   10.22011600
_cell_length_b   7.25494800
_cell_length_c   12.15443078
_cell_angle_alpha   90.00000000
_cell_angle_beta   95.28369124
_cell_angle_gamma   90.00000000
_symmetry_Int_Tables_number   1
_chemical_formula_structural   UCrO9
_chemical_formula_sum   'U4 Cr4 O36'
_cell_volume   897.37813452
_cell_formula_units_Z   4
loop_
 _symmetry_equiv_pos_site_id
 _symmetry_equiv_pos_as_xyz
  1  'x, y, z'
loop_
 _atom_site_type_symbol
 _atom_site_label
 _atom_site_symmetry_multiplicity
 _atom_site_fract_x
 _atom_site_fract_y
 _atom_site_fract_z
 _atom_site_occupancy
  U  U0  1  0.34793100  0.69525500  0.86434300  1
  U  U1  1  0.65206900  0.19525500  0.13565700  1
  U  U2  1  0.04598400  0.70806500  0.33093200  1
  U  U3  1  0.95401600  0.20806500  0.66906800  1
  Cr  Cr4  1  0.44134200  0.19016700  0.85297600  1
  Cr  Cr5  1  0.55865800  0.69016700  0.14702400  1
  Cr  Cr6  1  0.11946000  0.20980700  0.39847100  1
  Cr  Cr7  1  0.88054000  0.70980700  0.60152900  1
  O  O8  1  0.04891900  0.39846100  0.33466000  1
  O  O9  1  0.95108100  0.89846100  0.66534000  1
  O  O10  1  0.17859700  0.68977100  0.89553500  1
  O  O11  1  0.82140300  0.18977100  0.10446500  1
  O  O12  1  0.18842600  0.70613300  0.43011000  1
  O  O13  1  0.81157400  0.20613300  0.56989000  1
  O  O14  1  0.05289200  0.01816800  0.33566200  1
  O  O15  1  0.94710800  0.51816800  0.66433800  1
  O  O16  1  0.34375400  0.00433600  0.86781000  1
  O  O17  1  0.65624600  0.50433600  0.13219000  1
  O  O18  1  0.51258900  0.69926000  0.82248200  1
  O  O19  1  0.48741100  0.19926000  0.17751800  1
  O  O20  1  0.56293200  0.19351700  0.95658900  1
  O  O21  1  0.43706800  0.69351700  0.04341100  1
  O  O22  1  0.35151100  0.38694400  0.85506000  1
  O  O23  1  0.64848900  0.88694400  0.14494000  1
  O  O24  1  0.50331600  0.17641600  0.73728300  1
  O  O25  1  0.49668400  0.67641600  0.26271700  1
  O  O26  1  0.91759800  0.70978900  0.21974100  1
  O  O27  1  0.08240200  0.20978900  0.78025900  1
  O  O28  1  0.09222300  0.21122600  0.53385300  1
  O  O29  1  0.90777700  0.71122600  0.46614700  1
  O  O30  1  0.27356800  0.21348100  0.38741200  1
  O  O31  1  0.72643200  0.71348100  0.61258800  1
  O  O32  1  0.20027200  0.64160100  0.15410000  1
  O  O33  1  0.79972800  0.14160100  0.84590000  1
  O  O34  1  0.21733700  0.81083200  0.15513700  1
  O  O35  1  0.78266300  0.31083200  0.84486300  1
  O  O36  1  0.31088000  0.69771900  0.65201200  1
  O  O37  1  0.68912000  0.19771900  0.34798800  1
  O  O38  1  0.35552900  0.53958500  0.61334700  1
  O  O39  1  0.64447100  0.03958500  0.38665300  1
  O  O40  1  0.09568800  0.17790200  0.07896300  1
  O  O41  1  0.90431200  0.67790200  0.92103700  1
  O  O42  1  0.42546900  0.55139500  0.53419400  1
  O  O43  1  0.57453100  0.05139500  0.46580600  1
