# generated using pymatgen
data_Ca(BO2)3
_symmetry_space_group_name_H-M   'P 1'
_cell_length_a   4.46301000
_cell_length_b   7.02876700
_cell_length_c   13.71741300
_cell_angle_alpha   90.00000000
_cell_angle_beta   90.00000000
_cell_angle_gamma   90.00000000
_symmetry_Int_Tables_number   1
_chemical_formula_structural   Ca(BO2)3
_chemical_formula_sum   'Ca4 B12 O24'
_cell_volume   430.30780286
_cell_formula_units_Z   4
loop_
 _symmetry_equiv_pos_site_id
 _symmetry_equiv_pos_as_xyz
  1  'x, y, z'
loop_
 _atom_site_type_symbol
 _atom_site_label
 _atom_site_symmetry_multiplicity
 _atom_site_fract_x
 _atom_site_fract_y
 _atom_site_fract_z
 _atom_site_occupancy
  Ca  Ca0  1  0.99403800  0.27368000  0.40916200  1
  Ca  Ca1  1  0.49403800  0.72632000  0.59083800  1
  Ca  Ca2  1  0.49403800  0.77368000  0.09083800  1
  Ca  Ca3  1  0.99403800  0.22632000  0.90916200  1
  B  B4  1  0.34372600  0.40291100  0.23108500  1
  B  B5  1  0.84372600  0.59708900  0.76891500  1
  B  B6  1  0.84372600  0.90291100  0.26891500  1
  B  B7  1  0.34372600  0.09708900  0.73108500  1
  B  B8  1  0.54255100  0.28584200  0.07421100  1
  B  B9  1  0.04255100  0.71415800  0.92578900  1
  B  B10  1  0.04255100  0.78584200  0.42578900  1
  B  B11  1  0.54255100  0.21415800  0.57421100  1
  B  B12  1  0.05028800  0.15528200  0.14588500  1
  B  B13  1  0.55028800  0.84471800  0.85411500  1
  B  B14  1  0.55028800  0.65528200  0.35411500  1
  B  B15  1  0.05028800  0.34471800  0.64588500  1
  O  O16  1  0.48519000  0.44572500  0.14475400  1
  O  O17  1  0.98519000  0.55427500  0.85524600  1
  O  O18  1  0.98519000  0.94572500  0.35524600  1
  O  O19  1  0.48519000  0.05427500  0.64475400  1
  O  O20  1  0.10920000  0.27490700  0.23324300  1
  O  O21  1  0.60920000  0.72509300  0.76675700  1
  O  O22  1  0.60920000  0.77490700  0.26675700  1
  O  O23  1  0.10920000  0.22509300  0.73324300  1
  O  O24  1  0.34709400  0.11679900  0.09646100  1
  O  O25  1  0.84709400  0.88320100  0.90353900  1
  O  O26  1  0.84709400  0.61679900  0.40353900  1
  O  O27  1  0.34709400  0.38320100  0.59646100  1
  O  O28  1  0.42238800  0.47266800  0.32125900  1
  O  O29  1  0.92238800  0.52733200  0.67874100  1
  O  O30  1  0.92238800  0.97266800  0.17874100  1
  O  O31  1  0.42238800  0.02733200  0.82125900  1
  O  O32  1  0.85849300  0.23880700  0.07338700  1
  O  O33  1  0.35849300  0.76119300  0.92661300  1
  O  O34  1  0.35849300  0.73880700  0.42661300  1
  O  O35  1  0.85849300  0.26119300  0.57338700  1
  O  O36  1  0.45203200  0.32197400  0.97457800  1
  O  O37  1  0.95203200  0.67802600  0.02542200  1
  O  O38  1  0.95203200  0.82197400  0.52542200  1
  O  O39  1  0.45203200  0.17802600  0.47457800  1
