# generated using pymatgen
data_AlCu2AsO12
_symmetry_space_group_name_H-M   'P 1'
_cell_length_a   7.72656100
_cell_length_b   8.76614487
_cell_length_c   8.62263257
_cell_angle_alpha   65.09229297
_cell_angle_beta   63.38203017
_cell_angle_gamma   63.85115665
_symmetry_Int_Tables_number   1
_chemical_formula_structural   AlCu2AsO12
_chemical_formula_sum   'Al2 Cu4 As2 O24'
_cell_volume   450.11359225
_cell_formula_units_Z   2
loop_
 _symmetry_equiv_pos_site_id
 _symmetry_equiv_pos_as_xyz
  1  'x, y, z'
loop_
 _atom_site_type_symbol
 _atom_site_label
 _atom_site_symmetry_multiplicity
 _atom_site_fract_x
 _atom_site_fract_y
 _atom_site_fract_z
 _atom_site_occupancy
  Al  Al0  1  0.50000000  0.50000000  0.50000000  1
  Al  Al1  1  0.00000000  0.00000000  0.00000000  1
  Cu  Cu2  1  0.41070200  0.09074500  0.65328000  1
  Cu  Cu3  1  0.65472700  0.40925500  0.84672000  1
  Cu  Cu4  1  0.58929800  0.90925500  0.34672000  1
  Cu  Cu5  1  0.34527300  0.59074500  0.15328000  1
  As  As6  1  0.72199700  0.25000000  0.25000000  1
  As  As7  1  0.27800300  0.75000000  0.75000000  1
  O  O8  1  0.73598000  0.36941500  0.35132300  1
  O  O9  1  0.95671800  0.13058500  0.14867700  1
  O  O10  1  0.26402000  0.63058500  0.64867700  1
  O  O11  1  0.04328200  0.86941500  0.85132300  1
  O  O12  1  0.57083600  0.11068400  0.40219700  1
  O  O13  1  0.58371700  0.38931600  0.09780300  1
  O  O14  1  0.42916400  0.88931600  0.59780300  1
  O  O15  1  0.41628300  0.61068400  0.90219700  1
  O  O16  1  0.43265600  0.28382200  0.65796600  1
  O  O17  1  0.87444400  0.21617800  0.84203400  1
  O  O18  1  0.56734400  0.71617800  0.34203400  1
  O  O19  1  0.12555600  0.78382200  0.15796600  1
  O  O20  1  0.26897100  0.01209200  0.88632900  1
  O  O21  1  0.66739200  0.48790800  0.61367100  1
  O  O22  1  0.73102900  0.98790800  0.11367100  1
  O  O23  1  0.33260800  0.51209200  0.38632900  1
  O  O24  1  0.92751100  0.85339000  0.53723800  1
  O  O25  1  0.81813800  0.64661000  0.96276200  1
  O  O26  1  0.07248900  0.14661000  0.46276200  1
  O  O27  1  0.18186200  0.35339000  0.03723800  1
  O  O28  1  0.05625900  0.24806400  0.53507300  1
  O  O29  1  0.33939500  0.25193600  0.96492700  1
  O  O30  1  0.94374100  0.75193600  0.46492700  1
  O  O31  1  0.66060500  0.74806400  0.03507300  1
