# generated using pymatgen
data_Si6H31C10N
_symmetry_space_group_name_H-M   'P 1'
_cell_length_a   7.78919900
_cell_length_b   10.21708606
_cell_length_c   17.11201208
_cell_angle_alpha   105.46417921
_cell_angle_beta   90.00000000
_cell_angle_gamma   112.40709785
_symmetry_Int_Tables_number   1
_chemical_formula_structural   Si6H31C10N
_chemical_formula_sum   'Si12 H62 C20 N2'
_cell_volume   1205.50517560
_cell_formula_units_Z   2
loop_
 _symmetry_equiv_pos_site_id
 _symmetry_equiv_pos_as_xyz
  1  'x, y, z'
loop_
 _atom_site_type_symbol
 _atom_site_label
 _atom_site_symmetry_multiplicity
 _atom_site_fract_x
 _atom_site_fract_y
 _atom_site_fract_z
 _atom_site_occupancy
  Si  Si0  1  0.07526100  0.01193900  0.83906300  1
  Si  Si1  1  0.06332200  0.98806100  0.66093700  1
  Si  Si2  1  0.92473900  0.98806100  0.16093700  1
  Si  Si3  1  0.93667800  0.01193900  0.33906300  1
  Si  Si4  1  0.04321700  0.23861600  0.85055900  1
  Si  Si5  1  0.80460100  0.76138400  0.64944100  1
  Si  Si6  1  0.95678300  0.76138400  0.14944100  1
  Si  Si7  1  0.19539900  0.23861600  0.35055900  1
  Si  Si8  1  0.00076300  0.20666200  0.70782000  1
  Si  Si9  1  0.79410200  0.79333800  0.79218000  1
  Si  Si10  1  0.99923700  0.79333800  0.29218000  1
  Si  Si11  1  0.20589800  0.20666200  0.20782000  1
  H  H12  1  0.31999100  0.00000000  0.75000000  1
  H  H13  1  0.68000900  0.00000000  0.25000000  1
  H  H14  1  0.36610800  0.10521500  0.93689900  1
  H  H15  1  0.26089300  0.89478500  0.56310100  1
  H  H16  1  0.63389200  0.89478500  0.06310100  1
  H  H17  1  0.73910700  0.10521500  0.43689900  1
  H  H18  1  0.15920400  0.02908400  0.98227600  1
  H  H19  1  0.13012000  0.97091600  0.51772400  1
  H  H20  1  0.84079600  0.97091600  0.01772400  1
  H  H21  1  0.86988000  0.02908400  0.48227600  1
  H  H22  1  0.24829300  0.91023300  0.91507100  1
  H  H23  1  0.33805900  0.08976700  0.58492900  1
  H  H24  1  0.75170700  0.08976700  0.08492900  1
  H  H25  1  0.66194100  0.91023300  0.41507100  1
  H  H26  1  0.29102100  0.41166500  0.96688400  1
  H  H27  1  0.87935600  0.58833500  0.53311600  1
  H  H28  1  0.70897900  0.58833500  0.03311600  1
  H  H29  1  0.12064400  0.41166500  0.46688400  1
  H  H30  1  0.39317800  0.39153400  0.87389200  1
  H  H31  1  0.00164400  0.60846600  0.62610800  1
  H  H32  1  0.60682200  0.60846600  0.12610800  1
  H  H33  1  0.99835600  0.39153400  0.37389200  1
  H  H34  1  0.26303700  0.50434100  0.89688800  1
  H  H35  1  0.75869600  0.49565900  0.60311200  1
  H  H36  1  0.73696300  0.49565900  0.10311200  1
  H  H37  1  0.24130400  0.50434100  0.39688800  1
  H  H38  1  0.84243400  0.37715500  0.90740100  1
  H  H39  1  0.46527800  0.62284500  0.59259900  1
  H  H40  1  0.15756600  0.62284500  0.09259900  1
  H  H41  1  0.53472200  0.37715500  0.40740100  1
  H  H42  1  0.70896500  0.18346400  0.87962100  1
  H  H43  1  0.52550200  0.81653600  0.62037900  1
  H  H44  1  0.29103500  0.81653600  0.12037900  1
  H  H45  1  0.47449800  0.18346400  0.37962100  1
  H  H46  1  0.86553600  0.27141400  0.97106100  1
  H  H47  1  0.59412200  0.72858600  0.52893900  1
  H  H48  1  0.13446400  0.72858600  0.02893900  1
  H  H49  1  0.40587800  0.27141400  0.47106100  1
  H  H50  1  0.15703700  0.46798900  0.70323100  1
  H  H51  1  0.68904900  0.53201100  0.79676900  1
  H  H52  1  0.84296300  0.53201100  0.29676900  1
  H  H53  1  0.31095100  0.46798900  0.20323100  1
  H  H54  1  0.32192100  0.38414000  0.69192200  1
  H  H55  1  0.93778200  0.61586000  0.80807800  1
  H  H56  1  0.67807900  0.61586000  0.30807800  1
  H  H57  1  0.06221800  0.38414000  0.19192200  1
  H  H58  1  0.15614700  0.34417900  0.60824700  1
  H  H59  1  0.81196800  0.65582100  0.89175300  1
  H  H60  1  0.84385300  0.65582100  0.39175300  1
  H  H61  1  0.18803200  0.34417900  0.10824700  1
  H  H62  1  0.73486900  0.16394200  0.60801400  1
  H  H63  1  0.57092700  0.83605800  0.89198600  1
  H  H64  1  0.26513100  0.83605800  0.39198600  1
  H  H65  1  0.42907300  0.16394200  0.10801400  1
  H  H66  1  0.65023100  0.09982400  0.69318900  1
  H  H67  1  0.55040600  0.90017600  0.80681100  1
  H  H68  1  0.34976900  0.90017600  0.30681100  1
  H  H69  1  0.44959400  0.09982400  0.19318900  1
  H  H70  1  0.73798600  0.29181900  0.70253300  1
  H  H71  1  0.44616700  0.70818100  0.79746700  1
  H  H72  1  0.26201400  0.70818100  0.29746700  1
  H  H73  1  0.55383300  0.29181900  0.20253300  1
  C  C74  1  0.22713700  0.01397700  0.92630800  1
  C  C75  1  0.21316100  0.98602300  0.57369200  1
  C  C76  1  0.77286300  0.98602300  0.07369200  1
  C  C77  1  0.78683900  0.01397700  0.42630800  1
  C  C78  1  0.26966100  0.40096800  0.90162900  1
  C  C79  1  0.86869300  0.59903200  0.59837100  1
  C  C80  1  0.73033900  0.59903200  0.09837100  1
  C  C81  1  0.13130700  0.40096800  0.40162900  1
  C  C82  1  0.84620900  0.27044800  0.90720500  1
  C  C83  1  0.57576100  0.72955200  0.59279500  1
  C  C84  1  0.15379100  0.72955200  0.09279500  1
  C  C85  1  0.42423900  0.27044800  0.40720500  1
  C  C86  1  0.17667700  0.36532400  0.67468300  1
  C  C87  1  0.81135300  0.63467600  0.82531700  1
  C  C88  1  0.82332300  0.63467600  0.32531700  1
  C  C89  1  0.18864700  0.36532400  0.17468300  1
  C  C90  1  0.75816800  0.18907800  0.67468500  1
  C  C91  1  0.56909000  0.81092200  0.82531500  1
  C  C92  1  0.24183200  0.81092200  0.32531500  1
  C  C93  1  0.43091000  0.18907800  0.17468500  1
  N  N94  1  0.19002500  0.00000000  0.75000000  1
  N  N95  1  0.80997500  0.00000000  0.25000000  1
