# generated using pymatgen
data_Ce3As2ClO7
_symmetry_space_group_name_H-M   'P 1'
_cell_length_a   12.91696300
_cell_length_b   12.91696300
_cell_length_c   5.62104400
_cell_angle_alpha   90.00000000
_cell_angle_beta   90.00000000
_cell_angle_gamma   90.00000000
_symmetry_Int_Tables_number   1
_chemical_formula_structural   Ce3As2ClO7
_chemical_formula_sum   'Ce12 As8 Cl4 O28'
_cell_volume   937.85957351
_cell_formula_units_Z   4
loop_
 _symmetry_equiv_pos_site_id
 _symmetry_equiv_pos_as_xyz
  1  'x, y, z'
loop_
 _atom_site_type_symbol
 _atom_site_label
 _atom_site_symmetry_multiplicity
 _atom_site_fract_x
 _atom_site_fract_y
 _atom_site_fract_z
 _atom_site_occupancy
  Ce  Ce0  1  0.77210400  0.22789600  0.50087600  1
  Ce  Ce1  1  0.22789600  0.77210400  0.50087600  1
  Ce  Ce2  1  0.72789600  0.72789600  0.00087600  1
  Ce  Ce3  1  0.27210400  0.27210400  0.00087600  1
  Ce  Ce4  1  0.63638900  0.94708700  0.52874100  1
  Ce  Ce5  1  0.36361100  0.05291300  0.52874100  1
  Ce  Ce6  1  0.86361100  0.44708700  0.02874100  1
  Ce  Ce7  1  0.13638900  0.55291300  0.02874100  1
  Ce  Ce8  1  0.05291300  0.36361100  0.52874100  1
  Ce  Ce9  1  0.94708700  0.63638900  0.52874100  1
  Ce  Ce10  1  0.44708700  0.86361100  0.02874100  1
  Ce  Ce11  1  0.55291300  0.13638900  0.02874100  1
  As  As12  1  0.48212800  0.29434300  0.49743600  1
  As  As13  1  0.51787200  0.70565700  0.49743600  1
  As  As14  1  0.01787200  0.79434300  0.99743600  1
  As  As15  1  0.98212800  0.20565700  0.99743600  1
  As  As16  1  0.70565700  0.51787200  0.49743600  1
  As  As17  1  0.29434300  0.48212800  0.49743600  1
  As  As18  1  0.79434300  0.01787200  0.99743600  1
  As  As19  1  0.20565700  0.98212800  0.99743600  1
  Cl  Cl20  1  0.66495300  0.33504700  0.96288400  1
  Cl  Cl21  1  0.33504700  0.66495300  0.96288400  1
  Cl  Cl22  1  0.83504700  0.83504700  0.46288400  1
  Cl  Cl23  1  0.16495300  0.16495300  0.46288400  1
  O  O24  1  0.50000000  0.00000000  0.77163200  1
  O  O25  1  0.00000000  0.50000000  0.27163200  1
  O  O26  1  0.00000000  0.50000000  0.77163200  1
  O  O27  1  0.50000000  0.00000000  0.27163200  1
  O  O28  1  0.59260800  0.21222700  0.45918600  1
  O  O29  1  0.40739200  0.78777300  0.45918600  1
  O  O30  1  0.90739200  0.71222700  0.95918600  1
  O  O31  1  0.09260800  0.28777300  0.95918600  1
  O  O32  1  0.78777300  0.40739200  0.45918600  1
  O  O33  1  0.21222700  0.59260800  0.45918600  1
  O  O34  1  0.71222700  0.90739200  0.95918600  1
  O  O35  1  0.28777300  0.09260800  0.95918600  1
  O  O36  1  0.42339600  0.22496500  0.74567800  1
  O  O37  1  0.57660400  0.77503500  0.74567800  1
  O  O38  1  0.07660400  0.72496500  0.24567800  1
  O  O39  1  0.92339600  0.27503500  0.24567800  1
  O  O40  1  0.77503500  0.57660400  0.74567800  1
  O  O41  1  0.22496500  0.42339600  0.74567800  1
  O  O42  1  0.72496500  0.07660400  0.24567800  1
  O  O43  1  0.27503500  0.92339600  0.24567800  1
  O  O44  1  0.59036400  0.77704000  0.26896900  1
  O  O45  1  0.40963600  0.22296000  0.26896900  1
  O  O46  1  0.90963600  0.27704000  0.76896900  1
  O  O47  1  0.09036400  0.72296000  0.76896900  1
  O  O48  1  0.22296000  0.40963600  0.26896900  1
  O  O49  1  0.77704000  0.59036400  0.26896900  1
  O  O50  1  0.27704000  0.90963600  0.76896900  1
  O  O51  1  0.72296000  0.09036400  0.76896900  1
