# generated using pymatgen
data_Na2NiP2(HO3)2
_symmetry_space_group_name_H-M   'P 1'
_cell_length_a   5.41742900
_cell_length_b   9.24882800
_cell_length_c   12.16213600
_cell_angle_alpha   90.00000000
_cell_angle_beta   90.00000000
_cell_angle_gamma   90.00000000
_symmetry_Int_Tables_number   1
_chemical_formula_structural   Na2NiP2(HO3)2
_chemical_formula_sum   'Na8 Ni4 P8 H8 O24'
_cell_volume   609.38223132
_cell_formula_units_Z   4
loop_
 _symmetry_equiv_pos_site_id
 _symmetry_equiv_pos_as_xyz
  1  'x, y, z'
loop_
 _atom_site_type_symbol
 _atom_site_label
 _atom_site_symmetry_multiplicity
 _atom_site_fract_x
 _atom_site_fract_y
 _atom_site_fract_z
 _atom_site_occupancy
  Na  Na0  1  0.25000000  0.72368400  0.09521700  1
  Na  Na1  1  0.25000000  0.77631600  0.59521700  1
  Na  Na2  1  0.75000000  0.27631600  0.90478300  1
  Na  Na3  1  0.75000000  0.22368400  0.40478300  1
  Na  Na4  1  0.25000000  0.17568400  0.72188800  1
  Na  Na5  1  0.25000000  0.32431600  0.22188800  1
  Na  Na6  1  0.75000000  0.82431600  0.27811200  1
  Na  Na7  1  0.75000000  0.67568400  0.77811200  1
  Ni  Ni8  1  0.25000000  0.86464600  0.83993300  1
  Ni  Ni9  1  0.25000000  0.63535400  0.33993300  1
  Ni  Ni10  1  0.75000000  0.13535400  0.16006700  1
  Ni  Ni11  1  0.75000000  0.36464600  0.66006700  1
  P  P12  1  0.75000000  0.87635500  0.98223900  1
  P  P13  1  0.75000000  0.62364500  0.48223900  1
  P  P14  1  0.25000000  0.12364500  0.01776100  1
  P  P15  1  0.25000000  0.37635500  0.51776100  1
  P  P16  1  0.25000000  0.49956300  0.81379900  1
  P  P17  1  0.25000000  0.00043700  0.31379900  1
  P  P18  1  0.75000000  0.50043700  0.18620100  1
  P  P19  1  0.75000000  0.99956300  0.68620100  1
  H  H20  1  0.25000000  0.50602200  0.93021800  1
  H  H21  1  0.25000000  0.99397800  0.43021800  1
  H  H22  1  0.75000000  0.49397800  0.06978200  1
  H  H23  1  0.75000000  0.00602200  0.56978200  1
  H  H24  1  0.75000000  0.00312800  0.91865500  1
  H  H25  1  0.75000000  0.49687200  0.41865500  1
  H  H26  1  0.25000000  0.99687200  0.08134500  1
  H  H27  1  0.25000000  0.50312800  0.58134500  1
  O  O28  1  0.98295900  0.79072000  0.94920200  1
  O  O29  1  0.51704100  0.70928000  0.44920200  1
  O  O30  1  0.48295900  0.20928000  0.05079800  1
  O  O31  1  0.01704100  0.29072000  0.55079800  1
  O  O32  1  0.01704100  0.20928000  0.05079800  1
  O  O33  1  0.48295900  0.29072000  0.55079800  1
  O  O34  1  0.51704100  0.79072000  0.94920200  1
  O  O35  1  0.98295900  0.70928000  0.44920200  1
  O  O36  1  0.25000000  0.65538600  0.76996600  1
  O  O37  1  0.25000000  0.84461400  0.26996600  1
  O  O38  1  0.75000000  0.34461400  0.23003400  1
  O  O39  1  0.75000000  0.15538600  0.73003400  1
  O  O40  1  0.98738100  0.91633600  0.71551200  1
  O  O41  1  0.51261900  0.58366400  0.21551200  1
  O  O42  1  0.48738100  0.08366400  0.28448800  1
  O  O43  1  0.01261900  0.41633600  0.78448800  1
  O  O44  1  0.01261900  0.08366400  0.28448800  1
  O  O45  1  0.48738100  0.41633600  0.78448800  1
  O  O46  1  0.51261900  0.91633600  0.71551200  1
  O  O47  1  0.98738100  0.58366400  0.21551200  1
  O  O48  1  0.25000000  0.07786600  0.89629000  1
  O  O49  1  0.25000000  0.42213400  0.39629000  1
  O  O50  1  0.75000000  0.92213400  0.10371000  1
  O  O51  1  0.75000000  0.57786600  0.60371000  1
