# generated using pymatgen
data_AlH8N2O2F5
_symmetry_space_group_name_H-M   'P 1'
_cell_length_a   7.32269100
_cell_length_b   7.42730800
_cell_length_c   11.15802860
_cell_angle_alpha   90.00000000
_cell_angle_beta   92.59771059
_cell_angle_gamma   90.00000000
_symmetry_Int_Tables_number   1
_chemical_formula_structural   AlH8N2O2F5
_chemical_formula_sum   'Al4 H32 N8 O8 F20'
_cell_volume   606.23791424
_cell_formula_units_Z   4
loop_
 _symmetry_equiv_pos_site_id
 _symmetry_equiv_pos_as_xyz
  1  'x, y, z'
loop_
 _atom_site_type_symbol
 _atom_site_label
 _atom_site_symmetry_multiplicity
 _atom_site_fract_x
 _atom_site_fract_y
 _atom_site_fract_z
 _atom_site_occupancy
  Al  Al0  1  0.00000000  0.50000000  0.00000000  1
  Al  Al1  1  0.50000000  0.50000000  0.00000000  1
  Al  Al2  1  0.00000000  0.00000000  0.50000000  1
  Al  Al3  1  0.50000000  0.00000000  0.50000000  1
  H  H4  1  0.85376400  0.35144500  0.40181500  1
  H  H5  1  0.64623600  0.35144500  0.59818500  1
  H  H6  1  0.14623600  0.64855500  0.59818500  1
  H  H7  1  0.35376400  0.64855500  0.40181500  1
  H  H8  1  0.80763000  0.85305800  0.10206300  1
  H  H9  1  0.69237000  0.85305800  0.89793700  1
  H  H10  1  0.19237000  0.14694300  0.89793700  1
  H  H11  1  0.30763000  0.14694300  0.10206300  1
  H  H12  1  0.87694900  0.66069000  0.38163200  1
  H  H13  1  0.62305100  0.66069000  0.61836800  1
  H  H14  1  0.12305100  0.33931000  0.61836800  1
  H  H15  1  0.37694900  0.33931000  0.38163200  1
  H  H16  1  0.91297500  0.54528200  0.25049200  1
  H  H17  1  0.58702500  0.54528200  0.74950800  1
  H  H18  1  0.08702500  0.45471800  0.74950800  1
  H  H19  1  0.41297500  0.45471800  0.25049200  1
  H  H20  1  0.70853200  0.64143800  0.27075600  1
  H  H21  1  0.79146800  0.64143800  0.72924400  1
  H  H22  1  0.29146800  0.35856200  0.72924400  1
  H  H23  1  0.20853200  0.35856200  0.27075600  1
  H  H24  1  0.88331500  0.15190800  0.11724800  1
  H  H25  1  0.61668500  0.15190800  0.88275200  1
  H  H26  1  0.11668500  0.84809200  0.88275200  1
  H  H27  1  0.38331500  0.84809200  0.11724800  1
  H  H28  1  0.87709000  0.04658800  0.25407100  1
  H  H29  1  0.62291000  0.04658800  0.74592900  1
  H  H30  1  0.12291000  0.95341200  0.74592900  1
  H  H31  1  0.37709000  0.95341200  0.25407100  1
  H  H32  1  0.69679600  0.17752600  0.19821300  1
  H  H33  1  0.80320400  0.17752600  0.80178700  1
  H  H34  1  0.30320400  0.82247400  0.80178700  1
  H  H35  1  0.19679600  0.82247400  0.19821300  1
  N  N36  1  0.81882100  0.57865100  0.31481000  1
  N  N37  1  0.68117900  0.57865100  0.68519000  1
  N  N38  1  0.18117900  0.42134900  0.68519000  1
  N  N39  1  0.31882100  0.42134900  0.31481000  1
  N  N40  1  0.79877400  0.08977600  0.17666500  1
  N  N41  1  0.70122600  0.08977600  0.82333500  1
  N  N42  1  0.20122600  0.91022400  0.82333500  1
  N  N43  1  0.29877400  0.91022400  0.17666500  1
  O  O44  1  0.74588900  0.41801000  0.36161000  1
  O  O45  1  0.75411100  0.41801000  0.63839000  1
  O  O46  1  0.25411100  0.58199000  0.63839000  1
  O  O47  1  0.24588900  0.58199000  0.36161000  1
  O  O48  1  0.70769700  0.93755400  0.12628700  1
  O  O49  1  0.79230300  0.93755400  0.87371300  1
  O  O50  1  0.29230300  0.06244600  0.87371300  1
  O  O51  1  0.20769700  0.06244600  0.12628700  1
  F  F52  1  0.96839000  0.71825400  0.07107500  1
  F  F53  1  0.53161000  0.71825400  0.92892500  1
  F  F54  1  0.03161000  0.28174600  0.92892500  1
  F  F55  1  0.46839000  0.28174600  0.07107500  1
  F  F56  1  0.25000000  0.54552900  0.00000000  1
  F  F57  1  0.75000000  0.45447100  0.00000000  1
  F  F58  1  0.02183300  0.40130600  0.15000000  1
  F  F59  1  0.47816700  0.40130600  0.85000000  1
  F  F60  1  0.97816700  0.59869400  0.85000000  1
  F  F61  1  0.52183300  0.59869400  0.15000000  1
  F  F62  1  0.25000000  0.97771300  0.50000000  1
  F  F63  1  0.75000000  0.02228700  0.50000000  1
  F  F64  1  0.98087300  0.92356800  0.34583200  1
  F  F65  1  0.51912700  0.92356800  0.65416800  1
  F  F66  1  0.01912700  0.07643200  0.65416800  1
  F  F67  1  0.48087300  0.07643200  0.34583200  1
  F  F68  1  0.01573600  0.23611000  0.45202300  1
  F  F69  1  0.48426400  0.23611000  0.54797700  1
  F  F70  1  0.98426400  0.76389000  0.54797700  1
  F  F71  1  0.51573600  0.76389000  0.45202300  1
