# generated using pymatgen
data_Y2Ga3Fe14
_symmetry_space_group_name_H-M   'P 1'
_cell_length_a   8.56322578
_cell_length_b   8.56322578
_cell_length_c   8.23820500
_cell_angle_alpha   90.00000000
_cell_angle_beta   90.00000000
_cell_angle_gamma   119.99999830
_symmetry_Int_Tables_number   1
_chemical_formula_structural   Y2Ga3Fe14
_chemical_formula_sum   'Y4 Ga6 Fe28'
_cell_volume   523.16420720
_cell_formula_units_Z   2
loop_
 _symmetry_equiv_pos_site_id
 _symmetry_equiv_pos_as_xyz
  1  'x, y, z'
loop_
 _atom_site_type_symbol
 _atom_site_label
 _atom_site_symmetry_multiplicity
 _atom_site_fract_x
 _atom_site_fract_y
 _atom_site_fract_z
 _atom_site_occupancy
  Y  Y0  1  0.00000000  0.00000000  0.25000000  1
  Y  Y1  1  0.00000000  0.00000000  0.75000000  1
  Y  Y2  1  0.33333300  0.66666700  0.75000000  1
  Y  Y3  1  0.66666700  0.33333300  0.25000000  1
  Ga  Ga4  1  0.50000000  0.50000000  0.50000000  1
  Ga  Ga5  1  0.50000000  0.00000000  0.50000000  1
  Ga  Ga6  1  0.00000000  0.50000000  0.50000000  1
  Ga  Ga7  1  0.50000000  0.50000000  0.00000000  1
  Ga  Ga8  1  0.50000000  0.00000000  0.00000000  1
  Ga  Ga9  1  0.00000000  0.50000000  0.00000000  1
  Fe  Fe10  1  0.33333300  0.66666700  0.38844700  1
  Fe  Fe11  1  0.66666700  0.33333300  0.61155300  1
  Fe  Fe12  1  0.66666700  0.33333300  0.88844700  1
  Fe  Fe13  1  0.33333300  0.66666700  0.11155300  1
  Fe  Fe14  1  0.32193300  0.35150000  0.25000000  1
  Fe  Fe15  1  0.64850000  0.97043300  0.25000000  1
  Fe  Fe16  1  0.02956700  0.67806700  0.25000000  1
  Fe  Fe17  1  0.64850000  0.67806700  0.25000000  1
  Fe  Fe18  1  0.02956700  0.35150000  0.25000000  1
  Fe  Fe19  1  0.32193300  0.97043300  0.25000000  1
  Fe  Fe20  1  0.67806700  0.64850000  0.75000000  1
  Fe  Fe21  1  0.35150000  0.02956700  0.75000000  1
  Fe  Fe22  1  0.97043300  0.32193300  0.75000000  1
  Fe  Fe23  1  0.35150000  0.32193300  0.75000000  1
  Fe  Fe24  1  0.97043300  0.64850000  0.75000000  1
  Fe  Fe25  1  0.67806700  0.02956700  0.75000000  1
  Fe  Fe26  1  0.16552100  0.83447900  0.51350400  1
  Fe  Fe27  1  0.16552100  0.33104100  0.51350400  1
  Fe  Fe28  1  0.66895900  0.83447900  0.51350400  1
  Fe  Fe29  1  0.83447900  0.16552100  0.48649600  1
  Fe  Fe30  1  0.83447900  0.66895900  0.48649600  1
  Fe  Fe31  1  0.33104100  0.16552100  0.48649600  1
  Fe  Fe32  1  0.83447900  0.16552100  0.01350400  1
  Fe  Fe33  1  0.83447900  0.66895900  0.01350400  1
  Fe  Fe34  1  0.33104100  0.16552100  0.01350400  1
  Fe  Fe35  1  0.16552100  0.83447900  0.98649600  1
  Fe  Fe36  1  0.16552100  0.33104100  0.98649600  1
  Fe  Fe37  1  0.66895900  0.83447900  0.98649600  1
