# generated using pymatgen
data_AlH10C3N
_symmetry_space_group_name_H-M   'P 1'
_cell_length_a   7.60730955
_cell_length_b   7.60730955
_cell_length_c   10.92047470
_cell_angle_alpha   75.41885576
_cell_angle_beta   75.41885576
_cell_angle_gamma   96.54332081
_symmetry_Int_Tables_number   1
_chemical_formula_structural   AlH10C3N
_chemical_formula_sum   'Al4 H40 C12 N4'
_cell_volume   581.22038377
_cell_formula_units_Z   4
loop_
 _symmetry_equiv_pos_site_id
 _symmetry_equiv_pos_as_xyz
  1  'x, y, z'
loop_
 _atom_site_type_symbol
 _atom_site_label
 _atom_site_symmetry_multiplicity
 _atom_site_fract_x
 _atom_site_fract_y
 _atom_site_fract_z
 _atom_site_occupancy
  Al  Al0  1  0.01853500  0.91373200  0.13530800  1
  Al  Al1  1  0.08626800  0.98146500  0.36469200  1
  Al  Al2  1  0.98146500  0.08626800  0.86469200  1
  Al  Al3  1  0.91373200  0.01853500  0.63530800  1
  H  H4  1  0.84765600  0.95561900  0.07207500  1
  H  H5  1  0.04438100  0.15234400  0.42792500  1
  H  H6  1  0.15234400  0.04438100  0.92792500  1
  H  H7  1  0.95561900  0.84765600  0.57207500  1
  H  H8  1  0.12225200  0.74637700  0.11578800  1
  H  H9  1  0.25362300  0.87774800  0.38421200  1
  H  H10  1  0.87774800  0.25362300  0.88421200  1
  H  H11  1  0.74637700  0.12225200  0.61578800  1
  H  H12  1  0.64350900  0.85919600  0.47339900  1
  H  H13  1  0.14080400  0.35649100  0.02660100  1
  H  H14  1  0.35649100  0.14080400  0.52660100  1
  H  H15  1  0.85919600  0.64350900  0.97339900  1
  H  H16  1  0.60722600  0.85760700  0.31857700  1
  H  H17  1  0.14239300  0.39277400  0.18142300  1
  H  H18  1  0.39277400  0.14239300  0.68142300  1
  H  H19  1  0.85760700  0.60722600  0.81857700  1
  H  H20  1  0.73508700  0.05639900  0.33267100  1
  H  H21  1  0.94360100  0.26491300  0.16732900  1
  H  H22  1  0.26491300  0.94360100  0.66732900  1
  H  H23  1  0.05639900  0.73508700  0.83267100  1
  H  H24  1  0.98482700  0.58659300  0.37661100  1
  H  H25  1  0.41340700  0.01517300  0.12338900  1
  H  H26  1  0.01517300  0.41340700  0.62338900  1
  H  H27  1  0.58659300  0.98482700  0.87661100  1
  H  H28  1  0.79458900  0.60098600  0.50339100  1
  H  H29  1  0.39901400  0.20541100  0.99660900  1
  H  H30  1  0.20541100  0.39901400  0.49660900  1
  H  H31  1  0.60098600  0.79458900  0.00339100  1
  H  H32  1  0.77426800  0.53411000  0.23992400  1
  H  H33  1  0.46589000  0.22573200  0.26007600  1
  H  H34  1  0.22573200  0.46589000  0.76007600  1
  H  H35  1  0.53411000  0.77426800  0.73992400  1
  H  H36  1  0.58115500  0.55136300  0.36552300  1
  H  H37  1  0.44863700  0.41884500  0.13447700  1
  H  H38  1  0.41884500  0.44863700  0.63447700  1
  H  H39  1  0.55136300  0.58115500  0.86552300  1
  H  H40  1  0.70314700  0.36901400  0.39935400  1
  H  H41  1  0.63098600  0.29685300  0.10064600  1
  H  H42  1  0.29685300  0.63098600  0.60064600  1
  H  H43  1  0.36901400  0.70314700  0.89935400  1
  C  C44  1  0.70834300  0.90467300  0.36551100  1
  C  C45  1  0.09532700  0.29165700  0.13448900  1
  C  C46  1  0.29165700  0.09532700  0.63448900  1
  C  C47  1  0.90467300  0.70834300  0.86551100  1
  C  C48  1  0.85024900  0.63028400  0.39502400  1
  C  C49  1  0.36971600  0.14975100  0.10497600  1
  C  C50  1  0.14975100  0.36971600  0.60497600  1
  C  C51  1  0.63028400  0.85024900  0.89502400  1
  C  C52  1  0.71935900  0.51616800  0.34652200  1
  C  C53  1  0.48383200  0.28064100  0.15347800  1
  C  C54  1  0.28064100  0.48383200  0.65347800  1
  C  C55  1  0.51616800  0.71935900  0.84652200  1
  N  N56  1  0.16600700  0.11694700  0.16774000  1
  N  N57  1  0.88305300  0.83399300  0.33226000  1
  N  N58  1  0.83399300  0.88305300  0.83226000  1
  N  N59  1  0.11694700  0.16600700  0.66774000  1
