# generated using pymatgen
data_CsThMo2ClO8
_symmetry_space_group_name_H-M   'P 1'
_cell_length_a   10.19181900
_cell_length_b   9.81797800
_cell_length_c   10.34858454
_cell_angle_alpha   84.11077166
_cell_angle_beta   90.00000000
_cell_angle_gamma   90.00000000
_symmetry_Int_Tables_number   1
_chemical_formula_structural   CsThMo2ClO8
_chemical_formula_sum   'Cs4 Th4 Mo8 Cl4 O32'
_cell_volume   1030.04568316
_cell_formula_units_Z   4
loop_
 _symmetry_equiv_pos_site_id
 _symmetry_equiv_pos_as_xyz
  1  'x, y, z'
loop_
 _atom_site_type_symbol
 _atom_site_label
 _atom_site_symmetry_multiplicity
 _atom_site_fract_x
 _atom_site_fract_y
 _atom_site_fract_z
 _atom_site_occupancy
  Cs  Cs0  1  0.27628700  0.99430200  0.51742200  1
  Cs  Cs1  1  0.77628700  0.50569800  0.48257800  1
  Cs  Cs2  1  0.72371300  0.00569800  0.48257800  1
  Cs  Cs3  1  0.22371300  0.49430200  0.51742200  1
  Th  Th4  1  0.46553900  0.69625700  0.16851600  1
  Th  Th5  1  0.96553900  0.80374300  0.83148400  1
  Th  Th6  1  0.53446100  0.30374300  0.83148400  1
  Th  Th7  1  0.03446100  0.19625700  0.16851600  1
  Mo  Mo8  1  0.77729900  0.50449200  0.08242100  1
  Mo  Mo9  1  0.27729900  0.99550800  0.91757900  1
  Mo  Mo10  1  0.22270100  0.49550800  0.91757900  1
  Mo  Mo11  1  0.72270100  0.00449200  0.08242100  1
  Mo  Mo12  1  0.09091800  0.78956600  0.20694700  1
  Mo  Mo13  1  0.59091800  0.71043400  0.79305300  1
  Mo  Mo14  1  0.90908200  0.21043400  0.79305300  1
  Mo  Mo15  1  0.40908200  0.28956600  0.20694700  1
  Cl  Cl16  1  0.00484400  0.77212000  0.56411000  1
  Cl  Cl17  1  0.50484400  0.72788000  0.43589000  1
  Cl  Cl18  1  0.99515600  0.22788000  0.43589000  1
  Cl  Cl19  1  0.49515600  0.27212000  0.56411000  1
  O  O20  1  0.32976200  0.59513800  0.00726700  1
  O  O21  1  0.82976200  0.90486200  0.99273300  1
  O  O22  1  0.67023800  0.40486200  0.99273300  1
  O  O23  1  0.17023800  0.09513800  0.00726700  1
  O  O24  1  0.37008900  0.88380300  0.03277300  1
  O  O25  1  0.87008900  0.61619700  0.96722700  1
  O  O26  1  0.62991100  0.11619700  0.96722700  1
  O  O27  1  0.12991100  0.38380300  0.03277300  1
  O  O28  1  0.08538800  0.79814500  0.03212300  1
  O  O29  1  0.58538800  0.70185500  0.96787700  1
  O  O30  1  0.91461200  0.20185500  0.96787700  1
  O  O31  1  0.41461200  0.29814500  0.03212300  1
  O  O32  1  0.61249000  0.88996000  0.17496400  1
  O  O33  1  0.11249000  0.61004000  0.82503600  1
  O  O34  1  0.38751000  0.11004000  0.82503600  1
  O  O35  1  0.88751000  0.38996000  0.17496400  1
  O  O36  1  0.68051100  0.58786200  0.19811000  1
  O  O37  1  0.18051100  0.91213800  0.80189000  1
  O  O38  1  0.31948900  0.41213800  0.80189000  1
  O  O39  1  0.81948900  0.08786200  0.19811000  1
  O  O40  1  0.07109400  0.96253600  0.25381200  1
  O  O41  1  0.57109400  0.53746400  0.74618800  1
  O  O42  1  0.92890600  0.03746400  0.74618800  1
  O  O43  1  0.42890600  0.46253600  0.25381200  1
  O  O44  1  0.24967700  0.71937400  0.26188900  1
  O  O45  1  0.74967700  0.78062600  0.73811100  1
  O  O46  1  0.75032300  0.28062600  0.73811100  1
  O  O47  1  0.25032300  0.21937400  0.26188900  1
  O  O48  1  0.46639600  0.82029100  0.73116400  1
  O  O49  1  0.96639600  0.67970900  0.26883600  1
  O  O50  1  0.53360400  0.17970900  0.26883600  1
  O  O51  1  0.03360400  0.32029100  0.73116400  1
