# generated using pymatgen
data_Cs4GeTe6
_symmetry_space_group_name_H-M   'P 1'
_cell_length_a   14.36632600
_cell_length_b   8.09434400
_cell_length_c   18.30932950
_cell_angle_alpha   75.77026461
_cell_angle_beta   90.00000000
_cell_angle_gamma   90.00000000
_symmetry_Int_Tables_number   1
_chemical_formula_structural   Cs4GeTe6
_chemical_formula_sum   'Cs16 Ge4 Te24'
_cell_volume   2063.79260620
_cell_formula_units_Z   4
loop_
 _symmetry_equiv_pos_site_id
 _symmetry_equiv_pos_as_xyz
  1  'x, y, z'
loop_
 _atom_site_type_symbol
 _atom_site_label
 _atom_site_symmetry_multiplicity
 _atom_site_fract_x
 _atom_site_fract_y
 _atom_site_fract_z
 _atom_site_occupancy
  Cs  Cs0  1  0.05951600  0.84223800  0.20009900  1
  Cs  Cs1  1  0.44048400  0.84223800  0.70009900  1
  Cs  Cs2  1  0.94048400  0.15776200  0.79990100  1
  Cs  Cs3  1  0.55951600  0.15776200  0.29990100  1
  Cs  Cs4  1  0.39385800  0.30854200  0.49731000  1
  Cs  Cs5  1  0.10614200  0.30854200  0.99731000  1
  Cs  Cs6  1  0.60614200  0.69145800  0.50269000  1
  Cs  Cs7  1  0.89385800  0.69145800  0.00269000  1
  Cs  Cs8  1  0.09005900  0.08693800  0.39996200  1
  Cs  Cs9  1  0.40994100  0.08693800  0.89996200  1
  Cs  Cs10  1  0.90994100  0.91306200  0.60003800  1
  Cs  Cs11  1  0.59005900  0.91306200  0.10003800  1
  Cs  Cs12  1  0.32544400  0.52080000  0.12646200  1
  Cs  Cs13  1  0.17455600  0.52080000  0.62646200  1
  Cs  Cs14  1  0.67455600  0.47920000  0.87353800  1
  Cs  Cs15  1  0.82544400  0.47920000  0.37353800  1
  Ge  Ge16  1  0.35330900  0.75957400  0.34690100  1
  Ge  Ge17  1  0.14669100  0.75957400  0.84690100  1
  Ge  Ge18  1  0.64669100  0.24042600  0.65309900  1
  Ge  Ge19  1  0.85330900  0.24042600  0.15309900  1
  Te  Te20  1  0.00600700  0.35557400  0.19573800  1
  Te  Te21  1  0.49399300  0.35557400  0.69573800  1
  Te  Te22  1  0.99399300  0.64442600  0.80426200  1
  Te  Te23  1  0.50600700  0.64442600  0.30426200  1
  Te  Te24  1  0.34271400  0.84034900  0.47505000  1
  Te  Te25  1  0.15728600  0.84034900  0.97505000  1
  Te  Te26  1  0.65728600  0.15965100  0.52495000  1
  Te  Te27  1  0.84271400  0.15965100  0.02495000  1
  Te  Te28  1  0.29935300  0.05587600  0.25722200  1
  Te  Te29  1  0.20064700  0.05587600  0.75722200  1
  Te  Te30  1  0.70064700  0.94412400  0.74277800  1
  Te  Te31  1  0.79935300  0.94412400  0.24277800  1
  Te  Te32  1  0.22733400  0.52410000  0.33439100  1
  Te  Te33  1  0.27266600  0.52410000  0.83439100  1
  Te  Te34  1  0.77266600  0.47590000  0.66560900  1
  Te  Te35  1  0.72733400  0.47590000  0.16560900  1
  Te  Te36  1  0.29601200  0.00637400  0.11249300  1
  Te  Te37  1  0.20398800  0.00637400  0.61249300  1
  Te  Te38  1  0.70398800  0.99362600  0.88750700  1
  Te  Te39  1  0.79601200  0.99362600  0.38750700  1
  Te  Te40  1  0.07501100  0.57935500  0.42051200  1
  Te  Te41  1  0.42498900  0.57935500  0.92051200  1
  Te  Te42  1  0.92498900  0.42064500  0.57948800  1
  Te  Te43  1  0.57501100  0.42064500  0.07948800  1
