# generated using pymatgen
data_Mo3P2PbO14
_symmetry_space_group_name_H-M   'P 1'
_cell_length_a   6.52770500
_cell_length_b   8.57391632
_cell_length_c   10.84283071
_cell_angle_alpha   112.98154514
_cell_angle_beta   90.00000000
_cell_angle_gamma   90.00000000
_symmetry_Int_Tables_number   1
_chemical_formula_structural   Mo3P2PbO14
_chemical_formula_sum   'Mo6 P4 Pb2 O28'
_cell_volume   558.68610637
_cell_formula_units_Z   2
loop_
 _symmetry_equiv_pos_site_id
 _symmetry_equiv_pos_as_xyz
  1  'x, y, z'
loop_
 _atom_site_type_symbol
 _atom_site_label
 _atom_site_symmetry_multiplicity
 _atom_site_fract_x
 _atom_site_fract_y
 _atom_site_fract_z
 _atom_site_occupancy
  Mo  Mo0  1  0.75000000  0.75599200  0.98917300  1
  Mo  Mo1  1  0.25000000  0.24400800  0.01082700  1
  Mo  Mo2  1  0.75000000  0.74585100  0.66839300  1
  Mo  Mo3  1  0.25000000  0.25414900  0.33160700  1
  Mo  Mo4  1  0.75000000  0.16593600  0.62393400  1
  Mo  Mo5  1  0.25000000  0.83406400  0.37606600  1
  P  P6  1  0.75000000  0.15514400  0.93597100  1
  P  P7  1  0.25000000  0.84485600  0.06402900  1
  P  P8  1  0.25000000  0.87911800  0.69893000  1
  P  P9  1  0.75000000  0.12088200  0.30107000  1
  Pb  Pb10  1  0.25000000  0.50610500  0.73848400  1
  Pb  Pb11  1  0.75000000  0.49389500  0.26151600  1
  O  O12  1  0.75000000  0.60377200  0.05633300  1
  O  O13  1  0.25000000  0.39622800  0.94366700  1
  O  O14  1  0.75000000  0.96582000  0.16927500  1
  O  O15  1  0.25000000  0.03418000  0.83072500  1
  O  O16  1  0.06305200  0.77014300  0.97089200  1
  O  O17  1  0.56305200  0.22985700  0.02910800  1
  O  O18  1  0.93694800  0.22985700  0.02910800  1
  O  O19  1  0.43694800  0.77014300  0.97089200  1
  O  O20  1  0.75000000  0.63134300  0.79624700  1
  O  O21  1  0.25000000  0.36865700  0.20375300  1
  O  O22  1  0.75000000  0.95945800  0.88122500  1
  O  O23  1  0.25000000  0.04054200  0.11877500  1
  O  O24  1  0.75000000  0.57525200  0.51502100  1
  O  O25  1  0.25000000  0.42474800  0.48497900  1
  O  O26  1  0.75000000  0.94246300  0.61202000  1
  O  O27  1  0.25000000  0.05753700  0.38798000  1
  O  O28  1  0.06445500  0.76161300  0.69119200  1
  O  O29  1  0.56445500  0.23838700  0.30880800  1
  O  O30  1  0.93554500  0.23838700  0.30880800  1
  O  O31  1  0.43554500  0.76161300  0.69119200  1
  O  O32  1  0.52548200  0.28501300  0.63771800  1
  O  O33  1  0.02548200  0.71498700  0.36228200  1
  O  O34  1  0.47451800  0.71498700  0.36228200  1
  O  O35  1  0.97451800  0.28501300  0.63771800  1
  O  O36  1  0.75000000  0.22351700  0.82428000  1
  O  O37  1  0.25000000  0.77648300  0.17572000  1
  O  O38  1  0.75000000  0.06316000  0.41946600  1
  O  O39  1  0.25000000  0.93684000  0.58053400  1
