# generated using pymatgen
data_TmCO4
_symmetry_space_group_name_H-M   'P 1'
_cell_length_a   9.46397900
_cell_length_b   9.46397900
_cell_length_c   7.83295300
_cell_angle_alpha   90.00000000
_cell_angle_beta   90.00000000
_cell_angle_gamma   90.00000000
_symmetry_Int_Tables_number   1
_chemical_formula_structural   TmCO4
_chemical_formula_sum   'Tm8 C8 O32'
_cell_volume   701.57330640
_cell_formula_units_Z   8
loop_
 _symmetry_equiv_pos_site_id
 _symmetry_equiv_pos_as_xyz
  1  'x, y, z'
loop_
 _atom_site_type_symbol
 _atom_site_label
 _atom_site_symmetry_multiplicity
 _atom_site_fract_x
 _atom_site_fract_y
 _atom_site_fract_z
 _atom_site_occupancy
  Tm  Tm0  1  0.72960400  0.27039600  0.00000000  1
  Tm  Tm1  1  0.72960400  0.72960400  0.00000000  1
  Tm  Tm2  1  0.27039600  0.27039600  0.00000000  1
  Tm  Tm3  1  0.27039600  0.72960400  0.00000000  1
  Tm  Tm4  1  0.77039600  0.22960400  0.50000000  1
  Tm  Tm5  1  0.77039600  0.77039600  0.50000000  1
  Tm  Tm6  1  0.22960400  0.22960400  0.50000000  1
  Tm  Tm7  1  0.22960400  0.77039600  0.50000000  1
  C  C8  1  0.74910400  0.00000000  0.15780800  1
  C  C9  1  0.25089600  0.00000000  0.15780800  1
  C  C10  1  0.50000000  0.24910400  0.65780800  1
  C  C11  1  0.50000000  0.75089600  0.65780800  1
  C  C12  1  0.75089600  0.50000000  0.34219200  1
  C  C13  1  0.24910400  0.50000000  0.34219200  1
  C  C14  1  0.00000000  0.25089600  0.84219200  1
  C  C15  1  0.00000000  0.74910400  0.84219200  1
  O  O16  1  0.50000000  0.25758100  0.04230600  1
  O  O17  1  0.50000000  0.74241900  0.04230600  1
  O  O18  1  0.75758100  0.00000000  0.54230600  1
  O  O19  1  0.24241900  0.00000000  0.54230600  1
  O  O20  1  0.00000000  0.24241900  0.45769400  1
  O  O21  1  0.00000000  0.75758100  0.45769400  1
  O  O22  1  0.74241900  0.50000000  0.95769400  1
  O  O23  1  0.25758100  0.50000000  0.95769400  1
  O  O24  1  0.73786800  0.00000000  0.99382800  1
  O  O25  1  0.26213200  0.00000000  0.99382800  1
  O  O26  1  0.50000000  0.23786800  0.49382800  1
  O  O27  1  0.50000000  0.76213200  0.49382800  1
  O  O28  1  0.76213200  0.50000000  0.50617200  1
  O  O29  1  0.23786800  0.50000000  0.50617200  1
  O  O30  1  0.00000000  0.26213200  0.00617200  1
  O  O31  1  0.00000000  0.73786800  0.00617200  1
  O  O32  1  0.74494600  0.38028800  0.26335400  1
  O  O33  1  0.74494600  0.61971200  0.26335400  1
  O  O34  1  0.25505400  0.38028800  0.26335400  1
  O  O35  1  0.25505400  0.61971200  0.26335400  1
  O  O36  1  0.88028800  0.24494600  0.76335400  1
  O  O37  1  0.88028800  0.75505400  0.76335400  1
  O  O38  1  0.11971200  0.24494600  0.76335400  1
  O  O39  1  0.11971200  0.75505400  0.76335400  1
  O  O40  1  0.75505400  0.11971200  0.23664600  1
  O  O41  1  0.75505400  0.88028800  0.23664600  1
  O  O42  1  0.24494600  0.11971200  0.23664600  1
  O  O43  1  0.24494600  0.88028800  0.23664600  1
  O  O44  1  0.61971200  0.25505400  0.73664600  1
  O  O45  1  0.61971200  0.74494600  0.73664600  1
  O  O46  1  0.38028800  0.25505400  0.73664600  1
  O  O47  1  0.38028800  0.74494600  0.73664600  1
