# generated using pymatgen
data_Ca3Al2O12
_symmetry_space_group_name_H-M   'P 1'
_cell_length_a   11.24907937
_cell_length_b   11.24907937
_cell_length_c   11.24907937
_cell_angle_alpha   109.47122063
_cell_angle_beta   109.47122063
_cell_angle_gamma   109.47122063
_symmetry_Int_Tables_number   1
_chemical_formula_structural   Ca3Al2O12
_chemical_formula_sum   'Ca12 Al8 O48'
_cell_volume   1095.79433744
_cell_formula_units_Z   4
loop_
 _symmetry_equiv_pos_site_id
 _symmetry_equiv_pos_as_xyz
  1  'x, y, z'
loop_
 _atom_site_type_symbol
 _atom_site_label
 _atom_site_symmetry_multiplicity
 _atom_site_fract_x
 _atom_site_fract_y
 _atom_site_fract_z
 _atom_site_occupancy
  Ca  Ca0  1  0.63198300  0.25000000  0.88198300  1
  Ca  Ca1  1  0.86801700  0.75000000  0.61801700  1
  Ca  Ca2  1  0.38198300  0.75000000  0.13198300  1
  Ca  Ca3  1  0.11801700  0.25000000  0.36801700  1
  Ca  Ca4  1  0.25000000  0.88198300  0.63198300  1
  Ca  Ca5  1  0.75000000  0.61801700  0.86801700  1
  Ca  Ca6  1  0.75000000  0.13198300  0.38198300  1
  Ca  Ca7  1  0.25000000  0.36801700  0.11801700  1
  Ca  Ca8  1  0.88198300  0.63198300  0.25000000  1
  Ca  Ca9  1  0.61801700  0.86801700  0.75000000  1
  Ca  Ca10  1  0.13198300  0.38198300  0.75000000  1
  Ca  Ca11  1  0.36801700  0.11801700  0.25000000  1
  Al  Al12  1  0.50503800  0.50000000  0.00000000  1
  Al  Al13  1  0.50000000  0.00000000  0.50503800  1
  Al  Al14  1  0.00000000  0.50503800  0.50000000  1
  Al  Al15  1  0.99496200  0.99496200  0.99496200  1
  Al  Al16  1  0.50000000  0.00000000  0.00503800  1
  Al  Al17  1  0.00503800  0.50000000  0.00000000  1
  Al  Al18  1  0.00000000  0.00503800  0.50000000  1
  Al  Al19  1  0.49496200  0.49496200  0.49496200  1
  O  O20  1  0.57285500  0.93182000  0.38953800  1
  O  O21  1  0.45771800  0.56818000  0.14103500  1
  O  O22  1  0.04228200  0.18331700  0.11046200  1
  O  O23  1  0.92714500  0.31668300  0.35896500  1
  O  O24  1  0.88953800  0.43182000  0.07285500  1
  O  O25  1  0.64103500  0.06818000  0.95771800  1
  O  O26  1  0.61046200  0.68331700  0.54228200  1
  O  O27  1  0.85896500  0.81668300  0.42714500  1
  O  O28  1  0.93182000  0.38953800  0.57285500  1
  O  O29  1  0.56818000  0.14103500  0.45771800  1
  O  O30  1  0.18331700  0.11046200  0.04228200  1
  O  O31  1  0.31668300  0.35896500  0.92714500  1
  O  O32  1  0.43182000  0.07285500  0.88953800  1
  O  O33  1  0.06818000  0.95771800  0.64103500  1
  O  O34  1  0.68331700  0.54228200  0.61046200  1
  O  O35  1  0.81668300  0.42714500  0.85896500  1
  O  O36  1  0.38953800  0.57285500  0.93182000  1
  O  O37  1  0.14103500  0.45771800  0.56818000  1
  O  O38  1  0.11046200  0.04228200  0.18331700  1
  O  O39  1  0.35896500  0.92714500  0.31668300  1
  O  O40  1  0.07285500  0.88953800  0.43182000  1
  O  O41  1  0.95771800  0.64103500  0.06818000  1
  O  O42  1  0.54228200  0.61046200  0.68331700  1
  O  O43  1  0.42714500  0.85896500  0.81668300  1
  O  O44  1  0.62481300  0.43265600  0.07370700  1
  O  O45  1  0.64105100  0.06734400  0.69215700  1
  O  O46  1  0.85894900  0.55110700  0.42629300  1
  O  O47  1  0.87518700  0.94889300  0.80784300  1
  O  O48  1  0.57370700  0.93265600  0.12481300  1
  O  O49  1  0.19215700  0.56734400  0.14105100  1
  O  O50  1  0.92629300  0.05110700  0.35894900  1
  O  O51  1  0.30784300  0.44889300  0.37518700  1
  O  O52  1  0.43265600  0.07370700  0.62481300  1
  O  O53  1  0.06734400  0.69215700  0.64105100  1
  O  O54  1  0.55110700  0.42629300  0.85894900  1
  O  O55  1  0.94889300  0.80784300  0.87518700  1
  O  O56  1  0.93265600  0.12481300  0.57370700  1
  O  O57  1  0.56734400  0.14105100  0.19215700  1
  O  O58  1  0.05110700  0.35894900  0.92629300  1
  O  O59  1  0.44889300  0.37518700  0.30784300  1
  O  O60  1  0.07370700  0.62481300  0.43265600  1
  O  O61  1  0.69215700  0.64105100  0.06734400  1
  O  O62  1  0.42629300  0.85894900  0.55110700  1
  O  O63  1  0.80784300  0.87518700  0.94889300  1
  O  O64  1  0.12481300  0.57370700  0.93265600  1
  O  O65  1  0.14105100  0.19215700  0.56734400  1
  O  O66  1  0.35894900  0.92629300  0.05110700  1
  O  O67  1  0.37518700  0.30784300  0.44889300  1
