# generated using pymatgen
data_K2V3(PO5)4
_symmetry_space_group_name_H-M   'P 1'
_cell_length_a   6.27486200
_cell_length_b   11.23261801
_cell_length_c   12.85554420
_cell_angle_alpha   106.62234945
_cell_angle_beta   103.09919050
_cell_angle_gamma   95.97454928
_symmetry_Int_Tables_number   1
_chemical_formula_structural   K2V3(PO5)4
_chemical_formula_sum   'K4 V6 P8 O40'
_cell_volume   831.67518611
_cell_formula_units_Z   2
loop_
 _symmetry_equiv_pos_site_id
 _symmetry_equiv_pos_as_xyz
  1  'x, y, z'
loop_
 _atom_site_type_symbol
 _atom_site_label
 _atom_site_symmetry_multiplicity
 _atom_site_fract_x
 _atom_site_fract_y
 _atom_site_fract_z
 _atom_site_occupancy
  K  K0  1  0.43553400  0.22404900  0.57090100  1
  K  K1  1  0.56446600  0.77595100  0.42909900  1
  K  K2  1  0.19041600  0.09725800  0.22123500  1
  K  K3  1  0.80958400  0.90274200  0.77876500  1
  V  V4  1  0.38769600  0.16998200  0.84245500  1
  V  V5  1  0.61230400  0.83001800  0.15754500  1
  V  V6  1  0.66643500  0.38962500  0.37109600  1
  V  V7  1  0.33356500  0.61037500  0.62890400  1
  V  V8  1  0.03422100  0.38830500  0.09388300  1
  V  V9  1  0.96577900  0.61169500  0.90611700  1
  P  P10  1  0.17818600  0.44768500  0.36555000  1
  P  P11  1  0.82181400  0.55231500  0.63445000  1
  P  P12  1  0.88782700  0.23283700  0.83186100  1
  P  P13  1  0.11217300  0.76716300  0.16813900  1
  P  P14  1  0.52977200  0.34384600  0.10190700  1
  P  P15  1  0.47022800  0.65615400  0.89809300  1
  P  P16  1  0.77895700  0.08686600  0.40105900  1
  P  P17  1  0.22104300  0.91313400  0.59894100  1
  O  O18  1  0.35406700  0.35991100  0.37368500  1
  O  O19  1  0.64593300  0.64008900  0.62631500  1
  O  O20  1  0.96211400  0.36999500  0.36957000  1
  O  O21  1  0.03788600  0.63000500  0.63043000  1
  O  O22  1  0.68357500  0.53323500  0.37025200  1
  O  O23  1  0.31642500  0.46676500  0.62974800  1
  O  O24  1  0.62366500  0.17537300  0.36843300  1
  O  O25  1  0.37633500  0.82462700  0.63156700  1
  O  O26  1  0.56116200  0.30446500  0.21034800  1
  O  O27  1  0.43883800  0.69553500  0.78965200  1
  O  O28  1  0.74567300  0.42628200  0.53533800  1
  O  O29  1  0.25432700  0.57371800  0.46466200  1
  O  O30  1  0.07916500  0.15405200  0.84719600  1
  O  O31  1  0.92083500  0.84594800  0.15280400  1
  O  O32  1  0.68935000  0.14588400  0.84594200  1
  O  O33  1  0.31065000  0.85411600  0.15405800  1
  O  O34  1  0.40235400  0.30070300  0.81286400  1
  O  O35  1  0.59764600  0.69929700  0.18713600  1
  O  O36  1  0.30648300  0.97954100  0.84697000  1
  O  O37  1  0.69351700  0.02045900  0.15303000  1
  O  O38  1  0.29219200  0.04836300  0.69315700  1
  O  O39  1  0.70780800  0.95163700  0.30684300  1
  O  O40  1  0.47000600  0.21814400  0.00348600  1
  O  O41  1  0.52999400  0.78185600  0.99651400  1
  O  O42  1  0.95014900  0.36114300  0.93585600  1
  O  O43  1  0.04985100  0.63885700  0.06414400  1
  O  O44  1  0.14153700  0.47847100  0.25429600  1
  O  O45  1  0.85846300  0.52152900  0.74570400  1
  O  O46  1  0.74556400  0.42539900  0.10275900  1
  O  O47  1  0.25443600  0.57460100  0.89724100  1
  O  O48  1  0.00695600  0.24468700  0.09420500  1
  O  O49  1  0.99304400  0.75531300  0.90579500  1
  O  O50  1  0.34060700  0.42144000  0.09180900  1
  O  O51  1  0.65939300  0.57856000  0.90819100  1
  O  O52  1  0.84121700  0.26042100  0.72317100  1
  O  O53  1  0.15878300  0.73957900  0.27682900  1
  O  O54  1  0.74101700  0.05840400  0.50672200  1
  O  O55  1  0.25898300  0.94159600  0.49327800  1
  O  O56  1  0.02412900  0.13565800  0.41814300  1
  O  O57  1  0.97587100  0.86434200  0.58185700  1
