# generated using pymatgen
data_Dy2B3O8
_symmetry_space_group_name_H-M   'P 1'
_cell_length_a   4.38654200
_cell_length_b   8.94267300
_cell_length_c   12.93673900
_cell_angle_alpha   90.00000000
_cell_angle_beta   90.00000000
_cell_angle_gamma   90.00000000
_symmetry_Int_Tables_number   1
_chemical_formula_structural   Dy2B3O8
_chemical_formula_sum   'Dy8 B12 O32'
_cell_volume   507.47477396
_cell_formula_units_Z   4
loop_
 _symmetry_equiv_pos_site_id
 _symmetry_equiv_pos_as_xyz
  1  'x, y, z'
loop_
 _atom_site_type_symbol
 _atom_site_label
 _atom_site_symmetry_multiplicity
 _atom_site_fract_x
 _atom_site_fract_y
 _atom_site_fract_z
 _atom_site_occupancy
  Dy  Dy0  1  0.94933000  0.03868800  0.13919000  1
  Dy  Dy1  1  0.55067000  0.53868800  0.36081000  1
  Dy  Dy2  1  0.55067000  0.96131200  0.63919000  1
  Dy  Dy3  1  0.94933000  0.46131200  0.86081000  1
  Dy  Dy4  1  0.05067000  0.96131200  0.86081000  1
  Dy  Dy5  1  0.44933000  0.46131200  0.63919000  1
  Dy  Dy6  1  0.44933000  0.03868800  0.36081000  1
  Dy  Dy7  1  0.05067000  0.53868800  0.13919000  1
  B  B8  1  0.56484000  0.75000000  0.00000000  1
  B  B9  1  0.93516000  0.25000000  0.50000000  1
  B  B10  1  0.43516000  0.25000000  0.00000000  1
  B  B11  1  0.06484000  0.75000000  0.50000000  1
  B  B12  1  0.97811400  0.80279700  0.30695900  1
  B  B13  1  0.52188600  0.30279700  0.19304100  1
  B  B14  1  0.52188600  0.19720300  0.80695900  1
  B  B15  1  0.97811400  0.69720300  0.69304100  1
  B  B16  1  0.02188600  0.19720300  0.69304100  1
  B  B17  1  0.47811400  0.69720300  0.80695900  1
  B  B18  1  0.47811400  0.80279700  0.19304100  1
  B  B19  1  0.02188600  0.30279700  0.30695900  1
  O  O20  1  0.96260900  0.96461300  0.31149800  1
  O  O21  1  0.53739100  0.46461300  0.18850200  1
  O  O22  1  0.53739100  0.03538700  0.81149800  1
  O  O23  1  0.96260900  0.53538700  0.68850200  1
  O  O24  1  0.03739100  0.03538700  0.68850200  1
  O  O25  1  0.46260900  0.53538700  0.81149800  1
  O  O26  1  0.46260900  0.96461300  0.18850200  1
  O  O27  1  0.03739100  0.46461300  0.31149800  1
  O  O28  1  0.79282500  0.74608300  0.21674000  1
  O  O29  1  0.70717500  0.24608300  0.28326000  1
  O  O30  1  0.70717500  0.25391700  0.71674000  1
  O  O31  1  0.79282500  0.75391700  0.78326000  1
  O  O32  1  0.20717500  0.25391700  0.78326000  1
  O  O33  1  0.29282500  0.75391700  0.71674000  1
  O  O34  1  0.29282500  0.74608300  0.28326000  1
  O  O35  1  0.20717500  0.24608300  0.21674000  1
  O  O36  1  0.36635600  0.76031600  0.90636800  1
  O  O37  1  0.13364400  0.26031600  0.59363200  1
  O  O38  1  0.13364400  0.23968400  0.40636800  1
  O  O39  1  0.36635600  0.73968400  0.09363200  1
  O  O40  1  0.63364400  0.23968400  0.09363200  1
  O  O41  1  0.86635600  0.73968400  0.40636800  1
  O  O42  1  0.86635600  0.76031600  0.59363200  1
  O  O43  1  0.63364400  0.26031600  0.90636800  1
  O  O44  1  0.77919800  0.62252100  0.99530400  1
  O  O45  1  0.72080200  0.12252100  0.50469600  1
  O  O46  1  0.72080200  0.37747900  0.49530400  1
  O  O47  1  0.77919800  0.87747900  0.00469600  1
  O  O48  1  0.22080200  0.37747900  0.00469600  1
  O  O49  1  0.27919800  0.87747900  0.49530400  1
  O  O50  1  0.27919800  0.62252100  0.50469600  1
  O  O51  1  0.22080200  0.12252100  0.99530400  1
