# generated using pymatgen
data_FeH24C2S2(N3O7)2
_symmetry_space_group_name_H-M   'P 1'
_cell_length_a   7.75662800
_cell_length_b   10.11838300
_cell_length_c   12.07515791
_cell_angle_alpha   83.17147418
_cell_angle_beta   90.00000000
_cell_angle_gamma   90.00000000
_symmetry_Int_Tables_number   1
_chemical_formula_structural   FeH24C2S2(N3O7)2
_chemical_formula_sum   'Fe2 H48 C4 S4 N12 O28'
_cell_volume   940.99046408
_cell_formula_units_Z   2
loop_
 _symmetry_equiv_pos_site_id
 _symmetry_equiv_pos_as_xyz
  1  'x, y, z'
loop_
 _atom_site_type_symbol
 _atom_site_label
 _atom_site_symmetry_multiplicity
 _atom_site_fract_x
 _atom_site_fract_y
 _atom_site_fract_z
 _atom_site_occupancy
  Fe  Fe0  1  0.00000000  0.50000000  0.00000000  1
  Fe  Fe1  1  0.50000000  0.50000000  0.50000000  1
  H  H2  1  0.31401000  0.38907000  0.96266600  1
  H  H3  1  0.81401000  0.61093000  0.53733400  1
  H  H4  1  0.68599000  0.61093000  0.03733400  1
  H  H5  1  0.18599000  0.38907000  0.46266600  1
  H  H6  1  0.33568700  0.51205400  0.03655000  1
  H  H7  1  0.83568700  0.48794600  0.46345000  1
  H  H8  1  0.66431300  0.48794600  0.96345000  1
  H  H9  1  0.16431300  0.51205400  0.53655000  1
  H  H10  1  0.98895400  0.48613800  0.22980200  1
  H  H11  1  0.48895400  0.51386200  0.27019800  1
  H  H12  1  0.01104600  0.51386200  0.77019800  1
  H  H13  1  0.51104600  0.48613800  0.72980200  1
  H  H14  1  0.13244600  0.74535100  0.98399600  1
  H  H15  1  0.63244600  0.25464900  0.51600400  1
  H  H16  1  0.86755400  0.25464900  0.01600400  1
  H  H17  1  0.36755400  0.74535100  0.48399600  1
  H  H18  1  0.04657600  0.73518600  0.86561500  1
  H  H19  1  0.54657600  0.26481400  0.63438500  1
  H  H20  1  0.95342400  0.26481400  0.13438500  1
  H  H21  1  0.45342400  0.73518600  0.36561500  1
  H  H22  1  0.16196400  0.56022300  0.18100900  1
  H  H23  1  0.66196400  0.43977700  0.31899100  1
  H  H24  1  0.83803600  0.43977700  0.81899100  1
  H  H25  1  0.33803600  0.56022300  0.68100900  1
  H  H26  1  0.20969000  0.87656200  0.27650600  1
  H  H27  1  0.70969000  0.12343800  0.22349400  1
  H  H28  1  0.79031000  0.12343800  0.72349400  1
  H  H29  1  0.29031000  0.87656200  0.77650600  1
  H  H30  1  0.10861400  0.87156700  0.40613800  1
  H  H31  1  0.60861400  0.12843300  0.09386200  1
  H  H32  1  0.89138600  0.12843300  0.59386200  1
  H  H33  1  0.39138600  0.87156700  0.90613800  1
  H  H34  1  0.82369800  0.85360600  0.12484300  1
  H  H35  1  0.32369800  0.14639400  0.37515700  1
  H  H36  1  0.17630200  0.14639400  0.87515700  1
  H  H37  1  0.67630200  0.85360600  0.62484300  1
  H  H38  1  0.04567000  0.87913300  0.11573300  1
  H  H39  1  0.54567000  0.12086700  0.38426700  1
  H  H40  1  0.95433000  0.12086700  0.88426700  1
  H  H41  1  0.45433000  0.87913300  0.61573300  1
  H  H42  1  0.81157000  0.83590400  0.41741900  1
  H  H43  1  0.31157000  0.16409600  0.08258100  1
  H  H44  1  0.18843000  0.16409600  0.58258100  1
  H  H45  1  0.68843000  0.83590400  0.91741900  1
  H  H46  1  0.68483000  0.84525300  0.29560100  1
  H  H47  1  0.18483000  0.15474700  0.20439900  1
  H  H48  1  0.31517000  0.15474700  0.70439900  1
  H  H49  1  0.81517000  0.84525300  0.79560100  1
  C  C50  1  0.94515800  0.87079800  0.27188600  1
  C  C51  1  0.44515800  0.12920200  0.22811400  1
  C  C52  1  0.05484200  0.12920200  0.72811400  1
  C  C53  1  0.55484200  0.87079800  0.77188600  1
  S  S54  1  0.56445500  0.24523800  0.87224000  1
  S  S55  1  0.06445500  0.75476200  0.62776000  1
  S  S56  1  0.43554500  0.75476200  0.12776000  1
  S  S57  1  0.93554500  0.24523800  0.37224000  1
  N  N58  1  0.09791100  0.87720600  0.32136000  1
  N  N59  1  0.59791100  0.12279400  0.17864000  1
  N  N60  1  0.90208900  0.12279400  0.67864000  1
  N  N61  1  0.40208900  0.87720600  0.82136000  1
  N  N62  1  0.93444700  0.88414000  0.15969100  1
  N  N63  1  0.43444700  0.11586000  0.34030900  1
  N  N64  1  0.06555300  0.11586000  0.84030900  1
  N  N65  1  0.56555300  0.88414000  0.65969100  1
  N  N66  1  0.80149100  0.85645100  0.33290000  1
  N  N67  1  0.30149100  0.14354900  0.16710000  1
  N  N68  1  0.19850900  0.14354900  0.66710000  1
  N  N69  1  0.69850900  0.85645100  0.83290000  1
  O  O70  1  0.26765800  0.47666000  0.97760200  1
  O  O71  1  0.76765800  0.52334000  0.52239800  1
  O  O72  1  0.73234200  0.52334000  0.02239800  1
  O  O73  1  0.23234200  0.47666000  0.47760200  1
  O  O74  1  0.04076300  0.54047000  0.16425200  1
  O  O75  1  0.54076300  0.45953000  0.33574800  1
  O  O76  1  0.95923700  0.45953000  0.83574800  1
  O  O77  1  0.45923700  0.54047000  0.66425200  1
  O  O78  1  0.03271400  0.70830600  0.94719600  1
  O  O79  1  0.53271400  0.29169400  0.55280400  1
  O  O80  1  0.96728600  0.29169400  0.05280400  1
  O  O81  1  0.46728600  0.70830600  0.44719600  1
  O  O82  1  0.39550800  0.23321800  0.93233200  1
  O  O83  1  0.89550800  0.76678200  0.56766800  1
  O  O84  1  0.60449200  0.76678200  0.06766800  1
  O  O85  1  0.10449200  0.23321800  0.43233200  1
  O  O86  1  0.54985600  0.18609800  0.76529400  1
  O  O87  1  0.04985600  0.81390200  0.73470600  1
  O  O88  1  0.45014400  0.81390200  0.23470600  1
  O  O89  1  0.95014400  0.18609800  0.26529400  1
  O  O90  1  0.70169300  0.17446400  0.94286700  1
  O  O91  1  0.20169300  0.82553600  0.55713300  1
  O  O92  1  0.29830700  0.82553600  0.05713300  1
  O  O93  1  0.79830700  0.17446400  0.44286700  1
  O  O94  1  0.61064900  0.39067600  0.84710600  1
  O  O95  1  0.11064900  0.60932400  0.65289400  1
  O  O96  1  0.38935100  0.60932400  0.15289400  1
  O  O97  1  0.88935100  0.39067600  0.34710600  1
