# generated using pymatgen
data_H8AuC2S2N4Cl
_symmetry_space_group_name_H-M   'P 1'
_cell_length_a   9.21147836
_cell_length_b   9.21147836
_cell_length_c   7.62398441
_cell_angle_alpha   80.35375167
_cell_angle_beta   80.35375167
_cell_angle_gamma   120.58256719
_symmetry_Int_Tables_number   1
_chemical_formula_structural   H8AuC2S2N4Cl
_chemical_formula_sum   'H16 Au2 C4 S4 N8 Cl2'
_cell_volume   524.11971377
_cell_formula_units_Z   2
loop_
 _symmetry_equiv_pos_site_id
 _symmetry_equiv_pos_as_xyz
  1  'x, y, z'
loop_
 _atom_site_type_symbol
 _atom_site_label
 _atom_site_symmetry_multiplicity
 _atom_site_fract_x
 _atom_site_fract_y
 _atom_site_fract_z
 _atom_site_occupancy
  H  H0  1  0.67682800  0.52231000  0.95306700  1
  H  H1  1  0.47769000  0.32317200  0.54693300  1
  H  H2  1  0.32317200  0.47769000  0.04693300  1
  H  H3  1  0.52231000  0.67682800  0.45306700  1
  H  H4  1  0.70795700  0.68531300  0.76426000  1
  H  H5  1  0.31468700  0.29204300  0.73574000  1
  H  H6  1  0.29204300  0.31468700  0.23574000  1
  H  H7  1  0.68531300  0.70795700  0.26426000  1
  H  H8  1  0.83955900  0.40122000  0.92573300  1
  H  H9  1  0.59878000  0.16044100  0.57426700  1
  H  H10  1  0.16044100  0.59878000  0.07426700  1
  H  H11  1  0.40122000  0.83955900  0.42573300  1
  H  H12  1  0.04139800  0.51676300  0.74834800  1
  H  H13  1  0.48323700  0.95860200  0.75165200  1
  H  H14  1  0.95860200  0.48323700  0.25165200  1
  H  H15  1  0.51676300  0.04139800  0.24834800  1
  Au  Au16  1  0.00000000  0.00000000  0.50000000  1
  Au  Au17  1  0.00000000  0.00000000  0.00000000  1
  C  C18  1  0.88872100  0.61535800  0.72888500  1
  C  C19  1  0.38464200  0.11127900  0.77111500  1
  C  C20  1  0.11127900  0.38464200  0.27111500  1
  C  C21  1  0.61535800  0.88872100  0.22888500  1
  S  S22  1  0.03527600  0.76850100  0.51674100  1
  S  S23  1  0.23149900  0.96472400  0.98325900  1
  S  S24  1  0.96472400  0.23149900  0.48325900  1
  S  S25  1  0.76850100  0.03527600  0.01674100  1
  N  N26  1  0.74523500  0.60568500  0.81922800  1
  N  N27  1  0.39431500  0.25476500  0.68077200  1
  N  N28  1  0.25476500  0.39431500  0.18077200  1
  N  N29  1  0.60568500  0.74523500  0.31922800  1
  N  N30  1  0.92153400  0.49678000  0.80169800  1
  N  N31  1  0.50322000  0.07846600  0.69830200  1
  N  N32  1  0.07846600  0.50322000  0.19830200  1
  N  N33  1  0.49678000  0.92153400  0.30169800  1
  Cl  Cl34  1  0.37196400  0.62803600  0.75000000  1
  Cl  Cl35  1  0.62803600  0.37196400  0.25000000  1
