# generated using pymatgen
data_Ba3V2(SeO4)4
_symmetry_space_group_name_H-M   'P 1'
_cell_length_a   15.68952200
_cell_length_b   9.13866200
_cell_length_c   14.58938887
_cell_angle_alpha   53.63259537
_cell_angle_beta   90.00000000
_cell_angle_gamma   90.00000000
_symmetry_Int_Tables_number   1
_chemical_formula_structural   Ba3V2(SeO4)4
_chemical_formula_sum   'Ba12 V8 Se16 O64'
_cell_volume   1684.41870184
_cell_formula_units_Z   4
loop_
 _symmetry_equiv_pos_site_id
 _symmetry_equiv_pos_as_xyz
  1  'x, y, z'
loop_
 _atom_site_type_symbol
 _atom_site_label
 _atom_site_symmetry_multiplicity
 _atom_site_fract_x
 _atom_site_fract_y
 _atom_site_fract_z
 _atom_site_occupancy
  Ba  Ba0  1  0.67538300  0.66677500  0.58381500  1
  Ba  Ba1  1  0.82461700  0.66677500  0.08381500  1
  Ba  Ba2  1  0.32461700  0.33322500  0.41618500  1
  Ba  Ba3  1  0.17538300  0.33322500  0.91618500  1
  Ba  Ba4  1  0.69237300  0.11498000  0.14501100  1
  Ba  Ba5  1  0.80762700  0.11498000  0.64501100  1
  Ba  Ba6  1  0.30762700  0.88502000  0.85498900  1
  Ba  Ba7  1  0.19237300  0.88502000  0.35498900  1
  Ba  Ba8  1  0.91010400  0.00894300  0.39278900  1
  Ba  Ba9  1  0.58989600  0.00894300  0.89278900  1
  Ba  Ba10  1  0.08989600  0.99105700  0.60721100  1
  Ba  Ba11  1  0.41010400  0.99105700  0.10721100  1
  V  V12  1  0.79096000  0.61890400  0.38268600  1
  V  V13  1  0.70904000  0.61890400  0.88268600  1
  V  V14  1  0.20904000  0.38109600  0.61731400  1
  V  V15  1  0.29096000  0.38109600  0.11731400  1
  V  V16  1  0.50765500  0.03784000  0.34445900  1
  V  V17  1  0.99234500  0.03784000  0.84445900  1
  V  V18  1  0.49234500  0.96216000  0.65554100  1
  V  V19  1  0.00765500  0.96216000  0.15554100  1
  Se  Se20  1  0.62014100  0.66969600  0.22049300  1
  Se  Se21  1  0.87985900  0.66969600  0.72049300  1
  Se  Se22  1  0.37985900  0.33030400  0.77950700  1
  Se  Se23  1  0.12014100  0.33030400  0.27950700  1
  Se  Se24  1  0.95458300  0.46698000  0.39113000  1
  Se  Se25  1  0.54541700  0.46698000  0.89113000  1
  Se  Se26  1  0.04541700  0.53302000  0.60887000  1
  Se  Se27  1  0.45458300  0.53302000  0.10887000  1
  Se  Se28  1  0.43809700  0.67991800  0.44458600  1
  Se  Se29  1  0.06190300  0.67991800  0.94458600  1
  Se  Se30  1  0.56190300  0.32008200  0.55541400  1
  Se  Se31  1  0.93809700  0.32008200  0.05541400  1
  Se  Se32  1  0.69415500  0.20076800  0.36724400  1
  Se  Se33  1  0.80584500  0.20076800  0.86724400  1
  Se  Se34  1  0.30584500  0.79923200  0.63275600  1
  Se  Se35  1  0.19415500  0.79923200  0.13275600  1
  O  O36  1  0.72556400  0.72265600  0.24593100  1
  O  O37  1  0.77443600  0.72265600  0.74593100  1
  O  O38  1  0.27443600  0.27734400  0.75406900  1
  O  O39  1  0.22556400  0.27734400  0.25406900  1
  O  O40  1  0.57862300  0.88300400  0.14763500  1
  O  O41  1  0.92137700  0.88300400  0.64763500  1
  O  O42  1  0.42137700  0.11699600  0.85236500  1
  O  O43  1  0.07862300  0.11699600  0.35236500  1
  O  O44  1  0.64668500  0.65220300  0.11538100  1
  O  O45  1  0.85331500  0.65220300  0.61538100  1
  O  O46  1  0.35331500  0.34779700  0.88461900  1
  O  O47  1  0.14668500  0.34779700  0.38461900  1
  O  O48  1  0.89561000  0.50330000  0.47967400  1
  O  O49  1  0.60439000  0.50330000  0.97967400  1
  O  O50  1  0.10439000  0.49670000  0.52032600  1
  O  O51  1  0.39561000  0.49670000  0.02032600  1
  O  O52  1  0.86197100  0.54128700  0.30348700  1
  O  O53  1  0.63802900  0.54128700  0.80348700  1
  O  O54  1  0.13802900  0.45871300  0.69651300  1
  O  O55  1  0.36197100  0.45871300  0.19651300  1
  O  O56  1  0.94749000  0.23921100  0.46402000  1
  O  O57  1  0.55251000  0.23921100  0.96402000  1
  O  O58  1  0.05251000  0.76078900  0.53598000  1
  O  O59  1  0.44749000  0.76078900  0.03598000  1
  O  O60  1  0.78980900  0.80796700  0.37837500  1
  O  O61  1  0.71019100  0.80796700  0.87837500  1
  O  O62  1  0.21019100  0.19203300  0.62162500  1
  O  O63  1  0.28980900  0.19203300  0.12162500  1
  O  O64  1  0.72398700  0.46568400  0.48538500  1
  O  O65  1  0.77601300  0.46568400  0.98538500  1
  O  O66  1  0.27601300  0.53431600  0.51461500  1
  O  O67  1  0.22398700  0.53431600  0.01461500  1
  O  O68  1  0.39593300  0.90288300  0.37207500  1
  O  O69  1  0.10406700  0.90288300  0.87207500  1
  O  O70  1  0.60406700  0.09711700  0.62792500  1
  O  O71  1  0.89593300  0.09711700  0.12792500  1
  O  O72  1  0.54168200  0.77083500  0.42559100  1
  O  O73  1  0.95831800  0.77083500  0.92559100  1
  O  O74  1  0.45831800  0.22916500  0.57440900  1
  O  O75  1  0.04168200  0.22916500  0.07440900  1
  O  O76  1  0.43162500  0.63719700  0.34707900  1
  O  O77  1  0.06837500  0.63719700  0.84707900  1
  O  O78  1  0.56837500  0.36280300  0.65292100  1
  O  O79  1  0.93162500  0.36280300  0.15292100  1
  O  O80  1  0.63017100  0.03633400  0.36777600  1
  O  O81  1  0.86982900  0.03633400  0.86777600  1
  O  O82  1  0.36982900  0.96366600  0.63222400  1
  O  O83  1  0.13017100  0.96366600  0.13222400  1
  O  O84  1  0.75488800  0.05447500  0.48435200  1
  O  O85  1  0.74511200  0.05447500  0.98435200  1
  O  O86  1  0.24511200  0.94552500  0.51564800  1
  O  O87  1  0.25488800  0.94552500  0.01564800  1
  O  O88  1  0.76023600  0.25883900  0.25787400  1
  O  O89  1  0.73976400  0.25883900  0.75787400  1
  O  O90  1  0.23976400  0.74116100  0.74212600  1
  O  O91  1  0.26023600  0.74116100  0.24212600  1
  O  O92  1  0.50732100  0.15397900  0.20215800  1
  O  O93  1  0.99267900  0.15397900  0.70215800  1
  O  O94  1  0.49267900  0.84602100  0.79784200  1
  O  O95  1  0.00732100  0.84602100  0.29784200  1
  O  O96  1  0.47408300  0.17166300  0.37971700  1
  O  O97  1  0.02591700  0.17166300  0.87971700  1
  O  O98  1  0.52591700  0.82833700  0.62028300  1
  O  O99  1  0.97408300  0.82833700  0.12028300  1
