# generated using pymatgen
data_RhWN5ClO4
_symmetry_space_group_name_H-M   'P 1'
_cell_length_a   5.56758600
_cell_length_b   9.87739300
_cell_length_c   17.11411600
_cell_angle_alpha   90.00000000
_cell_angle_beta   90.00000000
_cell_angle_gamma   90.00000000
_symmetry_Int_Tables_number   1
_chemical_formula_structural   RhWN5ClO4
_chemical_formula_sum   'Rh4 W4 N20 Cl4 O16'
_cell_volume   941.16060272
_cell_formula_units_Z   4
loop_
 _symmetry_equiv_pos_site_id
 _symmetry_equiv_pos_as_xyz
  1  'x, y, z'
loop_
 _atom_site_type_symbol
 _atom_site_label
 _atom_site_symmetry_multiplicity
 _atom_site_fract_x
 _atom_site_fract_y
 _atom_site_fract_z
 _atom_site_occupancy
  Rh  Rh0  1  0.75000000  0.37525000  0.82706700  1
  Rh  Rh1  1  0.75000000  0.12475000  0.32706700  1
  Rh  Rh2  1  0.25000000  0.62475000  0.17293300  1
  Rh  Rh3  1  0.25000000  0.87525000  0.67293300  1
  W  W4  1  0.25000000  0.43293700  0.57863200  1
  W  W5  1  0.25000000  0.06706300  0.07863200  1
  W  W6  1  0.75000000  0.56706300  0.42136800  1
  W  W7  1  0.75000000  0.93293700  0.92136800  1
  N  N8  1  0.50964900  0.51139600  0.87836000  1
  N  N9  1  0.99035100  0.98860400  0.37836000  1
  N  N10  1  0.00964900  0.48860400  0.12164000  1
  N  N11  1  0.49035100  0.01139600  0.62164000  1
  N  N12  1  0.49035100  0.48860400  0.12164000  1
  N  N13  1  0.00964900  0.01139600  0.62164000  1
  N  N14  1  0.99035100  0.51139600  0.87836000  1
  N  N15  1  0.50964900  0.98860400  0.37836000  1
  N  N16  1  0.75000000  0.39309100  0.72900500  1
  N  N17  1  0.75000000  0.10690900  0.22900500  1
  N  N18  1  0.25000000  0.60690900  0.27099500  1
  N  N19  1  0.25000000  0.89309100  0.77099500  1
  N  N20  1  0.55648100  0.22373500  0.86306600  1
  N  N21  1  0.94351900  0.27626500  0.36306600  1
  N  N22  1  0.05648100  0.77626500  0.13693400  1
  N  N23  1  0.44351900  0.72373500  0.63693400  1
  N  N24  1  0.44351900  0.77626500  0.13693400  1
  N  N25  1  0.05648100  0.72373500  0.63693400  1
  N  N26  1  0.94351900  0.22373500  0.86306600  1
  N  N27  1  0.55648100  0.27626500  0.36306600  1
  Cl  Cl28  1  0.75000000  0.44627700  0.10683800  1
  Cl  Cl29  1  0.75000000  0.05372300  0.60683800  1
  Cl  Cl30  1  0.25000000  0.55372300  0.89316200  1
  Cl  Cl31  1  0.25000000  0.94627700  0.39316200  1
  O  O32  1  0.00178100  0.33771000  0.61106900  1
  O  O33  1  0.49821900  0.16229000  0.11106900  1
  O  O34  1  0.50178100  0.66229000  0.38893100  1
  O  O35  1  0.99821900  0.83771000  0.88893100  1
  O  O36  1  0.99821900  0.66229000  0.38893100  1
  O  O37  1  0.50178100  0.83771000  0.88893100  1
  O  O38  1  0.49821900  0.33771000  0.61106900  1
  O  O39  1  0.00178100  0.16229000  0.11106900  1
  O  O40  1  0.25000000  0.62028800  0.64565000  1
  O  O41  1  0.25000000  0.87971200  0.14565000  1
  O  O42  1  0.75000000  0.37971200  0.35435000  1
  O  O43  1  0.75000000  0.12028800  0.85435000  1
  O  O44  1  0.25000000  0.43043700  0.47460900  1
  O  O45  1  0.25000000  0.06956300  0.97460900  1
  O  O46  1  0.75000000  0.56956300  0.52539100  1
  O  O47  1  0.75000000  0.93043700  0.02539100  1
