# generated using pymatgen
data_MgH18I2O9
_symmetry_space_group_name_H-M   'P 1'
_cell_length_a   6.76562900
_cell_length_b   14.79935400
_cell_length_c   16.71669069
_cell_angle_alpha   57.56732324
_cell_angle_beta   90.00000000
_cell_angle_gamma   90.00000000
_symmetry_Int_Tables_number   1
_chemical_formula_structural   MgH18I2O9
_chemical_formula_sum   'Mg4 H72 I8 O36'
_cell_volume   1412.71680951
_cell_formula_units_Z   4
loop_
 _symmetry_equiv_pos_site_id
 _symmetry_equiv_pos_as_xyz
  1  'x, y, z'
loop_
 _atom_site_type_symbol
 _atom_site_label
 _atom_site_symmetry_multiplicity
 _atom_site_fract_x
 _atom_site_fract_y
 _atom_site_fract_z
 _atom_site_occupancy
  Mg  Mg0  1  0.23685900  0.25062600  0.62500300  1
  Mg  Mg1  1  0.73685900  0.74937400  0.87499700  1
  Mg  Mg2  1  0.76314100  0.74937400  0.37499700  1
  Mg  Mg3  1  0.26314100  0.25062600  0.12500300  1
  H  H4  1  0.23720300  0.45809100  0.57406300  1
  H  H5  1  0.73720300  0.54190900  0.92593700  1
  H  H6  1  0.76279700  0.54190900  0.42593700  1
  H  H7  1  0.26279700  0.45809100  0.07406300  1
  H  H8  1  0.24788900  0.04329300  0.67658400  1
  H  H9  1  0.74788900  0.95670700  0.82341600  1
  H  H10  1  0.75211100  0.95670700  0.32341600  1
  H  H11  1  0.25211100  0.04329300  0.17658400  1
  H  H12  1  0.88526200  0.17760800  0.59207300  1
  H  H13  1  0.38526200  0.82239200  0.90792700  1
  H  H14  1  0.11473800  0.82239200  0.40792700  1
  H  H15  1  0.61473800  0.17760800  0.09207300  1
  H  H16  1  0.23635400  0.03104500  0.77681700  1
  H  H17  1  0.73635400  0.96895500  0.72318300  1
  H  H18  1  0.76364600  0.96895500  0.22318300  1
  H  H19  1  0.26364600  0.03104500  0.27681700  1
  H  H20  1  0.23147300  0.47013200  0.47379200  1
  H  H21  1  0.73147300  0.52986800  0.02620800  1
  H  H22  1  0.76852700  0.52986800  0.52620800  1
  H  H23  1  0.26852700  0.47013200  0.97379200  1
  H  H24  1  0.59216600  0.32431800  0.65562300  1
  H  H25  1  0.09216600  0.67568200  0.84437700  1
  H  H26  1  0.40783400  0.67568200  0.34437700  1
  H  H27  1  0.90783400  0.32431800  0.15562300  1
  H  H28  1  0.19456400  0.26600100  0.78179500  1
  H  H29  1  0.69456400  0.73399900  0.71820500  1
  H  H30  1  0.80543600  0.73399900  0.21820500  1
  H  H31  1  0.30543600  0.26600100  0.28179500  1
  H  H32  1  0.47594500  0.29534000  0.47601600  1
  H  H33  1  0.97594500  0.70466000  0.02398400  1
  H  H34  1  0.52405500  0.70466000  0.52398400  1
  H  H35  1  0.02405500  0.29534000  0.97601600  1
  H  H36  1  0.89892600  0.30270000  0.52041100  1
  H  H37  1  0.39892600  0.69730000  0.97958900  1
  H  H38  1  0.10107400  0.69730000  0.47958900  1
  H  H39  1  0.60107400  0.30270000  0.02041100  1
  H  H40  1  0.57453600  0.19962700  0.72895000  1
  H  H41  1  0.07453600  0.80037300  0.77105000  1
  H  H42  1  0.42546400  0.80037300  0.27105000  1
  H  H43  1  0.92546400  0.19962700  0.22895000  1
  H  H44  1  0.00510200  0.20423500  0.77945500  1
  H  H45  1  0.50510200  0.79576500  0.72054500  1
  H  H46  1  0.99489800  0.79576500  0.22054500  1
  H  H47  1  0.49489800  0.20423500  0.27945500  1
  H  H48  1  0.28606900  0.23948100  0.46660700  1
  H  H49  1  0.78606900  0.76051900  0.03339300  1
  H  H50  1  0.71393100  0.76051900  0.53339300  1
  H  H51  1  0.21393100  0.23948100  0.96660700  1
  H  H52  1  0.27980600  0.55552400  0.31092400  1
  H  H53  1  0.77980600  0.44447600  0.18907600  1
  H  H54  1  0.72019400  0.44447600  0.68907600  1
  H  H55  1  0.22019400  0.55552400  0.81092400  1
  H  H56  1  0.04977500  0.19893500  0.38565100  1
  H  H57  1  0.54977500  0.80106500  0.11434900  1
  H  H58  1  0.95022500  0.80106500  0.61434900  1
  H  H59  1  0.45022500  0.19893500  0.88565100  1
  H  H60  1  0.76940000  0.05484400  0.55862100  1
  H  H61  1  0.26940000  0.94515600  0.94137900  1
  H  H62  1  0.23060000  0.94515600  0.44137900  1
  H  H63  1  0.73060000  0.05484400  0.05862100  1
  H  H64  1  0.59915200  0.10831500  0.58250400  1
  H  H65  1  0.09915200  0.89168500  0.91749600  1
  H  H66  1  0.40084800  0.89168500  0.41749600  1
  H  H67  1  0.90084800  0.10831500  0.08250400  1
  H  H68  1  0.05781900  0.31992700  0.35113100  1
  H  H69  1  0.55781900  0.68007300  0.14886900  1
  H  H70  1  0.94218100  0.68007300  0.64886900  1
  H  H71  1  0.44218100  0.31992700  0.85113100  1
  H  H72  1  0.11513200  0.61398600  0.33230900  1
  H  H73  1  0.61513200  0.38601400  0.16769100  1
  H  H74  1  0.88486800  0.38601400  0.66769100  1
  H  H75  1  0.38486800  0.61398600  0.83230900  1
  I  I76  1  0.73405200  0.42580700  0.36108700  1
  I  I77  1  0.23405200  0.57419300  0.13891300  1
  I  I78  1  0.26594800  0.57419300  0.63891300  1
  I  I79  1  0.76594800  0.42580700  0.86108700  1
  I  I80  1  0.73453400  0.07602900  0.88803300  1
  I  I81  1  0.23453400  0.92397100  0.61196700  1
  I  I82  1  0.26546600  0.92397100  0.11196700  1
  I  I83  1  0.76546600  0.07602900  0.38803300  1
  O  O84  1  0.51448800  0.25990600  0.67071100  1
  O  O85  1  0.01448800  0.74009400  0.82928900  1
  O  O86  1  0.48551200  0.74009400  0.32928900  1
  O  O87  1  0.98551200  0.25990600  0.17071100  1
  O  O88  1  0.10391500  0.25948600  0.73817800  1
  O  O89  1  0.60391500  0.74051400  0.76182200  1
  O  O90  1  0.89608500  0.74051400  0.26182200  1
  O  O91  1  0.39608500  0.25948600  0.23817800  1
  O  O92  1  0.37304300  0.24115800  0.51397900  1
  O  O93  1  0.87304300  0.75884200  0.98602100  1
  O  O94  1  0.62695700  0.75884200  0.48602100  1
  O  O95  1  0.12695700  0.24115800  0.01397900  1
  O  O96  1  0.22503000  0.41677800  0.54344600  1
  O  O97  1  0.72503000  0.58322200  0.95655400  1
  O  O98  1  0.77497000  0.58322200  0.45655400  1
  O  O99  1  0.27497000  0.41677800  0.04344600  1
  O  O100  1  0.73047200  0.07472000  0.60410400  1
  O  O101  1  0.23047200  0.92528000  0.89589600  1
  O  O102  1  0.26952800  0.92528000  0.39589600  1
  O  O103  1  0.76952800  0.07472000  0.10410400  1
  O  O104  1  0.24871700  0.08448300  0.70750300  1
  O  O105  1  0.74871700  0.91551700  0.79249700  1
  O  O106  1  0.75128300  0.91551700  0.29249700  1
  O  O107  1  0.25128300  0.08448300  0.20750300  1
  O  O108  1  0.24343600  0.57704300  0.35544800  1
  O  O109  1  0.74343600  0.42295700  0.14455200  1
  O  O110  1  0.75656400  0.42295700  0.64455200  1
  O  O111  1  0.25656400  0.57704300  0.85544800  1
  O  O112  1  0.14373000  0.25758900  0.37019500  1
  O  O113  1  0.64373000  0.74241100  0.12980500  1
  O  O114  1  0.85627000  0.74241100  0.62980500  1
  O  O115  1  0.35627000  0.25758900  0.87019500  1
  O  O116  1  0.95933800  0.24239700  0.57855400  1
  O  O117  1  0.45933800  0.75760300  0.92144600  1
  O  O118  1  0.04066200  0.75760300  0.42144600  1
  O  O119  1  0.54066200  0.24239700  0.07855400  1
