# generated using pymatgen
data_LaErS3
_symmetry_space_group_name_H-M   'P 1'
_cell_length_a   4.01311000
_cell_length_b   11.08349300
_cell_length_c   21.65542047
_cell_angle_alpha   78.51481300
_cell_angle_beta   90.00000000
_cell_angle_gamma   90.00000000
_symmetry_Int_Tables_number   1
_chemical_formula_structural   LaErS3
_chemical_formula_sum   'La8 Er8 S24'
_cell_volume   943.93017857
_cell_formula_units_Z   8
loop_
 _symmetry_equiv_pos_site_id
 _symmetry_equiv_pos_as_xyz
  1  'x, y, z'
loop_
 _atom_site_type_symbol
 _atom_site_label
 _atom_site_symmetry_multiplicity
 _atom_site_fract_x
 _atom_site_fract_y
 _atom_site_fract_z
 _atom_site_occupancy
  La  La0  1  0.25000000  0.30266800  0.76482900  1
  La  La1  1  0.75000000  0.69733200  0.23517100  1
  La  La2  1  0.25000000  0.90792700  0.86344700  1
  La  La3  1  0.75000000  0.09207300  0.13655300  1
  La  La4  1  0.25000000  0.69213300  0.73089200  1
  La  La5  1  0.75000000  0.30786700  0.26910800  1
  La  La6  1  0.25000000  0.80017100  0.53405700  1
  La  La7  1  0.75000000  0.19982900  0.46594300  1
  Er  Er8  1  0.25000000  0.55147100  0.41696700  1
  Er  Er9  1  0.75000000  0.44852900  0.58303300  1
  Er  Er10  1  0.25000000  0.97142700  0.35088100  1
  Er  Er11  1  0.75000000  0.02857300  0.64911900  1
  Er  Er12  1  0.25000000  0.82153400  0.04727900  1
  Er  Er13  1  0.75000000  0.17846600  0.95272100  1
  Er  Er14  1  0.25000000  0.47681500  0.08837600  1
  Er  Er15  1  0.75000000  0.52318500  0.91162400  1
  S  S16  1  0.25000000  0.08565200  0.03597600  1
  S  S17  1  0.75000000  0.91434800  0.96402400  1
  S  S18  1  0.25000000  0.20432100  0.36760900  1
  S  S19  1  0.75000000  0.79567900  0.63239100  1
  S  S20  1  0.25000000  0.74597500  0.32524700  1
  S  S21  1  0.75000000  0.25402500  0.67475300  1
  S  S22  1  0.25000000  0.63575500  0.96383200  1
  S  S23  1  0.75000000  0.36424500  0.03616800  1
  S  S24  1  0.25000000  0.50588000  0.22187600  1
  S  S25  1  0.75000000  0.49412000  0.77812400  1
  S  S26  1  0.25000000  0.25154400  0.17522600  1
  S  S27  1  0.75000000  0.74845600  0.82477400  1
  S  S28  1  0.25000000  0.87600900  0.16408300  1
  S  S29  1  0.75000000  0.12399100  0.83591700  1
  S  S30  1  0.25000000  0.35669400  0.51526000  1
  S  S31  1  0.75000000  0.64330600  0.48474000  1
  S  S32  1  0.25000000  0.05710700  0.55655700  1
  S  S33  1  0.75000000  0.94289300  0.44344300  1
  S  S34  1  0.25000000  0.96298200  0.72803600  1
  S  S35  1  0.75000000  0.03701800  0.27196400  1
  S  S36  1  0.25000000  0.54629500  0.63311800  1
  S  S37  1  0.75000000  0.45370500  0.36688200  1
  S  S38  1  0.25000000  0.34152900  0.90054300  1
  S  S39  1  0.75000000  0.65847100  0.09945700  1
