# generated using pymatgen
data_Na3(PO3)4
_symmetry_space_group_name_H-M   'P 1'
_cell_length_a   10.09338400
_cell_length_b   8.84461000
_cell_length_c   14.53217170
_cell_angle_alpha   52.48451104
_cell_angle_beta   90.00000000
_cell_angle_gamma   90.00000000
_symmetry_Int_Tables_number   1
_chemical_formula_structural   Na3(PO3)4
_chemical_formula_sum   'Na12 P16 O48'
_cell_volume   1029.01699176
_cell_formula_units_Z   4
loop_
 _symmetry_equiv_pos_site_id
 _symmetry_equiv_pos_as_xyz
  1  'x, y, z'
loop_
 _atom_site_type_symbol
 _atom_site_label
 _atom_site_symmetry_multiplicity
 _atom_site_fract_x
 _atom_site_fract_y
 _atom_site_fract_z
 _atom_site_occupancy
  Na  Na0  1  0.46752300  0.18467700  0.25258200  1
  Na  Na1  1  0.03247700  0.18467700  0.75258200  1
  Na  Na2  1  0.53247700  0.81532300  0.74741800  1
  Na  Na3  1  0.96752300  0.81532300  0.24741800  1
  Na  Na4  1  0.51357200  0.73271600  0.32103600  1
  Na  Na5  1  0.98642800  0.73271600  0.82103600  1
  Na  Na6  1  0.48642800  0.26728400  0.67896400  1
  Na  Na7  1  0.01357200  0.26728400  0.17896400  1
  Na  Na8  1  0.48272600  0.23653000  0.46031900  1
  Na  Na9  1  0.01727400  0.23653000  0.96031900  1
  Na  Na10  1  0.51727400  0.76347000  0.53968100  1
  Na  Na11  1  0.98272600  0.76347000  0.03968100  1
  P  P12  1  0.22043600  0.45669300  0.47850300  1
  P  P13  1  0.27956400  0.45669300  0.97850300  1
  P  P14  1  0.77956400  0.54330700  0.52149700  1
  P  P15  1  0.72043600  0.54330700  0.02149700  1
  P  P16  1  0.22072900  0.46962800  0.26990000  1
  P  P17  1  0.27927100  0.46962800  0.76990000  1
  P  P18  1  0.77927100  0.53037200  0.73010000  1
  P  P19  1  0.72072900  0.53037200  0.23010000  1
  P  P20  1  0.77786700  0.11953300  0.40913300  1
  P  P21  1  0.72213300  0.11953300  0.90913300  1
  P  P22  1  0.22213300  0.88046700  0.59086700  1
  P  P23  1  0.27786700  0.88046700  0.09086700  1
  P  P24  1  0.21755500  0.86316700  0.39101700  1
  P  P25  1  0.28244500  0.86316700  0.89101700  1
  P  P26  1  0.78244500  0.13683300  0.60898300  1
  P  P27  1  0.71755500  0.13683300  0.10898300  1
  O  O28  1  0.15591600  0.49783400  0.36236200  1
  O  O29  1  0.34408400  0.49783400  0.86236200  1
  O  O30  1  0.84408400  0.50216600  0.63763800  1
  O  O31  1  0.65591600  0.50216600  0.13763800  1
  O  O32  1  0.36859300  0.44464000  0.47649800  1
  O  O33  1  0.13140700  0.44464000  0.97649800  1
  O  O34  1  0.63140700  0.55536000  0.52350200  1
  O  O35  1  0.86859300  0.55536000  0.02350200  1
  O  O36  1  0.85559200  0.70383600  0.41618300  1
  O  O37  1  0.64440800  0.70383600  0.91618300  1
  O  O38  1  0.14440800  0.29616400  0.58381700  1
  O  O39  1  0.35559200  0.29616400  0.08381700  1
  O  O40  1  0.81406500  0.33939100  0.30827900  1
  O  O41  1  0.68593500  0.33939100  0.80827900  1
  O  O42  1  0.18593500  0.66060900  0.69172100  1
  O  O43  1  0.31406500  0.66060900  0.19172100  1
  O  O44  1  0.60853700  0.51159700  0.30350900  1
  O  O45  1  0.89146300  0.51159700  0.80350900  1
  O  O46  1  0.39146300  0.48840300  0.69649100  1
  O  O47  1  0.10853700  0.48840300  0.19649100  1
  O  O48  1  0.31443200  0.30506800  0.32805300  1
  O  O49  1  0.18556800  0.30506800  0.82805300  1
  O  O50  1  0.68556800  0.69493200  0.67194700  1
  O  O51  1  0.81443200  0.69493200  0.17194700  1
  O  O52  1  0.16785800  0.90809200  0.47798500  1
  O  O53  1  0.33214200  0.90809200  0.97798500  1
  O  O54  1  0.83214200  0.09190800  0.52201500  1
  O  O55  1  0.66785800  0.09190800  0.02201500  1
  O  O56  1  0.87498000  0.01466700  0.38499600  1
  O  O57  1  0.62502000  0.01466700  0.88499600  1
  O  O58  1  0.12502000  0.98533300  0.61500400  1
  O  O59  1  0.37498000  0.98533300  0.11500400  1
  O  O60  1  0.63239300  0.07861400  0.41512100  1
  O  O61  1  0.86760700  0.07861400  0.91512100  1
  O  O62  1  0.36760700  0.92138600  0.58487900  1
  O  O63  1  0.13239300  0.92138600  0.08487900  1
  O  O64  1  0.17162000  0.63941300  0.46701800  1
  O  O65  1  0.32838000  0.63941300  0.96701800  1
  O  O66  1  0.82838000  0.36058700  0.53298200  1
  O  O67  1  0.67162000  0.36058700  0.03298200  1
  O  O68  1  0.36644300  0.87457000  0.38209800  1
  O  O69  1  0.13355700  0.87457000  0.88209800  1
  O  O70  1  0.63355700  0.12543000  0.61790200  1
  O  O71  1  0.86644300  0.12543000  0.11790200  1
  O  O72  1  0.13207600  0.97311100  0.28567200  1
  O  O73  1  0.36792400  0.97311100  0.78567200  1
  O  O74  1  0.86792400  0.02688900  0.71432800  1
  O  O75  1  0.63207600  0.02688900  0.21432800  1
