# generated using pymatgen
data_TaS2
_symmetry_space_group_name_H-M   'P 1'
_cell_length_a   7.08925292
_cell_length_b   7.08925292
_cell_length_c   7.08925323
_cell_angle_alpha   27.28135769
_cell_angle_beta   27.28135769
_cell_angle_gamma   27.28136450
_symmetry_Int_Tables_number   1
_chemical_formula_structural   TaS2
_chemical_formula_sum   'Ta1 S2'
_cell_volume   66.04911897
_cell_formula_units_Z   1
loop_
 _symmetry_equiv_pos_site_id
 _symmetry_equiv_pos_as_xyz
  1  'x, y, z'
loop_
 _atom_site_type_symbol
 _atom_site_label
 _atom_site_symmetry_multiplicity
 _atom_site_fract_x
 _atom_site_fract_y
 _atom_site_fract_z
 _atom_site_occupancy
  Ta  Ta0  1  0.83323500  0.83323500  0.83323500  1
  S  S1  1  0.42352900  0.42352900  0.42352900  1
  S  S2  1  0.57623600  0.57623600  0.57623600  1
