# generated using pymatgen
data_H11C4Br2N
_symmetry_space_group_name_H-M   'P 1'
_cell_length_a   20.59672200
_cell_length_b   7.39889400
_cell_length_c   6.15112500
_cell_angle_alpha   90.00000000
_cell_angle_beta   90.00000000
_cell_angle_gamma   90.00000000
_symmetry_Int_Tables_number   1
_chemical_formula_structural   H11C4Br2N
_chemical_formula_sum   'H44 C16 Br8 N4'
_cell_volume   937.38816346
_cell_formula_units_Z   4
loop_
 _symmetry_equiv_pos_site_id
 _symmetry_equiv_pos_as_xyz
  1  'x, y, z'
loop_
 _atom_site_type_symbol
 _atom_site_label
 _atom_site_symmetry_multiplicity
 _atom_site_fract_x
 _atom_site_fract_y
 _atom_site_fract_z
 _atom_site_occupancy
  H  H0  1  0.65484700  0.62679600  0.23032400  1
  H  H1  1  0.15484700  0.87320400  0.26967600  1
  H  H2  1  0.34515300  0.12679600  0.76967600  1
  H  H3  1  0.84515300  0.37320400  0.73032400  1
  H  H4  1  0.34515300  0.37320400  0.76967600  1
  H  H5  1  0.84515300  0.12679600  0.73032400  1
  H  H6  1  0.65484700  0.87320400  0.23032400  1
  H  H7  1  0.15484700  0.62679600  0.26967600  1
  H  H8  1  0.54462000  0.87288100  0.27062600  1
  H  H9  1  0.04462000  0.62711900  0.22937400  1
  H  H10  1  0.45538000  0.37288100  0.72937400  1
  H  H11  1  0.95538000  0.12711900  0.77062600  1
  H  H12  1  0.45538000  0.12711900  0.72937400  1
  H  H13  1  0.95538000  0.37288100  0.77062600  1
  H  H14  1  0.54462000  0.62711900  0.27062600  1
  H  H15  1  0.04462000  0.87288100  0.22937400  1
  H  H16  1  0.50597800  0.75000000  0.48993200  1
  H  H17  1  0.00597800  0.75000000  0.01006800  1
  H  H18  1  0.49402200  0.25000000  0.51006800  1
  H  H19  1  0.99402200  0.25000000  0.98993200  1
  H  H20  1  0.60820900  0.46561900  0.52733000  1
  H  H21  1  0.10821000  0.03438100  0.97267000  1
  H  H22  1  0.39179100  0.96561900  0.47267000  1
  H  H23  1  0.89179100  0.53438100  0.02733000  1
  H  H24  1  0.39179100  0.53438100  0.47267000  1
  H  H25  1  0.89179100  0.96561900  0.02733000  1
  H  H26  1  0.60820900  0.03438100  0.52733000  1
  H  H27  1  0.10821000  0.46561900  0.97267000  1
  H  H28  1  0.65651500  0.58514800  0.72555400  1
  H  H29  1  0.15651500  0.91485200  0.77444600  1
  H  H30  1  0.34348500  0.08514800  0.27444600  1
  H  H31  1  0.84348500  0.41485200  0.22555400  1
  H  H32  1  0.34348500  0.41485200  0.27444600  1
  H  H33  1  0.84348500  0.08514800  0.22555400  1
  H  H34  1  0.65651500  0.91485200  0.72555400  1
  H  H35  1  0.15651500  0.58514800  0.77444600  1
  H  H36  1  0.56952000  0.58859100  0.74628800  1
  H  H37  1  0.06952000  0.91140900  0.75371200  1
  H  H38  1  0.43048000  0.08859100  0.25371200  1
  H  H39  1  0.93048000  0.41140900  0.24628800  1
  H  H40  1  0.43048000  0.41140900  0.25371200  1
  H  H41  1  0.93048000  0.08859100  0.24628800  1
  H  H42  1  0.56952000  0.91140900  0.74628800  1
  H  H43  1  0.06952000  0.58859100  0.75371200  1
  C  C44  1  0.66116400  0.75000000  0.32743700  1
  C  C45  1  0.16116400  0.75000000  0.17256300  1
  C  C46  1  0.33883600  0.25000000  0.67256300  1
  C  C47  1  0.83883600  0.25000000  0.82743700  1
  C  C48  1  0.54554200  0.75000000  0.37056200  1
  C  C49  1  0.04554200  0.75000000  0.12943800  1
  C  C50  1  0.45445800  0.25000000  0.62943800  1
  C  C51  1  0.95445800  0.25000000  0.87056200  1
  C  C52  1  0.61099400  0.58407000  0.63509800  1
  C  C53  1  0.11099400  0.91593000  0.86490200  1
  C  C54  1  0.38900600  0.08407000  0.36490200  1
  C  C55  1  0.88900600  0.41593000  0.13509800  1
  C  C56  1  0.38900600  0.41593000  0.36490200  1
  C  C57  1  0.88900600  0.08407000  0.13509800  1
  C  C58  1  0.61099400  0.91593000  0.63509800  1
  C  C59  1  0.11099400  0.58407000  0.86490200  1
  Br  Br60  1  0.74853400  0.75000000  0.45180600  1
  Br  Br61  1  0.24853400  0.75000000  0.04819400  1
  Br  Br62  1  0.25146600  0.25000000  0.54819400  1
  Br  Br63  1  0.75146600  0.25000000  0.95180600  1
  Br  Br64  1  0.58625000  0.25000000  0.13263900  1
  Br  Br65  1  0.08625000  0.25000000  0.36736100  1
  Br  Br66  1  0.41375000  0.75000000  0.86736100  1
  Br  Br67  1  0.91375000  0.75000000  0.63263900  1
  N  N68  1  0.60822000  0.75000000  0.49568400  1
  N  N69  1  0.10822000  0.75000000  0.00431600  1
  N  N70  1  0.39178000  0.25000000  0.50431600  1
  N  N71  1  0.89178000  0.25000000  0.99568400  1
