# generated using pymatgen
data_Fe(SeO3)2
_symmetry_space_group_name_H-M   'P 1'
_cell_length_a   10.04115300
_cell_length_b   6.63390500
_cell_length_c   8.17886879
_cell_angle_alpha   89.41329929
_cell_angle_beta   90.00000000
_cell_angle_gamma   90.00000000
_symmetry_Int_Tables_number   1
_chemical_formula_structural   Fe(SeO3)2
_chemical_formula_sum   'Fe4 Se8 O24'
_cell_volume   544.78269585
_cell_formula_units_Z   4
loop_
 _symmetry_equiv_pos_site_id
 _symmetry_equiv_pos_as_xyz
  1  'x, y, z'
loop_
 _atom_site_type_symbol
 _atom_site_label
 _atom_site_symmetry_multiplicity
 _atom_site_fract_x
 _atom_site_fract_y
 _atom_site_fract_z
 _atom_site_occupancy
  Fe  Fe0  1  0.50632400  0.55202600  0.30213400  1
  Fe  Fe1  1  0.00632400  0.44797400  0.19786600  1
  Fe  Fe2  1  0.49367600  0.44797400  0.69786600  1
  Fe  Fe3  1  0.99367600  0.55202600  0.80213400  1
  Se  Se4  1  0.91650500  0.94047700  0.22028500  1
  Se  Se5  1  0.41650500  0.05952300  0.27971500  1
  Se  Se6  1  0.08349500  0.05952300  0.77971500  1
  Se  Se7  1  0.58349500  0.94047700  0.72028500  1
  Se  Se8  1  0.71085500  0.40788900  0.02152100  1
  Se  Se9  1  0.21085500  0.59211100  0.47847900  1
  Se  Se10  1  0.28914500  0.59211100  0.97847900  1
  Se  Se11  1  0.78914500  0.40788900  0.52152100  1
  O  O12  1  0.03406900  0.75374900  0.23013800  1
  O  O13  1  0.53406900  0.24625100  0.26986200  1
  O  O14  1  0.96593100  0.24625100  0.76986200  1
  O  O15  1  0.46593100  0.75374900  0.73013800  1
  O  O16  1  0.85089800  0.97886100  0.40415200  1
  O  O17  1  0.35089800  0.02113900  0.09584800  1
  O  O18  1  0.14910200  0.02113900  0.59584800  1
  O  O19  1  0.64910200  0.97886100  0.90415200  1
  O  O20  1  0.00293500  0.14715200  0.14974700  1
  O  O21  1  0.50293500  0.85284800  0.35025300  1
  O  O22  1  0.99706500  0.85284800  0.85025300  1
  O  O23  1  0.49706500  0.14715200  0.64974700  1
  O  O24  1  0.62451200  0.59883100  0.11440600  1
  O  O25  1  0.12451200  0.40116900  0.38559400  1
  O  O26  1  0.37548800  0.40116900  0.88559400  1
  O  O27  1  0.87548800  0.59883100  0.61440600  1
  O  O28  1  0.87166900  0.52133400  0.00333400  1
  O  O29  1  0.37166900  0.47866600  0.49666600  1
  O  O30  1  0.12833100  0.47866600  0.99666600  1
  O  O31  1  0.62833100  0.52133400  0.50333400  1
  O  O32  1  0.66309000  0.43761700  0.82174300  1
  O  O33  1  0.16309000  0.56238300  0.67825700  1
  O  O34  1  0.33691000  0.56238300  0.17825700  1
  O  O35  1  0.83691000  0.43761700  0.32174300  1
