# generated using pymatgen
data_NaCa2Fe5(SiO3)8
_symmetry_space_group_name_H-M   'P 1'
_cell_length_a   10.50778172
_cell_length_b   10.50778172
_cell_length_c   5.33501585
_cell_angle_alpha   82.82982425
_cell_angle_beta   82.82982425
_cell_angle_gamma   122.06231764
_symmetry_Int_Tables_number   1
_chemical_formula_structural   NaCa2Fe5(SiO3)8
_chemical_formula_sum   'Na1 Ca2 Fe5 Si8 O24'
_cell_volume   482.34751746
_cell_formula_units_Z   1
loop_
 _symmetry_equiv_pos_site_id
 _symmetry_equiv_pos_as_xyz
  1  'x, y, z'
loop_
 _atom_site_type_symbol
 _atom_site_label
 _atom_site_symmetry_multiplicity
 _atom_site_fract_x
 _atom_site_fract_y
 _atom_site_fract_z
 _atom_site_occupancy
  Na  Na0  1  0.50000000  0.50000000  0.00000000  1
  Ca  Ca1  1  0.27570600  0.72429400  0.50000000  1
  Ca  Ca2  1  0.72429400  0.27570600  0.50000000  1
  Fe  Fe3  1  0.07892500  0.92107500  0.50000000  1
  Fe  Fe4  1  0.92107500  0.07892500  0.50000000  1
  Fe  Fe5  1  0.17797000  0.82203000  0.00000000  1
  Fe  Fe6  1  0.82203000  0.17797000  0.00000000  1
  Fe  Fe7  1  0.00000000  0.00000000  0.00000000  1
  Si  Si8  1  0.80560800  0.63799800  0.29908400  1
  Si  Si9  1  0.63799800  0.80560800  0.29908400  1
  Si  Si10  1  0.19439200  0.36200200  0.70091600  1
  Si  Si11  1  0.36200200  0.19439200  0.70091600  1
  Si  Si12  1  0.88187000  0.54328600  0.80290000  1
  Si  Si13  1  0.54328600  0.88187000  0.80290000  1
  Si  Si14  1  0.11813000  0.45671400  0.19710000  1
  Si  Si15  1  0.45671400  0.11813000  0.19710000  1
  O  O16  1  0.97493000  0.79468500  0.22123800  1
  O  O17  1  0.79468500  0.97493000  0.22123800  1
  O  O18  1  0.02507000  0.20531500  0.77876200  1
  O  O19  1  0.20531500  0.02507000  0.77876200  1
  O  O20  1  0.05074500  0.70556400  0.71762200  1
  O  O21  1  0.70556400  0.05074500  0.71762200  1
  O  O22  1  0.94925500  0.29443600  0.28237800  1
  O  O23  1  0.29443600  0.94925500  0.28237800  1
  O  O24  1  0.89636800  0.89636800  0.71911500  1
  O  O25  1  0.10363200  0.10363200  0.28088500  1
  O  O26  1  0.87710300  0.38896300  0.79044300  1
  O  O27  1  0.38896300  0.87710300  0.79044300  1
  O  O28  1  0.12289700  0.61103700  0.20955700  1
  O  O29  1  0.61103700  0.12289700  0.20955700  1
  O  O30  1  0.78649700  0.52179800  0.10101500  1
  O  O31  1  0.52179800  0.78649700  0.10101500  1
  O  O32  1  0.21350300  0.47820200  0.89898500  1
  O  O33  1  0.47820200  0.21350300  0.89898500  1
  O  O34  1  0.76928300  0.53892100  0.59574800  1
  O  O35  1  0.53892100  0.76928300  0.59574800  1
  O  O36  1  0.23071700  0.46107900  0.40425200  1
  O  O37  1  0.46107900  0.23071700  0.40425200  1
  O  O38  1  0.66275300  0.66275300  0.28780000  1
  O  O39  1  0.33724700  0.33724700  0.71220000  1
