# generated using pymatgen
data_RbNb4Br11
_symmetry_space_group_name_H-M   'P 1'
_cell_length_a   7.39359700
_cell_length_b   7.42288900
_cell_length_c   17.11091400
_cell_angle_alpha   90.00000000
_cell_angle_beta   90.00000000
_cell_angle_gamma   90.00000000
_symmetry_Int_Tables_number   1
_chemical_formula_structural   RbNb4Br11
_chemical_formula_sum   'Rb2 Nb8 Br22'
_cell_volume   939.07861280
_cell_formula_units_Z   2
loop_
 _symmetry_equiv_pos_site_id
 _symmetry_equiv_pos_as_xyz
  1  'x, y, z'
loop_
 _atom_site_type_symbol
 _atom_site_label
 _atom_site_symmetry_multiplicity
 _atom_site_fract_x
 _atom_site_fract_y
 _atom_site_fract_z
 _atom_site_occupancy
  Rb  Rb0  1  0.00286900  0.50000000  0.75000000  1
  Rb  Rb1  1  0.99713100  0.50000000  0.25000000  1
  Nb  Nb2  1  0.38390800  0.00000000  0.63938100  1
  Nb  Nb3  1  0.61609200  0.00000000  0.36061900  1
  Nb  Nb4  1  0.38390800  0.00000000  0.86061900  1
  Nb  Nb5  1  0.61609200  0.00000000  0.13938100  1
  Nb  Nb6  1  0.50000000  0.20804400  0.50000000  1
  Nb  Nb7  1  0.50000000  0.20804400  0.00000000  1
  Nb  Nb8  1  0.50000000  0.79195600  0.50000000  1
  Nb  Nb9  1  0.50000000  0.79195600  0.00000000  1
  Br  Br10  1  0.71252500  0.00000000  0.58613400  1
  Br  Br11  1  0.28747500  0.00000000  0.41386600  1
  Br  Br12  1  0.71252500  0.00000000  0.91386600  1
  Br  Br13  1  0.28747500  0.00000000  0.08613400  1
  Br  Br14  1  0.19026900  0.74717000  0.57839300  1
  Br  Br15  1  0.80973100  0.74717000  0.42160700  1
  Br  Br16  1  0.19026900  0.74717000  0.92160700  1
  Br  Br17  1  0.80973100  0.74717000  0.07839300  1
  Br  Br18  1  0.80973100  0.25283000  0.42160700  1
  Br  Br19  1  0.19026900  0.25283000  0.57839300  1
  Br  Br20  1  0.80973100  0.25283000  0.07839300  1
  Br  Br21  1  0.19026900  0.25283000  0.92160700  1
  Br  Br22  1  0.36690700  0.50000000  0.41596000  1
  Br  Br23  1  0.63309300  0.50000000  0.58404000  1
  Br  Br24  1  0.36690700  0.50000000  0.08404000  1
  Br  Br25  1  0.63309300  0.50000000  0.91596000  1
  Br  Br26  1  0.10236800  0.00000000  0.75000000  1
  Br  Br27  1  0.89763200  0.00000000  0.25000000  1
  Br  Br28  1  0.51517000  0.23439400  0.75000000  1
  Br  Br29  1  0.48483000  0.23439400  0.25000000  1
  Br  Br30  1  0.48483000  0.76560600  0.25000000  1
  Br  Br31  1  0.51517000  0.76560600  0.75000000  1
