# generated using pymatgen
data_H6CNClO
_symmetry_space_group_name_H-M   'P 1'
_cell_length_a   5.98830900
_cell_length_b   8.07350800
_cell_length_c   9.02410900
_cell_angle_alpha   90.00000000
_cell_angle_beta   90.00000000
_cell_angle_gamma   90.00000000
_symmetry_Int_Tables_number   1
_chemical_formula_structural   H6CNClO
_chemical_formula_sum   'H24 C4 N4 Cl4 O4'
_cell_volume   436.28553520
_cell_formula_units_Z   4
loop_
 _symmetry_equiv_pos_site_id
 _symmetry_equiv_pos_as_xyz
  1  'x, y, z'
loop_
 _atom_site_type_symbol
 _atom_site_label
 _atom_site_symmetry_multiplicity
 _atom_site_fract_x
 _atom_site_fract_y
 _atom_site_fract_z
 _atom_site_occupancy
  H  H0  1  0.75000000  0.20197300  0.25404000  1
  H  H1  1  0.25000000  0.79802700  0.74596000  1
  H  H2  1  0.25000000  0.20197300  0.24596000  1
  H  H3  1  0.75000000  0.79802700  0.75404000  1
  H  H4  1  0.89590500  0.33207600  0.44866600  1
  H  H5  1  0.39590500  0.66792400  0.55133400  1
  H  H6  1  0.10409500  0.33207600  0.05133400  1
  H  H7  1  0.60409500  0.66792400  0.94866600  1
  H  H8  1  0.10409500  0.66792400  0.55133400  1
  H  H9  1  0.60409500  0.33207600  0.44866600  1
  H  H10  1  0.89590500  0.66792400  0.94866600  1
  H  H11  1  0.39590500  0.33207600  0.05133400  1
  H  H12  1  0.75000000  0.27685600  0.69182200  1
  H  H13  1  0.25000000  0.72314400  0.30817800  1
  H  H14  1  0.25000000  0.27685600  0.80817800  1
  H  H15  1  0.75000000  0.72314400  0.19182200  1
  H  H16  1  0.59920000  0.10298100  0.61661900  1
  H  H17  1  0.09920000  0.89701900  0.38338100  1
  H  H18  1  0.40080000  0.10298100  0.88338100  1
  H  H19  1  0.90080000  0.89701900  0.11661900  1
  H  H20  1  0.40080000  0.89701900  0.38338100  1
  H  H21  1  0.90080000  0.10298100  0.61661900  1
  H  H22  1  0.59920000  0.89701900  0.11661900  1
  H  H23  1  0.09920000  0.10298100  0.88338100  1
  C  C24  1  0.75000000  0.17874200  0.60749700  1
  C  C25  1  0.25000000  0.82125800  0.39250300  1
  C  C26  1  0.25000000  0.17874200  0.89250300  1
  C  C27  1  0.75000000  0.82125800  0.10749700  1
  N  N28  1  0.75000000  0.26071500  0.46162700  1
  N  N29  1  0.25000000  0.73928500  0.53837300  1
  N  N30  1  0.25000000  0.26071500  0.03837300  1
  N  N31  1  0.75000000  0.73928500  0.96162700  1
  Cl  Cl32  1  0.75000000  0.35260900  0.07594000  1
  Cl  Cl33  1  0.25000000  0.64739100  0.92406000  1
  Cl  Cl34  1  0.25000000  0.35260900  0.42406000  1
  Cl  Cl35  1  0.75000000  0.64739100  0.57594000  1
  O  O36  1  0.75000000  0.13622800  0.34997400  1
  O  O37  1  0.25000000  0.86377200  0.65002600  1
  O  O38  1  0.25000000  0.13622800  0.15002600  1
  O  O39  1  0.75000000  0.86377200  0.84997400  1
