# generated using pymatgen
data_Ni5P2
_symmetry_space_group_name_H-M   'P 1'
_cell_length_a   6.54744997
_cell_length_b   6.54733668
_cell_length_c   12.23960100
_cell_angle_alpha   90.00000000
_cell_angle_beta   90.00000000
_cell_angle_gamma   120.00057929
_symmetry_Int_Tables_number   1
_chemical_formula_structural   Ni5P2
_chemical_formula_sum   'Ni30 P12'
_cell_volume   454.39361483
_cell_formula_units_Z   6
loop_
 _symmetry_equiv_pos_site_id
 _symmetry_equiv_pos_as_xyz
  1  'x, y, z'
loop_
 _atom_site_type_symbol
 _atom_site_label
 _atom_site_symmetry_multiplicity
 _atom_site_fract_x
 _atom_site_fract_y
 _atom_site_fract_z
 _atom_site_occupancy
  Ni  Ni0  1  0.99999100  0.00000000  0.57453300  1
  Ni  Ni1  1  0.00000900  0.00000000  0.07453300  1
  Ni  Ni2  1  0.66665100  0.33331500  0.43687100  1
  Ni  Ni3  1  0.33333600  0.66668500  0.43687100  1
  Ni  Ni4  1  0.33334900  0.66668500  0.93687100  1
  Ni  Ni5  1  0.66666400  0.33331500  0.93687100  1
  Ni  Ni6  1  0.76489900  0.00000000  0.40378300  1
  Ni  Ni7  1  0.23513800  0.23513400  0.40377800  1
  Ni  Ni8  1  0.00000400  0.76486600  0.40377800  1
  Ni  Ni9  1  0.23510100  0.00000000  0.90378300  1
  Ni  Ni10  1  0.76486200  0.76486600  0.90377800  1
  Ni  Ni11  1  0.99999600  0.23513400  0.90377800  1
  Ni  Ni12  1  0.38254700  0.00000000  0.30500900  1
  Ni  Ni13  1  0.61746000  0.61746300  0.30501400  1
  Ni  Ni14  1  0.99999700  0.38253700  0.30501400  1
  Ni  Ni15  1  0.61745300  0.00000000  0.80500900  1
  Ni  Ni16  1  0.38254000  0.38253700  0.80501400  1
  Ni  Ni17  1  0.00000300  0.61746300  0.80501400  1
  Ni  Ni18  1  0.69388000  0.00000000  0.19603500  1
  Ni  Ni19  1  0.30613000  0.30613000  0.19604000  1
  Ni  Ni20  1  0.00000000  0.69387000  0.19604000  1
  Ni  Ni21  1  0.30612000  0.00000000  0.69603500  1
  Ni  Ni22  1  0.69387000  0.69387000  0.69604000  1
  Ni  Ni23  1  0.00000000  0.30613000  0.69604000  1
  Ni  Ni24  1  0.38494000  0.00000000  0.08821400  1
  Ni  Ni25  1  0.61512000  0.61503900  0.08822100  1
  Ni  Ni26  1  0.00008100  0.38496100  0.08822100  1
  Ni  Ni27  1  0.61506000  0.00000000  0.58821400  1
  Ni  Ni28  1  0.38488000  0.38496100  0.58822100  1
  Ni  Ni29  1  0.99991900  0.61503900  0.58822100  1
  P  P30  1  0.00000800  0.00000000  0.26850900  1
  P  P31  1  0.99999200  0.00000000  0.76850900  1
  P  P32  1  0.66667000  0.33333100  0.23204700  1
  P  P33  1  0.33333900  0.66666900  0.23204700  1
  P  P34  1  0.33333000  0.66666900  0.73204700  1
  P  P35  1  0.66666100  0.33333100  0.73204700  1
  P  P36  1  0.32481900  0.00000000  0.50232400  1
  P  P37  1  0.67515900  0.67515700  0.50232600  1
  P  P38  1  0.00000200  0.32484300  0.50232600  1
  P  P39  1  0.67518100  0.00000000  0.00232400  1
  P  P40  1  0.32484100  0.32484300  0.00232600  1
  P  P41  1  0.99999800  0.67515700  0.00232600  1
