# generated using pymatgen
data_MgH14SeO11
_symmetry_space_group_name_H-M   'P 1'
_cell_length_a   6.88269900
_cell_length_b   12.26755500
_cell_length_c   12.35298600
_cell_angle_alpha   90.00000000
_cell_angle_beta   90.00000000
_cell_angle_gamma   90.00000000
_symmetry_Int_Tables_number   1
_chemical_formula_structural   MgH14SeO11
_chemical_formula_sum   'Mg4 H56 Se4 O44'
_cell_volume   1043.01064295
_cell_formula_units_Z   4
loop_
 _symmetry_equiv_pos_site_id
 _symmetry_equiv_pos_as_xyz
  1  'x, y, z'
loop_
 _atom_site_type_symbol
 _atom_site_label
 _atom_site_symmetry_multiplicity
 _atom_site_fract_x
 _atom_site_fract_y
 _atom_site_fract_z
 _atom_site_occupancy
  Mg  Mg0  1  0.95931600  0.89484100  0.58437300  1
  Mg  Mg1  1  0.45931600  0.10515900  0.91562700  1
  Mg  Mg2  1  0.04068400  0.60515900  0.08437300  1
  Mg  Mg3  1  0.54068400  0.39484100  0.41562700  1
  H  H4  1  0.90083600  0.77852800  0.76617200  1
  H  H5  1  0.40083600  0.22147200  0.73382800  1
  H  H6  1  0.09916400  0.72147200  0.26617200  1
  H  H7  1  0.59916400  0.27852800  0.23382800  1
  H  H8  1  0.12877700  0.80630500  0.76553000  1
  H  H9  1  0.62877700  0.19369500  0.73447000  1
  H  H10  1  0.87122300  0.69369500  0.26553000  1
  H  H11  1  0.37122300  0.30630500  0.23447000  1
  H  H12  1  0.69881400  0.72777400  0.57892700  1
  H  H13  1  0.19881400  0.27222600  0.92107300  1
  H  H14  1  0.30118600  0.77222600  0.07892700  1
  H  H15  1  0.80118600  0.22777400  0.42107300  1
  H  H16  1  0.75028600  0.74903600  0.45675400  1
  H  H17  1  0.25028600  0.25096400  0.04324600  1
  H  H18  1  0.24971400  0.75096400  0.95675400  1
  H  H19  1  0.74971400  0.24903600  0.54324600  1
  H  H20  1  0.30419800  0.77659600  0.57699200  1
  H  H21  1  0.80419800  0.22340400  0.92300800  1
  H  H22  1  0.69580200  0.72340400  0.07699200  1
  H  H23  1  0.19580200  0.27659600  0.42300800  1
  H  H24  1  0.24805900  0.81739900  0.45788900  1
  H  H25  1  0.74805900  0.18260100  0.04211100  1
  H  H26  1  0.75194100  0.68260100  0.95788900  1
  H  H27  1  0.25194100  0.31739900  0.54211100  1
  H  H28  1  0.80134000  0.95006700  0.38842400  1
  H  H29  1  0.30134000  0.04993300  0.11157600  1
  H  H30  1  0.19866000  0.54993300  0.88842400  1
  H  H31  1  0.69866000  0.45006700  0.61157600  1
  H  H32  1  0.97993900  0.02885700  0.40651400  1
  H  H33  1  0.47993900  0.97114300  0.09348600  1
  H  H34  1  0.02006100  0.47114300  0.90651400  1
  H  H35  1  0.52006100  0.52885700  0.59348600  1
  H  H36  1  0.02486600  0.10637000  0.63686500  1
  H  H37  1  0.52486600  0.89363000  0.86313500  1
  H  H38  1  0.97513400  0.39363000  0.13686500  1
  H  H39  1  0.47513400  0.60637000  0.36313500  1
  H  H40  1  0.22302700  0.05866100  0.58597500  1
  H  H41  1  0.72302700  0.94133900  0.91402500  1
  H  H42  1  0.77697300  0.44133900  0.08597500  1
  H  H43  1  0.27697300  0.55866100  0.41402500  1
  H  H44  1  0.67028900  0.96938400  0.71991500  1
  H  H45  1  0.17028900  0.03061600  0.78008500  1
  H  H46  1  0.32971100  0.53061600  0.21991500  1
  H  H47  1  0.82971100  0.46938400  0.28008500  1
  H  H48  1  0.60508200  0.00051200  0.59919700  1
  H  H49  1  0.10508200  0.99948800  0.90080300  1
  H  H50  1  0.39491800  0.49948800  0.09919700  1
  H  H51  1  0.89491800  0.50051200  0.40080300  1
  H  H52  1  0.45401700  0.01997800  0.43983200  1
  H  H53  1  0.95401700  0.98002200  0.06016800  1
  H  H54  1  0.54598300  0.48002200  0.93983200  1
  H  H55  1  0.04598300  0.51997800  0.56016800  1
  H  H56  1  0.50066800  0.13614900  0.48567900  1
  H  H57  1  0.00066800  0.86385100  0.01432100  1
  H  H58  1  0.49933200  0.36385100  0.98567900  1
  H  H59  1  0.99933200  0.63614900  0.51432100  1
  Se  Se60  1  0.99622000  0.32322500  0.71906300  1
  Se  Se61  1  0.49622000  0.67677500  0.78093700  1
  Se  Se62  1  0.00378000  0.17677500  0.21906300  1
  Se  Se63  1  0.50378000  0.82322500  0.28093700  1
  O  O64  1  0.92175100  0.44296800  0.67070100  1
  O  O65  1  0.42175100  0.55703300  0.82929900  1
  O  O66  1  0.07824900  0.05703200  0.17070100  1
  O  O67  1  0.57824900  0.94296700  0.32929900  1
  O  O68  1  0.98624400  0.32210100  0.85533900  1
  O  O69  1  0.48624500  0.67789900  0.64466100  1
  O  O70  1  0.01375600  0.17789900  0.35533900  1
  O  O71  1  0.51375600  0.82210100  0.14466100  1
  O  O72  1  0.22234900  0.29771300  0.67701800  1
  O  O73  1  0.72234800  0.70228700  0.82298200  1
  O  O74  1  0.77765200  0.20228700  0.17701800  1
  O  O75  1  0.27765100  0.79771300  0.32298200  1
  O  O76  1  0.85206900  0.22237900  0.66999300  1
  O  O77  1  0.35206900  0.77762100  0.83000700  1
  O  O78  1  0.14793100  0.27762100  0.16999300  1
  O  O79  1  0.64793100  0.72237900  0.33000700  1
  O  O80  1  0.00126600  0.82766900  0.73493800  1
  O  O81  1  0.50126600  0.17233100  0.76506200  1
  O  O82  1  0.99873400  0.67233100  0.23493800  1
  O  O83  1  0.49873400  0.32766900  0.26506200  1
  O  O84  1  0.80656300  0.75257700  0.53109500  1
  O  O85  1  0.30656300  0.24742300  0.96890500  1
  O  O86  1  0.19343700  0.74742300  0.03109500  1
  O  O87  1  0.69343700  0.25257700  0.46890500  1
  O  O88  1  0.22147700  0.82765500  0.53666100  1
  O  O89  1  0.72147700  0.17234500  0.96333900  1
  O  O90  1  0.77852300  0.67234500  0.03666100  1
  O  O91  1  0.27852300  0.32765500  0.46333900  1
  O  O92  1  0.92104800  0.96063100  0.43254400  1
  O  O93  1  0.42104800  0.03936900  0.06745600  1
  O  O94  1  0.07895200  0.53936900  0.93254400  1
  O  O95  1  0.57895200  0.46063100  0.56745600  1
  O  O96  1  0.10724300  0.04037100  0.63085000  1
  O  O97  1  0.60724300  0.95962900  0.86915000  1
  O  O98  1  0.89275700  0.45962900  0.13085000  1
  O  O99  1  0.39275700  0.54037100  0.36915000  1
  O  O100  1  0.70402900  0.96160000  0.64304100  1
  O  O101  1  0.20402900  0.03840000  0.85695900  1
  O  O102  1  0.29597100  0.53840000  0.14304100  1
  O  O103  1  0.79597100  0.46160100  0.35695900  1
  O  O104  1  0.43891700  0.06600000  0.50511000  1
  O  O105  1  0.93891700  0.93400000  0.99489000  1
  O  O106  1  0.56108300  0.43400000  0.00511000  1
  O  O107  1  0.06108300  0.56600000  0.49489000  1
