# generated using pymatgen
data_SrB12(H3O2)4
_symmetry_space_group_name_H-M   'P 1'
_cell_length_a   7.12103705
_cell_length_b   7.12103705
_cell_length_c   7.12103681
_cell_angle_alpha   72.79536804
_cell_angle_beta   72.79536804
_cell_angle_gamma   72.79536416
_symmetry_Int_Tables_number   1
_chemical_formula_structural   SrB12(H3O2)4
_chemical_formula_sum   'Sr1 B12 H12 O8'
_cell_volume   320.80990083
_cell_formula_units_Z   1
loop_
 _symmetry_equiv_pos_site_id
 _symmetry_equiv_pos_as_xyz
  1  'x, y, z'
loop_
 _atom_site_type_symbol
 _atom_site_label
 _atom_site_symmetry_multiplicity
 _atom_site_fract_x
 _atom_site_fract_y
 _atom_site_fract_z
 _atom_site_occupancy
  Sr  Sr0  1  0.00000000  0.00000000  0.00000000  1
  B  B1  1  0.48958000  0.72202100  0.55579400  1
  B  B2  1  0.72202100  0.55579400  0.48958000  1
  B  B3  1  0.55579400  0.48958000  0.72202100  1
  B  B4  1  0.51042000  0.27797900  0.44420600  1
  B  B5  1  0.27797900  0.44420600  0.51042000  1
  B  B6  1  0.44420600  0.51042000  0.27797900  1
  B  B7  1  0.30691200  0.70624200  0.41414200  1
  B  B8  1  0.70624200  0.41414200  0.30691200  1
  B  B9  1  0.41414200  0.30691200  0.70624200  1
  B  B10  1  0.69308800  0.29375800  0.58585800  1
  B  B11  1  0.29375800  0.58585800  0.69308800  1
  B  B12  1  0.58585800  0.69308800  0.29375800  1
  H  H13  1  0.47527600  0.87493100  0.59920300  1
  H  H14  1  0.87493100  0.59920300  0.47527600  1
  H  H15  1  0.59920300  0.47527600  0.87493100  1
  H  H16  1  0.52472400  0.12506900  0.40079700  1
  H  H17  1  0.12506900  0.40079700  0.52472400  1
  H  H18  1  0.40079700  0.52472400  0.12506900  1
  H  H19  1  0.19104000  0.05417300  0.28248300  1
  H  H20  1  0.05417300  0.28248300  0.19104000  1
  H  H21  1  0.28248300  0.19104000  0.05417300  1
  H  H22  1  0.80896000  0.94582700  0.71751700  1
  H  H23  1  0.94582700  0.71751700  0.80896000  1
  H  H24  1  0.71751700  0.80896000  0.94582700  1
  O  O25  1  0.79651600  0.79651600  0.79651600  1
  O  O26  1  0.20348400  0.20348400  0.20348400  1
  O  O27  1  0.83617100  0.14791600  0.66319900  1
  O  O28  1  0.14791600  0.66319900  0.83617100  1
  O  O29  1  0.66319900  0.83617100  0.14791600  1
  O  O30  1  0.16382900  0.85208400  0.33680100  1
  O  O31  1  0.85208400  0.33680100  0.16382900  1
  O  O32  1  0.33680100  0.16382900  0.85208400  1
