# generated using pymatgen
data_Ga2CoP3NO14
_symmetry_space_group_name_H-M   'P 1'
_cell_length_a   8.41795543
_cell_length_b   8.41795543
_cell_length_c   9.12525748
_cell_angle_alpha   74.75452320
_cell_angle_beta   74.75452320
_cell_angle_gamma   76.57059682
_symmetry_Int_Tables_number   1
_chemical_formula_structural   Ga2CoP3NO14
_chemical_formula_sum   'Ga4 Co2 P6 N2 O28'
_cell_volume   592.61018263
_cell_formula_units_Z   2
loop_
 _symmetry_equiv_pos_site_id
 _symmetry_equiv_pos_as_xyz
  1  'x, y, z'
loop_
 _atom_site_type_symbol
 _atom_site_label
 _atom_site_symmetry_multiplicity
 _atom_site_fract_x
 _atom_site_fract_y
 _atom_site_fract_z
 _atom_site_occupancy
  Ga  Ga0  1  0.89580900  0.74682700  0.57018600  1
  Ga  Ga1  1  0.25317300  0.10419100  0.92981400  1
  Ga  Ga2  1  0.10419100  0.25317300  0.42981400  1
  Ga  Ga3  1  0.74682700  0.89580900  0.07018600  1
  Co  Co4  1  0.27746200  0.72253800  0.75000000  1
  Co  Co5  1  0.72253800  0.27746200  0.25000000  1
  P  P6  1  0.99176500  0.00823500  0.25000000  1
  P  P7  1  0.00823500  0.99176500  0.75000000  1
  P  P8  1  0.57829100  0.84460600  0.82562400  1
  P  P9  1  0.15539400  0.42170900  0.67437600  1
  P  P10  1  0.42170900  0.15539400  0.17437600  1
  P  P11  1  0.84460600  0.57829100  0.32562400  1
  N  N12  1  0.63711100  0.36288900  0.75000000  1
  N  N13  1  0.36288900  0.63711100  0.25000000  1
  O  O14  1  0.01970300  0.86228600  0.38753500  1
  O  O15  1  0.13771400  0.98029700  0.11246500  1
  O  O16  1  0.98029700  0.13771400  0.61246500  1
  O  O17  1  0.86228600  0.01970300  0.88753500  1
  O  O18  1  0.47166300  0.71479000  0.82309900  1
  O  O19  1  0.28521000  0.52833700  0.67690100  1
  O  O20  1  0.52833700  0.28521000  0.17690100  1
  O  O21  1  0.71479000  0.47166300  0.32309900  1
  O  O22  1  0.03068800  0.81950900  0.70374100  1
  O  O23  1  0.18049100  0.96931200  0.79625900  1
  O  O24  1  0.96931200  0.18049100  0.29625900  1
  O  O25  1  0.81950900  0.03068800  0.20374100  1
  O  O26  1  0.20354100  0.61385500  0.96200100  1
  O  O27  1  0.38614500  0.79645900  0.53799900  1
  O  O28  1  0.79645900  0.38614500  0.03799900  1
  O  O29  1  0.61385500  0.20354100  0.46200100  1
  O  O30  1  0.70175400  0.87240600  0.66596600  1
  O  O31  1  0.12759400  0.29824600  0.83403400  1
  O  O32  1  0.29824600  0.12759400  0.33403400  1
  O  O33  1  0.87240600  0.70175400  0.16596600  1
  O  O34  1  0.76901400  0.66926900  0.45945700  1
  O  O35  1  0.33073100  0.23098600  0.04054300  1
  O  O36  1  0.23098600  0.33073100  0.54054300  1
  O  O37  1  0.66926900  0.76901400  0.95945700  1
  O  O38  1  0.98456900  0.53169300  0.66024000  1
  O  O39  1  0.46830700  0.01543100  0.83976000  1
  O  O40  1  0.01543100  0.46830700  0.33976000  1
  O  O41  1  0.53169300  0.98456900  0.16024000  1
