# generated using pymatgen
data_TeAsHXeNF11
_symmetry_space_group_name_H-M   'P 1'
_cell_length_a   5.70663300
_cell_length_b   7.44187024
_cell_length_c   12.86576907
_cell_angle_alpha   87.73073166
_cell_angle_beta   84.67299305
_cell_angle_gamma   86.21244414
_symmetry_Int_Tables_number   1
_chemical_formula_structural   TeAsHXeNF11
_chemical_formula_sum   'Te2 As2 H2 Xe2 N2 F22'
_cell_volume   542.52772501
_cell_formula_units_Z   2
loop_
 _symmetry_equiv_pos_site_id
 _symmetry_equiv_pos_as_xyz
  1  'x, y, z'
loop_
 _atom_site_type_symbol
 _atom_site_label
 _atom_site_symmetry_multiplicity
 _atom_site_fract_x
 _atom_site_fract_y
 _atom_site_fract_z
 _atom_site_occupancy
  Te  Te0  1  0.27663800  0.25515300  0.39601700  1
  Te  Te1  1  0.72336200  0.74484700  0.60398300  1
  As  As2  1  0.11101500  0.24539800  0.85247900  1
  As  As3  1  0.88898500  0.75460200  0.14752100  1
  H  H4  1  0.46488800  0.47828400  0.26215900  1
  H  H5  1  0.53511200  0.52171600  0.73784100  1
  Xe  Xe6  1  0.38609600  0.26061300  0.12151000  1
  Xe  Xe7  1  0.61390400  0.73938700  0.87849000  1
  N  N8  1  0.49365600  0.33845200  0.26732400  1
  N  N9  1  0.50634400  0.66154800  0.73267600  1
  F  F10  1  0.10464100  0.17885700  0.51750800  1
  F  F11  1  0.89535900  0.82114300  0.48249200  1
  F  F12  1  0.99121800  0.31372300  0.33580100  1
  F  F13  1  0.00878200  0.68627700  0.66419900  1
  F  F14  1  0.27206500  0.48967700  0.44641600  1
  F  F15  1  0.72793500  0.51032300  0.55358400  1
  F  F16  1  0.28674200  0.02398200  0.34230100  1
  F  F17  1  0.71325800  0.97601800  0.65769900  1
  F  F18  1  0.55352400  0.19460800  0.46024800  1
  F  F19  1  0.44647600  0.80539200  0.53975200  1
  F  F20  1  0.34202200  0.27512100  0.75323700  1
  F  F21  1  0.65797800  0.72487900  0.24676300  1
  F  F22  1  0.09694700  0.02147500  0.81621200  1
  F  F23  1  0.90305300  0.97852500  0.18378800  1
  F  F24  1  0.89600800  0.21304900  0.95826100  1
  F  F25  1  0.10399200  0.78695100  0.04173900  1
  F  F26  1  0.89425700  0.32772200  0.77114900  1
  F  F27  1  0.10574300  0.67227800  0.22885100  1
  F  F28  1  0.14837300  0.46543100  0.89448600  1
  F  F29  1  0.85162700  0.53456900  0.10551400  1
  F  F30  1  0.33583000  0.16335300  0.94174900  1
  F  F31  1  0.66417000  0.83664700  0.05825100  1
