# generated using pymatgen
data_ScBr2O7
_symmetry_space_group_name_H-M   'P 1'
_cell_length_a   6.48172800
_cell_length_b   9.07671400
_cell_length_c   11.89332200
_cell_angle_alpha   90.00000000
_cell_angle_beta   90.00000000
_cell_angle_gamma   90.00000000
_symmetry_Int_Tables_number   1
_chemical_formula_structural   ScBr2O7
_chemical_formula_sum   'Sc4 Br8 O28'
_cell_volume   699.71733087
_cell_formula_units_Z   4
loop_
 _symmetry_equiv_pos_site_id
 _symmetry_equiv_pos_as_xyz
  1  'x, y, z'
loop_
 _atom_site_type_symbol
 _atom_site_label
 _atom_site_symmetry_multiplicity
 _atom_site_fract_x
 _atom_site_fract_y
 _atom_site_fract_z
 _atom_site_occupancy
  Sc  Sc0  1  0.00000000  0.40264800  0.59936000  1
  Sc  Sc1  1  0.00000000  0.59735200  0.40064000  1
  Sc  Sc2  1  0.50000000  0.90264800  0.90064000  1
  Sc  Sc3  1  0.50000000  0.09735200  0.09936000  1
  Br  Br4  1  0.50000000  0.36623600  0.76198700  1
  Br  Br5  1  0.50000000  0.63376400  0.23801300  1
  Br  Br6  1  0.00000000  0.86623600  0.73801300  1
  Br  Br7  1  0.00000000  0.13376400  0.26198700  1
  Br  Br8  1  0.50000000  0.74186300  0.63086100  1
  Br  Br9  1  0.50000000  0.25813700  0.36913900  1
  Br  Br10  1  0.00000000  0.24186300  0.86913900  1
  Br  Br11  1  0.00000000  0.75813700  0.13086100  1
  O  O12  1  0.00000000  0.38368300  0.43746200  1
  O  O13  1  0.00000000  0.61631700  0.56253800  1
  O  O14  1  0.50000000  0.88368300  0.06253800  1
  O  O15  1  0.50000000  0.11631700  0.93746200  1
  O  O16  1  0.00000000  0.20826000  0.72334100  1
  O  O17  1  0.00000000  0.79174000  0.27665900  1
  O  O18  1  0.50000000  0.70826000  0.77665900  1
  O  O19  1  0.50000000  0.29174000  0.22334100  1
  O  O20  1  0.67186800  0.18285700  0.55614000  1
  O  O21  1  0.67186800  0.81714300  0.44386000  1
  O  O22  1  0.82813200  0.68285700  0.94386000  1
  O  O23  1  0.82813200  0.31714300  0.05614000  1
  O  O24  1  0.32813200  0.81714300  0.44386000  1
  O  O25  1  0.32813200  0.18285700  0.55614000  1
  O  O26  1  0.17186800  0.31714300  0.05614000  1
  O  O27  1  0.17186800  0.68285700  0.94386000  1
  O  O28  1  0.70782000  0.43085500  0.68920500  1
  O  O29  1  0.70782000  0.56914500  0.31079500  1
  O  O30  1  0.79218000  0.93085500  0.81079500  1
  O  O31  1  0.79218000  0.06914500  0.18920500  1
  O  O32  1  0.29218000  0.56914500  0.31079500  1
  O  O33  1  0.29218000  0.43085500  0.68920500  1
  O  O34  1  0.20782000  0.06914500  0.18920500  1
  O  O35  1  0.20782000  0.93085500  0.81079500  1
  O  O36  1  0.50000000  0.14493700  0.61113600  1
  O  O37  1  0.50000000  0.85506300  0.38886400  1
  O  O38  1  0.00000000  0.64493700  0.88886400  1
  O  O39  1  0.00000000  0.35506300  0.11113600  1
