# generated using pymatgen
data_AlBi2Te2BrCl4
_symmetry_space_group_name_H-M   'P 1'
_cell_length_a   11.65520767
_cell_length_b   11.65520767
_cell_length_c   13.77818666
_cell_angle_alpha   81.59185824
_cell_angle_beta   81.59185824
_cell_angle_gamma   43.82232697
_symmetry_Int_Tables_number   1
_chemical_formula_structural   AlBi2Te2BrCl4
_chemical_formula_sum   'Al4 Bi8 Te8 Br4 Cl16'
_cell_volume   1279.80049127
_cell_formula_units_Z   4
loop_
 _symmetry_equiv_pos_site_id
 _symmetry_equiv_pos_as_xyz
  1  'x, y, z'
loop_
 _atom_site_type_symbol
 _atom_site_label
 _atom_site_symmetry_multiplicity
 _atom_site_fract_x
 _atom_site_fract_y
 _atom_site_fract_z
 _atom_site_occupancy
  Al  Al0  1  0.61019300  0.85566200  0.82653800  1
  Al  Al1  1  0.14433800  0.38980700  0.67346200  1
  Al  Al2  1  0.38980700  0.14433800  0.17346200  1
  Al  Al3  1  0.85566200  0.61019300  0.32653800  1
  Bi  Bi4  1  0.68840400  0.44474000  0.88960800  1
  Bi  Bi5  1  0.55526000  0.31159600  0.61039200  1
  Bi  Bi6  1  0.31159600  0.55526000  0.11039200  1
  Bi  Bi7  1  0.44474000  0.68840400  0.38960800  1
  Bi  Bi8  1  0.81097500  0.06695200  0.11080900  1
  Bi  Bi9  1  0.93304800  0.18902500  0.38919100  1
  Bi  Bi10  1  0.18902500  0.93304800  0.88919100  1
  Bi  Bi11  1  0.06695200  0.81097500  0.61080900  1
  Te  Te12  1  0.55482400  0.30110300  0.95990200  1
  Te  Te13  1  0.69889700  0.44517600  0.54009800  1
  Te  Te14  1  0.44517600  0.69889700  0.04009800  1
  Te  Te15  1  0.30110300  0.55482400  0.45990200  1
  Te  Te16  1  0.95444200  0.20106500  0.03483700  1
  Te  Te17  1  0.79893500  0.04555800  0.46516300  1
  Te  Te18  1  0.04555800  0.79893500  0.96516300  1
  Te  Te19  1  0.20106500  0.95444200  0.53483700  1
  Br  Br20  1  0.12463300  0.87536700  0.25000000  1
  Br  Br21  1  0.87536700  0.12463300  0.75000000  1
  Br  Br22  1  0.62537600  0.37462400  0.25000000  1
  Br  Br23  1  0.37462400  0.62537600  0.75000000  1
  Cl  Cl24  1  0.79255100  0.63572500  0.91833800  1
  Cl  Cl25  1  0.36427500  0.20744900  0.58166200  1
  Cl  Cl26  1  0.20744900  0.36427500  0.08166200  1
  Cl  Cl27  1  0.63572500  0.79255100  0.41833800  1
  Cl  Cl28  1  0.37439700  0.04034800  0.90836900  1
  Cl  Cl29  1  0.95965200  0.62560300  0.59163100  1
  Cl  Cl30  1  0.62560300  0.95965200  0.09163100  1
  Cl  Cl31  1  0.04034800  0.37439700  0.40836900  1
  Cl  Cl32  1  0.55793400  0.78316200  0.71961800  1
  Cl  Cl33  1  0.21683800  0.44206600  0.78038200  1
  Cl  Cl34  1  0.44206600  0.21683800  0.28038200  1
  Cl  Cl35  1  0.78316200  0.55793400  0.21961800  1
  Cl  Cl36  1  0.70324100  0.96034900  0.76934000  1
  Cl  Cl37  1  0.03965100  0.29675900  0.73066000  1
  Cl  Cl38  1  0.29675900  0.03965100  0.23066000  1
  Cl  Cl39  1  0.96034900  0.70324100  0.26934000  1
