# generated using pymatgen
data_InH10C2SeCl3O2
_symmetry_space_group_name_H-M   'P 1'
_cell_length_a   10.85520100
_cell_length_b   11.17789600
_cell_length_c   17.70500000
_cell_angle_alpha   90.00000000
_cell_angle_beta   90.00000000
_cell_angle_gamma   90.00000000
_symmetry_Int_Tables_number   1
_chemical_formula_structural   InH10C2SeCl3O2
_chemical_formula_sum   'In8 H80 C16 Se8 Cl24 O16'
_cell_volume   2148.29474026
_cell_formula_units_Z   8
loop_
 _symmetry_equiv_pos_site_id
 _symmetry_equiv_pos_as_xyz
  1  'x, y, z'
loop_
 _atom_site_type_symbol
 _atom_site_label
 _atom_site_symmetry_multiplicity
 _atom_site_fract_x
 _atom_site_fract_y
 _atom_site_fract_z
 _atom_site_occupancy
  In  In0  1  0.24732500  0.48229100  0.68140800  1
  In  In1  1  0.74732500  0.51770900  0.81859200  1
  In  In2  1  0.75267500  0.01770900  0.18140800  1
  In  In3  1  0.25267500  0.98229100  0.31859200  1
  In  In4  1  0.75267500  0.51770900  0.31859200  1
  In  In5  1  0.25267500  0.48229100  0.18140800  1
  In  In6  1  0.24732500  0.98229100  0.81859200  1
  In  In7  1  0.74732500  0.01770900  0.68140800  1
  H  H8  1  0.05988000  0.36934300  0.77887000  1
  H  H9  1  0.55988000  0.63065700  0.72113000  1
  H  H10  1  0.94012000  0.13065700  0.27887000  1
  H  H11  1  0.44012000  0.86934300  0.22113000  1
  H  H12  1  0.94012000  0.63065700  0.22113000  1
  H  H13  1  0.44012000  0.36934300  0.27887000  1
  H  H14  1  0.05988000  0.86934300  0.72113000  1
  H  H15  1  0.55988000  0.13065700  0.77887000  1
  H  H16  1  0.13402900  0.26505200  0.73529000  1
  H  H17  1  0.63402900  0.73494800  0.76471000  1
  H  H18  1  0.86597100  0.23494800  0.23529000  1
  H  H19  1  0.36597100  0.76505200  0.26471000  1
  H  H20  1  0.86597100  0.73494800  0.26471000  1
  H  H21  1  0.36597100  0.26505200  0.23529000  1
  H  H22  1  0.13402900  0.76505200  0.76471000  1
  H  H23  1  0.63402900  0.23494800  0.73529000  1
  H  H24  1  0.16449800  0.45771400  0.46498400  1
  H  H25  1  0.66449800  0.54228600  0.03501600  1
  H  H26  1  0.83550200  0.04228600  0.96498400  1
  H  H27  1  0.33550200  0.95771400  0.53501600  1
  H  H28  1  0.83550200  0.54228600  0.53501600  1
  H  H29  1  0.33550200  0.45771400  0.96498400  1
  H  H30  1  0.16449800  0.95771400  0.03501600  1
  H  H31  1  0.66449800  0.04228600  0.46498400  1
  H  H32  1  0.29731400  0.38135700  0.42788300  1
  H  H33  1  0.79731400  0.61864300  0.07211700  1
  H  H34  1  0.70268600  0.11864300  0.92788300  1
  H  H35  1  0.20268600  0.88135700  0.57211700  1
  H  H36  1  0.70268600  0.61864300  0.57211700  1
  H  H37  1  0.20268600  0.38135700  0.92788300  1
  H  H38  1  0.29731400  0.88135700  0.07211700  1
  H  H39  1  0.79731400  0.11864300  0.42788300  1
  H  H40  1  0.31729700  0.50940200  0.48890000  1
  H  H41  1  0.81729700  0.49059800  0.01110000  1
  H  H42  1  0.68270300  0.99059800  0.98890000  1
  H  H43  1  0.18270300  0.00940200  0.51110000  1
  H  H44  1  0.68270300  0.49059800  0.51110000  1
  H  H45  1  0.18270300  0.50940200  0.98890000  1
  H  H46  1  0.31729700  0.00940200  0.01110000  1
  H  H47  1  0.81729700  0.99059800  0.48890000  1
  H  H48  1  0.44685300  0.20904400  0.60267100  1
  H  H49  1  0.94685300  0.79095600  0.89732900  1
  H  H50  1  0.55314700  0.29095600  0.10267100  1
  H  H51  1  0.05314700  0.70904400  0.39732900  1
  H  H52  1  0.55314700  0.79095600  0.39732900  1
  H  H53  1  0.05314700  0.20904400  0.10267100  1
  H  H54  1  0.44685300  0.70904400  0.89732900  1
  H  H55  1  0.94685300  0.29095600  0.60267100  1
  H  H56  1  0.45510300  0.24848000  0.50389000  1
  H  H57  1  0.95510300  0.75152000  0.99611000  1
  H  H58  1  0.54489700  0.25152000  0.00389000  1
  H  H59  1  0.04489700  0.74848000  0.49611000  1
  H  H60  1  0.54489700  0.75152000  0.49611000  1
  H  H61  1  0.04489700  0.24848000  0.00389000  1
  H  H62  1  0.45510300  0.74848000  0.99611000  1
  H  H63  1  0.95510300  0.25152000  0.50389000  1
  H  H64  1  0.48745800  0.35997200  0.57555000  1
  H  H65  1  0.98745800  0.64002800  0.92445000  1
  H  H66  1  0.51254200  0.14002800  0.07555000  1
  H  H67  1  0.01254200  0.85997200  0.42445000  1
  H  H68  1  0.51254200  0.64002800  0.42445000  1
  H  H69  1  0.01254200  0.35997200  0.07555000  1
  H  H70  1  0.48745800  0.85997200  0.92445000  1
  H  H71  1  0.98745800  0.14002800  0.57555000  1
  H  H72  1  0.36635400  0.27356700  0.74764400  1
  H  H73  1  0.86635400  0.72643300  0.75235600  1
  H  H74  1  0.63364600  0.22643300  0.24764400  1
  H  H75  1  0.13364600  0.77356700  0.25235600  1
  H  H76  1  0.63364600  0.72643300  0.25235600  1
  H  H77  1  0.13364600  0.27356700  0.24764400  1
  H  H78  1  0.36635400  0.77356700  0.75235600  1
  H  H79  1  0.86635400  0.22643300  0.74764400  1
  H  H80  1  0.43591200  0.38299300  0.78660800  1
  H  H81  1  0.93591200  0.61700700  0.71339200  1
  H  H82  1  0.56408800  0.11700700  0.28660800  1
  H  H83  1  0.06408800  0.88299300  0.21339200  1
  H  H84  1  0.56408800  0.61700700  0.21339200  1
  H  H85  1  0.06408800  0.38299300  0.28660800  1
  H  H86  1  0.43591200  0.88299300  0.71339200  1
  H  H87  1  0.93591200  0.11700700  0.78660800  1
  C  C88  1  0.43395900  0.28030500  0.56095100  1
  C  C89  1  0.93395900  0.71969500  0.93904900  1
  C  C90  1  0.56604100  0.21969500  0.06095100  1
  C  C91  1  0.06604100  0.78030500  0.43904900  1
  C  C92  1  0.56604100  0.71969500  0.43904900  1
  C  C93  1  0.06604100  0.28030500  0.06095100  1
  C  C94  1  0.43395900  0.78030500  0.93904900  1
  C  C95  1  0.93395900  0.21969500  0.56095100  1
  C  C96  1  0.26004400  0.43155400  0.47583200  1
  C  C97  1  0.76004400  0.56844600  0.02416800  1
  C  C98  1  0.73995600  0.06844600  0.97583200  1
  C  C99  1  0.23995600  0.93155400  0.52416800  1
  C  C100  1  0.73995600  0.56844600  0.52416800  1
  C  C101  1  0.23995600  0.43155400  0.97583200  1
  C  C102  1  0.26004400  0.93155400  0.02416800  1
  C  C103  1  0.76004400  0.06844600  0.47583200  1
  Se  Se104  1  0.25790600  0.32030100  0.56166900  1
  Se  Se105  1  0.75790600  0.67969900  0.93833100  1
  Se  Se106  1  0.74209400  0.17969900  0.06166900  1
  Se  Se107  1  0.24209400  0.82030100  0.43833100  1
  Se  Se108  1  0.74209400  0.67969900  0.43833100  1
  Se  Se109  1  0.24209400  0.32030100  0.06166900  1
  Se  Se110  1  0.25790600  0.82030100  0.93833100  1
  Se  Se111  1  0.75790600  0.17969900  0.56166900  1
  Cl  Cl112  1  0.42334700  0.60323800  0.63182600  1
  Cl  Cl113  1  0.92334700  0.39676200  0.86817400  1
  Cl  Cl114  1  0.57665300  0.89676200  0.13182600  1
  Cl  Cl115  1  0.07665300  0.10323800  0.36817400  1
  Cl  Cl116  1  0.57665300  0.39676200  0.36817400  1
  Cl  Cl117  1  0.07665300  0.60323800  0.13182600  1
  Cl  Cl118  1  0.42334700  0.10323800  0.86817400  1
  Cl  Cl119  1  0.92334700  0.89676200  0.63182600  1
  Cl  Cl120  1  0.23720300  0.60630300  0.79871500  1
  Cl  Cl121  1  0.73720300  0.39369700  0.70128500  1
  Cl  Cl122  1  0.76279700  0.89369700  0.29871500  1
  Cl  Cl123  1  0.26279700  0.10630300  0.20128500  1
  Cl  Cl124  1  0.76279700  0.39369700  0.20128500  1
  Cl  Cl125  1  0.26279700  0.60630300  0.29871500  1
  Cl  Cl126  1  0.23720300  0.10630300  0.70128500  1
  Cl  Cl127  1  0.73720300  0.89369700  0.79871500  1
  Cl  Cl128  1  0.06697900  0.58447200  0.62183800  1
  Cl  Cl129  1  0.56697900  0.41552800  0.87816200  1
  Cl  Cl130  1  0.93302100  0.91552800  0.12183800  1
  Cl  Cl131  1  0.43302100  0.08447200  0.37816200  1
  Cl  Cl132  1  0.93302100  0.41552800  0.37816200  1
  Cl  Cl133  1  0.43302100  0.58447200  0.12183800  1
  Cl  Cl134  1  0.06697900  0.08447200  0.87816200  1
  Cl  Cl135  1  0.56697900  0.91552800  0.62183800  1
  O  O136  1  0.10769800  0.34979700  0.73270000  1
  O  O137  1  0.60769800  0.65020300  0.76730000  1
  O  O138  1  0.89230200  0.15020300  0.23270000  1
  O  O139  1  0.39230200  0.84979700  0.26730000  1
  O  O140  1  0.89230200  0.65020300  0.26730000  1
  O  O141  1  0.39230200  0.34979700  0.23270000  1
  O  O142  1  0.10769800  0.84979700  0.76730000  1
  O  O143  1  0.60769800  0.15020300  0.73270000  1
  O  O144  1  0.38890600  0.35807100  0.74106400  1
  O  O145  1  0.88890600  0.64192900  0.75893600  1
  O  O146  1  0.61109400  0.14192900  0.24106400  1
  O  O147  1  0.11109400  0.85807100  0.25893600  1
  O  O148  1  0.61109400  0.64192900  0.25893600  1
  O  O149  1  0.11109400  0.35807100  0.24106400  1
  O  O150  1  0.38890600  0.85807100  0.75893600  1
  O  O151  1  0.88890600  0.14192900  0.74106400  1
