# generated using pymatgen
data_K3Fe(CN)6
_symmetry_space_group_name_H-M   'P 1'
_cell_length_a   8.46244127
_cell_length_b   10.61790400
_cell_length_c   14.24893710
_cell_angle_alpha   90.00000000
_cell_angle_beta   107.21358858
_cell_angle_gamma   90.00000000
_symmetry_Int_Tables_number   1
_chemical_formula_structural   K3Fe(CN)6
_chemical_formula_sum   'K12 Fe4 C24 N24'
_cell_volume   1222.96766713
_cell_formula_units_Z   4
loop_
 _symmetry_equiv_pos_site_id
 _symmetry_equiv_pos_as_xyz
  1  'x, y, z'
loop_
 _atom_site_type_symbol
 _atom_site_label
 _atom_site_symmetry_multiplicity
 _atom_site_fract_x
 _atom_site_fract_y
 _atom_site_fract_z
 _atom_site_occupancy
  K  K0  1  0.99684600  0.48892000  0.74390400  1
  K  K1  1  0.49684600  0.01108000  0.24390400  1
  K  K2  1  0.00315400  0.51108000  0.25609600  1
  K  K3  1  0.50315400  0.98892000  0.75609600  1
  K  K4  1  0.62532600  0.74931700  0.00111900  1
  K  K5  1  0.12532600  0.75068300  0.50111900  1
  K  K6  1  0.37467400  0.25068300  0.99888100  1
  K  K7  1  0.87467400  0.24931700  0.49888100  1
  K  K8  1  0.87604400  0.28200000  0.99966400  1
  K  K9  1  0.37604400  0.21800000  0.49966400  1
  K  K10  1  0.12395600  0.71800000  0.00033600  1
  K  K11  1  0.62395600  0.78200000  0.50033600  1
  Fe  Fe12  1  0.49842800  0.49021100  0.74670900  1
  Fe  Fe13  1  0.99842800  0.00978900  0.24670900  1
  Fe  Fe14  1  0.50157200  0.50978900  0.25329100  1
  Fe  Fe15  1  0.00157200  0.99021100  0.75329100  1
  C  C16  1  0.52812000  0.32716700  0.80649400  1
  C  C17  1  0.02812000  0.17283300  0.30649400  1
  C  C18  1  0.47188000  0.67283300  0.19350600  1
  C  C19  1  0.97188000  0.82716700  0.69350600  1
  C  C20  1  0.70319300  0.54169800  0.83745900  1
  C  C21  1  0.20319300  0.95830200  0.33745900  1
  C  C22  1  0.29680700  0.45830200  0.16254100  1
  C  C23  1  0.79680700  0.04169800  0.66254100  1
  C  C24  1  0.38669100  0.54050500  0.83943300  1
  C  C25  1  0.88669100  0.95949500  0.33943300  1
  C  C26  1  0.61330900  0.45949500  0.16056700  1
  C  C27  1  0.11330900  0.04050500  0.66056700  1
  C  C28  1  0.47063600  0.65401900  0.68821800  1
  C  C29  1  0.97063600  0.84598100  0.18821800  1
  C  C30  1  0.52936400  0.34598100  0.31178200  1
  C  C31  1  0.02936400  0.15401900  0.81178200  1
  C  C32  1  0.29520100  0.43418100  0.65674000  1
  C  C33  1  0.79520100  0.06581900  0.15674000  1
  C  C34  1  0.70479900  0.56581900  0.34326000  1
  C  C35  1  0.20479900  0.93418100  0.84326000  1
  C  C36  1  0.61018500  0.43505700  0.65501800  1
  C  C37  1  0.11018500  0.06494300  0.15501800  1
  C  C38  1  0.38981500  0.56494300  0.34498200  1
  C  C39  1  0.88981500  0.93505700  0.84498200  1
  N  N40  1  0.55042100  0.22939100  0.84730400  1
  N  N41  1  0.05042100  0.27060900  0.34730400  1
  N  N42  1  0.44957900  0.77060900  0.15269600  1
  N  N43  1  0.94957900  0.72939100  0.65269600  1
  N  N44  1  0.83142400  0.57008800  0.89320400  1
  N  N45  1  0.33142400  0.92991200  0.39320400  1
  N  N46  1  0.16857600  0.42991200  0.10679600  1
  N  N47  1  0.66857600  0.07008800  0.60679600  1
  N  N48  1  0.31531500  0.57042500  0.89549300  1
  N  N49  1  0.81531500  0.92957500  0.39549300  1
  N  N50  1  0.68468500  0.42957500  0.10450700  1
  N  N51  1  0.18468500  0.07042500  0.60450700  1
  N  N52  1  0.45106300  0.75394500  0.65071600  1
  N  N53  1  0.95106300  0.74605500  0.15071600  1
  N  N54  1  0.54893700  0.24605500  0.34928400  1
  N  N55  1  0.04893700  0.25394500  0.84928400  1
  N  N56  1  0.16818800  0.39925700  0.60336800  1
  N  N57  1  0.66818800  0.10074300  0.10336800  1
  N  N58  1  0.83181200  0.60074300  0.39663200  1
  N  N59  1  0.33181200  0.89925700  0.89663200  1
  N  N60  1  0.68232500  0.39837200  0.60128200  1
  N  N61  1  0.18232500  0.10162800  0.10128200  1
  N  N62  1  0.31767500  0.60162800  0.39871800  1
  N  N63  1  0.81767500  0.89837200  0.89871800  1
