# generated using pymatgen
data_Ti2Bi2O7
_symmetry_space_group_name_H-M   'P 1'
_cell_length_a   7.42726900
_cell_length_b   7.45512200
_cell_length_c   10.52072400
_cell_angle_alpha   90.00000000
_cell_angle_beta   90.00000000
_cell_angle_gamma   90.00000000
_symmetry_Int_Tables_number   1
_chemical_formula_structural   Ti2Bi2O7
_chemical_formula_sum   'Ti8 Bi8 O28'
_cell_volume   582.54507616
_cell_formula_units_Z   4
loop_
 _symmetry_equiv_pos_site_id
 _symmetry_equiv_pos_as_xyz
  1  'x, y, z'
loop_
 _atom_site_type_symbol
 _atom_site_label
 _atom_site_symmetry_multiplicity
 _atom_site_fract_x
 _atom_site_fract_y
 _atom_site_fract_z
 _atom_site_occupancy
  Ti  Ti0  1  0.00970700  0.00495000  0.01017500  1
  Ti  Ti1  1  0.99029300  0.50495000  0.98982500  1
  Ti  Ti2  1  0.49029300  0.50495000  0.51017500  1
  Ti  Ti3  1  0.50970700  0.00495000  0.48982500  1
  Ti  Ti4  1  0.23942800  0.24495700  0.73764000  1
  Ti  Ti5  1  0.76057200  0.74495700  0.26236000  1
  Ti  Ti6  1  0.26057200  0.74495700  0.23764000  1
  Ti  Ti7  1  0.73942800  0.24495700  0.76236000  1
  Bi  Bi8  1  0.03681800  0.97484700  0.47075600  1
  Bi  Bi9  1  0.96318200  0.47484700  0.52924400  1
  Bi  Bi10  1  0.46318200  0.47484700  0.97075600  1
  Bi  Bi11  1  0.53681800  0.97484700  0.02924400  1
  Bi  Bi12  1  0.28218300  0.29190300  0.26627400  1
  Bi  Bi13  1  0.71781700  0.79190300  0.73372600  1
  Bi  Bi14  1  0.21781700  0.79190300  0.76627400  1
  Bi  Bi15  1  0.78218300  0.29190300  0.23372600  1
  O  O16  1  0.19027700  0.43718900  0.87669500  1
  O  O17  1  0.80972300  0.93718900  0.12330500  1
  O  O18  1  0.30972300  0.93718900  0.37669500  1
  O  O19  1  0.69027700  0.43718900  0.62330500  1
  O  O20  1  0.70258600  0.93223300  0.38365500  1
  O  O21  1  0.29741400  0.43223300  0.61634500  1
  O  O22  1  0.79741400  0.43223300  0.88365500  1
  O  O23  1  0.20258600  0.93223300  0.11634500  1
  O  O24  1  0.78996300  0.04633600  0.87560600  1
  O  O25  1  0.21003700  0.54633600  0.12439400  1
  O  O26  1  0.71003700  0.54633600  0.37560600  1
  O  O27  1  0.28996300  0.04633600  0.62439400  1
  O  O28  1  0.32858500  0.55263500  0.36474100  1
  O  O29  1  0.67141500  0.05263500  0.63525900  1
  O  O30  1  0.17141500  0.05263500  0.86474100  1
  O  O31  1  0.82858500  0.55263500  0.13525900  1
  O  O32  1  0.98790300  0.26165300  0.68370200  1
  O  O33  1  0.01209700  0.76165300  0.31629800  1
  O  O34  1  0.51209700  0.76165300  0.18370200  1
  O  O35  1  0.48790300  0.26165300  0.81629800  1
  O  O36  1  0.50412300  0.74496200  0.57090700  1
  O  O37  1  0.49587700  0.24496200  0.42909300  1
  O  O38  1  0.99587700  0.24496200  0.07090700  1
  O  O39  1  0.00412300  0.74496200  0.92909300  1
  O  O40  1  0.98333600  0.75821500  0.62272000  1
  O  O41  1  0.01666400  0.25821500  0.37728000  1
  O  O42  1  0.51666400  0.25821500  0.12272000  1
  O  O43  1  0.48333600  0.75821500  0.87728000  1
