# generated using pymatgen
data_HgS2(IN2)2
_symmetry_space_group_name_H-M   'P 1'
_cell_length_a   9.26897600
_cell_length_b   9.26897600
_cell_length_c   13.27728500
_cell_angle_alpha   90.00000000
_cell_angle_beta   90.00000000
_cell_angle_gamma   90.00000000
_symmetry_Int_Tables_number   1
_chemical_formula_structural   HgS2(IN2)2
_chemical_formula_sum   'Hg4 S8 I8 N16'
_cell_volume   1140.70354937
_cell_formula_units_Z   4
loop_
 _symmetry_equiv_pos_site_id
 _symmetry_equiv_pos_as_xyz
  1  'x, y, z'
loop_
 _atom_site_type_symbol
 _atom_site_label
 _atom_site_symmetry_multiplicity
 _atom_site_fract_x
 _atom_site_fract_y
 _atom_site_fract_z
 _atom_site_occupancy
  Hg  Hg0  1  0.00000000  0.50000000  0.78756300  1
  Hg  Hg1  1  0.00000000  0.50000000  0.28756300  1
  Hg  Hg2  1  0.50000000  0.00000000  0.71243700  1
  Hg  Hg3  1  0.50000000  0.00000000  0.21243700  1
  S  S4  1  0.00000000  0.85282100  0.57355100  1
  S  S5  1  0.00000000  0.14717900  0.57355100  1
  S  S6  1  0.35282100  0.50000000  0.07355100  1
  S  S7  1  0.64717900  0.50000000  0.07355100  1
  S  S8  1  0.50000000  0.64717900  0.92644900  1
  S  S9  1  0.50000000  0.35282100  0.92644900  1
  S  S10  1  0.14717900  0.00000000  0.42644900  1
  S  S11  1  0.85282100  0.00000000  0.42644900  1
  I  I12  1  0.26324700  0.50000000  0.70263500  1
  I  I13  1  0.73675300  0.50000000  0.70263500  1
  I  I14  1  0.00000000  0.76324700  0.20263500  1
  I  I15  1  0.00000000  0.23675300  0.20263500  1
  I  I16  1  0.23675300  0.00000000  0.79736500  1
  I  I17  1  0.76324700  0.00000000  0.79736500  1
  I  I18  1  0.50000000  0.73675300  0.29736500  1
  I  I19  1  0.50000000  0.26324700  0.29736500  1
  N  N20  1  0.00000000  0.68697700  0.91333900  1
  N  N21  1  0.00000000  0.31302300  0.91333900  1
  N  N22  1  0.18697700  0.50000000  0.41333900  1
  N  N23  1  0.81302300  0.50000000  0.41333900  1
  N  N24  1  0.50000000  0.81302300  0.58666100  1
  N  N25  1  0.50000000  0.18697700  0.58666100  1
  N  N26  1  0.31302300  0.00000000  0.08666100  1
  N  N27  1  0.68697700  0.00000000  0.08666100  1
  N  N28  1  0.14079400  0.85920600  0.50000000  1
  N  N29  1  0.85920600  0.85920600  0.50000000  1
  N  N30  1  0.14079400  0.14079400  0.50000000  1
  N  N31  1  0.85920600  0.14079400  0.50000000  1
  N  N32  1  0.35920600  0.64079400  0.00000000  1
  N  N33  1  0.64079400  0.64079400  0.00000000  1
  N  N34  1  0.35920600  0.35920600  0.00000000  1
  N  N35  1  0.64079400  0.35920600  0.00000000  1
