# generated using pymatgen
data_SiP2H18(C3Cl2)2
_symmetry_space_group_name_H-M   'P 1'
_cell_length_a   8.60405200
_cell_length_b   6.92069300
_cell_length_c   13.84042248
_cell_angle_alpha   77.87559300
_cell_angle_beta   90.00000000
_cell_angle_gamma   90.00000000
_symmetry_Int_Tables_number   1
_chemical_formula_structural   SiP2H18(C3Cl2)2
_chemical_formula_sum   'Si2 P4 H36 C12 Cl8'
_cell_volume   805.75840314
_cell_formula_units_Z   2
loop_
 _symmetry_equiv_pos_site_id
 _symmetry_equiv_pos_as_xyz
  1  'x, y, z'
loop_
 _atom_site_type_symbol
 _atom_site_label
 _atom_site_symmetry_multiplicity
 _atom_site_fract_x
 _atom_site_fract_y
 _atom_site_fract_z
 _atom_site_occupancy
  Si  Si0  1  0.50000000  0.00000000  0.50000000  1
  Si  Si1  1  0.00000000  0.00000000  0.00000000  1
  P  P2  1  0.70489100  0.82355300  0.60141400  1
  P  P3  1  0.20489100  0.17644700  0.89858600  1
  P  P4  1  0.29510900  0.17644700  0.39858600  1
  P  P5  1  0.79510900  0.82355300  0.10141400  1
  H  H6  1  0.95145300  0.90023600  0.66773600  1
  H  H7  1  0.45145300  0.09976400  0.83226400  1
  H  H8  1  0.04854700  0.09976400  0.33226400  1
  H  H9  1  0.54854700  0.90023600  0.16773600  1
  H  H10  1  0.80051400  0.06244400  0.69133400  1
  H  H11  1  0.30051400  0.93755600  0.80866600  1
  H  H12  1  0.19948600  0.93755600  0.30866600  1
  H  H13  1  0.69948600  0.06244400  0.19133400  1
  H  H14  1  0.88229800  0.09631800  0.56980100  1
  H  H15  1  0.38229800  0.90368200  0.93019900  1
  H  H16  1  0.11770200  0.90368200  0.43019900  1
  H  H17  1  0.61770200  0.09631800  0.06980100  1
  H  H18  1  0.85348200  0.73530300  0.47003600  1
  H  H19  1  0.35348200  0.26469700  0.02996400  1
  H  H20  1  0.14651800  0.26469700  0.52996400  1
  H  H21  1  0.64651800  0.73530300  0.97003600  1
  H  H22  1  0.73943300  0.53180500  0.53328400  1
  H  H23  1  0.23943300  0.46819500  0.96671600  1
  H  H24  1  0.26056700  0.46819500  0.46671600  1
  H  H25  1  0.76056700  0.53180500  0.03328400  1
  H  H26  1  0.91507200  0.59850800  0.58900100  1
  H  H27  1  0.41507200  0.40149200  0.91099900  1
  H  H28  1  0.08492800  0.40149200  0.41099900  1
  H  H29  1  0.58492800  0.59850800  0.08900100  1
  H  H30  1  0.56981000  0.55364700  0.70423300  1
  H  H31  1  0.06981000  0.44635300  0.79576700  1
  H  H32  1  0.43019000  0.44635300  0.29576700  1
  H  H33  1  0.93019000  0.55364700  0.20423300  1
  H  H34  1  0.57947800  0.76627100  0.75945600  1
  H  H35  1  0.07947800  0.23372900  0.74054400  1
  H  H36  1  0.42052200  0.23372900  0.24054400  1
  H  H37  1  0.92052200  0.76627100  0.25945600  1
  H  H38  1  0.74691900  0.61052900  0.76184600  1
  H  H39  1  0.24691900  0.38947100  0.73815400  1
  H  H40  1  0.25308100  0.38947100  0.23815400  1
  H  H41  1  0.75308100  0.61052900  0.26184600  1
  C  C42  1  0.84966000  0.98762100  0.63583600  1
  C  C43  1  0.34966000  0.01237900  0.86416400  1
  C  C44  1  0.15034000  0.01237900  0.36416400  1
  C  C45  1  0.65034000  0.98762100  0.13583600  1
  C  C46  1  0.81403900  0.65508500  0.54264000  1
  C  C47  1  0.31403900  0.34491500  0.95736000  1
  C  C48  1  0.18596100  0.34491500  0.45736000  1
  C  C49  1  0.68596100  0.65508500  0.04264000  1
  C  C50  1  0.64398500  0.67249800  0.71859900  1
  C  C51  1  0.14398500  0.32750200  0.78140100  1
  C  C52  1  0.35601500  0.32750200  0.28140100  1
  C  C53  1  0.85601500  0.67249800  0.21859900  1
  Cl  Cl54  1  0.68480300  0.17154600  0.40452500  1
  Cl  Cl55  1  0.18480300  0.82845400  0.09547500  1
  Cl  Cl56  1  0.31519700  0.82845400  0.59547500  1
  Cl  Cl57  1  0.81519700  0.17154600  0.90452500  1
  Cl  Cl58  1  0.50183600  0.22140600  0.59717100  1
  Cl  Cl59  1  0.00183600  0.77859400  0.90282900  1
  Cl  Cl60  1  0.49816400  0.77859400  0.40282900  1
  Cl  Cl61  1  0.99816400  0.22140600  0.09717100  1
