# generated using pymatgen
data_Si5H42(C7N)2
_symmetry_space_group_name_H-M   'P 1'
_cell_length_a   13.42896958
_cell_length_b   13.49175131
_cell_length_c   15.74814060
_cell_angle_alpha   90.00000000
_cell_angle_beta   90.00000000
_cell_angle_gamma   90.00000000
_symmetry_Int_Tables_number   1
_chemical_formula_structural   Si5H42(C7N)2
_chemical_formula_sum   'Si20 H168 C56 N8'
_cell_volume   2853.25312060
_cell_formula_units_Z   4
loop_
 _symmetry_equiv_pos_site_id
 _symmetry_equiv_pos_as_xyz
  1  'x, y, z'
loop_
 _atom_site_type_symbol
 _atom_site_label
 _atom_site_symmetry_multiplicity
 _atom_site_fract_x
 _atom_site_fract_y
 _atom_site_fract_z
 _atom_site_occupancy
  Si  Si0  1  0.21397873  0.14008169  0.86322315  1
  Si  Si1  1  0.71397873  0.35991831  0.63677685  1
  Si  Si2  1  0.78602127  0.35991831  0.36322315  1
  Si  Si3  1  0.28602127  0.14008169  0.13677685  1
  Si  Si4  1  0.78602127  0.85991831  0.13677685  1
  Si  Si5  1  0.28602127  0.64008169  0.36322315  1
  Si  Si6  1  0.21397873  0.64008169  0.63677685  1
  Si  Si7  1  0.71397873  0.85991831  0.86322315  1
  Si  Si8  1  0.04307104  0.27114460  0.91769129  1
  Si  Si9  1  0.54307104  0.22885540  0.58230871  1
  Si  Si10  1  0.95692896  0.22885540  0.41769129  1
  Si  Si11  1  0.45692896  0.27114460  0.08230871  1
  Si  Si12  1  0.95692896  0.72885540  0.08230871  1
  Si  Si13  1  0.45692896  0.77114460  0.41769129  1
  Si  Si14  1  0.04307104  0.77114460  0.58230871  1
  Si  Si15  1  0.54307104  0.72885540  0.91769129  1
  Si  Si16  1  0.25000000  0.30105616  0.00000000  1
  Si  Si17  1  0.75000000  0.19894384  0.50000000  1
  Si  Si18  1  0.75000000  0.69894384  0.00000000  1
  Si  Si19  1  0.25000000  0.80105616  0.50000000  1
  H  H20  1  0.36829805  0.44027545  0.96170623  1
  H  H21  1  0.86829805  0.05972455  0.53829377  1
  H  H22  1  0.63170195  0.05972455  0.46170623  1
  H  H23  1  0.13170195  0.44027545  0.03829377  1
  H  H24  1  0.63170195  0.55972455  0.03829377  1
  H  H25  1  0.13170195  0.94027545  0.46170623  1
  H  H26  1  0.36829805  0.94027545  0.53829377  1
  H  H27  1  0.86829805  0.55972455  0.96170623  1
  H  H28  1  0.35966581  0.35429392  0.87588423  1
  H  H29  1  0.85966581  0.14570608  0.62411577  1
  H  H30  1  0.64033419  0.14570608  0.37588423  1
  H  H31  1  0.14033419  0.35429392  0.12411577  1
  H  H32  1  0.64033419  0.64570608  0.12411577  1
  H  H33  1  0.14033419  0.85429392  0.37588423  1
  H  H34  1  0.35966581  0.85429392  0.62411577  1
  H  H35  1  0.85966581  0.64570608  0.87588423  1
  H  H36  1  0.25942250  0.43543688  0.89832228  1
  H  H37  1  0.75942250  0.06456312  0.60167772  1
  H  H38  1  0.74057750  0.06456312  0.39832228  1
  H  H39  1  0.24057750  0.43543688  0.10167772  1
  H  H40  1  0.74057750  0.56456312  0.10167772  1
  H  H41  1  0.24057750  0.93543688  0.39832228  1
  H  H42  1  0.25942250  0.93543688  0.60167772  1
  H  H43  1  0.75942250  0.56456312  0.89832228  1
  H  H44  1  0.96086074  0.10738999  0.89271178  1
  H  H45  1  0.46086074  0.39261001  0.60728822  1
  H  H46  1  0.03913926  0.39261001  0.39271178  1
  H  H47  1  0.53913926  0.10738999  0.10728822  1
  H  H48  1  0.03913926  0.89261001  0.10728822  1
  H  H49  1  0.53913926  0.60738999  0.39271178  1
  H  H50  1  0.96086074  0.60738999  0.60728822  1
  H  H51  1  0.46086074  0.89261001  0.89271178  1
  H  H52  1  0.89295200  0.20729003  0.84778995  1
  H  H53  1  0.39295200  0.29270997  0.65221005  1
  H  H54  1  0.10704800  0.29270997  0.34778995  1
  H  H55  1  0.60704800  0.20729003  0.15221005  1
  H  H56  1  0.10704800  0.79270997  0.15221005  1
  H  H57  1  0.60704800  0.70729003  0.34778995  1
  H  H58  1  0.89295200  0.70729003  0.65221005  1
  H  H59  1  0.39295200  0.79270997  0.84778995  1
  H  H60  1  0.99778870  0.15908335  0.79372141  1
  H  H61  1  0.49778870  0.34091665  0.70627859  1
  H  H62  1  0.00221130  0.34091665  0.29372141  1
  H  H63  1  0.50221130  0.15908335  0.20627859  1
  H  H64  1  0.00221130  0.84091665  0.20627859  1
  H  H65  1  0.50221130  0.65908335  0.29372141  1
  H  H66  1  0.99778870  0.65908335  0.70627859  1
  H  H67  1  0.49778870  0.84091665  0.79372141  1
  H  H68  1  0.37676303  0.09535071  0.93181276  1
  H  H69  1  0.87676303  0.40464929  0.56818724  1
  H  H70  1  0.62323697  0.40464929  0.43181276  1
  H  H71  1  0.12323697  0.09535071  0.06818724  1
  H  H72  1  0.62323697  0.90464929  0.06818724  1
  H  H73  1  0.12323697  0.59535071  0.43181276  1
  H  H74  1  0.37676303  0.59535071  0.56818724  1
  H  H75  1  0.87676303  0.90464929  0.93181276  1
  H  H76  1  0.37330611  0.07004411  0.82088458  1
  H  H77  1  0.87330611  0.42995589  0.67911542  1
  H  H78  1  0.62669389  0.42995589  0.32088458  1
  H  H79  1  0.12669389  0.07004411  0.17911542  1
  H  H80  1  0.62669389  0.92995589  0.17911542  1
  H  H81  1  0.12669389  0.57004411  0.32088458  1
  H  H82  1  0.37330611  0.57004411  0.67911542  1
  H  H83  1  0.87330611  0.92995589  0.82088458  1
  H  H84  1  0.39389237  0.19282535  0.85710504  1
  H  H85  1  0.89389237  0.30717465  0.64289496  1
  H  H86  1  0.60610763  0.30717465  0.35710504  1
  H  H87  1  0.10610763  0.19282535  0.14289496  1
  H  H88  1  0.60610763  0.80717465  0.14289496  1
  H  H89  1  0.10610763  0.69282535  0.35710504  1
  H  H90  1  0.39389237  0.69282535  0.64289496  1
  H  H91  1  0.89389237  0.80717465  0.85710504  1
  H  H92  1  0.07785519  0.45081281  0.88914149  1
  H  H93  1  0.57785519  0.04918719  0.61085851  1
  H  H94  1  0.92214481  0.04918719  0.38914149  1
  H  H95  1  0.42214481  0.45081281  0.11085851  1
  H  H96  1  0.92214481  0.54918719  0.11085851  1
  H  H97  1  0.42214481  0.95081281  0.38914149  1
  H  H98  1  0.07785519  0.95081281  0.61085851  1
  H  H99  1  0.57785519  0.54918719  0.88914149  1
  H  H100  1  0.07106139  0.38293036  0.79241996  1
  H  H101  1  0.57106139  0.11706964  0.70758004  1
  H  H102  1  0.92893861  0.11706964  0.29241996  1
  H  H103  1  0.42893861  0.38293036  0.20758004  1
  H  H104  1  0.92893861  0.61706964  0.20758004  1
  H  H105  1  0.42893861  0.88293036  0.29241996  1
  H  H106  1  0.07106139  0.88293036  0.70758004  1
  H  H107  1  0.57106139  0.61706964  0.79241996  1
  H  H108  1  0.96038940  0.41429475  0.84825019  1
  H  H109  1  0.46038940  0.08570525  0.65174981  1
  H  H110  1  0.03961060  0.08570525  0.34825019  1
  H  H111  1  0.53961060  0.41429475  0.15174981  1
  H  H112  1  0.03961060  0.58570525  0.15174981  1
  H  H113  1  0.53961060  0.91429475  0.34825019  1
  H  H114  1  0.96038940  0.91429475  0.65174981  1
  H  H115  1  0.46038940  0.58570525  0.84825019  1
  H  H116  1  0.99592536  0.34844285  0.05832508  1
  H  H117  1  0.49592536  0.15155715  0.44167492  1
  H  H118  1  0.00407464  0.15155715  0.55832508  1
  H  H119  1  0.50407464  0.34844285  0.94167492  1
  H  H120  1  0.00407464  0.65155715  0.94167492  1
  H  H121  1  0.50407464  0.84844285  0.55832508  1
  H  H122  1  0.99592536  0.84844285  0.44167492  1
  H  H123  1  0.49592536  0.65155715  0.05832508  1
  H  H124  1  0.89197739  0.31313707  0.99617186  1
  H  H125  1  0.39197739  0.18686293  0.50382814  1
  H  H126  1  0.10802261  0.18686293  0.49617186  1
  H  H127  1  0.60802261  0.31313707  0.00382814  1
  H  H128  1  0.10802261  0.68686293  0.00382814  1
  H  H129  1  0.60802261  0.81313707  0.49617186  1
  H  H130  1  0.89197739  0.81313707  0.50382814  1
  H  H131  1  0.39197739  0.68686293  0.99617186  1
  H  H132  1  0.95944986  0.22151384  0.05308204  1
  H  H133  1  0.45944986  0.27848616  0.44691796  1
  H  H134  1  0.04055014  0.27848616  0.55308204  1
  H  H135  1  0.54055014  0.22151384  0.94691796  1
  H  H136  1  0.04055014  0.77848616  0.94691796  1
  H  H137  1  0.54055014  0.72151384  0.55308204  1
  H  H138  1  0.95944986  0.72151384  0.44691796  1
  H  H139  1  0.45944986  0.77848616  0.05308204  1
  H  H140  1  0.18068708  0.98783987  0.94852144  1
  H  H141  1  0.68068708  0.51216013  0.55147856  1
  H  H142  1  0.81931292  0.51216013  0.44852144  1
  H  H143  1  0.31931292  0.98783987  0.05147856  1
  H  H144  1  0.81931292  0.01216013  0.05147856  1
  H  H145  1  0.31931292  0.48783987  0.44852144  1
  H  H146  1  0.18068708  0.48783987  0.55147856  1
  H  H147  1  0.68068708  0.01216013  0.94852144  1
  H  H148  1  0.08169629  0.00538908  0.87480723  1
  H  H149  1  0.58169629  0.49461092  0.62519277  1
  H  H150  1  0.91830371  0.49461092  0.37480723  1
  H  H151  1  0.41830371  0.00538908  0.12519277  1
  H  H152  1  0.91830371  0.99461092  0.12519277  1
  H  H153  1  0.41830371  0.50538908  0.37480723  1
  H  H154  1  0.08169629  0.50538908  0.62519277  1
  H  H155  1  0.58169629  0.99461092  0.87480723  1
  H  H156  1  0.19883194  0.96072497  0.83948530  1
  H  H157  1  0.69883194  0.53927503  0.66051470  1
  H  H158  1  0.80116806  0.53927503  0.33948530  1
  H  H159  1  0.30116806  0.96072497  0.16051470  1
  H  H160  1  0.80116806  0.03927503  0.16051470  1
  H  H161  1  0.30116806  0.46072497  0.33948530  1
  H  H162  1  0.19883194  0.46072497  0.66051470  1
  H  H163  1  0.69883194  0.03927503  0.83948530  1
  H  H164  1  0.11546985  0.16243073  0.72552094  1
  H  H165  1  0.61546985  0.33756927  0.77447906  1
  H  H166  1  0.88453015  0.33756927  0.22552094  1
  H  H167  1  0.38453015  0.16243073  0.27447906  1
  H  H168  1  0.88453015  0.83756927  0.27447906  1
  H  H169  1  0.38453015  0.66243073  0.22552094  1
  H  H170  1  0.11546985  0.66243073  0.77447906  1
  H  H171  1  0.61546985  0.83756927  0.72552094  1
  H  H172  1  0.21176493  0.25169131  0.73629486  1
  H  H173  1  0.71176493  0.24830869  0.76370514  1
  H  H174  1  0.78823507  0.24830869  0.23629486  1
  H  H175  1  0.28823507  0.25169131  0.26370514  1
  H  H176  1  0.78823507  0.74830869  0.26370514  1
  H  H177  1  0.28823507  0.75169131  0.23629486  1
  H  H178  1  0.21176493  0.75169131  0.76370514  1
  H  H179  1  0.71176493  0.74830869  0.73629486  1
  H  H180  1  0.24031812  0.12725100  0.70827543  1
  H  H181  1  0.74031812  0.37274900  0.79172457  1
  H  H182  1  0.75968188  0.37274900  0.20827543  1
  H  H183  1  0.25968188  0.12725100  0.29172457  1
  H  H184  1  0.75968188  0.87274900  0.29172457  1
  H  H185  1  0.25968188  0.62725100  0.20827543  1
  H  H186  1  0.24031812  0.62725100  0.79172457  1
  H  H187  1  0.74031812  0.87274900  0.70827543  1
  C  C188  1  0.31788795  0.38965630  0.92746330  1
  C  C189  1  0.81788795  0.11034370  0.57253670  1
  C  C190  1  0.68211205  0.11034370  0.42746330  1
  C  C191  1  0.18211205  0.38965630  0.07253670  1
  C  C192  1  0.68211205  0.61034370  0.07253670  1
  C  C193  1  0.18211205  0.88965630  0.42746330  1
  C  C194  1  0.31788795  0.88965630  0.57253670  1
  C  C195  1  0.81788795  0.61034370  0.92746330  1
  C  C196  1  0.96824634  0.17664977  0.85664321  1
  C  C197  1  0.46824634  0.32335023  0.64335679  1
  C  C198  1  0.03175366  0.32335023  0.35664321  1
  C  C199  1  0.53175366  0.17664977  0.14335679  1
  C  C200  1  0.03175366  0.82335023  0.14335679  1
  C  C201  1  0.53175366  0.67664977  0.35664321  1
  C  C202  1  0.96824634  0.67664977  0.64335679  1
  C  C203  1  0.46824634  0.82335023  0.85664321  1
  C  C204  1  0.35271626  0.12426157  0.87015870  1
  C  C205  1  0.85271626  0.37573843  0.62984130  1
  C  C206  1  0.64728374  0.37573843  0.37015870  1
  C  C207  1  0.14728374  0.12426157  0.12984130  1
  C  C208  1  0.64728374  0.87573843  0.12984130  1
  C  C209  1  0.14728374  0.62426157  0.37015870  1
  C  C210  1  0.35271626  0.62426157  0.62984130  1
  C  C211  1  0.85271626  0.87573843  0.87015870  1
  C  C212  1  0.03843154  0.39081314  0.85603010  1
  C  C213  1  0.53843154  0.10918686  0.64396990  1
  C  C214  1  0.96156846  0.10918686  0.35603010  1
  C  C215  1  0.46156846  0.39081314  0.14396990  1
  C  C216  1  0.96156846  0.60918686  0.14396990  1
  C  C217  1  0.46156846  0.89081314  0.35603010  1
  C  C218  1  0.03843154  0.89081314  0.64396990  1
  C  C219  1  0.53843154  0.60918686  0.85603010  1
  C  C220  1  0.96701666  0.29047460  0.01651485  1
  C  C221  1  0.46701666  0.20952540  0.48348515  1
  C  C222  1  0.03298334  0.20952540  0.51651485  1
  C  C223  1  0.53298334  0.29047460  0.98348515  1
  C  C224  1  0.03298334  0.70952540  0.98348515  1
  C  C225  1  0.53298334  0.79047460  0.51651485  1
  C  C226  1  0.96701666  0.79047460  0.48348515  1
  C  C227  1  0.46701666  0.70952540  0.01651485  1
  C  C228  1  0.16242911  0.01240187  0.88373758  1
  C  C229  1  0.66242911  0.48759813  0.61626242  1
  C  C230  1  0.83757089  0.48759813  0.38373758  1
  C  C231  1  0.33757089  0.01240187  0.11626242  1
  C  C232  1  0.83757089  0.98759813  0.11626242  1
  C  C233  1  0.33757089  0.51240187  0.38373758  1
  C  C234  1  0.16242911  0.51240187  0.61626242  1
  C  C235  1  0.66242911  0.98759813  0.88373758  1
  C  C236  1  0.19177976  0.17384095  0.74807746  1
  C  C237  1  0.69177976  0.32615905  0.75192254  1
  C  C238  1  0.80822024  0.32615905  0.24807746  1
  C  C239  1  0.30822024  0.17384095  0.25192254  1
  C  C240  1  0.80822024  0.82615905  0.25192254  1
  C  C241  1  0.30822024  0.67384095  0.24807746  1
  C  C242  1  0.19177976  0.67384095  0.75192254  1
  C  C243  1  0.69177976  0.82615905  0.74807746  1
  N  N244  1  0.16765243  0.23061789  0.93524986  1
  N  N245  1  0.66765243  0.26938211  0.56475014  1
  N  N246  1  0.83234757  0.26938211  0.43524986  1
  N  N247  1  0.33234757  0.23061789  0.06475014  1
  N  N248  1  0.83234757  0.76938211  0.06475014  1
  N  N249  1  0.33234757  0.73061789  0.43524986  1
  N  N250  1  0.16765243  0.73061789  0.56475014  1
  N  N251  1  0.66765243  0.76938211  0.93524986  1
