# generated using pymatgen
data_ScV(SeO4)2
_symmetry_space_group_name_H-M   'P 1'
_cell_length_a   5.20974000
_cell_length_b   9.15410300
_cell_length_c   15.29675529
_cell_angle_alpha   69.59834278
_cell_angle_beta   90.00000000
_cell_angle_gamma   90.00000000
_symmetry_Int_Tables_number   1
_chemical_formula_structural   ScV(SeO4)2
_chemical_formula_sum   'Sc4 V4 Se8 O32'
_cell_volume   683.74909345
_cell_formula_units_Z   4
loop_
 _symmetry_equiv_pos_site_id
 _symmetry_equiv_pos_as_xyz
  1  'x, y, z'
loop_
 _atom_site_type_symbol
 _atom_site_label
 _atom_site_symmetry_multiplicity
 _atom_site_fract_x
 _atom_site_fract_y
 _atom_site_fract_z
 _atom_site_occupancy
  Sc  Sc0  1  0.80405600  0.80620400  0.61092800  1
  Sc  Sc1  1  0.69594400  0.80620400  0.11092800  1
  Sc  Sc2  1  0.19594400  0.19379600  0.38907200  1
  Sc  Sc3  1  0.30405600  0.19379600  0.88907200  1
  V  V4  1  0.35530800  0.62997100  0.51577000  1
  V  V5  1  0.14469200  0.62997100  0.01577000  1
  V  V6  1  0.64469200  0.37002900  0.48423000  1
  V  V7  1  0.85530800  0.37002900  0.98423000  1
  Se  Se8  1  0.70644100  0.39447400  0.69541400  1
  Se  Se9  1  0.79355900  0.39447400  0.19541400  1
  Se  Se10  1  0.29355900  0.60552600  0.30458600  1
  Se  Se11  1  0.20644100  0.60552600  0.80458600  1
  Se  Se12  1  0.30331600  0.05832900  0.62969000  1
  Se  Se13  1  0.19668400  0.05832900  0.12969000  1
  Se  Se14  1  0.69668400  0.94167100  0.37031000  1
  Se  Se15  1  0.80331600  0.94167100  0.87031000  1
  O  O16  1  0.59472200  0.58451800  0.62645200  1
  O  O17  1  0.90527800  0.58451800  0.12645200  1
  O  O18  1  0.40527800  0.41548200  0.37354800  1
  O  O19  1  0.09472200  0.41548200  0.87354800  1
  O  O20  1  0.72303500  0.29533200  0.61686400  1
  O  O21  1  0.77696500  0.29533200  0.11686400  1
  O  O22  1  0.27696500  0.70466800  0.38313600  1
  O  O23  1  0.22303500  0.70466800  0.88313600  1
  O  O24  1  0.43267200  0.31983500  0.75379100  1
  O  O25  1  0.06732800  0.31983500  0.25379100  1
  O  O26  1  0.56732800  0.68016500  0.24620900  1
  O  O27  1  0.93267200  0.68016500  0.74620900  1
  O  O28  1  0.48781700  0.89223500  0.66474100  1
  O  O29  1  0.01218300  0.89223500  0.16474100  1
  O  O30  1  0.51218300  0.10776500  0.33525900  1
  O  O31  1  0.98781700  0.10776500  0.83525900  1
  O  O32  1  0.01868900  0.99488100  0.60017000  1
  O  O33  1  0.48131100  0.99488100  0.10017000  1
  O  O34  1  0.98131100  0.00511900  0.39983000  1
  O  O35  1  0.51868900  0.00511900  0.89983000  1
  O  O36  1  0.41674800  0.15922900  0.51511000  1
  O  O37  1  0.08325200  0.15922900  0.01511000  1
  O  O38  1  0.58325200  0.84077100  0.48489000  1
  O  O39  1  0.91674800  0.84077100  0.98489000  1
  O  O40  1  0.28792400  0.43994700  0.54017100  1
  O  O41  1  0.21207600  0.43994700  0.04017100  1
  O  O42  1  0.71207600  0.56005300  0.45982900  1
  O  O43  1  0.78792400  0.56005300  0.95982900  1
  O  O44  1  0.10797100  0.70157300  0.55977800  1
  O  O45  1  0.39202900  0.70157300  0.05977800  1
  O  O46  1  0.89202900  0.29842700  0.44022200  1
  O  O47  1  0.60797100  0.29842700  0.94022200  1
