# generated using pymatgen
data_Tm6(Ga3Co)7
_symmetry_space_group_name_H-M   'P 1'
_cell_length_a   16.58671100
_cell_length_b   16.58671100
_cell_length_c   4.13701800
_cell_angle_alpha   90.00000000
_cell_angle_beta   90.00000000
_cell_angle_gamma   90.00000000
_symmetry_Int_Tables_number   1
_chemical_formula_structural   Tm6(Ga3Co)7
_chemical_formula_sum   'Tm12 Ga42 Co14'
_cell_volume   1138.17217984
_cell_formula_units_Z   2
loop_
 _symmetry_equiv_pos_site_id
 _symmetry_equiv_pos_as_xyz
  1  'x, y, z'
loop_
 _atom_site_type_symbol
 _atom_site_label
 _atom_site_symmetry_multiplicity
 _atom_site_fract_x
 _atom_site_fract_y
 _atom_site_fract_z
 _atom_site_occupancy
  Tm  Tm0  1  0.10765000  0.60765000  0.50000000  1
  Tm  Tm1  1  0.89235000  0.39235000  0.50000000  1
  Tm  Tm2  1  0.39235000  0.10765000  0.50000000  1
  Tm  Tm3  1  0.60765000  0.89235000  0.50000000  1
  Tm  Tm4  1  0.65761000  0.58667500  0.00000000  1
  Tm  Tm5  1  0.34239000  0.41332500  0.00000000  1
  Tm  Tm6  1  0.84239000  0.08667500  0.00000000  1
  Tm  Tm7  1  0.15761000  0.91332500  0.00000000  1
  Tm  Tm8  1  0.58667500  0.34239000  0.00000000  1
  Tm  Tm9  1  0.41332500  0.65761000  0.00000000  1
  Tm  Tm10  1  0.08667500  0.15761000  0.00000000  1
  Tm  Tm11  1  0.91332500  0.84239000  0.00000000  1
  Ga  Ga12  1  0.00000000  0.50000000  0.00000000  1
  Ga  Ga13  1  0.50000000  0.00000000  0.00000000  1
  Ga  Ga14  1  0.32038000  0.82038000  0.00000000  1
  Ga  Ga15  1  0.67962000  0.17962000  0.00000000  1
  Ga  Ga16  1  0.17962000  0.32038000  0.00000000  1
  Ga  Ga17  1  0.82038000  0.67962000  0.00000000  1
  Ga  Ga18  1  0.42611700  0.92611700  0.50000000  1
  Ga  Ga19  1  0.57388300  0.07388300  0.50000000  1
  Ga  Ga20  1  0.07388300  0.42611700  0.50000000  1
  Ga  Ga21  1  0.92611700  0.57388300  0.50000000  1
  Ga  Ga22  1  0.57540500  0.75757500  0.00000000  1
  Ga  Ga23  1  0.42459500  0.24242500  0.00000000  1
  Ga  Ga24  1  0.92459500  0.25757500  0.00000000  1
  Ga  Ga25  1  0.07540500  0.74242500  0.00000000  1
  Ga  Ga26  1  0.75757500  0.42459500  0.00000000  1
  Ga  Ga27  1  0.24242500  0.57540500  0.00000000  1
  Ga  Ga28  1  0.25757500  0.07540500  0.00000000  1
  Ga  Ga29  1  0.74242500  0.92459500  0.00000000  1
  Ga  Ga30  1  0.53182200  0.61013500  0.50000000  1
  Ga  Ga31  1  0.46817800  0.38986500  0.50000000  1
  Ga  Ga32  1  0.96817800  0.11013500  0.50000000  1
  Ga  Ga33  1  0.03182200  0.88986500  0.50000000  1
  Ga  Ga34  1  0.61013500  0.46817800  0.50000000  1
  Ga  Ga35  1  0.38986500  0.53182200  0.50000000  1
  Ga  Ga36  1  0.11013500  0.03182200  0.50000000  1
  Ga  Ga37  1  0.88986500  0.96817800  0.50000000  1
  Ga  Ga38  1  0.67882100  0.70888900  0.50000000  1
  Ga  Ga39  1  0.32117900  0.29111100  0.50000000  1
  Ga  Ga40  1  0.82117900  0.20888900  0.50000000  1
  Ga  Ga41  1  0.17882100  0.79111100  0.50000000  1
  Ga  Ga42  1  0.70888900  0.32117900  0.50000000  1
  Ga  Ga43  1  0.29111100  0.67882100  0.50000000  1
  Ga  Ga44  1  0.20888900  0.17882100  0.50000000  1
  Ga  Ga45  1  0.79111100  0.82117900  0.50000000  1
  Ga  Ga46  1  0.77102700  0.54272600  0.50000000  1
  Ga  Ga47  1  0.22897300  0.45727400  0.50000000  1
  Ga  Ga48  1  0.72897300  0.04272600  0.50000000  1
  Ga  Ga49  1  0.27102700  0.95727400  0.50000000  1
  Ga  Ga50  1  0.54272600  0.22897300  0.50000000  1
  Ga  Ga51  1  0.45727400  0.77102700  0.50000000  1
  Ga  Ga52  1  0.04272600  0.27102700  0.50000000  1
  Ga  Ga53  1  0.95727400  0.72897300  0.50000000  1
  Co  Co54  1  0.21873200  0.71873200  0.00000000  1
  Co  Co55  1  0.78126800  0.28126800  0.00000000  1
  Co  Co56  1  0.28126800  0.21873200  0.00000000  1
  Co  Co57  1  0.71873200  0.78126800  0.00000000  1
  Co  Co58  1  0.96443900  0.64907300  0.00000000  1
  Co  Co59  1  0.03556100  0.35092700  0.00000000  1
  Co  Co60  1  0.53556100  0.14907300  0.00000000  1
  Co  Co61  1  0.46443900  0.85092700  0.00000000  1
  Co  Co62  1  0.64907300  0.03556100  0.00000000  1
  Co  Co63  1  0.35092700  0.96443900  0.00000000  1
  Co  Co64  1  0.14907300  0.46443900  0.00000000  1
  Co  Co65  1  0.85092700  0.53556100  0.00000000  1
  Co  Co66  1  0.50000000  0.50000000  0.00000000  1
  Co  Co67  1  0.00000000  0.00000000  0.00000000  1
