# generated using pymatgen
data_Si9C8NO19
_symmetry_space_group_name_H-M   'P 1'
_cell_length_a   9.68526500
_cell_length_b   7.46574900
_cell_length_c   17.57936844
_cell_angle_alpha   65.91605408
_cell_angle_beta   90.00000000
_cell_angle_gamma   90.00000000
_symmetry_Int_Tables_number   1
_chemical_formula_structural   Si9C8NO19
_chemical_formula_sum   'Si18 C16 N2 O38'
_cell_volume   1160.47146609
_cell_formula_units_Z   2
loop_
 _symmetry_equiv_pos_site_id
 _symmetry_equiv_pos_as_xyz
  1  'x, y, z'
loop_
 _atom_site_type_symbol
 _atom_site_label
 _atom_site_symmetry_multiplicity
 _atom_site_fract_x
 _atom_site_fract_y
 _atom_site_fract_z
 _atom_site_occupancy
  Si  Si0  1  0.79811500  0.07058900  0.47217200  1
  Si  Si1  1  0.79811500  0.92941100  0.02782800  1
  Si  Si2  1  0.20188500  0.92941100  0.52782800  1
  Si  Si3  1  0.20188500  0.07058900  0.97217200  1
  Si  Si4  1  0.39298500  0.30088600  0.45790900  1
  Si  Si5  1  0.39298500  0.69911400  0.04209100  1
  Si  Si6  1  0.60701500  0.69911400  0.54209100  1
  Si  Si7  1  0.60701500  0.30088600  0.95790900  1
  Si  Si8  1  0.60086800  0.28385800  0.31968200  1
  Si  Si9  1  0.60086800  0.71614200  0.18031800  1
  Si  Si10  1  0.39913200  0.71614200  0.68031800  1
  Si  Si11  1  0.39913200  0.28385800  0.81968200  1
  Si  Si12  1  0.64895600  0.25917600  0.57360200  1
  Si  Si13  1  0.64895600  0.74082400  0.92639800  1
  Si  Si14  1  0.35104400  0.74082400  0.42639800  1
  Si  Si15  1  0.35104400  0.25917600  0.07360200  1
  Si  Si16  1  0.45399900  0.00000000  0.25000000  1
  Si  Si17  1  0.54600100  0.00000000  0.75000000  1
  C  C18  1  0.22952400  0.59431500  0.22621600  1
  C  C19  1  0.22952400  0.40568500  0.27378400  1
  C  C20  1  0.77047600  0.40568500  0.77378400  1
  C  C21  1  0.77047600  0.59431500  0.72621600  1
  C  C22  1  0.90966800  0.36200600  0.17553500  1
  C  C23  1  0.90966800  0.63799400  0.32446500  1
  C  C24  1  0.09033200  0.63799400  0.82446500  1
  C  C25  1  0.09033200  0.36200600  0.67553500  1
  C  C26  1  0.89159500  0.26566500  0.13089200  1
  C  C27  1  0.89159500  0.73433500  0.36910800  1
  C  C28  1  0.10840500  0.73433500  0.86910800  1
  C  C29  1  0.10840500  0.26566500  0.63089200  1
  C  C30  1  0.95774100  0.45246600  0.22162600  1
  C  C31  1  0.95774100  0.54753400  0.27837400  1
  C  C32  1  0.04225900  0.54753400  0.77837400  1
  C  C33  1  0.04225900  0.45246600  0.72162600  1
  N  N34  1  0.07998900  0.50000000  0.25000000  1
  N  N35  1  0.92001100  0.50000000  0.75000000  1
  O  O36  1  0.73626800  0.18907900  0.37853800  1
  O  O37  1  0.73626800  0.81092100  0.12146200  1
  O  O38  1  0.26373200  0.81092100  0.62146200  1
  O  O39  1  0.26373200  0.18907900  0.87853800  1
  O  O40  1  0.77423100  0.19552500  0.52824100  1
  O  O41  1  0.77423100  0.80447500  0.97175900  1
  O  O42  1  0.22576900  0.80447500  0.47175900  1
  O  O43  1  0.22576900  0.19552500  0.02824100  1
  O  O44  1  0.50108700  0.22932400  0.53557100  1
  O  O45  1  0.50108700  0.77067600  0.96442900  1
  O  O46  1  0.49891300  0.77067600  0.46442900  1
  O  O47  1  0.49891300  0.22932400  0.03557100  1
  O  O48  1  0.47421800  0.30738000  0.37574000  1
  O  O49  1  0.47421800  0.69262000  0.12426000  1
  O  O50  1  0.52578200  0.69262000  0.62426000  1
  O  O51  1  0.52578200  0.30738000  0.87574000  1
  O  O52  1  0.55343200  0.14643400  0.27309700  1
  O  O53  1  0.55343200  0.85356600  0.22690300  1
  O  O54  1  0.44656800  0.85356600  0.72690300  1
  O  O55  1  0.44656800  0.14643400  0.77309700  1
  O  O56  1  0.64283800  0.50000000  0.25000000  1
  O  O57  1  0.35716200  0.50000000  0.75000000  1
  O  O58  1  0.96979400  0.05476800  0.45828200  1
  O  O59  1  0.96979400  0.94523200  0.04171800  1
  O  O60  1  0.03020600  0.94523200  0.54171800  1
  O  O61  1  0.03020600  0.05476800  0.95828200  1
  O  O62  1  0.73265400  0.85435400  0.51940900  1
  O  O63  1  0.73265400  0.14564600  0.98059100  1
  O  O64  1  0.26734600  0.14564600  0.48059100  1
  O  O65  1  0.26734600  0.85435400  0.01940900  1
  O  O66  1  0.67084200  0.48646100  0.55835200  1
  O  O67  1  0.67084200  0.51353900  0.94164800  1
  O  O68  1  0.32915800  0.51353900  0.44164800  1
  O  O69  1  0.32915800  0.48646100  0.05835200  1
  O  O70  1  0.64739700  0.12254900  0.67256400  1
  O  O71  1  0.64739700  0.87745100  0.82743600  1
  O  O72  1  0.35260300  0.87745100  0.32743600  1
  O  O73  1  0.35260300  0.12254900  0.17256400  1
