# generated using pymatgen
data_Cd3As2
_symmetry_space_group_name_H-M   'P 1'
_cell_length_a   13.01766287
_cell_length_b   13.01766287
_cell_length_c   25.78859515
_cell_angle_alpha   90.00000000
_cell_angle_beta   90.00000000
_cell_angle_gamma   90.00000000
_symmetry_Int_Tables_number   1
_chemical_formula_structural   Cd3As2
_chemical_formula_sum   'Cd96 As64'
_cell_volume   4370.12364149
_cell_formula_units_Z   32
loop_
 _symmetry_equiv_pos_site_id
 _symmetry_equiv_pos_as_xyz
  1  'x, y, z'
loop_
 _atom_site_type_symbol
 _atom_site_label
 _atom_site_symmetry_multiplicity
 _atom_site_fract_x
 _atom_site_fract_y
 _atom_site_fract_z
 _atom_site_occupancy
  Cd  Cd0  1  0.36063701  0.13926809  0.44581166  1
  Cd  Cd1  1  0.63936299  0.63926809  0.44581166  1
  Cd  Cd2  1  0.86063701  0.86073191  0.44581166  1
  Cd  Cd3  1  0.13936299  0.36073191  0.44581166  1
  Cd  Cd4  1  0.63926809  0.86063701  0.94581166  1
  Cd  Cd5  1  0.36073191  0.36063701  0.94581166  1
  Cd  Cd6  1  0.13926809  0.13936299  0.94581166  1
  Cd  Cd7  1  0.86073191  0.63936299  0.94581166  1
  Cd  Cd8  1  0.63936299  0.86073191  0.55418834  1
  Cd  Cd9  1  0.36063701  0.36073191  0.55418834  1
  Cd  Cd10  1  0.13936299  0.13926809  0.55418834  1
  Cd  Cd11  1  0.86063701  0.63926809  0.55418834  1
  Cd  Cd12  1  0.36073191  0.13936299  0.05418834  1
  Cd  Cd13  1  0.63926809  0.63936299  0.05418834  1
  Cd  Cd14  1  0.86073191  0.86063701  0.05418834  1
  Cd  Cd15  1  0.13926809  0.36063701  0.05418834  1
  Cd  Cd16  1  0.62681362  0.10378578  0.43760194  1
  Cd  Cd17  1  0.37318638  0.60378578  0.43760194  1
  Cd  Cd18  1  0.12681362  0.89621422  0.43760194  1
  Cd  Cd19  1  0.87318638  0.39621422  0.43760194  1
  Cd  Cd20  1  0.60378578  0.12681362  0.93760194  1
  Cd  Cd21  1  0.39621422  0.62681362  0.93760194  1
  Cd  Cd22  1  0.10378578  0.87318638  0.93760194  1
  Cd  Cd23  1  0.89621422  0.37318638  0.93760194  1
  Cd  Cd24  1  0.37318638  0.89621422  0.56239806  1
  Cd  Cd25  1  0.62681362  0.39621422  0.56239806  1
  Cd  Cd26  1  0.87318638  0.10378578  0.56239806  1
  Cd  Cd27  1  0.12681362  0.60378578  0.56239806  1
  Cd  Cd28  1  0.39621422  0.87318638  0.06239806  1
  Cd  Cd29  1  0.60378578  0.37318638  0.06239806  1
  Cd  Cd30  1  0.89621422  0.12681362  0.06239806  1
  Cd  Cd31  1  0.10378578  0.62681362  0.06239806  1
  Cd  Cd32  1  0.60718905  0.36337665  0.42854830  1
  Cd  Cd33  1  0.39281095  0.86337665  0.42854830  1
  Cd  Cd34  1  0.10718905  0.63662335  0.42854830  1
  Cd  Cd35  1  0.89281095  0.13662335  0.42854830  1
  Cd  Cd36  1  0.86337665  0.10718905  0.92854830  1
  Cd  Cd37  1  0.13662335  0.60718905  0.92854830  1
  Cd  Cd38  1  0.36337665  0.89281095  0.92854830  1
  Cd  Cd39  1  0.63662335  0.39281095  0.92854830  1
  Cd  Cd40  1  0.39281095  0.63662335  0.57145170  1
  Cd  Cd41  1  0.60718905  0.13662335  0.57145170  1
  Cd  Cd42  1  0.89281095  0.36337665  0.57145170  1
  Cd  Cd43  1  0.10718905  0.86337665  0.57145170  1
  Cd  Cd44  1  0.13662335  0.89281095  0.07145170  1
  Cd  Cd45  1  0.86337665  0.39281095  0.07145170  1
  Cd  Cd46  1  0.63662335  0.10718905  0.07145170  1
  Cd  Cd47  1  0.36337665  0.60718905  0.07145170  1
  Cd  Cd48  1  0.11221826  0.13178283  0.32056393  1
  Cd  Cd49  1  0.88778174  0.63178283  0.32056393  1
  Cd  Cd50  1  0.61221826  0.86821717  0.32056393  1
  Cd  Cd51  1  0.38778174  0.36821717  0.32056393  1
  Cd  Cd52  1  0.63178283  0.61221826  0.82056393  1
  Cd  Cd53  1  0.36821717  0.11221826  0.82056393  1
  Cd  Cd54  1  0.13178283  0.38778174  0.82056393  1
  Cd  Cd55  1  0.86821717  0.88778174  0.82056393  1
  Cd  Cd56  1  0.88778174  0.86821717  0.67943607  1
  Cd  Cd57  1  0.11221826  0.36821717  0.67943607  1
  Cd  Cd58  1  0.38778174  0.13178283  0.67943607  1
  Cd  Cd59  1  0.61221826  0.63178283  0.67943607  1
  Cd  Cd60  1  0.36821717  0.38778174  0.17943607  1
  Cd  Cd61  1  0.63178283  0.88778174  0.17943607  1
  Cd  Cd62  1  0.86821717  0.61221826  0.17943607  1
  Cd  Cd63  1  0.13178283  0.11221826  0.17943607  1
  Cd  Cd64  1  0.64186293  0.14140885  0.30361324  1
  Cd  Cd65  1  0.35813707  0.64140885  0.30361324  1
  Cd  Cd66  1  0.14186293  0.85859115  0.30361324  1
  Cd  Cd67  1  0.85813707  0.35859115  0.30361324  1
  Cd  Cd68  1  0.64140885  0.14186293  0.80361324  1
  Cd  Cd69  1  0.35859115  0.64186293  0.80361324  1
  Cd  Cd70  1  0.14140885  0.85813707  0.80361324  1
  Cd  Cd71  1  0.85859115  0.35813707  0.80361324  1
  Cd  Cd72  1  0.35813707  0.85859115  0.69638676  1
  Cd  Cd73  1  0.64186293  0.35859115  0.69638676  1
  Cd  Cd74  1  0.85813707  0.14140885  0.69638676  1
  Cd  Cd75  1  0.14186293  0.64140885  0.69638676  1
  Cd  Cd76  1  0.35859115  0.85813707  0.19638676  1
  Cd  Cd77  1  0.64140885  0.35813707  0.19638676  1
  Cd  Cd78  1  0.85859115  0.14186293  0.19638676  1
  Cd  Cd79  1  0.14140885  0.64186293  0.19638676  1
  Cd  Cd80  1  0.12982170  0.39727446  0.31244934  1
  Cd  Cd81  1  0.87017830  0.89727446  0.31244934  1
  Cd  Cd82  1  0.62982170  0.60272554  0.31244934  1
  Cd  Cd83  1  0.37017830  0.10272554  0.31244934  1
  Cd  Cd84  1  0.89727446  0.62982170  0.81244934  1
  Cd  Cd85  1  0.10272554  0.12982170  0.81244934  1
  Cd  Cd86  1  0.39727446  0.37017830  0.81244934  1
  Cd  Cd87  1  0.60272554  0.87017830  0.81244934  1
  Cd  Cd88  1  0.87017830  0.60272554  0.68755066  1
  Cd  Cd89  1  0.12982170  0.10272554  0.68755066  1
  Cd  Cd90  1  0.37017830  0.39727446  0.68755066  1
  Cd  Cd91  1  0.62982170  0.89727446  0.68755066  1
  Cd  Cd92  1  0.10272554  0.37017830  0.18755066  1
  Cd  Cd93  1  0.89727446  0.87017830  0.18755066  1
  Cd  Cd94  1  0.60272554  0.62982170  0.18755066  1
  Cd  Cd95  1  0.39727446  0.12982170  0.18755066  1
  As  As96  1  0.25000000  0.75000000  0.37643303  1
  As  As97  1  0.75000000  0.25000000  0.37643303  1
  As  As98  1  0.25000000  0.75000000  0.87643303  1
  As  As99  1  0.75000000  0.25000000  0.87643303  1
  As  As100  1  0.75000000  0.25000000  0.62356697  1
  As  As101  1  0.25000000  0.75000000  0.62356697  1
  As  As102  1  0.75000000  0.25000000  0.12356697  1
  As  As103  1  0.25000000  0.75000000  0.12356697  1
  As  As104  1  0.25000000  0.25000000  0.37386351  1
  As  As105  1  0.75000000  0.75000000  0.37386351  1
  As  As106  1  0.75000000  0.75000000  0.87386351  1
  As  As107  1  0.25000000  0.25000000  0.87386351  1
  As  As108  1  0.75000000  0.75000000  0.62613649  1
  As  As109  1  0.25000000  0.25000000  0.62613649  1
  As  As110  1  0.25000000  0.25000000  0.12613649  1
  As  As111  1  0.75000000  0.75000000  0.12613649  1
  As  As112  1  0.25000000  0.99624508  0.00000000  1
  As  As113  1  0.75000000  0.49624508  0.00000000  1
  As  As114  1  0.75000000  0.00375492  0.00000000  1
  As  As115  1  0.25000000  0.50375492  0.00000000  1
  As  As116  1  0.49624508  0.75000000  0.50000000  1
  As  As117  1  0.50375492  0.25000000  0.50000000  1
  As  As118  1  0.99624508  0.25000000  0.50000000  1
  As  As119  1  0.00375492  0.75000000  0.50000000  1
  As  As120  1  0.25000000  0.00041015  0.50000000  1
  As  As121  1  0.75000000  0.50041015  0.50000000  1
  As  As122  1  0.75000000  0.99958985  0.50000000  1
  As  As123  1  0.25000000  0.49958985  0.50000000  1
  As  As124  1  0.50041015  0.75000000  0.00000000  1
  As  As125  1  0.49958985  0.25000000  0.00000000  1
  As  As126  1  0.00041015  0.25000000  0.00000000  1
  As  As127  1  0.99958985  0.75000000  0.00000000  1
  As  As128  1  0.00216391  0.24525893  0.25278810  1
  As  As129  1  0.99783609  0.74525893  0.25278810  1
  As  As130  1  0.50216391  0.75474107  0.25278810  1
  As  As131  1  0.49783609  0.25474107  0.25278810  1
  As  As132  1  0.74525893  0.50216391  0.75278810  1
  As  As133  1  0.25474107  0.00216391  0.75278810  1
  As  As134  1  0.24525893  0.49783609  0.75278810  1
  As  As135  1  0.75474107  0.99783609  0.75278810  1
  As  As136  1  0.99783609  0.75474107  0.74721190  1
  As  As137  1  0.00216391  0.25474107  0.74721190  1
  As  As138  1  0.49783609  0.24525893  0.74721190  1
  As  As139  1  0.50216391  0.74525893  0.74721190  1
  As  As140  1  0.25474107  0.49783609  0.24721190  1
  As  As141  1  0.74525893  0.99783609  0.24721190  1
  As  As142  1  0.75474107  0.50216391  0.24721190  1
  As  As143  1  0.24525893  0.00216391  0.24721190  1
  As  As144  1  0.99891168  0.99460753  0.37465605  1
  As  As145  1  0.00108832  0.49460753  0.37465605  1
  As  As146  1  0.49891168  0.00539247  0.37465605  1
  As  As147  1  0.50108832  0.50539247  0.37465605  1
  As  As148  1  0.49460753  0.49891168  0.87465605  1
  As  As149  1  0.50539247  0.99891168  0.87465605  1
  As  As150  1  0.99460753  0.50108832  0.87465605  1
  As  As151  1  0.00539247  0.00108832  0.87465605  1
  As  As152  1  0.00108832  0.00539247  0.62534395  1
  As  As153  1  0.99891168  0.50539247  0.62534395  1
  As  As154  1  0.50108832  0.99460753  0.62534395  1
  As  As155  1  0.49891168  0.49460753  0.62534395  1
  As  As156  1  0.50539247  0.50108832  0.12534395  1
  As  As157  1  0.49460753  0.00108832  0.12534395  1
  As  As158  1  0.00539247  0.49891168  0.12534395  1
  As  As159  1  0.99460753  0.99891168  0.12534395  1
