# generated using pymatgen
data_CuTePb3CO10
_symmetry_space_group_name_H-M   'P 1'
_cell_length_a   9.52373500
_cell_length_b   9.57381900
_cell_length_c   10.49261900
_cell_angle_alpha   90.00000000
_cell_angle_beta   90.00000000
_cell_angle_gamma   90.00000000
_symmetry_Int_Tables_number   1
_chemical_formula_structural   CuTePb3CO10
_chemical_formula_sum   'Cu4 Te4 Pb12 C4 O40'
_cell_volume   956.70141987
_cell_formula_units_Z   4
loop_
 _symmetry_equiv_pos_site_id
 _symmetry_equiv_pos_as_xyz
  1  'x, y, z'
loop_
 _atom_site_type_symbol
 _atom_site_label
 _atom_site_symmetry_multiplicity
 _atom_site_fract_x
 _atom_site_fract_y
 _atom_site_fract_z
 _atom_site_occupancy
  Cu  Cu0  1  0.55954300  0.39788500  0.11811300  1
  Cu  Cu1  1  0.44045700  0.89788500  0.88188700  1
  Cu  Cu2  1  0.55954300  0.89788500  0.38188700  1
  Cu  Cu3  1  0.44045700  0.39788500  0.61811300  1
  Te  Te4  1  0.46341100  0.25198700  0.88643700  1
  Te  Te5  1  0.53658900  0.75198700  0.11356300  1
  Te  Te6  1  0.46341100  0.75198700  0.61356300  1
  Te  Te7  1  0.53658900  0.25198700  0.38643700  1
  Pb  Pb8  1  0.24351000  0.55559400  0.91722100  1
  Pb  Pb9  1  0.75649000  0.05559400  0.08277900  1
  Pb  Pb10  1  0.24351000  0.05559400  0.58277900  1
  Pb  Pb11  1  0.75649000  0.55559400  0.41722100  1
  Pb  Pb12  1  0.28576100  0.58719100  0.30240700  1
  Pb  Pb13  1  0.71423900  0.08719100  0.69759300  1
  Pb  Pb14  1  0.28576100  0.08719100  0.19759300  1
  Pb  Pb15  1  0.71423900  0.58719100  0.80240700  1
  Pb  Pb16  1  0.96810900  0.44432300  0.13031000  1
  Pb  Pb17  1  0.03189100  0.94432300  0.86969000  1
  Pb  Pb18  1  0.96810900  0.94432300  0.36969000  1
  Pb  Pb19  1  0.03189100  0.44432300  0.63031000  1
  C  C20  1  0.97382300  0.28537800  0.87308100  1
  C  C21  1  0.02617700  0.78537800  0.12691900  1
  C  C22  1  0.97382300  0.78537800  0.62691900  1
  C  C23  1  0.02617700  0.28537800  0.37308100  1
  O  O24  1  0.97770100  0.42316600  0.87099000  1
  O  O25  1  0.02229900  0.92316600  0.12901000  1
  O  O26  1  0.97770100  0.92316600  0.62901000  1
  O  O27  1  0.02229900  0.42316600  0.37099000  1
  O  O28  1  0.97645100  0.21860600  0.76519700  1
  O  O29  1  0.02354900  0.71860600  0.23480300  1
  O  O30  1  0.97645100  0.71860600  0.73480300  1
  O  O31  1  0.02354900  0.21860600  0.26519700  1
  O  O32  1  0.97064900  0.22239500  0.98183300  1
  O  O33  1  0.02935100  0.72239500  0.01816700  1
  O  O34  1  0.97064900  0.72239500  0.51816700  1
  O  O35  1  0.02935100  0.22239500  0.48183300  1
  O  O36  1  0.33492800  0.33728900  0.76020000  1
  O  O37  1  0.66507200  0.83728900  0.23980000  1
  O  O38  1  0.33492800  0.83728900  0.73980000  1
  O  O39  1  0.66507200  0.33728900  0.26020000  1
  O  O40  1  0.62330600  0.29781100  0.77953200  1
  O  O41  1  0.37669400  0.79781100  0.22046800  1
  O  O42  1  0.62330600  0.79781100  0.72046800  1
  O  O43  1  0.37669400  0.29781100  0.27953200  1
  O  O44  1  0.51276600  0.56644400  0.19558200  1
  O  O45  1  0.48723400  0.06644400  0.80441800  1
  O  O46  1  0.51276600  0.06644400  0.30441800  1
  O  O47  1  0.48723400  0.56644400  0.69558200  1
  O  O48  1  0.59192900  0.22987400  0.03608300  1
  O  O49  1  0.40807100  0.72987400  0.96391700  1
  O  O50  1  0.59192900  0.72987400  0.46391700  1
  O  O51  1  0.40807100  0.22987400  0.53608300  1
  O  O52  1  0.46997500  0.44157000  0.96574800  1
  O  O53  1  0.53002500  0.94157000  0.03425200  1
  O  O54  1  0.46997500  0.94157000  0.53425200  1
  O  O55  1  0.53002500  0.44157000  0.46574800  1
  O  O56  1  0.30253900  0.18467400  0.97789600  1
  O  O57  1  0.69746100  0.68467400  0.02210400  1
  O  O58  1  0.30253900  0.68467400  0.52210400  1
  O  O59  1  0.69746100  0.18467400  0.47789600  1
  O  O60  1  0.20074200  0.49048300  0.11983700  1
  O  O61  1  0.79925800  0.99048300  0.88016300  1
  O  O62  1  0.20074200  0.99048300  0.38016300  1
  O  O63  1  0.79925800  0.49048300  0.61983700  1
