# generated using pymatgen
data_CuH8S3O10
_symmetry_space_group_name_H-M   'P 1'
_cell_length_a   20.69930500
_cell_length_b   7.20966900
_cell_length_c   7.89979807
_cell_angle_alpha   61.95298367
_cell_angle_beta   90.00000000
_cell_angle_gamma   90.00000000
_symmetry_Int_Tables_number   1
_chemical_formula_structural   CuH8S3O10
_chemical_formula_sum   'Cu4 H32 S12 O40'
_cell_volume   1040.47663179
_cell_formula_units_Z   4
loop_
 _symmetry_equiv_pos_site_id
 _symmetry_equiv_pos_as_xyz
  1  'x, y, z'
loop_
 _atom_site_type_symbol
 _atom_site_label
 _atom_site_symmetry_multiplicity
 _atom_site_fract_x
 _atom_site_fract_y
 _atom_site_fract_z
 _atom_site_occupancy
  Cu  Cu0  1  0.35881200  0.33238200  0.98117400  1
  Cu  Cu1  1  0.14118800  0.33238200  0.48117400  1
  Cu  Cu2  1  0.64118800  0.66761800  0.01882600  1
  Cu  Cu3  1  0.85881200  0.66761800  0.51882600  1
  H  H4  1  0.30909500  0.07312400  0.29110000  1
  H  H5  1  0.19090500  0.07312400  0.79110000  1
  H  H6  1  0.69090500  0.92687600  0.70890000  1
  H  H7  1  0.80909500  0.92687600  0.20890000  1
  H  H8  1  0.26584700  0.06821000  0.12509500  1
  H  H9  1  0.23415300  0.06821000  0.62509500  1
  H  H10  1  0.73415300  0.93179000  0.87490500  1
  H  H11  1  0.76584700  0.93179000  0.37490500  1
  H  H12  1  0.43042200  0.01821100  0.09536500  1
  H  H13  1  0.06957800  0.01821100  0.59536500  1
  H  H14  1  0.56957800  0.98178900  0.90463500  1
  H  H15  1  0.93042200  0.98178900  0.40463500  1
  H  H16  1  0.47758000  0.21815400  0.01761200  1
  H  H17  1  0.02242000  0.21815400  0.51761200  1
  H  H18  1  0.52242000  0.78184600  0.98238800  1
  H  H19  1  0.97758000  0.78184600  0.48238800  1
  H  H20  1  0.45338000  0.53935000  0.77860900  1
  H  H21  1  0.04662000  0.53935000  0.27860900  1
  H  H22  1  0.54662000  0.46065000  0.22139100  1
  H  H23  1  0.95338000  0.46065000  0.72139100  1
  H  H24  1  0.40673700  0.69286500  0.81644100  1
  H  H25  1  0.09326300  0.69286500  0.31644100  1
  H  H26  1  0.59326300  0.30713500  0.18355900  1
  H  H27  1  0.90673700  0.30713500  0.68355900  1
  H  H28  1  0.28629100  0.65049300  0.80729100  1
  H  H29  1  0.21370900  0.65049300  0.30729100  1
  H  H30  1  0.71370900  0.34950700  0.19270900  1
  H  H31  1  0.78629100  0.34950700  0.69270900  1
  H  H32  1  0.24905800  0.48294800  0.99036700  1
  H  H33  1  0.25094200  0.48294800  0.49036700  1
  H  H34  1  0.75094200  0.51705200  0.00963300  1
  H  H35  1  0.74905800  0.51705200  0.50963300  1
  S  S36  1  0.40889400  0.51860500  0.28666800  1
  S  S37  1  0.09110600  0.51860500  0.78666800  1
  S  S38  1  0.59110600  0.48139500  0.71333200  1
  S  S39  1  0.90889400  0.48139500  0.21333200  1
  S  S40  1  0.44122700  0.23525100  0.52974900  1
  S  S41  1  0.05877300  0.23525100  0.02974900  1
  S  S42  1  0.55877300  0.76474900  0.47025100  1
  S  S43  1  0.94122700  0.76474900  0.97025100  1
  S  S44  1  0.35653300  0.09220900  0.68234100  1
  S  S45  1  0.14346700  0.09220900  0.18234100  1
  S  S46  1  0.64346700  0.90779100  0.31765900  1
  S  S47  1  0.85653300  0.90779100  0.81765900  1
  O  O48  1  0.31065400  0.08055300  0.16356600  1
  O  O49  1  0.18934600  0.08055300  0.66356600  1
  O  O50  1  0.68934600  0.91944700  0.83643400  1
  O  O51  1  0.81065400  0.91944700  0.33643400  1
  O  O52  1  0.43754400  0.15553000  0.08938800  1
  O  O53  1  0.06245600  0.15553000  0.58938800  1
  O  O54  1  0.56245600  0.84447000  0.91061200  1
  O  O55  1  0.93754400  0.84447000  0.41061200  1
  O  O56  1  0.40735200  0.57287300  0.78768700  1
  O  O57  1  0.09264800  0.57287300  0.28768700  1
  O  O58  1  0.59264800  0.42712700  0.21231300  1
  O  O59  1  0.90735200  0.42712700  0.71231300  1
  O  O60  1  0.27737900  0.50054000  0.88442300  1
  O  O61  1  0.22262100  0.50054000  0.38442300  1
  O  O62  1  0.72262100  0.49946000  0.11557700  1
  O  O63  1  0.77737900  0.49946000  0.61557700  1
  O  O64  1  0.35461800  0.45287700  0.20843500  1
  O  O65  1  0.14538200  0.45287700  0.70843500  1
  O  O66  1  0.64538200  0.54712300  0.79156500  1
  O  O67  1  0.85461800  0.54712300  0.29156500  1
  O  O68  1  0.46859400  0.56505800  0.16908200  1
  O  O69  1  0.03140600  0.56505800  0.66908200  1
  O  O70  1  0.53140600  0.43494200  0.83091800  1
  O  O71  1  0.96859400  0.43494200  0.33091800  1
  O  O72  1  0.39335400  0.67492200  0.34590300  1
  O  O73  1  0.10664600  0.67492200  0.84590300  1
  O  O74  1  0.60664600  0.32507800  0.65409700  1
  O  O75  1  0.89335400  0.32507800  0.15409700  1
  O  O76  1  0.32151900  0.24449500  0.72138700  1
  O  O77  1  0.17848100  0.24449500  0.22138700  1
  O  O78  1  0.67848100  0.75550500  0.27861300  1
  O  O79  1  0.82151900  0.75550500  0.77861300  1
  O  O80  1  0.31537900  0.01125400  0.57755700  1
  O  O81  1  0.18462100  0.01125400  0.07755700  1
  O  O82  1  0.68462100  0.98874600  0.42244300  1
  O  O83  1  0.81537900  0.98874600  0.92244300  1
  O  O84  1  0.38712400  0.92020600  0.85199000  1
  O  O85  1  0.11287600  0.92020600  0.35199000  1
  O  O86  1  0.61287600  0.07979400  0.14801000  1
  O  O87  1  0.88712400  0.07979400  0.64801000  1
