# generated using pymatgen
data_Be4N6O19
_symmetry_space_group_name_H-M   'P 1'
_cell_length_a   13.97759403
_cell_length_b   13.97759403
_cell_length_c   13.97759403
_cell_angle_alpha   90.00000000
_cell_angle_beta   90.00000000
_cell_angle_gamma   90.00000000
_symmetry_Int_Tables_number   1
_chemical_formula_structural   Be4N6O19
_chemical_formula_sum   'Be32 N48 O152'
_cell_volume   2730.84636355
_cell_formula_units_Z   8
loop_
 _symmetry_equiv_pos_site_id
 _symmetry_equiv_pos_as_xyz
  1  'x, y, z'
loop_
 _atom_site_type_symbol
 _atom_site_label
 _atom_site_symmetry_multiplicity
 _atom_site_fract_x
 _atom_site_fract_y
 _atom_site_fract_z
 _atom_site_occupancy
  Be  Be0  1  0.30067706  0.69932294  0.19932294  1
  Be  Be1  1  0.69932294  0.19932294  0.30067706  1
  Be  Be2  1  0.19932294  0.30067706  0.69932294  1
  Be  Be3  1  0.80067706  0.80067706  0.80067706  1
  Be  Be4  1  0.69932294  0.30067706  0.80067706  1
  Be  Be5  1  0.30067706  0.80067706  0.69932294  1
  Be  Be6  1  0.80067706  0.69932294  0.30067706  1
  Be  Be7  1  0.19932294  0.19932294  0.19932294  1
  Be  Be8  1  0.12084438  0.73777921  0.25323602  1
  Be  Be9  1  0.87915562  0.23777921  0.24676398  1
  Be  Be10  1  0.37915562  0.26222079  0.75323602  1
  Be  Be11  1  0.62084438  0.76222079  0.74676398  1
  Be  Be12  1  0.25323602  0.12084438  0.73777921  1
  Be  Be13  1  0.24676398  0.87915562  0.23777921  1
  Be  Be14  1  0.75323602  0.37915562  0.26222079  1
  Be  Be15  1  0.74676398  0.62084438  0.76222079  1
  Be  Be16  1  0.73777921  0.25323602  0.12084438  1
  Be  Be17  1  0.23777921  0.24676398  0.87915562  1
  Be  Be18  1  0.26222079  0.75323602  0.37915562  1
  Be  Be19  1  0.76222079  0.74676398  0.62084438  1
  Be  Be20  1  0.87915562  0.26222079  0.74676398  1
  Be  Be21  1  0.12084438  0.76222079  0.75323602  1
  Be  Be22  1  0.62084438  0.73777921  0.24676398  1
  Be  Be23  1  0.37915562  0.23777921  0.25323602  1
  Be  Be24  1  0.74676398  0.87915562  0.26222079  1
  Be  Be25  1  0.75323602  0.12084438  0.76222079  1
  Be  Be26  1  0.24676398  0.62084438  0.73777921  1
  Be  Be27  1  0.25323602  0.37915562  0.23777921  1
  Be  Be28  1  0.26222079  0.74676398  0.87915562  1
  Be  Be29  1  0.76222079  0.75323602  0.12084438  1
  Be  Be30  1  0.73777921  0.24676398  0.62084438  1
  Be  Be31  1  0.23777921  0.25323602  0.37915562  1
  N  N32  1  0.15558226  0.61937940  0.11375837  1
  N  N33  1  0.84441774  0.11937940  0.38624163  1
  N  N34  1  0.34441774  0.38062060  0.61375837  1
  N  N35  1  0.65558226  0.88062060  0.88624163  1
  N  N36  1  0.11375837  0.15558226  0.61937940  1
  N  N37  1  0.38624163  0.84441774  0.11937940  1
  N  N38  1  0.61375837  0.34441774  0.38062060  1
  N  N39  1  0.88624163  0.65558226  0.88062060  1
  N  N40  1  0.61937940  0.11375837  0.15558226  1
  N  N41  1  0.11937940  0.38624163  0.84441774  1
  N  N42  1  0.38062060  0.61375837  0.34441774  1
  N  N43  1  0.88062060  0.88624163  0.65558226  1
  N  N44  1  0.84441774  0.38062060  0.88624163  1
  N  N45  1  0.15558226  0.88062060  0.61375837  1
  N  N46  1  0.65558226  0.61937940  0.38624163  1
  N  N47  1  0.34441774  0.11937940  0.11375837  1
  N  N48  1  0.88624163  0.84441774  0.38062060  1
  N  N49  1  0.61375837  0.15558226  0.88062060  1
  N  N50  1  0.38624163  0.65558226  0.61937940  1
  N  N51  1  0.11375837  0.34441774  0.11937940  1
  N  N52  1  0.38062060  0.88624163  0.84441774  1
  N  N53  1  0.88062060  0.61375837  0.15558226  1
  N  N54  1  0.61937940  0.38624163  0.65558226  1
  N  N55  1  0.11937940  0.11375837  0.34441774  1
  N  N56  1  0.09509215  0.69285679  0.43040475  1
  N  N57  1  0.90490785  0.19285679  0.06959525  1
  N  N58  1  0.40490785  0.30714321  0.93040475  1
  N  N59  1  0.59509215  0.80714321  0.56959525  1
  N  N60  1  0.43040475  0.09509215  0.69285679  1
  N  N61  1  0.06959525  0.90490785  0.19285679  1
  N  N62  1  0.93040475  0.40490785  0.30714321  1
  N  N63  1  0.56959525  0.59509215  0.80714321  1
  N  N64  1  0.69285679  0.43040475  0.09509215  1
  N  N65  1  0.19285679  0.06959525  0.90490785  1
  N  N66  1  0.30714321  0.93040475  0.40490785  1
  N  N67  1  0.80714321  0.56959525  0.59509215  1
  N  N68  1  0.90490785  0.30714321  0.56959525  1
  N  N69  1  0.09509215  0.80714321  0.93040475  1
  N  N70  1  0.59509215  0.69285679  0.06959525  1
  N  N71  1  0.40490785  0.19285679  0.43040475  1
  N  N72  1  0.56959525  0.90490785  0.30714321  1
  N  N73  1  0.93040475  0.09509215  0.80714321  1
  N  N74  1  0.06959525  0.59509215  0.69285679  1
  N  N75  1  0.43040475  0.40490785  0.19285679  1
  N  N76  1  0.30714321  0.56959525  0.90490785  1
  N  N77  1  0.80714321  0.93040475  0.09509215  1
  N  N78  1  0.69285679  0.06959525  0.59509215  1
  N  N79  1  0.19285679  0.43040475  0.40490785  1
  O  O80  1  0.23332257  0.76667743  0.26667743  1
  O  O81  1  0.76667743  0.26667743  0.23332257  1
  O  O82  1  0.26667743  0.23332257  0.76667743  1
  O  O83  1  0.73332257  0.73332257  0.73332257  1
  O  O84  1  0.76667743  0.23332257  0.73332257  1
  O  O85  1  0.23332257  0.73332257  0.76667743  1
  O  O86  1  0.73332257  0.76667743  0.23332257  1
  O  O87  1  0.26667743  0.26667743  0.26667743  1
  O  O88  1  0.24173797  0.61132523  0.14855090  1
  O  O89  1  0.75826203  0.11132523  0.35144910  1
  O  O90  1  0.25826203  0.38867477  0.64855090  1
  O  O91  1  0.74173797  0.88867477  0.85144910  1
  O  O92  1  0.14855090  0.24173797  0.61132523  1
  O  O93  1  0.35144910  0.75826203  0.11132523  1
  O  O94  1  0.64855090  0.25826203  0.38867477  1
  O  O95  1  0.85144910  0.74173797  0.88867477  1
  O  O96  1  0.61132523  0.14855090  0.24173797  1
  O  O97  1  0.11132523  0.35144910  0.75826203  1
  O  O98  1  0.38867477  0.64855090  0.25826203  1
  O  O99  1  0.88867477  0.85144910  0.74173797  1
  O  O100  1  0.75826203  0.38867477  0.85144910  1
  O  O101  1  0.24173797  0.88867477  0.64855090  1
  O  O102  1  0.74173797  0.61132523  0.35144910  1
  O  O103  1  0.25826203  0.11132523  0.14855090  1
  O  O104  1  0.85144910  0.75826203  0.38867477  1
  O  O105  1  0.64855090  0.24173797  0.88867477  1
  O  O106  1  0.35144910  0.74173797  0.61132523  1
  O  O107  1  0.14855090  0.25826203  0.11132523  1
  O  O108  1  0.38867477  0.85144910  0.75826203  1
  O  O109  1  0.88867477  0.64855090  0.24173797  1
  O  O110  1  0.61132523  0.35144910  0.74173797  1
  O  O111  1  0.11132523  0.14855090  0.25826203  1
  O  O112  1  0.09776138  0.68059223  0.15347774  1
  O  O113  1  0.90223862  0.18059223  0.34652226  1
  O  O114  1  0.40223862  0.31940777  0.65347774  1
  O  O115  1  0.59776138  0.81940777  0.84652226  1
  O  O116  1  0.15347774  0.09776138  0.68059223  1
  O  O117  1  0.34652226  0.90223862  0.18059223  1
  O  O118  1  0.65347774  0.40223862  0.31940777  1
  O  O119  1  0.84652226  0.59776138  0.81940777  1
  O  O120  1  0.68059223  0.15347774  0.09776138  1
  O  O121  1  0.18059223  0.34652226  0.90223862  1
  O  O122  1  0.31940777  0.65347774  0.40223862  1
  O  O123  1  0.81940777  0.84652226  0.59776138  1
  O  O124  1  0.90223862  0.31940777  0.84652226  1
  O  O125  1  0.09776138  0.81940777  0.65347774  1
  O  O126  1  0.59776138  0.68059223  0.34652226  1
  O  O127  1  0.40223862  0.18059223  0.15347774  1
  O  O128  1  0.84652226  0.90223862  0.31940777  1
  O  O129  1  0.65347774  0.09776138  0.81940777  1
  O  O130  1  0.34652226  0.59776138  0.68059223  1
  O  O131  1  0.15347774  0.40223862  0.18059223  1
  O  O132  1  0.31940777  0.84652226  0.90223862  1
  O  O133  1  0.81940777  0.65347774  0.09776138  1
  O  O134  1  0.68059223  0.34652226  0.59776138  1
  O  O135  1  0.18059223  0.15347774  0.40223862  1
  O  O136  1  0.12996073  0.57103148  0.04699184  1
  O  O137  1  0.87003927  0.07103148  0.45300816  1
  O  O138  1  0.37003927  0.42896852  0.54699184  1
  O  O139  1  0.62996073  0.92896852  0.95300816  1
  O  O140  1  0.04699184  0.12996073  0.57103148  1
  O  O141  1  0.45300816  0.87003927  0.07103148  1
  O  O142  1  0.54699184  0.37003927  0.42896852  1
  O  O143  1  0.95300816  0.62996073  0.92896852  1
  O  O144  1  0.57103148  0.04699184  0.12996073  1
  O  O145  1  0.07103148  0.45300816  0.87003927  1
  O  O146  1  0.42896852  0.54699184  0.37003927  1
  O  O147  1  0.92896852  0.95300816  0.62996073  1
  O  O148  1  0.87003927  0.42896852  0.95300816  1
  O  O149  1  0.12996073  0.92896852  0.54699184  1
  O  O150  1  0.62996073  0.57103148  0.45300816  1
  O  O151  1  0.37003927  0.07103148  0.04699184  1
  O  O152  1  0.95300816  0.87003927  0.42896852  1
  O  O153  1  0.54699184  0.12996073  0.92896852  1
  O  O154  1  0.45300816  0.62996073  0.57103148  1
  O  O155  1  0.04699184  0.37003927  0.07103148  1
  O  O156  1  0.42896852  0.95300816  0.87003927  1
  O  O157  1  0.92896852  0.54699184  0.12996073  1
  O  O158  1  0.57103148  0.45300816  0.62996073  1
  O  O159  1  0.07103148  0.04699184  0.37003927  1
  O  O160  1  0.08043419  0.67097240  0.34113452  1
  O  O161  1  0.91956581  0.17097240  0.15886548  1
  O  O162  1  0.41956581  0.32902760  0.84113452  1
  O  O163  1  0.58043419  0.82902760  0.65886548  1
  O  O164  1  0.34113452  0.08043419  0.67097240  1
  O  O165  1  0.15886548  0.91956581  0.17097240  1
  O  O166  1  0.84113452  0.41956581  0.32902760  1
  O  O167  1  0.65886548  0.58043419  0.82902760  1
  O  O168  1  0.67097240  0.34113452  0.08043419  1
  O  O169  1  0.17097240  0.15886548  0.91956581  1
  O  O170  1  0.32902760  0.84113452  0.41956581  1
  O  O171  1  0.82902760  0.65886548  0.58043419  1
  O  O172  1  0.91956581  0.32902760  0.65886548  1
  O  O173  1  0.08043419  0.82902760  0.84113452  1
  O  O174  1  0.58043419  0.67097240  0.15886548  1
  O  O175  1  0.41956581  0.17097240  0.34113452  1
  O  O176  1  0.65886548  0.91956581  0.32902760  1
  O  O177  1  0.84113452  0.08043419  0.82902760  1
  O  O178  1  0.15886548  0.58043419  0.67097240  1
  O  O179  1  0.34113452  0.41956581  0.17097240  1
  O  O180  1  0.32902760  0.65886548  0.91956581  1
  O  O181  1  0.82902760  0.84113452  0.08043419  1
  O  O182  1  0.67097240  0.15886548  0.58043419  1
  O  O183  1  0.17097240  0.34113452  0.41956581  1
  O  O184  1  0.16784435  0.74846727  0.45007794  1
  O  O185  1  0.83215565  0.24846727  0.04992206  1
  O  O186  1  0.33215565  0.25153273  0.95007794  1
  O  O187  1  0.66784435  0.75153273  0.54992206  1
  O  O188  1  0.45007794  0.16784435  0.74846727  1
  O  O189  1  0.04992206  0.83215565  0.24846727  1
  O  O190  1  0.95007794  0.33215565  0.25153273  1
  O  O191  1  0.54992206  0.66784435  0.75153273  1
  O  O192  1  0.74846727  0.45007794  0.16784435  1
  O  O193  1  0.24846727  0.04992206  0.83215565  1
  O  O194  1  0.25153273  0.95007794  0.33215565  1
  O  O195  1  0.75153273  0.54992206  0.66784435  1
  O  O196  1  0.83215565  0.25153273  0.54992206  1
  O  O197  1  0.16784435  0.75153273  0.95007794  1
  O  O198  1  0.66784435  0.74846727  0.04992206  1
  O  O199  1  0.33215565  0.24846727  0.45007794  1
  O  O200  1  0.54992206  0.83215565  0.25153273  1
  O  O201  1  0.95007794  0.16784435  0.75153273  1
  O  O202  1  0.04992206  0.66784435  0.74846727  1
  O  O203  1  0.45007794  0.33215565  0.24846727  1
  O  O204  1  0.25153273  0.54992206  0.83215565  1
  O  O205  1  0.75153273  0.95007794  0.16784435  1
  O  O206  1  0.74846727  0.04992206  0.66784435  1
  O  O207  1  0.24846727  0.45007794  0.33215565  1
  O  O208  1  0.04345916  0.66322195  0.49272436  1
  O  O209  1  0.95654084  0.16322195  0.00727564  1
  O  O210  1  0.45654084  0.33677805  0.99272436  1
  O  O211  1  0.54345916  0.83677805  0.50727564  1
  O  O212  1  0.49272436  0.04345916  0.66322195  1
  O  O213  1  0.00727564  0.95654084  0.16322195  1
  O  O214  1  0.99272436  0.45654084  0.33677805  1
  O  O215  1  0.50727564  0.54345916  0.83677805  1
  O  O216  1  0.66322195  0.49272436  0.04345916  1
  O  O217  1  0.16322195  0.00727564  0.95654084  1
  O  O218  1  0.33677805  0.99272436  0.45654084  1
  O  O219  1  0.83677805  0.50727564  0.54345916  1
  O  O220  1  0.95654084  0.33677805  0.50727564  1
  O  O221  1  0.04345916  0.83677805  0.99272436  1
  O  O222  1  0.54345916  0.66322195  0.00727564  1
  O  O223  1  0.45654084  0.16322195  0.49272436  1
  O  O224  1  0.50727564  0.95654084  0.33677805  1
  O  O225  1  0.99272436  0.04345916  0.83677805  1
  O  O226  1  0.00727564  0.54345916  0.66322195  1
  O  O227  1  0.49272436  0.45654084  0.16322195  1
  O  O228  1  0.33677805  0.50727564  0.95654084  1
  O  O229  1  0.83677805  0.99272436  0.04345916  1
  O  O230  1  0.66322195  0.00727564  0.54345916  1
  O  O231  1  0.16322195  0.49272436  0.45654084  1
