# generated using pymatgen
data_K2CaZrH16(CO3)8
_symmetry_space_group_name_H-M   'P 1'
_cell_length_a   9.08933000
_cell_length_b   9.29708097
_cell_length_c   9.29708097
_cell_angle_alpha   76.17530990
_cell_angle_beta   60.73648154
_cell_angle_gamma   60.73648154
_symmetry_Int_Tables_number   1
_chemical_formula_structural   K2CaZrH16(CO3)8
_chemical_formula_sum   'K2 Ca1 Zr1 H16 C8 O24'
_cell_volume   597.91189417
_cell_formula_units_Z   1
loop_
 _symmetry_equiv_pos_site_id
 _symmetry_equiv_pos_as_xyz
  1  'x, y, z'
loop_
 _atom_site_type_symbol
 _atom_site_label
 _atom_site_symmetry_multiplicity
 _atom_site_fract_x
 _atom_site_fract_y
 _atom_site_fract_z
 _atom_site_occupancy
  K  K0  1  0.50000000  0.00000000  0.00000000  1
  K  K1  1  0.25000000  0.50000000  0.50000000  1
  Ca  Ca2  1  0.75000000  0.50000000  0.50000000  1
  Zr  Zr3  1  0.00000000  0.00000000  0.00000000  1
  H  H4  1  0.75022900  0.84229700  0.63803400  1
  H  H5  1  0.23056000  0.15770300  0.36196600  1
  H  H6  1  0.61173700  0.63803400  0.15770300  1
  H  H7  1  0.40747400  0.36196600  0.84229700  1
  H  H8  1  0.87110300  0.93142300  0.60754300  1
  H  H9  1  0.41006900  0.06857700  0.39245700  1
  H  H10  1  0.52135400  0.60754300  0.06857700  1
  H  H11  1  0.19747400  0.39245700  0.93142300  1
  H  H12  1  0.23016600  0.89559800  0.42212200  1
  H  H13  1  0.54788500  0.10440200  0.57787800  1
  H  H14  1  0.34771200  0.42212200  0.10440200  1
  H  H15  1  0.87423700  0.57787800  0.89559800  1
  H  H16  1  0.13466700  0.86267400  0.33995600  1
  H  H17  1  0.33729700  0.13732600  0.66004400  1
  H  H18  1  0.52537700  0.33995600  0.13732600  1
  H  H19  1  0.00265900  0.66004400  0.86267400  1
  C  C20  1  0.41787900  0.78120700  0.77530800  1
  C  C21  1  0.97439400  0.21879300  0.22469200  1
  C  C22  1  0.80681300  0.77530800  0.21879300  1
  C  C23  1  0.80091400  0.22469200  0.78120700  1
  C  C24  1  0.30647600  0.72495800  0.73833200  1
  C  C25  1  0.76976500  0.27504200  0.26166800  1
  C  C26  1  0.95519300  0.73833200  0.27504200  1
  C  C27  1  0.96856600  0.26166800  0.72495800  1
  O  O28  1  0.31551200  0.89514200  0.88437800  1
  O  O29  1  0.09503200  0.10485800  0.11562200  1
  O  O30  1  0.80011000  0.88437800  0.10485800  1
  O  O31  1  0.78934600  0.11562200  0.89514200  1
  O  O32  1  0.12584800  0.80386700  0.82094100  1
  O  O33  1  0.75065700  0.19613300  0.17905900  1
  O  O34  1  0.05321100  0.82094100  0.19613300  1
  O  O35  1  0.07028500  0.17905900  0.80386700  1
  O  O36  1  0.59299200  0.71501600  0.69982400  1
  O  O37  1  0.00783200  0.28498400  0.30017600  1
  O  O38  1  0.70718400  0.69982400  0.28498400  1
  O  O39  1  0.69199200  0.30017600  0.71501600  1
  O  O40  1  0.39322000  0.61213000  0.63758700  1
  O  O41  1  0.64293700  0.38787000  0.36241300  1
  O  O42  1  0.96919300  0.63758700  0.38787000  1
  O  O43  1  0.99465000  0.36241300  0.61213000  1
  O  O44  1  0.74078500  0.94721200  0.65478600  1
  O  O45  1  0.34278300  0.05278800  0.34521400  1
  O  O46  1  0.60442900  0.65478600  0.05278800  1
  O  O47  1  0.31200300  0.34521400  0.94721200  1
  O  O48  1  0.14454200  0.84899300  0.44336900  1
  O  O49  1  0.43690400  0.15100700  0.55663100  1
  O  O50  1  0.41208900  0.44336900  0.15100700  1
  O  O51  1  0.00646500  0.55663100  0.84899300  1
