# generated using pymatgen
data_NaH15O8
_symmetry_space_group_name_H-M   'P 1'
_cell_length_a   7.47029500
_cell_length_b   16.98948400
_cell_length_c   7.08030238
_cell_angle_alpha   90.00000000
_cell_angle_beta   92.38191184
_cell_angle_gamma   90.00000000
_symmetry_Int_Tables_number   1
_chemical_formula_structural   NaH15O8
_chemical_formula_sum   'Na4 H60 O32'
_cell_volume   897.83049904
_cell_formula_units_Z   4
loop_
 _symmetry_equiv_pos_site_id
 _symmetry_equiv_pos_as_xyz
  1  'x, y, z'
loop_
 _atom_site_type_symbol
 _atom_site_label
 _atom_site_symmetry_multiplicity
 _atom_site_fract_x
 _atom_site_fract_y
 _atom_site_fract_z
 _atom_site_occupancy
  Na  Na0  1  0.53901500  0.25704000  0.02135900  1
  Na  Na1  1  0.46098500  0.75704000  0.47864100  1
  Na  Na2  1  0.46098500  0.74296000  0.97864100  1
  Na  Na3  1  0.53901500  0.24296000  0.52135900  1
  H  H4  1  0.18522200  0.47192800  0.55835400  1
  H  H5  1  0.81477800  0.97192800  0.94164600  1
  H  H6  1  0.81477800  0.52807200  0.44164600  1
  H  H7  1  0.18522200  0.02807200  0.05835400  1
  H  H8  1  0.85248000  0.22341100  0.78697500  1
  H  H9  1  0.14752000  0.72341100  0.71302500  1
  H  H10  1  0.14752000  0.77658900  0.21302500  1
  H  H11  1  0.85248000  0.27658900  0.28697500  1
  H  H12  1  0.80320700  0.31410600  0.76956000  1
  H  H13  1  0.19679300  0.81410600  0.73044000  1
  H  H14  1  0.19679300  0.68589400  0.23044000  1
  H  H15  1  0.80320700  0.18589400  0.26956000  1
  H  H16  1  0.27084900  0.31890000  0.72035900  1
  H  H17  1  0.72915100  0.81890000  0.77964100  1
  H  H18  1  0.72915100  0.68110000  0.27964100  1
  H  H19  1  0.27084900  0.18110000  0.22035900  1
  H  H20  1  0.22707500  0.23030000  0.76877600  1
  H  H21  1  0.77292500  0.73030000  0.73122400  1
  H  H22  1  0.77292500  0.76970000  0.23122400  1
  H  H23  1  0.22707500  0.26970000  0.26877600  1
  H  H24  1  0.40482800  0.09736700  0.04158300  1
  H  H25  1  0.59517200  0.59736700  0.45841700  1
  H  H26  1  0.59517200  0.90263300  0.95841700  1
  H  H27  1  0.40482800  0.40263300  0.54158300  1
  H  H28  1  0.62004600  0.09290000  0.06969200  1
  H  H29  1  0.37995400  0.59290000  0.43030800  1
  H  H30  1  0.37995400  0.90710000  0.93030800  1
  H  H31  1  0.62004600  0.40710000  0.56969200  1
  H  H32  1  0.63687800  0.43229900  0.07429600  1
  H  H33  1  0.36312200  0.93229900  0.42570400  1
  H  H34  1  0.36312200  0.56770100  0.92570400  1
  H  H35  1  0.63687800  0.06770100  0.57429600  1
  H  H36  1  0.54373600  0.39426600  0.24797300  1
  H  H37  1  0.45626400  0.89426600  0.25202700  1
  H  H38  1  0.45626400  0.60573400  0.75202700  1
  H  H39  1  0.54373600  0.10573400  0.74797300  1
  H  H40  1  0.34074600  0.43808000  0.02163600  1
  H  H41  1  0.65925400  0.93808000  0.47836400  1
  H  H42  1  0.65925400  0.56192000  0.97836400  1
  H  H43  1  0.34074600  0.06192000  0.52163600  1
  H  H44  1  0.20553100  0.44991900  0.84634600  1
  H  H45  1  0.79446900  0.94991900  0.65365400  1
  H  H46  1  0.79446900  0.55008100  0.15365400  1
  H  H47  1  0.20553100  0.05008100  0.34634600  1
  H  H48  1  0.03002800  0.58088400  0.32915400  1
  H  H49  1  0.96997200  0.08088400  0.17084600  1
  H  H50  1  0.96997200  0.41911600  0.67084600  1
  H  H51  1  0.03002800  0.91911600  0.82915400  1
  H  H52  1  0.16401100  0.54512100  0.18106600  1
  H  H53  1  0.83598900  0.04512100  0.31893400  1
  H  H54  1  0.83598900  0.45487900  0.81893400  1
  H  H55  1  0.16401100  0.95487900  0.68106600  1
  H  H56  1  0.08477600  0.38098200  0.18613400  1
  H  H57  1  0.91522400  0.88098200  0.31386600  1
  H  H58  1  0.91522400  0.61901800  0.81386600  1
  H  H59  1  0.08477600  0.11901800  0.68613400  1
  H  H60  1  0.10406000  0.37409800  0.40953800  1
  H  H61  1  0.89594000  0.87409800  0.09046200  1
  H  H62  1  0.89594000  0.62590200  0.59046200  1
  H  H63  1  0.10406000  0.12590200  0.90953800  1
  O  O64  1  0.17650900  0.41916100  0.61103900  1
  O  O65  1  0.82349100  0.91916100  0.88896100  1
  O  O66  1  0.82349100  0.58083900  0.38896100  1
  O  O67  1  0.17650900  0.08083900  0.11103900  1
  O  O68  1  0.75196700  0.26080000  0.78338500  1
  O  O69  1  0.24803300  0.76080000  0.71661500  1
  O  O70  1  0.24803300  0.73920000  0.21661500  1
  O  O71  1  0.75196700  0.23920000  0.28338500  1
  O  O72  1  0.32641100  0.26897500  0.75984500  1
  O  O73  1  0.67358900  0.76897500  0.74015500  1
  O  O74  1  0.67358900  0.73102500  0.24015500  1
  O  O75  1  0.32641100  0.23102500  0.25984500  1
  O  O76  1  0.52078500  0.11353500  0.98778000  1
  O  O77  1  0.47921500  0.61353500  0.51222000  1
  O  O78  1  0.47921500  0.88646500  0.01222000  1
  O  O79  1  0.52078500  0.38646500  0.48778000  1
  O  O80  1  0.54563000  0.39329900  0.10681600  1
  O  O81  1  0.45437000  0.89329900  0.39318400  1
  O  O82  1  0.45437000  0.60670100  0.89318400  1
  O  O83  1  0.54563000  0.10670100  0.60681600  1
  O  O84  1  0.23110900  0.46791000  0.98032300  1
  O  O85  1  0.76889100  0.96791000  0.51967700  1
  O  O86  1  0.76889100  0.53209000  0.01967700  1
  O  O87  1  0.23110900  0.03209000  0.48032300  1
  O  O88  1  0.16023400  0.58129800  0.28922000  1
  O  O89  1  0.83976600  0.08129800  0.21078000  1
  O  O90  1  0.83976600  0.41870200  0.71078000  1
  O  O91  1  0.16023400  0.91870200  0.78922000  1
  O  O92  1  0.06613300  0.34426500  0.29008600  1
  O  O93  1  0.93386700  0.84426500  0.20991400  1
  O  O94  1  0.93386700  0.65573500  0.70991400  1
  O  O95  1  0.06613300  0.15573500  0.79008600  1
