# generated using pymatgen
data_La15FeGe9
_symmetry_space_group_name_H-M   'P 1'
_cell_length_a   15.60603992
_cell_length_b   15.60603992
_cell_length_c   7.05990300
_cell_angle_alpha   90.00000000
_cell_angle_beta   90.00000000
_cell_angle_gamma   119.99999966
_symmetry_Int_Tables_number   1
_chemical_formula_structural   La15FeGe9
_chemical_formula_sum   'La30 Fe2 Ge18'
_cell_volume   1489.06890343
_cell_formula_units_Z   2
loop_
 _symmetry_equiv_pos_site_id
 _symmetry_equiv_pos_as_xyz
  1  'x, y, z'
loop_
 _atom_site_type_symbol
 _atom_site_label
 _atom_site_symmetry_multiplicity
 _atom_site_fract_x
 _atom_site_fract_y
 _atom_site_fract_z
 _atom_site_occupancy
  La  La0  1  0.67564600  0.01978300  0.50134500  1
  La  La1  1  0.34413700  0.32435400  0.50134500  1
  La  La2  1  0.98021700  0.65586300  0.50134500  1
  La  La3  1  0.98021700  0.32435400  0.50134500  1
  La  La4  1  0.67564600  0.65586300  0.50134500  1
  La  La5  1  0.34413700  0.01978300  0.50134500  1
  La  La6  1  0.32435400  0.98021700  0.00134500  1
  La  La7  1  0.65586300  0.67564600  0.00134500  1
  La  La8  1  0.01978300  0.34413700  0.00134500  1
  La  La9  1  0.01978300  0.67564600  0.00134500  1
  La  La10  1  0.32435400  0.34413700  0.00134500  1
  La  La11  1  0.65586300  0.98021700  0.00134500  1
  La  La12  1  0.58511700  0.41488300  0.76111200  1
  La  La13  1  0.82976600  0.41488300  0.76111200  1
  La  La14  1  0.58511700  0.17023400  0.76111200  1
  La  La15  1  0.41488300  0.58511700  0.26111200  1
  La  La16  1  0.17023400  0.58511700  0.26111200  1
  La  La17  1  0.41488300  0.82976600  0.26111200  1
  La  La18  1  0.74815100  0.25184900  0.21736400  1
  La  La19  1  0.50369900  0.25184900  0.21736400  1
  La  La20  1  0.74815100  0.49630100  0.21736400  1
  La  La21  1  0.25184900  0.74815100  0.71736400  1
  La  La22  1  0.49630100  0.74815100  0.71736400  1
  La  La23  1  0.25184900  0.50369900  0.71736400  1
  La  La24  1  0.91755200  0.08244800  0.77998500  1
  La  La25  1  0.16489700  0.08244800  0.77998500  1
  La  La26  1  0.91755200  0.83510300  0.77998500  1
  La  La27  1  0.08244800  0.91755200  0.27998500  1
  La  La28  1  0.83510300  0.91755200  0.27998500  1
  La  La29  1  0.08244800  0.16489700  0.27998500  1
  Fe  Fe30  1  0.66666700  0.33333300  0.98602400  1
  Fe  Fe31  1  0.33333300  0.66666700  0.48602400  1
  Ge  Ge32  1  0.86875700  0.13124300  0.22280600  1
  Ge  Ge33  1  0.26248600  0.13124300  0.22280600  1
  Ge  Ge34  1  0.86875700  0.73751400  0.22280600  1
  Ge  Ge35  1  0.13124300  0.86875700  0.72280600  1
  Ge  Ge36  1  0.73751400  0.86875700  0.72280600  1
  Ge  Ge37  1  0.13124300  0.26248600  0.72280600  1
  Ge  Ge38  1  0.53242400  0.46757600  0.23956700  1
  Ge  Ge39  1  0.93515200  0.46757600  0.23956700  1
  Ge  Ge40  1  0.53242400  0.06484800  0.23956700  1
  Ge  Ge41  1  0.46757600  0.53242400  0.73956700  1
  Ge  Ge42  1  0.06484800  0.53242400  0.73956700  1
  Ge  Ge43  1  0.46757600  0.93515200  0.73956700  1
  Ge  Ge44  1  0.80197100  0.19802900  0.78923000  1
  Ge  Ge45  1  0.39605800  0.19802900  0.78923000  1
  Ge  Ge46  1  0.80197100  0.60394200  0.78923000  1
  Ge  Ge47  1  0.19802900  0.80197100  0.28923000  1
  Ge  Ge48  1  0.60394200  0.80197100  0.28923000  1
  Ge  Ge49  1  0.19802900  0.39605800  0.28923000  1
