# generated using pymatgen
data_Te6MoI3
_symmetry_space_group_name_H-M   'P 1'
_cell_length_a   16.78284700
_cell_length_b   12.07292600
_cell_length_c   17.46714036
_cell_angle_alpha   64.96238784
_cell_angle_beta   90.00000000
_cell_angle_gamma   90.00000000
_symmetry_Int_Tables_number   1
_chemical_formula_structural   Te6MoI3
_chemical_formula_sum   'Te48 Mo8 I24'
_cell_volume   3206.58413543
_cell_formula_units_Z   8
loop_
 _symmetry_equiv_pos_site_id
 _symmetry_equiv_pos_as_xyz
  1  'x, y, z'
loop_
 _atom_site_type_symbol
 _atom_site_label
 _atom_site_symmetry_multiplicity
 _atom_site_fract_x
 _atom_site_fract_y
 _atom_site_fract_z
 _atom_site_occupancy
  Te  Te0  1  0.84169900  0.13818900  0.39003100  1
  Te  Te1  1  0.65830100  0.13818900  0.89003100  1
  Te  Te2  1  0.15830100  0.86181100  0.60996900  1
  Te  Te3  1  0.34169900  0.86181100  0.10996900  1
  Te  Te4  1  0.74839100  0.17731000  0.24624900  1
  Te  Te5  1  0.75160900  0.17731000  0.74624900  1
  Te  Te6  1  0.25160900  0.82269000  0.75375100  1
  Te  Te7  1  0.24839100  0.82269000  0.25375100  1
  Te  Te8  1  0.91106000  0.35004100  0.11043400  1
  Te  Te9  1  0.58894000  0.35004100  0.61043400  1
  Te  Te10  1  0.08894000  0.64995900  0.88956600  1
  Te  Te11  1  0.41106000  0.64995900  0.38956600  1
  Te  Te12  1  0.00417800  0.31187100  0.25417700  1
  Te  Te13  1  0.49582200  0.31187100  0.75417700  1
  Te  Te14  1  0.99582200  0.68812900  0.74582300  1
  Te  Te15  1  0.50417800  0.68812900  0.24582300  1
  Te  Te16  1  0.86556000  0.87403700  0.32149300  1
  Te  Te17  1  0.63444000  0.87403700  0.82149300  1
  Te  Te18  1  0.13444000  0.12596300  0.67850700  1
  Te  Te19  1  0.36556000  0.12596300  0.17850700  1
  Te  Te20  1  0.88707300  0.00966200  0.14109400  1
  Te  Te21  1  0.61292700  0.00966200  0.64109400  1
  Te  Te22  1  0.11292700  0.99033800  0.85890600  1
  Te  Te23  1  0.38707300  0.99033800  0.35890600  1
  Te  Te24  1  0.04222700  0.06156300  0.17484700  1
  Te  Te25  1  0.45777300  0.06156300  0.67484700  1
  Te  Te26  1  0.95777300  0.93843700  0.82515300  1
  Te  Te27  1  0.54222700  0.93843700  0.32515300  1
  Te  Te28  1  0.01715400  0.94555500  0.35287900  1
  Te  Te29  1  0.48284600  0.94555500  0.85287900  1
  Te  Te30  1  0.98284600  0.05444500  0.64712100  1
  Te  Te31  1  0.51715400  0.05444500  0.14712100  1
  Te  Te32  1  0.71075700  0.42800600  0.32612900  1
  Te  Te33  1  0.78924300  0.42800600  0.82612900  1
  Te  Te34  1  0.28924300  0.57199400  0.67387100  1
  Te  Te35  1  0.21075700  0.57199400  0.17387100  1
  Te  Te36  1  0.73384200  0.53974100  0.14660200  1
  Te  Te37  1  0.76615800  0.53974100  0.64660200  1
  Te  Te38  1  0.26615800  0.46025900  0.85339800  1
  Te  Te39  1  0.23384200  0.46025900  0.35339800  1
  Te  Te40  1  0.88439800  0.61615800  0.17437400  1
  Te  Te41  1  0.61560200  0.61615800  0.67437400  1
  Te  Te42  1  0.11560200  0.38384200  0.82562600  1
  Te  Te43  1  0.38439800  0.38384200  0.32562600  1
  Te  Te44  1  0.86611300  0.48711300  0.35273200  1
  Te  Te45  1  0.63388700  0.48711300  0.85273200  1
  Te  Te46  1  0.13388700  0.51288700  0.64726800  1
  Te  Te47  1  0.36611300  0.51288700  0.14726800  1
  Mo  Mo48  1  0.90907000  0.12913700  0.24915200  1
  Mo  Mo49  1  0.59093000  0.12913700  0.74915200  1
  Mo  Mo50  1  0.09093000  0.87086300  0.75084800  1
  Mo  Mo51  1  0.40907000  0.87086300  0.25084800  1
  Mo  Mo52  1  0.84342300  0.36008300  0.25056600  1
  Mo  Mo53  1  0.65657700  0.36008300  0.75056600  1
  Mo  Mo54  1  0.15657700  0.63991700  0.74943400  1
  Mo  Mo55  1  0.34342300  0.63991700  0.24943400  1
  I  I56  1  0.70408600  0.86775100  0.21526900  1
  I  I57  1  0.79591400  0.86775100  0.71526900  1
  I  I58  1  0.29591400  0.13224900  0.78473100  1
  I  I59  1  0.20408600  0.13224900  0.28473100  1
  I  I60  1  0.93794700  0.17809100  0.96314000  1
  I  I61  1  0.56205300  0.17809100  0.46314000  1
  I  I62  1  0.06205300  0.82190900  0.03686000  1
  I  I63  1  0.43794700  0.82190900  0.53686000  1
  I  I64  1  0.95291500  0.79790700  0.54486500  1
  I  I65  1  0.54708500  0.79790700  0.04486500  1
  I  I66  1  0.04708500  0.20209300  0.45513500  1
  I  I67  1  0.45291500  0.20209300  0.95513500  1
  I  I68  1  0.78903800  0.28698100  0.54560000  1
  I  I69  1  0.71096200  0.28698100  0.04560000  1
  I  I70  1  0.21096200  0.71301900  0.45440000  1
  I  I71  1  0.28903800  0.71301900  0.95440000  1
  I  I72  1  0.55392500  0.37522700  0.20808600  1
  I  I73  1  0.94607500  0.37522700  0.70808600  1
  I  I74  1  0.44607500  0.62477300  0.79191400  1
  I  I75  1  0.05392500  0.62477300  0.29191400  1
  I  I76  1  0.82333000  0.67388400  0.97389200  1
  I  I77  1  0.67667000  0.67388400  0.47389200  1
  I  I78  1  0.17667000  0.32611600  0.02610800  1
  I  I79  1  0.32333000  0.32611600  0.52610800  1
