# generated using pymatgen
data_VH10SeNO9
_symmetry_space_group_name_H-M   'P 1'
_cell_length_a   10.19234300
_cell_length_b   6.45324600
_cell_length_c   6.96197425
_cell_angle_alpha   71.20626341
_cell_angle_beta   90.00000000
_cell_angle_gamma   90.00000000
_symmetry_Int_Tables_number   1
_chemical_formula_structural   VH10SeNO9
_chemical_formula_sum   'V2 H20 Se2 N2 O18'
_cell_volume   433.50081976
_cell_formula_units_Z   2
loop_
 _symmetry_equiv_pos_site_id
 _symmetry_equiv_pos_as_xyz
  1  'x, y, z'
loop_
 _atom_site_type_symbol
 _atom_site_label
 _atom_site_symmetry_multiplicity
 _atom_site_fract_x
 _atom_site_fract_y
 _atom_site_fract_z
 _atom_site_occupancy
  V  V0  1  0.99965400  0.61507900  0.60305500  1
  V  V1  1  0.49965400  0.38492100  0.39694500  1
  H  H2  1  0.21129200  0.76989400  0.31028500  1
  H  H3  1  0.71129200  0.23010600  0.68971500  1
  H  H4  1  0.84931400  0.12219800  0.07998000  1
  H  H5  1  0.34931400  0.87780200  0.92002000  1
  H  H6  1  0.86309500  0.97214600  0.30426700  1
  H  H7  1  0.36309500  0.02785400  0.69573300  1
  H  H8  1  0.26473300  0.68041300  0.73472700  1
  H  H9  1  0.76473300  0.31958700  0.26527300  1
  H  H10  1  0.08263300  0.79612900  0.18410000  1
  H  H11  1  0.58263300  0.20387100  0.81590000  1
  H  H12  1  0.76658400  0.53456500  0.33491300  1
  H  H13  1  0.26658400  0.46543500  0.66508700  1
  H  H14  1  0.21632100  0.18842500  0.21650000  1
  H  H15  1  0.71632100  0.81157500  0.78350000  1
  H  H16  1  0.05114400  0.23343200  0.19732500  1
  H  H17  1  0.55114400  0.76656800  0.80267500  1
  H  H18  1  0.15543500  0.39415300  0.02341800  1
  H  H19  1  0.65543500  0.60584700  0.97658200  1
  H  H20  1  0.15063500  0.40930100  0.26236300  1
  H  H21  1  0.65063500  0.59069900  0.73763700  1
  Se  Se22  1  0.00004300  0.06790600  0.73037500  1
  Se  Se23  1  0.50004300  0.93209400  0.26962500  1
  N  N24  1  0.14349000  0.30624500  0.17571600  1
  N  N25  1  0.64349000  0.69375500  0.82428400  1
  O  O26  1  0.44135900  0.46463800  0.16424000  1
  O  O27  1  0.94135900  0.53536200  0.83576000  1
  O  O28  1  0.36748400  0.31775300  0.55060100  1
  O  O29  1  0.86748400  0.68224700  0.44939900  1
  O  O30  1  0.71008000  0.44500700  0.27474700  1
  O  O31  1  0.21008000  0.55499300  0.72525300  1
  O  O32  1  0.62345200  0.29730400  0.68807300  1
  O  O33  1  0.12345200  0.70269600  0.31192700  1
  O  O34  1  0.05132600  0.92065800  0.58079300  1
  O  O35  1  0.55132600  0.07934200  0.41920700  1
  O  O36  1  0.03591200  0.32322400  0.57221600  1
  O  O37  1  0.53591200  0.67677600  0.42778400  1
  O  O38  1  0.08738000  0.00744200  0.93962900  1
  O  O39  1  0.58738000  0.99255800  0.06037100  1
  O  O40  1  0.33927200  0.95538400  0.22768700  1
  O  O41  1  0.83927200  0.04461600  0.77231300  1
  O  O42  1  0.86936100  0.12742200  0.21571200  1
  O  O43  1  0.36936100  0.87257800  0.78428800  1
