# generated using pymatgen
data_MgH12SO10
_symmetry_space_group_name_H-M   'P 1'
_cell_length_a   6.27616656
_cell_length_b   6.27616656
_cell_length_c   25.16971454
_cell_angle_alpha   80.92769483
_cell_angle_beta   80.92769483
_cell_angle_gamma   69.49549751
_symmetry_Int_Tables_number   1
_chemical_formula_structural   MgH12SO10
_chemical_formula_sum   'Mg4 H48 S4 O40'
_cell_volume   911.36906699
_cell_formula_units_Z   4
loop_
 _symmetry_equiv_pos_site_id
 _symmetry_equiv_pos_as_xyz
  1  'x, y, z'
loop_
 _atom_site_type_symbol
 _atom_site_label
 _atom_site_symmetry_multiplicity
 _atom_site_fract_x
 _atom_site_fract_y
 _atom_site_fract_z
 _atom_site_occupancy
  Mg  Mg0  1  0.00000000  0.00000000  0.50000000  1
  Mg  Mg1  1  0.00000000  0.00000000  0.00000000  1
  Mg  Mg2  1  0.05770200  0.94229800  0.25000000  1
  Mg  Mg3  1  0.94229800  0.05770200  0.75000000  1
  H  H4  1  0.96969400  0.34160800  0.41940000  1
  H  H5  1  0.65839200  0.03030600  0.08060000  1
  H  H6  1  0.03030600  0.65839200  0.58060000  1
  H  H7  1  0.34160800  0.96969400  0.91940000  1
  H  H8  1  0.71311400  0.35029200  0.44150700  1
  H  H9  1  0.64970800  0.28688600  0.05849300  1
  H  H10  1  0.28688600  0.64970800  0.55849300  1
  H  H11  1  0.35029200  0.71311400  0.94150700  1
  H  H12  1  0.28431700  0.69426600  0.43255300  1
  H  H13  1  0.30573400  0.71568300  0.06744700  1
  H  H14  1  0.71568300  0.30573400  0.56744700  1
  H  H15  1  0.69426600  0.28431700  0.93255300  1
  H  H16  1  0.32845100  0.92882600  0.41149100  1
  H  H17  1  0.07117400  0.67154900  0.08850900  1
  H  H18  1  0.67154900  0.07117400  0.58850900  1
  H  H19  1  0.92882600  0.32845100  0.91149100  1
  H  H20  1  0.67023500  0.93341600  0.44933900  1
  H  H21  1  0.06658400  0.32976500  0.05066100  1
  H  H22  1  0.32976500  0.06658400  0.55066100  1
  H  H23  1  0.93341600  0.67023500  0.94933900  1
  H  H24  1  0.69552200  0.76464000  0.50412600  1
  H  H25  1  0.23536000  0.30447800  0.99587400  1
  H  H26  1  0.30447800  0.23536000  0.49587400  1
  H  H27  1  0.76464000  0.69552200  0.00412600  1
  H  H28  1  0.73950200  0.93561200  0.19175300  1
  H  H29  1  0.06438800  0.26049800  0.30824700  1
  H  H30  1  0.26049800  0.06438800  0.80824700  1
  H  H31  1  0.93561200  0.73950200  0.69175300  1
  H  H32  1  0.67699600  0.19485400  0.19936800  1
  H  H33  1  0.80514600  0.32300400  0.30063200  1
  H  H34  1  0.32300400  0.80514600  0.80063200  1
  H  H35  1  0.19485400  0.67699600  0.69936800  1
  H  H36  1  0.30201300  0.55960900  0.19913300  1
  H  H37  1  0.44039100  0.69798600  0.30086700  1
  H  H38  1  0.69798600  0.44039100  0.80086700  1
  H  H39  1  0.55960900  0.30201300  0.69913300  1
  H  H40  1  0.07966200  0.51171700  0.23174200  1
  H  H41  1  0.48828300  0.92033800  0.26825700  1
  H  H42  1  0.92033800  0.48828300  0.76825800  1
  H  H43  1  0.51171700  0.07966200  0.73174200  1
  H  H44  1  0.00769100  0.66115300  0.34117900  1
  H  H45  1  0.33884700  0.99230900  0.15882100  1
  H  H46  1  0.99230900  0.33884700  0.65882100  1
  H  H47  1  0.66115300  0.00769100  0.84117900  1
  H  H48  1  0.78971400  0.88903000  0.34490400  1
  H  H49  1  0.11097000  0.21028600  0.15509600  1
  H  H50  1  0.21028600  0.11097000  0.65509600  1
  H  H51  1  0.88903000  0.78971400  0.84490400  1
  S  S52  1  0.42096800  0.31765000  0.37693800  1
  S  S53  1  0.68235000  0.57903200  0.12306200  1
  S  S54  1  0.57903200  0.68235000  0.62306200  1
  S  S55  1  0.31765000  0.42096800  0.87693800  1
  O  O56  1  0.17893600  0.37609000  0.36538100  1
  O  O57  1  0.62391000  0.82106400  0.13461900  1
  O  O58  1  0.82106400  0.62391000  0.63461900  1
  O  O59  1  0.37609000  0.17893600  0.86538100  1
  O  O60  1  0.54661200  0.42605900  0.33187900  1
  O  O61  1  0.57394100  0.45338700  0.16812100  1
  O  O62  1  0.45338700  0.57394100  0.66812100  1
  O  O63  1  0.42605900  0.54661200  0.83187900  1
  O  O64  1  0.42272200  0.40411000  0.42903200  1
  O  O65  1  0.59589000  0.57727800  0.07096800  1
  O  O66  1  0.57727800  0.59589000  0.57096800  1
  O  O67  1  0.40411000  0.42272200  0.92903200  1
  O  O68  1  0.53481100  0.06345400  0.38272900  1
  O  O69  1  0.93654600  0.46518900  0.11727100  1
  O  O70  1  0.46518900  0.93654600  0.61727100  1
  O  O71  1  0.06345400  0.53481100  0.88272900  1
  O  O72  1  0.86938200  0.30896700  0.45183100  1
  O  O73  1  0.69103300  0.13061800  0.04816900  1
  O  O74  1  0.13061800  0.69103300  0.54816900  1
  O  O75  1  0.30896700  0.86938200  0.95183100  1
  O  O76  1  0.21640400  0.86237500  0.43298900  1
  O  O77  1  0.13762500  0.78359600  0.06701100  1
  O  O78  1  0.78359600  0.13762500  0.56701100  1
  O  O79  1  0.86237500  0.21640400  0.93298900  1
  O  O80  1  0.76286400  0.86821200  0.47971000  1
  O  O81  1  0.13178800  0.23713600  0.02029000  1
  O  O82  1  0.23713600  0.13178800  0.52029000  1
  O  O83  1  0.86821200  0.76286400  0.97971000  1
  O  O84  1  0.73606000  0.03625700  0.21844000  1
  O  O85  1  0.96374300  0.26394000  0.28156000  1
  O  O86  1  0.26394000  0.96374300  0.78156000  1
  O  O87  1  0.03625700  0.73606000  0.71844000  1
  O  O88  1  0.14770000  0.63135700  0.21829300  1
  O  O89  1  0.36864300  0.85230000  0.28170700  1
  O  O90  1  0.85230000  0.36864300  0.78170700  1
  O  O91  1  0.63135700  0.14770000  0.71829300  1
  O  O92  1  0.91337400  0.79803000  0.31988600  1
  O  O93  1  0.20197000  0.08662600  0.18011400  1
  O  O94  1  0.08662600  0.20197000  0.68011400  1
  O  O95  1  0.79803000  0.91337400  0.81988600  1
