# generated using pymatgen
data_Bi2(Pb2S3)3
_symmetry_space_group_name_H-M   'P 1'
_cell_length_a   7.22112352
_cell_length_b   7.22112352
_cell_length_c   31.54102900
_cell_angle_alpha   90.00000000
_cell_angle_beta   90.00000000
_cell_angle_gamma   146.25490041
_symmetry_Int_Tables_number   1
_chemical_formula_structural   Bi2(Pb2S3)3
_chemical_formula_sum   'Bi4 Pb12 S18'
_cell_volume   913.62668960
_cell_formula_units_Z   2
loop_
 _symmetry_equiv_pos_site_id
 _symmetry_equiv_pos_as_xyz
  1  'x, y, z'
loop_
 _atom_site_type_symbol
 _atom_site_label
 _atom_site_symmetry_multiplicity
 _atom_site_fract_x
 _atom_site_fract_y
 _atom_site_fract_z
 _atom_site_occupancy
  Bi  Bi0  1  0.68264800  0.31735200  0.82637300  1
  Bi  Bi1  1  0.31735200  0.68264800  0.17362700  1
  Bi  Bi2  1  0.68264800  0.31735200  0.67362700  1
  Bi  Bi3  1  0.31735200  0.68264800  0.32637300  1
  Pb  Pb4  1  0.57876100  0.42123900  0.25000000  1
  Pb  Pb5  1  0.42123900  0.57876100  0.75000000  1
  Pb  Pb6  1  0.50000000  0.50000000  0.50000000  1
  Pb  Pb7  1  0.50000000  0.50000000  0.00000000  1
  Pb  Pb8  1  0.77085200  0.22914800  0.44196300  1
  Pb  Pb9  1  0.22914800  0.77085200  0.55803700  1
  Pb  Pb10  1  0.77085200  0.22914800  0.05803700  1
  Pb  Pb11  1  0.22914800  0.77085200  0.94196300  1
  Pb  Pb12  1  0.95512800  0.04487200  0.88239900  1
  Pb  Pb13  1  0.04487200  0.95512800  0.11760100  1
  Pb  Pb14  1  0.95512800  0.04487200  0.61760100  1
  Pb  Pb15  1  0.04487200  0.95512800  0.38239900  1
  S  S16  1  0.59114400  0.40885600  0.91262300  1
  S  S17  1  0.40885600  0.59114400  0.08737700  1
  S  S18  1  0.59114400  0.40885600  0.58737700  1
  S  S19  1  0.40885600  0.59114400  0.41262300  1
  S  S20  1  0.86211900  0.13788100  0.97327100  1
  S  S21  1  0.13788100  0.86211900  0.02672900  1
  S  S22  1  0.86211900  0.13788100  0.52672900  1
  S  S23  1  0.13788100  0.86211900  0.47327100  1
  S  S24  1  0.22005500  0.77994500  0.25000000  1
  S  S25  1  0.77994500  0.22005500  0.75000000  1
  S  S26  1  0.05657800  0.94342200  0.80500400  1
  S  S27  1  0.94342200  0.05657800  0.19499600  1
  S  S28  1  0.05657800  0.94342200  0.69499600  1
  S  S29  1  0.94342200  0.05657800  0.30500400  1
  S  S30  1  0.31772600  0.68227400  0.85172500  1
  S  S31  1  0.68227400  0.31772600  0.14827500  1
  S  S32  1  0.31772600  0.68227400  0.64827500  1
  S  S33  1  0.68227400  0.31772600  0.35172500  1
