# generated using pymatgen
data_CeV2IO9
_symmetry_space_group_name_H-M   'P 1'
_cell_length_a   7.05093200
_cell_length_b   7.31311100
_cell_length_c   14.56359400
_cell_angle_alpha   90.00000000
_cell_angle_beta   90.00000000
_cell_angle_gamma   90.00000000
_symmetry_Int_Tables_number   1
_chemical_formula_structural   CeV2IO9
_chemical_formula_sum   'Ce4 V8 I4 O36'
_cell_volume   750.96077817
_cell_formula_units_Z   4
loop_
 _symmetry_equiv_pos_site_id
 _symmetry_equiv_pos_as_xyz
  1  'x, y, z'
loop_
 _atom_site_type_symbol
 _atom_site_label
 _atom_site_symmetry_multiplicity
 _atom_site_fract_x
 _atom_site_fract_y
 _atom_site_fract_z
 _atom_site_occupancy
  Ce  Ce0  1  0.84305200  0.25000000  0.94862800  1
  Ce  Ce1  1  0.15694800  0.75000000  0.05137200  1
  Ce  Ce2  1  0.84305200  0.75000000  0.55137200  1
  Ce  Ce3  1  0.15694800  0.25000000  0.44862800  1
  V  V4  1  0.46268600  0.00000000  0.25000000  1
  V  V5  1  0.53731400  0.50000000  0.75000000  1
  V  V6  1  0.53731400  0.00000000  0.75000000  1
  V  V7  1  0.46268600  0.50000000  0.25000000  1
  V  V8  1  0.81839200  0.25000000  0.22919000  1
  V  V9  1  0.18160800  0.75000000  0.77081000  1
  V  V10  1  0.81839200  0.75000000  0.27081000  1
  V  V11  1  0.18160800  0.25000000  0.72919000  1
  I  I12  1  0.29618800  0.25000000  0.05886600  1
  I  I13  1  0.70381200  0.75000000  0.94113400  1
  I  I14  1  0.29618800  0.75000000  0.44113400  1
  I  I15  1  0.70381200  0.25000000  0.55886600  1
  O  O16  1  0.17175000  0.07017300  0.99126400  1
  O  O17  1  0.82825000  0.57017300  0.00873600  1
  O  O18  1  0.17175000  0.92982700  0.50873600  1
  O  O19  1  0.82825000  0.42982700  0.49126400  1
  O  O20  1  0.82825000  0.92982700  0.00873600  1
  O  O21  1  0.17175000  0.42982700  0.99126400  1
  O  O22  1  0.82825000  0.07017300  0.49126400  1
  O  O23  1  0.17175000  0.57017300  0.50873600  1
  O  O24  1  0.52712700  0.25000000  0.00237900  1
  O  O25  1  0.47287300  0.75000000  0.99762100  1
  O  O26  1  0.52712700  0.75000000  0.49762100  1
  O  O27  1  0.47287300  0.25000000  0.50237900  1
  O  O28  1  0.32902900  0.95304900  0.15282300  1
  O  O29  1  0.67097100  0.45304900  0.84717700  1
  O  O30  1  0.32902900  0.04695100  0.34717700  1
  O  O31  1  0.67097100  0.54695100  0.65282300  1
  O  O32  1  0.67097100  0.04695100  0.84717700  1
  O  O33  1  0.32902900  0.54695100  0.15282300  1
  O  O34  1  0.67097100  0.95304900  0.65282300  1
  O  O35  1  0.32902900  0.45304900  0.34717700  1
  O  O36  1  0.53408100  0.75000000  0.27970600  1
  O  O37  1  0.46591900  0.25000000  0.72029400  1
  O  O38  1  0.53408100  0.25000000  0.22029400  1
  O  O39  1  0.46591900  0.75000000  0.77970600  1
  O  O40  1  0.74233500  0.00000000  0.25000000  1
  O  O41  1  0.25766500  0.50000000  0.75000000  1
  O  O42  1  0.25766500  0.00000000  0.75000000  1
  O  O43  1  0.74233500  0.50000000  0.25000000  1
  O  O44  1  0.99049000  0.25000000  0.31097600  1
  O  O45  1  0.00951000  0.75000000  0.68902400  1
  O  O46  1  0.99049000  0.75000000  0.18902400  1
  O  O47  1  0.00951000  0.25000000  0.81097600  1
  O  O48  1  0.91646600  0.25000000  0.12344100  1
  O  O49  1  0.08353400  0.75000000  0.87655900  1
  O  O50  1  0.91646600  0.75000000  0.37655900  1
  O  O51  1  0.08353400  0.25000000  0.62344100  1
