# generated using pymatgen
data_HoHSO5
_symmetry_space_group_name_H-M   'P 1'
_cell_length_a   11.01498700
_cell_length_b   8.01930800
_cell_length_c   11.05506955
_cell_angle_alpha   47.60572529
_cell_angle_beta   90.00000000
_cell_angle_gamma   90.00000000
_symmetry_Int_Tables_number   1
_chemical_formula_structural   HoHSO5
_chemical_formula_sum   'Ho8 H8 S8 O40'
_cell_volume   721.18422867
_cell_formula_units_Z   8
loop_
 _symmetry_equiv_pos_site_id
 _symmetry_equiv_pos_as_xyz
  1  'x, y, z'
loop_
 _atom_site_type_symbol
 _atom_site_label
 _atom_site_symmetry_multiplicity
 _atom_site_fract_x
 _atom_site_fract_y
 _atom_site_fract_z
 _atom_site_occupancy
  Ho  Ho0  1  0.07524600  0.72113100  0.59067300  1
  Ho  Ho1  1  0.42475400  0.72113100  0.09067300  1
  Ho  Ho2  1  0.92475400  0.27886900  0.40932700  1
  Ho  Ho3  1  0.57524600  0.27886900  0.90932700  1
  Ho  Ho4  1  0.06256700  0.21199000  0.12678400  1
  Ho  Ho5  1  0.43743300  0.21199000  0.62678400  1
  Ho  Ho6  1  0.93743300  0.78801000  0.87321600  1
  Ho  Ho7  1  0.56256700  0.78801000  0.37321600  1
  H  H8  1  0.88159500  0.95879800  0.38029100  1
  H  H9  1  0.61840500  0.95879800  0.88029100  1
  H  H10  1  0.11840500  0.04120200  0.61970900  1
  H  H11  1  0.38159500  0.04120200  0.11970900  1
  H  H12  1  0.08747900  0.54445200  0.14352000  1
  H  H13  1  0.41252100  0.54445200  0.64352000  1
  H  H14  1  0.91252100  0.45554800  0.85648000  1
  H  H15  1  0.58747900  0.45554800  0.35648000  1
  S  S16  1  0.19065800  0.58981000  0.36628000  1
  S  S17  1  0.30934200  0.58981000  0.86628000  1
  S  S18  1  0.80934200  0.41019000  0.63372000  1
  S  S19  1  0.69065800  0.41019000  0.13372000  1
  S  S20  1  0.17024400  0.13410700  0.86519700  1
  S  S21  1  0.32975600  0.13410700  0.36519700  1
  S  S22  1  0.82975600  0.86589300  0.13480300  1
  S  S23  1  0.67024400  0.86589300  0.63480300  1
  O  O24  1  0.95715500  0.03127300  0.36983200  1
  O  O25  1  0.54284500  0.03127300  0.86983200  1
  O  O26  1  0.04284500  0.96872700  0.63016800  1
  O  O27  1  0.45715500  0.96872700  0.13016800  1
  O  O28  1  0.01075200  0.48354200  0.14223200  1
  O  O29  1  0.48924800  0.48354200  0.64223200  1
  O  O30  1  0.98924800  0.51645800  0.85776800  1
  O  O31  1  0.51075200  0.51645800  0.35776800  1
  O  O32  1  0.12720800  0.76908400  0.35088800  1
  O  O33  1  0.37279200  0.76908400  0.85088800  1
  O  O34  1  0.87279200  0.23091600  0.64911200  1
  O  O35  1  0.62720800  0.23091600  0.14911200  1
  O  O36  1  0.10367800  0.40633200  0.42787800  1
  O  O37  1  0.39632200  0.40633200  0.92787800  1
  O  O38  1  0.89632200  0.59366800  0.57212200  1
  O  O39  1  0.60367800  0.59366800  0.07212200  1
  O  O40  1  0.29356100  0.50469900  0.48107500  1
  O  O41  1  0.20643900  0.50469900  0.98107500  1
  O  O42  1  0.70643900  0.49530100  0.51892500  1
  O  O43  1  0.79356100  0.49530100  0.01892500  1
  O  O44  1  0.23810100  0.68148000  0.20518800  1
  O  O45  1  0.26189900  0.68148000  0.70518800  1
  O  O46  1  0.76189900  0.31852000  0.79481200  1
  O  O47  1  0.73810100  0.31852000  0.29481200  1
  O  O48  1  0.12630400  0.35616700  0.71668900  1
  O  O49  1  0.37369600  0.35616700  0.21668900  1
  O  O50  1  0.87369600  0.64383300  0.28331100  1
  O  O51  1  0.62630400  0.64383300  0.78331100  1
  O  O52  1  0.17138100  0.12418100  0.00395400  1
  O  O53  1  0.32861900  0.12418100  0.50395400  1
  O  O54  1  0.82861900  0.87581900  0.99604600  1
  O  O55  1  0.67138100  0.87581900  0.49604600  1
  O  O56  1  0.09366400  0.95328000  0.90131300  1
  O  O57  1  0.40633600  0.95328000  0.40131300  1
  O  O58  1  0.90633600  0.04672000  0.09868700  1
  O  O59  1  0.59366400  0.04672000  0.59868700  1
  O  O60  1  0.29962800  0.09563600  0.84327200  1
  O  O61  1  0.20037200  0.09563600  0.34327200  1
  O  O62  1  0.70037200  0.90436400  0.15672800  1
  O  O63  1  0.79962800  0.90436400  0.65672800  1
