# generated using pymatgen
data_BaV2O7
_symmetry_space_group_name_H-M   'P 1'
_cell_length_a   7.39793700
_cell_length_b   9.05606100
_cell_length_c   10.64490300
_cell_angle_alpha   90.00000000
_cell_angle_beta   90.00000000
_cell_angle_gamma   90.00000000
_symmetry_Int_Tables_number   1
_chemical_formula_structural   BaV2O7
_chemical_formula_sum   'Ba4 V8 O28'
_cell_volume   713.16771767
_cell_formula_units_Z   4
loop_
 _symmetry_equiv_pos_site_id
 _symmetry_equiv_pos_as_xyz
  1  'x, y, z'
loop_
 _atom_site_type_symbol
 _atom_site_label
 _atom_site_symmetry_multiplicity
 _atom_site_fract_x
 _atom_site_fract_y
 _atom_site_fract_z
 _atom_site_occupancy
  Ba  Ba0  1  0.74320800  0.88275800  0.49014200  1
  Ba  Ba1  1  0.75679200  0.11724200  0.99014200  1
  Ba  Ba2  1  0.24320800  0.61724200  0.50985800  1
  Ba  Ba3  1  0.25679200  0.38275800  0.00985800  1
  V  V4  1  0.52814400  0.77023400  0.18161800  1
  V  V5  1  0.97185600  0.22976600  0.68161800  1
  V  V6  1  0.02814400  0.72976600  0.81838200  1
  V  V7  1  0.47185600  0.27023400  0.31838200  1
  V  V8  1  0.77096400  0.48852400  0.49407600  1
  V  V9  1  0.72903600  0.51147600  0.99407600  1
  V  V10  1  0.27096400  0.01147600  0.50592400  1
  V  V11  1  0.22903600  0.98852400  0.00592400  1
  O  O12  1  0.70629900  0.88467300  0.17424100  1
  O  O13  1  0.79370100  0.11532700  0.67424100  1
  O  O14  1  0.20629900  0.61532700  0.82575900  1
  O  O15  1  0.29370100  0.38467300  0.32575900  1
  O  O16  1  0.43346600  0.09662400  0.40010900  1
  O  O17  1  0.06653400  0.90337600  0.90010900  1
  O  O18  1  0.93346600  0.40337600  0.59989100  1
  O  O19  1  0.56653400  0.59662400  0.09989100  1
  O  O20  1  0.48273000  0.73604100  0.33423100  1
  O  O21  1  0.01727000  0.26395900  0.83423100  1
  O  O22  1  0.98273000  0.76395900  0.66576900  1
  O  O23  1  0.51727000  0.23604100  0.16576900  1
  O  O24  1  0.89549400  0.61257200  0.41394100  1
  O  O25  1  0.60450600  0.38742800  0.91394100  1
  O  O26  1  0.39549400  0.88742800  0.58605900  1
  O  O27  1  0.10450600  0.11257200  0.08605900  1
  O  O28  1  0.89064000  0.41609000  0.06936800  1
  O  O29  1  0.60936000  0.58391000  0.56936800  1
  O  O30  1  0.39064000  0.08391000  0.93063200  1
  O  O31  1  0.10936000  0.91609000  0.43063200  1
  O  O32  1  0.33013400  0.84982400  0.10691000  1
  O  O33  1  0.16986600  0.15017600  0.60691000  1
  O  O34  1  0.83013400  0.65017600  0.89309000  1
  O  O35  1  0.66986600  0.34982400  0.39309000  1
  O  O36  1  0.65867100  0.87188500  0.81950100  1
  O  O37  1  0.84132900  0.12811500  0.31950100  1
  O  O38  1  0.15867100  0.62811500  0.18049900  1
  O  O39  1  0.34132900  0.37188500  0.68049900  1
