# generated using pymatgen
data_Na2GeO10
_symmetry_space_group_name_H-M   'P 1'
_cell_length_a   5.60045300
_cell_length_b   9.82481130
_cell_length_c   16.77632200
_cell_angle_alpha   90.00000000
_cell_angle_beta   90.00000000
_cell_angle_gamma   116.08420316
_symmetry_Int_Tables_number   1
_chemical_formula_structural   Na2GeO10
_chemical_formula_sum   'Na8 Ge4 O40'
_cell_volume   829.07236450
_cell_formula_units_Z   4
loop_
 _symmetry_equiv_pos_site_id
 _symmetry_equiv_pos_as_xyz
  1  'x, y, z'
loop_
 _atom_site_type_symbol
 _atom_site_label
 _atom_site_symmetry_multiplicity
 _atom_site_fract_x
 _atom_site_fract_y
 _atom_site_fract_z
 _atom_site_occupancy
  Na  Na0  1  0.64712100  0.29514600  0.21772400  1
  Na  Na1  1  0.35287900  0.20485400  0.71772400  1
  Na  Na2  1  0.35287900  0.70485400  0.78227600  1
  Na  Na3  1  0.64712100  0.79514600  0.28227600  1
  Na  Na4  1  0.88197500  0.41062900  0.39511400  1
  Na  Na5  1  0.11802500  0.08937100  0.89511400  1
  Na  Na6  1  0.11802500  0.58937100  0.60488600  1
  Na  Na7  1  0.88197500  0.91062900  0.10488600  1
  Ge  Ge8  1  0.77454500  0.38791500  0.91508000  1
  Ge  Ge9  1  0.22545500  0.11208500  0.41508000  1
  Ge  Ge10  1  0.22545500  0.61208500  0.08492000  1
  Ge  Ge11  1  0.77454500  0.88791500  0.58492000  1
  O  O12  1  0.08146600  0.35763000  0.88823000  1
  O  O13  1  0.91853400  0.14237000  0.38823000  1
  O  O14  1  0.91853400  0.64237000  0.11177000  1
  O  O15  1  0.08146600  0.85763000  0.61177000  1
  O  O16  1  0.51876400  0.26330800  0.86129400  1
  O  O17  1  0.48123600  0.23669200  0.36129400  1
  O  O18  1  0.48123600  0.73669200  0.13870600  1
  O  O19  1  0.51876400  0.76330800  0.63870600  1
  O  O20  1  0.82689900  0.58487600  0.90942800  1
  O  O21  1  0.17310100  0.91512400  0.40942800  1
  O  O22  1  0.17310100  0.41512400  0.09057200  1
  O  O23  1  0.82689900  0.08487600  0.59057200  1
  O  O24  1  0.75200300  0.36336200  0.02734100  1
  O  O25  1  0.24799700  0.13663800  0.52734100  1
  O  O26  1  0.24799700  0.63663800  0.97265900  1
  O  O27  1  0.75200300  0.86336200  0.47265900  1
  O  O28  1  0.68644700  0.00297600  0.78731800  1
  O  O29  1  0.31355300  0.49702400  0.28731800  1
  O  O30  1  0.31355300  0.99702400  0.21268200  1
  O  O31  1  0.68644700  0.50297600  0.71268200  1
  O  O32  1  0.18976400  0.43152900  0.82059400  1
  O  O33  1  0.81023600  0.06847100  0.32059400  1
  O  O34  1  0.81023600  0.56847100  0.17940600  1
  O  O35  1  0.18976400  0.93152900  0.67940600  1
  O  O36  1  0.92689200  0.61690700  0.72597800  1
  O  O37  1  0.07310800  0.88309300  0.22597800  1
  O  O38  1  0.07310800  0.38309300  0.27402200  1
  O  O39  1  0.92689200  0.11690700  0.77402200  1
  O  O40  1  0.60516600  0.99291600  0.00019700  1
  O  O41  1  0.39483400  0.50708400  0.50019700  1
  O  O42  1  0.39483400  0.00708400  0.99980300  1
  O  O43  1  0.60516600  0.49291600  0.49980300  1
  O  O44  1  0.31763000  0.59109900  0.34926700  1
  O  O45  1  0.68237000  0.90890100  0.84926700  1
  O  O46  1  0.68237000  0.40890100  0.65073300  1
  O  O47  1  0.31763000  0.09109900  0.15073300  1
  O  O48  1  0.09478400  0.70375600  0.93728000  1
  O  O49  1  0.90521600  0.79624400  0.43728000  1
  O  O50  1  0.90521600  0.29624400  0.06272000  1
  O  O51  1  0.09478400  0.20375600  0.56272000  1
