# generated using pymatgen
data_KSi
_symmetry_space_group_name_H-M   'P 1'
_cell_length_a   11.43295387
_cell_length_b   11.43295387
_cell_length_c   11.43295387
_cell_angle_alpha   124.71191397
_cell_angle_beta   124.71191397
_cell_angle_gamma   82.01574706
_symmetry_Int_Tables_number   1
_chemical_formula_structural   KSi
_chemical_formula_sum   'K16 Si16'
_cell_volume   971.08321958
_cell_formula_units_Z   16
loop_
 _symmetry_equiv_pos_site_id
 _symmetry_equiv_pos_as_xyz
  1  'x, y, z'
loop_
 _atom_site_type_symbol
 _atom_site_label
 _atom_site_symmetry_multiplicity
 _atom_site_fract_x
 _atom_site_fract_y
 _atom_site_fract_z
 _atom_site_occupancy
  K  K0  1  0.76839800  0.37500000  0.89339800  1
  K  K1  1  0.26839800  0.37500000  0.39339800  1
  K  K2  1  0.62500000  0.51839800  0.39339800  1
  K  K3  1  0.12500000  0.73160200  0.10660200  1
  K  K4  1  0.98160200  0.87500000  0.60660200  1
  K  K5  1  0.48160200  0.87500000  0.10660200  1
  K  K6  1  0.62500000  0.01839800  0.89339800  1
  K  K7  1  0.12500000  0.23160200  0.60660200  1
  K  K8  1  0.87031200  0.87031200  0.24062500  1
  K  K9  1  0.37031200  0.12968800  0.00000000  1
  K  K10  1  0.12031200  0.62031200  0.74062500  1
  K  K11  1  0.62031200  0.87968800  0.50000000  1
  K  K12  1  0.87968800  0.37968800  0.25937500  1
  K  K13  1  0.37968800  0.12031200  0.50000000  1
  K  K14  1  0.62968800  0.62968800  0.75937500  1
  K  K15  1  0.12968800  0.37031200  0.00000000  1
  Si  Si16  1  0.51043500  0.35181700  0.96156600  1
  Si  Si17  1  0.01043500  0.04886900  0.15861800  1
  Si  Si18  1  0.60181700  0.26043500  0.46156600  1
  Si  Si19  1  0.10181700  0.64025100  0.34138200  1
  Si  Si20  1  0.23956500  0.89818300  0.53843400  1
  Si  Si21  1  0.73956500  0.20113100  0.34138200  1
  Si  Si22  1  0.14818300  0.98956500  0.03843400  1
  Si  Si23  1  0.64818300  0.60974900  0.15861800  1
  Si  Si24  1  0.89025100  0.85181700  0.84138200  1
  Si  Si25  1  0.39025100  0.54886900  0.03843400  1
  Si  Si26  1  0.29886900  0.76043500  0.65861800  1
  Si  Si27  1  0.79886900  0.14025100  0.53843400  1
  Si  Si28  1  0.85974900  0.39818300  0.65861800  1
  Si  Si29  1  0.35974900  0.70113100  0.46156600  1
  Si  Si30  1  0.45113100  0.48956500  0.84138200  1
  Si  Si31  1  0.95113100  0.10974900  0.96156600  1
