# generated using pymatgen
data_Re3Se4O3
_symmetry_space_group_name_H-M   'P 1'
_cell_length_a   12.81448400
_cell_length_b   12.81448400
_cell_length_c   12.81448400
_cell_angle_alpha   90.00000000
_cell_angle_beta   90.00000000
_cell_angle_gamma   90.00000000
_symmetry_Int_Tables_number   1
_chemical_formula_structural   Re3Se4O3
_chemical_formula_sum   'Re24 Se32 O24'
_cell_volume   2104.27923451
_cell_formula_units_Z   8
loop_
 _symmetry_equiv_pos_site_id
 _symmetry_equiv_pos_as_xyz
  1  'x, y, z'
loop_
 _atom_site_type_symbol
 _atom_site_label
 _atom_site_symmetry_multiplicity
 _atom_site_fract_x
 _atom_site_fract_y
 _atom_site_fract_z
 _atom_site_occupancy
  Re  Re0  1  0.45322800  0.06100900  0.31076800  1
  Re  Re1  1  0.54677200  0.56100900  0.18923200  1
  Re  Re2  1  0.04677200  0.93899100  0.81076800  1
  Re  Re3  1  0.95322800  0.43899100  0.68923200  1
  Re  Re4  1  0.31076800  0.45322800  0.06100900  1
  Re  Re5  1  0.18923200  0.54677200  0.56100900  1
  Re  Re6  1  0.81076800  0.04677200  0.93899100  1
  Re  Re7  1  0.68923200  0.95322800  0.43899100  1
  Re  Re8  1  0.06100900  0.31076800  0.45322800  1
  Re  Re9  1  0.56100900  0.18923200  0.54677200  1
  Re  Re10  1  0.93899100  0.81076800  0.04677200  1
  Re  Re11  1  0.43899100  0.68923200  0.95322800  1
  Re  Re12  1  0.54677200  0.93899100  0.68923200  1
  Re  Re13  1  0.45322800  0.43899100  0.81076800  1
  Re  Re14  1  0.95322800  0.06100900  0.18923200  1
  Re  Re15  1  0.04677200  0.56100900  0.31076800  1
  Re  Re16  1  0.68923200  0.54677200  0.93899100  1
  Re  Re17  1  0.81076800  0.45322800  0.43899100  1
  Re  Re18  1  0.18923200  0.95322800  0.06100900  1
  Re  Re19  1  0.31076800  0.04677200  0.56100900  1
  Re  Re20  1  0.93899100  0.68923200  0.54677200  1
  Re  Re21  1  0.43899100  0.81076800  0.45322800  1
  Re  Re22  1  0.06100900  0.18923200  0.95322800  1
  Re  Re23  1  0.56100900  0.31076800  0.04677200  1
  Se  Se24  1  0.31192200  0.94746300  0.38961700  1
  Se  Se25  1  0.68807800  0.44746300  0.11038300  1
  Se  Se26  1  0.18807800  0.05253700  0.88961700  1
  Se  Se27  1  0.81192200  0.55253700  0.61038300  1
  Se  Se28  1  0.38961700  0.31192200  0.94746300  1
  Se  Se29  1  0.11038300  0.68807800  0.44746300  1
  Se  Se30  1  0.88961700  0.18807800  0.05253700  1
  Se  Se31  1  0.61038300  0.81192200  0.55253700  1
  Se  Se32  1  0.94746300  0.38961700  0.31192200  1
  Se  Se33  1  0.44746300  0.11038300  0.68807800  1
  Se  Se34  1  0.05253700  0.88961700  0.18807800  1
  Se  Se35  1  0.55253700  0.61038300  0.81192200  1
  Se  Se36  1  0.68807800  0.05253700  0.61038300  1
  Se  Se37  1  0.31192200  0.55253700  0.88961700  1
  Se  Se38  1  0.81192200  0.94746300  0.11038300  1
  Se  Se39  1  0.18807800  0.44746300  0.38961700  1
  Se  Se40  1  0.61038300  0.68807800  0.05253700  1
  Se  Se41  1  0.88961700  0.31192200  0.55253700  1
  Se  Se42  1  0.11038300  0.81192200  0.94746300  1
  Se  Se43  1  0.38961700  0.18807800  0.44746300  1
  Se  Se44  1  0.05253700  0.61038300  0.68807800  1
  Se  Se45  1  0.55253700  0.88961700  0.31192200  1
  Se  Se46  1  0.94746300  0.11038300  0.81192200  1
  Se  Se47  1  0.44746300  0.38961700  0.18807800  1
  Se  Se48  1  0.62936600  0.12936600  0.37063400  1
  Se  Se49  1  0.37063400  0.62936600  0.12936600  1
  Se  Se50  1  0.87063400  0.87063400  0.87063400  1
  Se  Se51  1  0.12936600  0.37063400  0.62936600  1
  Se  Se52  1  0.37063400  0.87063400  0.62936600  1
  Se  Se53  1  0.62936600  0.37063400  0.87063400  1
  Se  Se54  1  0.12936600  0.12936600  0.12936600  1
  Se  Se55  1  0.87063400  0.62936600  0.37063400  1
  O  O56  1  0.41887200  0.10193600  0.18934500  1
  O  O57  1  0.58112800  0.60193600  0.31065500  1
  O  O58  1  0.08112800  0.89806400  0.68934500  1
  O  O59  1  0.91887200  0.39806400  0.81065500  1
  O  O60  1  0.18934500  0.41887200  0.10193600  1
  O  O61  1  0.31065500  0.58112800  0.60193600  1
  O  O62  1  0.68934500  0.08112800  0.89806400  1
  O  O63  1  0.81065500  0.91887200  0.39806400  1
  O  O64  1  0.10193600  0.18934500  0.41887200  1
  O  O65  1  0.60193600  0.31065500  0.58112800  1
  O  O66  1  0.89806400  0.68934500  0.08112800  1
  O  O67  1  0.39806400  0.81065500  0.91887200  1
  O  O68  1  0.58112800  0.89806400  0.81065500  1
  O  O69  1  0.41887200  0.39806400  0.68934500  1
  O  O70  1  0.91887200  0.10193600  0.31065500  1
  O  O71  1  0.08112800  0.60193600  0.18934500  1
  O  O72  1  0.81065500  0.58112800  0.89806400  1
  O  O73  1  0.68934500  0.41887200  0.39806400  1
  O  O74  1  0.31065500  0.91887200  0.10193600  1
  O  O75  1  0.18934500  0.08112800  0.60193600  1
  O  O76  1  0.89806400  0.81065500  0.58112800  1
  O  O77  1  0.39806400  0.68934500  0.41887200  1
  O  O78  1  0.10193600  0.31065500  0.91887200  1
  O  O79  1  0.60193600  0.18934500  0.08112800  1
