# generated using pymatgen
data_CaP2H10(NO4)2
_symmetry_space_group_name_H-M   'P 1'
_cell_length_a   17.19089500
_cell_length_b   10.95284300
_cell_length_c   9.67054900
_cell_angle_alpha   90.00000000
_cell_angle_beta   90.00000000
_cell_angle_gamma   90.00000000
_symmetry_Int_Tables_number   1
_chemical_formula_structural   CaP2H10(NO4)2
_chemical_formula_sum   'Ca8 P16 H80 N16 O64'
_cell_volume   1820.85968299
_cell_formula_units_Z   8
loop_
 _symmetry_equiv_pos_site_id
 _symmetry_equiv_pos_as_xyz
  1  'x, y, z'
loop_
 _atom_site_type_symbol
 _atom_site_label
 _atom_site_symmetry_multiplicity
 _atom_site_fract_x
 _atom_site_fract_y
 _atom_site_fract_z
 _atom_site_occupancy
  Ca  Ca0  1  0.85057500  0.22040400  0.50396800  1
  Ca  Ca1  1  0.64942500  0.27959600  0.00396800  1
  Ca  Ca2  1  0.35057500  0.27959600  0.49603200  1
  Ca  Ca3  1  0.14942500  0.22040400  0.99603200  1
  Ca  Ca4  1  0.14942500  0.77959600  0.49603200  1
  Ca  Ca5  1  0.35057500  0.72040400  0.99603200  1
  Ca  Ca6  1  0.64942500  0.72040400  0.50396800  1
  Ca  Ca7  1  0.85057500  0.77959600  0.00396800  1
  P  P8  1  0.88175300  0.94406600  0.69387400  1
  P  P9  1  0.61824700  0.55593400  0.19387400  1
  P  P10  1  0.38175300  0.55593400  0.30612600  1
  P  P11  1  0.11824700  0.94406600  0.80612600  1
  P  P12  1  0.11824700  0.05593400  0.30612600  1
  P  P13  1  0.38175300  0.44406600  0.80612600  1
  P  P14  1  0.61824700  0.44406600  0.69387400  1
  P  P15  1  0.88175300  0.05593400  0.19387400  1
  P  P16  1  0.00000000  0.13958000  0.75000000  1
  P  P17  1  0.50000000  0.36042000  0.25000000  1
  P  P18  1  0.00000000  0.86042000  0.25000000  1
  P  P19  1  0.50000000  0.63958000  0.75000000  1
  P  P20  1  0.00000000  0.25514400  0.25000000  1
  P  P21  1  0.50000000  0.24485600  0.75000000  1
  P  P22  1  0.00000000  0.74485600  0.75000000  1
  P  P23  1  0.50000000  0.75514400  0.25000000  1
  H  H24  1  0.96610800  0.83663800  0.54532000  1
  H  H25  1  0.53389200  0.66336200  0.04532000  1
  H  H26  1  0.46610800  0.66336200  0.45468000  1
  H  H27  1  0.03389200  0.83663800  0.95468000  1
  H  H28  1  0.03389200  0.16336200  0.45468000  1
  H  H29  1  0.46610800  0.33663800  0.95468000  1
  H  H30  1  0.53389200  0.33663800  0.54532000  1
  H  H31  1  0.96610800  0.16336200  0.04532000  1
  H  H32  1  0.90933300  0.04315900  0.89744100  1
  H  H33  1  0.59066700  0.45684100  0.39744100  1
  H  H34  1  0.40933300  0.45684100  0.10255900  1
  H  H35  1  0.09066700  0.04315900  0.60255900  1
  H  H36  1  0.09066700  0.95684100  0.10255900  1
  H  H37  1  0.40933300  0.54315900  0.60255900  1
  H  H38  1  0.59066700  0.54315900  0.89744100  1
  H  H39  1  0.90933300  0.95684100  0.39744100  1
  H  H40  1  0.73006500  0.42415200  0.44082600  1
  H  H41  1  0.76993500  0.07584800  0.94082600  1
  H  H42  1  0.23006500  0.07584800  0.55917400  1
  H  H43  1  0.26993500  0.42415200  0.05917400  1
  H  H44  1  0.26993500  0.57584800  0.55917400  1
  H  H45  1  0.23006500  0.92415200  0.05917400  1
  H  H46  1  0.76993500  0.92415200  0.44082600  1
  H  H47  1  0.73006500  0.57584800  0.94082600  1
  H  H48  1  0.77263900  0.38639600  0.30183900  1
  H  H49  1  0.72736100  0.11360400  0.80183900  1
  H  H50  1  0.27263900  0.11360400  0.69816100  1
  H  H51  1  0.22736100  0.38639600  0.19816100  1
  H  H52  1  0.22736100  0.61360400  0.69816100  1
  H  H53  1  0.27263900  0.88639600  0.19816100  1
  H  H54  1  0.72736100  0.88639600  0.30183900  1
  H  H55  1  0.77263900  0.61360400  0.80183900  1
  H  H56  1  0.06161600  0.50544800  0.61472300  1
  H  H57  1  0.43838400  0.99455200  0.11472300  1
  H  H58  1  0.56161600  0.99455200  0.38527700  1
  H  H59  1  0.93838400  0.50544800  0.88527700  1
  H  H60  1  0.93838400  0.49455200  0.38527700  1
  H  H61  1  0.56161600  0.00544800  0.88527700  1
  H  H62  1  0.43838400  0.00544800  0.61472300  1
  H  H63  1  0.06161600  0.49455200  0.11472300  1
  H  H64  1  0.03721400  0.36614200  0.59192600  1
  H  H65  1  0.46278600  0.13385800  0.09192600  1
  H  H66  1  0.53721400  0.13385800  0.40807400  1
  H  H67  1  0.96278600  0.36614200  0.90807400  1
  H  H68  1  0.96278600  0.63385800  0.40807400  1
  H  H69  1  0.53721400  0.86614200  0.90807400  1
  H  H70  1  0.46278600  0.86614200  0.59192600  1
  H  H71  1  0.03721400  0.63385800  0.09192600  1
  H  H72  1  0.67756400  0.10075000  0.54622400  1
  H  H73  1  0.82243600  0.39925000  0.04622400  1
  H  H74  1  0.17756400  0.39925000  0.45377600  1
  H  H75  1  0.32243600  0.10075000  0.95377600  1
  H  H76  1  0.32243600  0.89925000  0.45377600  1
  H  H77  1  0.17756400  0.60075000  0.95377600  1
  H  H78  1  0.82243600  0.60075000  0.54622400  1
  H  H79  1  0.67756400  0.89925000  0.04622400  1
  H  H80  1  0.68060900  0.22526400  0.62001800  1
  H  H81  1  0.81939100  0.27473600  0.12001800  1
  H  H82  1  0.18060900  0.27473600  0.37998200  1
  H  H83  1  0.31939100  0.22526400  0.87998200  1
  H  H84  1  0.31939100  0.77473600  0.37998200  1
  H  H85  1  0.18060900  0.72526400  0.87998200  1
  H  H86  1  0.81939100  0.72526400  0.62001800  1
  H  H87  1  0.68060900  0.77473600  0.12001800  1
  H  H88  1  0.86429500  0.37126500  0.76640100  1
  H  H89  1  0.63570500  0.12873500  0.26640100  1
  H  H90  1  0.36429500  0.12873500  0.23359900  1
  H  H91  1  0.13570500  0.37126500  0.73359900  1
  H  H92  1  0.13570500  0.62873500  0.23359900  1
  H  H93  1  0.36429500  0.87126500  0.73359900  1
  H  H94  1  0.63570500  0.87126500  0.76640100  1
  H  H95  1  0.86429500  0.62873500  0.26640100  1
  H  H96  1  0.77488700  0.35963500  0.72958200  1
  H  H97  1  0.72511300  0.14036500  0.22958200  1
  H  H98  1  0.27488700  0.14036500  0.27041800  1
  H  H99  1  0.22511300  0.35963500  0.77041800  1
  H  H100  1  0.22511300  0.64036500  0.27041800  1
  H  H101  1  0.27488700  0.85963500  0.77041800  1
  H  H102  1  0.72511300  0.85963500  0.72958200  1
  H  H103  1  0.77488700  0.64036500  0.22958200  1
  N  N104  1  0.94674800  0.83769100  0.64654100  1
  N  N105  1  0.55325200  0.66230900  0.14654100  1
  N  N106  1  0.44674800  0.66230900  0.35345900  1
  N  N107  1  0.05325200  0.83769100  0.85345900  1
  N  N108  1  0.05325200  0.16230900  0.35345900  1
  N  N109  1  0.44674800  0.33769100  0.85345900  1
  N  N110  1  0.55325200  0.33769100  0.64654100  1
  N  N111  1  0.94674800  0.16230900  0.14654100  1
  N  N112  1  0.92524200  0.04873400  0.79435900  1
  N  N113  1  0.57475800  0.45126600  0.29435900  1
  N  N114  1  0.42524200  0.45126600  0.20564100  1
  N  N115  1  0.07475800  0.04873400  0.70564100  1
  N  N116  1  0.07475800  0.95126600  0.20564100  1
  N  N117  1  0.42524200  0.54873400  0.70564100  1
  N  N118  1  0.57475800  0.54873400  0.79435900  1
  N  N119  1  0.92524200  0.95126600  0.29435900  1
  O  O120  1  0.82160300  0.88357800  0.78623700  1
  O  O121  1  0.67839700  0.61642200  0.28623700  1
  O  O122  1  0.32160300  0.61642200  0.21376300  1
  O  O123  1  0.17839700  0.88357800  0.71376300  1
  O  O124  1  0.17839700  0.11642200  0.21376300  1
  O  O125  1  0.32160300  0.38357800  0.71376300  1
  O  O126  1  0.67839700  0.38357800  0.78623700  1
  O  O127  1  0.82160300  0.11642200  0.28623700  1
  O  O128  1  0.94603800  0.32238200  0.34754900  1
  O  O129  1  0.55396200  0.17761800  0.84754900  1
  O  O130  1  0.44603800  0.17761800  0.65245100  1
  O  O131  1  0.05396200  0.32238200  0.15245100  1
  O  O132  1  0.05396200  0.67761800  0.65245100  1
  O  O133  1  0.44603800  0.82238200  0.15245100  1
  O  O134  1  0.55396200  0.82238200  0.34754900  1
  O  O135  1  0.94603800  0.67761800  0.84754900  1
  O  O136  1  0.97916300  0.20970500  0.61956600  1
  O  O137  1  0.52083700  0.29029500  0.11956600  1
  O  O138  1  0.47916300  0.29029500  0.38043400  1
  O  O139  1  0.02083700  0.20970500  0.88043400  1
  O  O140  1  0.02083700  0.79029500  0.38043400  1
  O  O141  1  0.47916300  0.70970500  0.88043400  1
  O  O142  1  0.52083700  0.70970500  0.61956600  1
  O  O143  1  0.97916300  0.79029500  0.11956600  1
  O  O144  1  0.85537400  0.00367100  0.55970600  1
  O  O145  1  0.64462600  0.49632900  0.05970600  1
  O  O146  1  0.35537400  0.49632900  0.44029400  1
  O  O147  1  0.14462600  0.00367100  0.94029400  1
  O  O148  1  0.14462600  0.99632900  0.44029400  1
  O  O149  1  0.35537400  0.50367100  0.94029400  1
  O  O150  1  0.64462600  0.50367100  0.55970600  1
  O  O151  1  0.85537400  0.99632900  0.05970600  1
  O  O152  1  0.77295000  0.37634200  0.40265300  1
  O  O153  1  0.72705000  0.12365800  0.90265300  1
  O  O154  1  0.27295000  0.12365800  0.59734700  1
  O  O155  1  0.22705000  0.37634200  0.09734700  1
  O  O156  1  0.22705000  0.62365800  0.59734700  1
  O  O157  1  0.27295000  0.87634200  0.09734700  1
  O  O158  1  0.72705000  0.87634200  0.40265300  1
  O  O159  1  0.77295000  0.62365800  0.90265300  1
  O  O160  1  0.08164400  0.42258200  0.59744300  1
  O  O161  1  0.41835600  0.07741800  0.09744300  1
  O  O162  1  0.58164400  0.07741800  0.40255700  1
  O  O163  1  0.91835600  0.42258200  0.90255700  1
  O  O164  1  0.91835600  0.57741800  0.40255700  1
  O  O165  1  0.58164400  0.92258200  0.90255700  1
  O  O166  1  0.41835600  0.92258200  0.59744300  1
  O  O167  1  0.08164400  0.57741800  0.09744300  1
  O  O168  1  0.71335400  0.15505400  0.59640500  1
  O  O169  1  0.78664600  0.34494600  0.09640500  1
  O  O170  1  0.21335400  0.34494600  0.40359500  1
  O  O171  1  0.28664600  0.15505400  0.90359500  1
  O  O172  1  0.28664600  0.84494600  0.40359500  1
  O  O173  1  0.21335400  0.65505400  0.90359500  1
  O  O174  1  0.78664600  0.65505400  0.59640500  1
  O  O175  1  0.71335400  0.84494600  0.09640500  1
  O  O176  1  0.82758600  0.34224400  0.69388000  1
  O  O177  1  0.67241400  0.15775600  0.19388000  1
  O  O178  1  0.32758600  0.15775600  0.30612000  1
  O  O179  1  0.17241400  0.34224400  0.80612000  1
  O  O180  1  0.17241400  0.65775600  0.30612000  1
  O  O181  1  0.32758600  0.84224400  0.80612000  1
  O  O182  1  0.67241400  0.84224400  0.69388000  1
  O  O183  1  0.82758600  0.65775600  0.19388000  1
