# generated using pymatgen
data_CuH38C12(S4O7)2
_symmetry_space_group_name_H-M   'P 1'
_cell_length_a   8.47411100
_cell_length_b   9.74928248
_cell_length_c   9.83991460
_cell_angle_alpha   81.74545264
_cell_angle_beta   88.90325667
_cell_angle_gamma   88.71037673
_symmetry_Int_Tables_number   1
_chemical_formula_structural   CuH38C12(S4O7)2
_chemical_formula_sum   'Cu1 H38 C12 S8 O14'
_cell_volume   804.20949395
_cell_formula_units_Z   1
loop_
 _symmetry_equiv_pos_site_id
 _symmetry_equiv_pos_as_xyz
  1  'x, y, z'
loop_
 _atom_site_type_symbol
 _atom_site_label
 _atom_site_symmetry_multiplicity
 _atom_site_fract_x
 _atom_site_fract_y
 _atom_site_fract_z
 _atom_site_occupancy
  Cu  Cu0  1  0.50000000  0.50000000  0.50000000  1
  H  H1  1  0.07808800  0.77349600  0.54038700  1
  H  H2  1  0.92191200  0.22650400  0.45961300  1
  H  H3  1  0.98463200  0.80108400  0.37500900  1
  H  H4  1  0.01536800  0.19891600  0.62499100  1
  H  H5  1  0.96116700  0.63844100  0.48660500  1
  H  H6  1  0.03883300  0.36155900  0.51339500  1
  H  H7  1  0.21148800  0.53455000  0.18567600  1
  H  H8  1  0.78851200  0.46545000  0.81432400  1
  H  H9  1  0.03680900  0.50303300  0.29130600  1
  H  H10  1  0.96319100  0.49696700  0.70869400  1
  H  H11  1  0.05824600  0.66533500  0.17679500  1
  H  H12  1  0.94175400  0.33466500  0.82320500  1
  H  H13  1  0.55234200  0.28148200  0.20270000  1
  H  H14  1  0.44765800  0.71851800  0.79730000  1
  H  H15  1  0.58501000  0.10934100  0.29080500  1
  H  H16  1  0.41499000  0.89065900  0.70919500  1
  H  H17  1  0.43399600  0.14166700  0.16215300  1
  H  H18  1  0.56600400  0.85833300  0.83784700  1
  H  H19  1  0.19376600  0.04910100  0.49912800  1
  H  H20  1  0.80623400  0.95089900  0.50087200  1
  H  H21  1  0.22994900  0.01761300  0.32532700  1
  H  H22  1  0.77005100  0.98238700  0.67467300  1
  H  H23  1  0.38248100  0.97907600  0.45216200  1
  H  H24  1  0.61751900  0.02092400  0.54783800  1
  H  H25  1  0.47041800  0.14972500  0.74603200  1
  H  H26  1  0.52958200  0.85027500  0.25396800  1
  H  H27  1  0.53283400  0.22050900  0.89583400  1
  H  H28  1  0.46716600  0.77949100  0.10416600  1
  H  H29  1  0.34350700  0.13625300  0.89642500  1
  H  H30  1  0.65649300  0.86374700  0.10357500  1
  H  H31  1  0.22692000  0.52070500  0.90430900  1
  H  H32  1  0.77308000  0.47929500  0.09569100  1
  H  H33  1  0.21188600  0.34224100  0.98457500  1
  H  H34  1  0.78811400  0.65775900  0.01542500  1
  H  H35  1  0.39856200  0.42748100  0.98197000  1
  H  H36  1  0.60143800  0.57251900  0.01803000  1
  H  H37  1  0.14412400  0.96409000  0.02637100  1
  H  H38  1  0.85587600  0.03591000  0.97362900  1
  C  C39  1  0.04078200  0.72434600  0.45307100  1
  C  C40  1  0.95921800  0.27565400  0.54692900  1
  C  C41  1  0.11882800  0.58176500  0.24385600  1
  C  C42  1  0.88117200  0.41823500  0.75614400  1
  C  C43  1  0.49602700  0.18371300  0.24332200  1
  C  C44  1  0.50397300  0.81628700  0.75667800  1
  C  C45  1  0.28290900  0.04824100  0.41695800  1
  C  C46  1  0.71709100  0.95175900  0.58304200  1
  C  C47  1  0.43189800  0.19917600  0.83441900  1
  C  C48  1  0.56810200  0.80082400  0.16558100  1
  C  C49  1  0.28885500  0.41989100  0.92632600  1
  C  C50  1  0.71114500  0.58010900  0.07367400  1
  S  S51  1  0.21374200  0.65990200  0.37418300  1
  S  S52  1  0.78625800  0.34009800  0.62581700  1
  S  S53  1  0.35229400  0.22208000  0.37094900  1
  S  S54  1  0.64770600  0.77792000  0.62905100  1
  S  S55  1  0.33697600  0.35993700  0.76626400  1
  S  S56  1  0.66302400  0.64006300  0.23373600  1
  S  S57  1  0.05692200  0.86287000  0.86193800  1
  S  S58  1  0.94307800  0.13713000  0.13806200  1
  O  O59  1  0.27040100  0.53741500  0.48049200  1
  O  O60  1  0.72959900  0.46258500  0.51950800  1
  O  O61  1  0.44574000  0.25398400  0.49304900  1
  O  O62  1  0.55426000  0.74601600  0.50695100  1
  O  O63  1  0.47245900  0.45430100  0.70534900  1
  O  O64  1  0.52754100  0.54569900  0.29465100  1
  O  O65  1  0.17281700  0.87508800  0.98809800  1
  O  O66  1  0.82718300  0.12491200  0.01190200  1
  O  O67  1  0.89467500  0.89014200  0.91618000  1
  O  O68  1  0.10532500  0.10985800  0.08382000  1
  O  O69  1  0.07967400  0.72060900  0.83617400  1
  O  O70  1  0.92032600  0.27939100  0.16382600  1
  O  O71  1  0.10314600  0.96915400  0.74854000  1
  O  O72  1  0.89685400  0.03084600  0.25146000  1
