# generated using pymatgen
data_Rb11Mn8O16
_symmetry_space_group_name_H-M   'P 1'
_cell_length_a   24.96329551
_cell_length_b   23.62950807
_cell_length_c   11.92446139
_cell_angle_alpha   82.10769419
_cell_angle_beta   69.65300595
_cell_angle_gamma   28.23929985
_symmetry_Int_Tables_number   1
_chemical_formula_structural   Rb11Mn8O16
_chemical_formula_sum   'Rb44 Mn32 O64'
_cell_volume   2885.14081029
_cell_formula_units_Z   4
loop_
 _symmetry_equiv_pos_site_id
 _symmetry_equiv_pos_as_xyz
  1  'x, y, z'
loop_
 _atom_site_type_symbol
 _atom_site_label
 _atom_site_symmetry_multiplicity
 _atom_site_fract_x
 _atom_site_fract_y
 _atom_site_fract_z
 _atom_site_occupancy
  Rb  Rb0  1  0.67700400  0.32299600  0.67700400  1
  Rb  Rb1  1  0.32299600  0.67700400  0.32299600  1
  Rb  Rb2  1  0.59168100  0.90831900  0.59168100  1
  Rb  Rb3  1  0.90831900  0.59168100  0.90831900  1
  Rb  Rb4  1  0.38375200  0.07308100  0.94045900  1
  Rb  Rb5  1  0.07308100  0.38375200  0.60270900  1
  Rb  Rb6  1  0.60270900  0.94045900  0.07308100  1
  Rb  Rb7  1  0.94045900  0.60270900  0.38375200  1
  Rb  Rb8  1  0.08553000  0.77564200  0.73511200  1
  Rb  Rb9  1  0.77564200  0.08553000  0.40371600  1
  Rb  Rb10  1  0.40371600  0.73511200  0.77564200  1
  Rb  Rb11  1  0.73511200  0.40371600  0.08553000  1
  Rb  Rb12  1  0.55726900  0.21577600  0.27102200  1
  Rb  Rb13  1  0.21577600  0.55726900  0.95593300  1
  Rb  Rb14  1  0.95593300  0.27102200  0.21577600  1
  Rb  Rb15  1  0.27102200  0.95593300  0.55726900  1
  Rb  Rb16  1  0.12488900  0.78622400  0.20484400  1
  Rb  Rb17  1  0.78622400  0.12488900  0.88404400  1
  Rb  Rb18  1  0.88404400  0.20484400  0.78622400  1
  Rb  Rb19  1  0.20484400  0.88404400  0.12488900  1
  Rb  Rb20  1  0.46008900  0.13577500  0.37276700  1
  Rb  Rb21  1  0.13577500  0.46008900  0.03136900  1
  Rb  Rb22  1  0.03136900  0.37276700  0.13577500  1
  Rb  Rb23  1  0.37276700  0.03136900  0.46008900  1
  Rb  Rb24  1  0.02442100  0.69447500  0.31215400  1
  Rb  Rb25  1  0.69447500  0.02442100  0.96894900  1
  Rb  Rb26  1  0.96894900  0.31215400  0.69447500  1
  Rb  Rb27  1  0.31215400  0.96894900  0.02442100  1
  Rb  Rb28  1  0.49978500  0.14610000  0.84901800  1
  Rb  Rb29  1  0.14610000  0.49978500  0.50509700  1
  Rb  Rb30  1  0.50509700  0.84901800  0.14610000  1
  Rb  Rb31  1  0.84901800  0.50509700  0.49978500  1
  Rb  Rb32  1  0.65050900  0.31376000  0.19266600  1
  Rb  Rb33  1  0.31376000  0.65050900  0.84306400  1
  Rb  Rb34  1  0.84306400  0.19266600  0.31376000  1
  Rb  Rb35  1  0.19266600  0.84306400  0.65050900  1
  Rb  Rb36  1  0.56615800  0.25375600  0.75102600  1
  Rb  Rb37  1  0.25375600  0.56615800  0.42906000  1
  Rb  Rb38  1  0.42906000  0.75102600  0.25375600  1
  Rb  Rb39  1  0.75102600  0.42906000  0.56615800  1
  Rb  Rb40  1  0.66004400  0.01627400  0.48781500  1
  Rb  Rb41  1  0.01627400  0.66004400  0.83586600  1
  Rb  Rb42  1  0.83586600  0.48781500  0.01627400  1
  Rb  Rb43  1  0.48781500  0.83586600  0.66004400  1
  Mn  Mn44  1  0.00000000  0.00000000  0.00000000  1
  Mn  Mn45  1  0.50000000  0.50000000  0.50000000  1
  Mn  Mn46  1  0.81181800  0.81181800  0.18818200  1
  Mn  Mn47  1  0.18818200  0.18818200  0.81181800  1
  Mn  Mn48  1  0.37523800  0.37523800  0.62476200  1
  Mn  Mn49  1  0.62476200  0.62476200  0.37523800  1
  Mn  Mn50  1  0.93666200  0.93666200  0.06333800  1
  Mn  Mn51  1  0.06333800  0.06333800  0.93666200  1
  Mn  Mn52  1  0.74897400  0.74897400  0.25102600  1
  Mn  Mn53  1  0.25102600  0.25102600  0.74897400  1
  Mn  Mn54  1  0.87507300  0.87507300  0.12492700  1
  Mn  Mn55  1  0.12492700  0.12492700  0.87507300  1
  Mn  Mn56  1  0.43822600  0.43822600  0.56177400  1
  Mn  Mn57  1  0.56177400  0.56177400  0.43822600  1
  Mn  Mn58  1  0.68718700  0.68718700  0.31281300  1
  Mn  Mn59  1  0.31281300  0.31281300  0.68718700  1
  Mn  Mn60  1  0.59482700  0.59482700  0.90517300  1
  Mn  Mn61  1  0.90517300  0.90517300  0.59482700  1
  Mn  Mn62  1  0.40691700  0.40691700  0.09308300  1
  Mn  Mn63  1  0.09308300  0.09308300  0.40691700  1
  Mn  Mn64  1  0.34388500  0.34388500  0.15611500  1
  Mn  Mn65  1  0.15611500  0.15611500  0.34388500  1
  Mn  Mn66  1  0.53167700  0.53167700  0.96832300  1
  Mn  Mn67  1  0.96832300  0.96832300  0.53167700  1
  Mn  Mn68  1  0.28056100  0.28056100  0.21943900  1
  Mn  Mn69  1  0.21943900  0.21943900  0.28056100  1
  Mn  Mn70  1  0.71842700  0.71842700  0.78157300  1
  Mn  Mn71  1  0.78157300  0.78157300  0.71842700  1
  Mn  Mn72  1  0.46887000  0.46887000  0.03113000  1
  Mn  Mn73  1  0.03113000  0.03113000  0.46887000  1
  Mn  Mn74  1  0.65654500  0.65654500  0.84345500  1
  Mn  Mn75  1  0.84345500  0.84345500  0.65654500  1
  O  O76  1  0.17562300  0.32437700  0.17562300  1
  O  O77  1  0.32437700  0.17562300  0.32437700  1
  O  O78  1  0.64535900  0.85464100  0.85464100  1
  O  O79  1  0.85464100  0.64535900  0.64535900  1
  O  O80  1  0.29743100  0.51600900  0.69278700  1
  O  O81  1  0.51600900  0.29743100  0.49377300  1
  O  O82  1  0.49377300  0.69278700  0.51600900  1
  O  O83  1  0.69278700  0.49377300  0.29743100  1
  O  O84  1  0.93984200  0.05464000  0.63384400  1
  O  O85  1  0.05464000  0.93984200  0.37167500  1
  O  O86  1  0.37167500  0.63384400  0.05464000  1
  O  O87  1  0.63384400  0.37167500  0.93984200  1
  O  O88  1  0.71033900  0.97114300  0.22704500  1
  O  O89  1  0.97114300  0.71033900  0.09147300  1
  O  O90  1  0.09147300  0.22704500  0.97114300  1
  O  O91  1  0.22704500  0.09147300  0.71033900  1
  O  O92  1  0.05070200  0.82321800  0.46943400  1
  O  O93  1  0.82321800  0.05070200  0.65664600  1
  O  O94  1  0.65664600  0.46943400  0.82321800  1
  O  O95  1  0.46943400  0.65664600  0.05070200  1
  O  O96  1  0.29695900  0.39578500  0.78489700  1
  O  O97  1  0.39578500  0.29695900  0.52235900  1
  O  O98  1  0.52235900  0.78489700  0.39578500  1
  O  O99  1  0.78489700  0.52235900  0.29695900  1
  O  O100  1  0.84566800  0.77489500  0.55996100  1
  O  O101  1  0.77489500  0.84566800  0.81947600  1
  O  O102  1  0.81947600  0.55996100  0.77489500  1
  O  O103  1  0.55996100  0.81947600  0.84566800  1
  O  O104  1  0.18590300  0.44488300  0.25790000  1
  O  O105  1  0.44488300  0.18590300  0.11131400  1
  O  O106  1  0.11131400  0.25790000  0.44488300  1
  O  O107  1  0.25790000  0.11131400  0.18590300  1
  O  O108  1  0.89133800  0.04907900  0.15580900  1
  O  O109  1  0.04907900  0.89133800  0.90377400  1
  O  O110  1  0.90377400  0.15580900  0.04907900  1
  O  O111  1  0.15580900  0.90377400  0.89133800  1
  O  O112  1  0.86816100  0.69291000  0.10192200  1
  O  O113  1  0.69291000  0.86816100  0.33700600  1
  O  O114  1  0.33700600  0.10192200  0.69291000  1
  O  O115  1  0.10192200  0.33700600  0.86816100  1
  O  O116  1  0.59383300  0.34021000  0.51134400  1
  O  O117  1  0.34021000  0.59383300  0.55461300  1
  O  O118  1  0.55461300  0.51134400  0.34021000  1
  O  O119  1  0.51134400  0.55461300  0.59383300  1
  O  O120  1  0.29381900  0.45700600  0.24531700  1
  O  O121  1  0.45700600  0.29381900  0.00385800  1
  O  O122  1  0.00385800  0.24531700  0.45700600  1
  O  O123  1  0.24531700  0.00385800  0.29381900  1
  O  O124  1  0.99765300  0.75545400  0.61722000  1
  O  O125  1  0.75545400  0.99765300  0.62967300  1
  O  O126  1  0.62967300  0.61722000  0.75545400  1
  O  O127  1  0.61722000  0.62967300  0.99765300  1
  O  O128  1  0.95987900  0.85382700  0.18325800  1
  O  O129  1  0.85382700  0.95987900  0.00303600  1
  O  O130  1  0.00303600  0.18325800  0.85382700  1
  O  O131  1  0.18325800  0.00303600  0.95987900  1
  O  O132  1  0.46640200  0.40504500  0.16550400  1
  O  O133  1  0.40504500  0.46640200  0.96304800  1
  O  O134  1  0.96304800  0.16550400  0.40504500  1
  O  O135  1  0.16550400  0.96304800  0.46640200  1
  O  O136  1  0.70824300  0.73218900  0.16722000  1
  O  O137  1  0.73218900  0.70824300  0.39234700  1
  O  O138  1  0.39234700  0.16722000  0.73218900  1
  O  O139  1  0.16722000  0.39234700  0.70824300  1
