data_image0
_chemical_formula_structural       H56La8Mg16Ni8
_chemical_formula_sum              "H56 La8 Mg16 Ni8"
_cell_length_a       13.8147
_cell_length_b       4.6261
_cell_length_c       15.8539
_cell_angle_alpha    90
_cell_angle_beta     125.197
_cell_angle_gamma    90

_space_group_name_H-M_alt    "P 1"
_space_group_IT_number       1

loop_
  _space_group_symop_operation_xyz
  'x, y, z'

loop_
  _atom_site_type_symbol
  _atom_site_label
  _atom_site_symmetry_multiplicity
  _atom_site_fract_x
  _atom_site_fract_y
  _atom_site_fract_z
  _atom_site_occupancy
  H   H1        1.0  0.60700  0.76800  0.01110  1.0000
  H   H2        1.0  0.87600  0.21700  0.01990  1.0000
  H   H3        1.0  0.29800  0.75900  0.03880  1.0000
  H   H4        1.0  0.10500  0.22900  0.09560  1.0000
  H   H5        1.0  0.76200  0.49300  0.11200  1.0000
  H   H6        1.0  0.78700  0.97200  0.12500  1.0000
  H   H7        1.0  0.98800  0.61300  0.13200  1.0000
  H   H8        1.0  0.62400  0.28200  0.14300  1.0000
  H   H9        1.0  0.51700  0.89700  0.15000  1.0000
  H   H10       1.0  0.26400  0.51800  0.15200  1.0000
  H   H11       1.0  0.28200  0.03620  0.15900  1.0000
  H   H12       1.0  0.44300  0.36300  0.16500  1.0000
  H   H13       1.0  0.05420  0.14800  0.22400  1.0000
  H   H14       1.0  0.20300  0.76900  0.24200  1.0000
  H   H15       1.0  0.79700  0.26900  0.25800  1.0000
  H   H16       1.0  0.94600  0.64800  0.27600  1.0000
  H   H17       1.0  0.55700  0.86300  0.33500  1.0000
  H   H18       1.0  0.71800  0.53600  0.34100  1.0000
  H   H19       1.0  0.73600  0.01780  0.34800  1.0000
  H   H20       1.0  0.48300  0.39700  0.35000  1.0000
  H   H21       1.0  0.37600  0.78200  0.35700  1.0000
  H   H22       1.0  0.01200  0.11300  0.36800  1.0000
  H   H23       1.0  0.21300  0.47200  0.37500  1.0000
  H   H24       1.0  0.23800  0.99300  0.38800  1.0000
  H   H25       1.0  0.89500  0.72900  0.40400  1.0000
  H   H26       1.0  0.70200  0.25900  0.46100  1.0000
  H   H27       1.0  0.12400  0.71700  0.48000  1.0000
  H   H28       1.0  0.39300  0.26800  0.48900  1.0000
  H   H29       1.0  0.60700  0.73200  0.51100  1.0000
  H   H30       1.0  0.87600  0.28300  0.52000  1.0000
  H   H31       1.0  0.29800  0.74100  0.53900  1.0000
  H   H32       1.0  0.10500  0.27100  0.59600  1.0000
  H   H33       1.0  0.76200  0.00705  0.61200  1.0000
  H   H34       1.0  0.78700  0.52800  0.62500  1.0000
  H   H35       1.0  0.98800  0.88700  0.63200  1.0000
  H   H36       1.0  0.62400  0.21800  0.64300  1.0000
  H   H37       1.0  0.51700  0.60300  0.65000  1.0000
  H   H38       1.0  0.26400  0.98200  0.65200  1.0000
  H   H39       1.0  0.28200  0.46400  0.65900  1.0000
  H   H40       1.0  0.44300  0.13700  0.66500  1.0000
  H   H41       1.0  0.05420  0.35200  0.72400  1.0000
  H   H42       1.0  0.20300  0.73100  0.74200  1.0000
  H   H43       1.0  0.79700  0.23100  0.75800  1.0000
  H   H44       1.0  0.94600  0.85200  0.77600  1.0000
  H   H45       1.0  0.55700  0.63700  0.83500  1.0000
  H   H46       1.0  0.71800  0.96400  0.84100  1.0000
  H   H47       1.0  0.73600  0.48200  0.84800  1.0000
  H   H48       1.0  0.48300  0.10300  0.85000  1.0000
  H   H49       1.0  0.37600  0.71800  0.85700  1.0000
  H   H50       1.0  0.01200  0.38700  0.86800  1.0000
  H   H51       1.0  0.21300  0.02800  0.87500  1.0000
  H   H52       1.0  0.23800  0.50700  0.88800  1.0000
  H   H53       1.0  0.89500  0.77100  0.90400  1.0000
  H   H54       1.0  0.70200  0.24100  0.96100  1.0000
  H   H55       1.0  0.12400  0.78300  0.98000  1.0000
  H   H56       1.0  0.39300  0.23200  0.98900  1.0000
  La  La1       1.0  0.21700  0.26600  0.00630  1.0000
  La  La2       1.0  0.71800  0.76000  0.21100  1.0000
  La  La3       1.0  0.28200  0.26000  0.28900  1.0000
  La  La4       1.0  0.78300  0.76600  0.49400  1.0000
  La  La5       1.0  0.21700  0.23400  0.50600  1.0000
  La  La6       1.0  0.71800  0.74000  0.71100  1.0000
  La  La7       1.0  0.28200  0.24000  0.78900  1.0000
  La  La8       1.0  0.78300  0.73400  0.99400  1.0000
  Mg  Mg1       1.0  0.59400  0.26800  0.00203  1.0000
  Mg  Mg2       1.0  0.09820  0.76200  0.09240  1.0000
  Mg  Mg3       1.0  0.40100  0.76300  0.19000  1.0000
  Mg  Mg4       1.0  0.90100  0.25100  0.21200  1.0000
  Mg  Mg5       1.0  0.09860  0.75100  0.28800  1.0000
  Mg  Mg6       1.0  0.59900  0.26300  0.31000  1.0000
  Mg  Mg7       1.0  0.90200  0.26200  0.40800  1.0000
  Mg  Mg8       1.0  0.40600  0.76800  0.49800  1.0000
  Mg  Mg9       1.0  0.59400  0.23200  0.50200  1.0000
  Mg  Mg10      1.0  0.09820  0.73800  0.59200  1.0000
  Mg  Mg11      1.0  0.40100  0.73700  0.69000  1.0000
  Mg  Mg12      1.0  0.90100  0.24900  0.71200  1.0000
  Mg  Mg13      1.0  0.09860  0.74900  0.78800  1.0000
  Mg  Mg14      1.0  0.59900  0.23700  0.81000  1.0000
  Mg  Mg15      1.0  0.90200  0.23800  0.90800  1.0000
  Mg  Mg16      1.0  0.40600  0.73200  0.99800  1.0000
  Ni  Ni1       1.0  0.49500  0.22300  0.10900  1.0000
  Ni  Ni2       1.0  0.00581  0.28300  0.11500  1.0000
  Ni  Ni3       1.0  0.99400  0.78300  0.38500  1.0000
  Ni  Ni4       1.0  0.50500  0.72300  0.39100  1.0000
  Ni  Ni5       1.0  0.49500  0.27700  0.60900  1.0000
  Ni  Ni6       1.0  0.00581  0.21700  0.61500  1.0000
  Ni  Ni7       1.0  0.99400  0.71700  0.88500  1.0000
  Ni  Ni8       1.0  0.50500  0.77700  0.89100  1.0000
