# generated using pymatgen
data_ZnH13RuN5(Cl2O)2
_symmetry_space_group_name_H-M   'P 1'
_cell_length_a   8.13149400
_cell_length_b   9.19547986
_cell_length_c   9.64091200
_cell_angle_alpha   90.00000000
_cell_angle_beta   90.00000000
_cell_angle_gamma   116.24090114
_symmetry_Int_Tables_number   1
_chemical_formula_structural   ZnH13RuN5(Cl2O)2
_chemical_formula_sum   'Zn2 H26 Ru2 N10 Cl8 O4'
_cell_volume   646.58807644
_cell_formula_units_Z   2
loop_
 _symmetry_equiv_pos_site_id
 _symmetry_equiv_pos_as_xyz
  1  'x, y, z'
loop_
 _atom_site_type_symbol
 _atom_site_label
 _atom_site_symmetry_multiplicity
 _atom_site_fract_x
 _atom_site_fract_y
 _atom_site_fract_z
 _atom_site_occupancy
  Zn  Zn0  1  0.88902400  0.77804700  0.92029000  1
  Zn  Zn1  1  0.11097600  0.22195300  0.42029000  1
  H  H2  1  0.46615800  0.93231600  0.90634900  1
  H  H3  1  0.53384200  0.06768400  0.40634900  1
  H  H4  1  0.86557700  0.16580700  0.67301500  1
  H  H5  1  0.30023000  0.16580700  0.67301500  1
  H  H6  1  0.13442300  0.83419300  0.17301500  1
  H  H7  1  0.69977000  0.83419300  0.17301500  1
  H  H8  1  0.73988900  0.00228000  0.76437700  1
  H  H9  1  0.26239100  0.00228000  0.76437700  1
  H  H10  1  0.26011100  0.99772000  0.26437700  1
  H  H11  1  0.73760900  0.99772000  0.26437700  1
  H  H12  1  0.66049000  0.03323300  0.61449500  1
  H  H13  1  0.37274300  0.03323300  0.61449500  1
  H  H14  1  0.33951000  0.96676700  0.11449500  1
  H  H15  1  0.62725700  0.96676700  0.11449500  1
  H  H16  1  0.94990100  0.42923100  0.89775200  1
  H  H17  1  0.47933000  0.42923100  0.89775200  1
  H  H18  1  0.05009900  0.57076900  0.39775200  1
  H  H19  1  0.52067000  0.57076900  0.39775200  1
  H  H20  1  0.82723100  0.35127500  0.03787400  1
  H  H21  1  0.52404500  0.35127500  0.03787400  1
  H  H22  1  0.17276900  0.64872500  0.53787400  1
  H  H23  1  0.47595500  0.64872500  0.53787400  1
  H  H24  1  0.90770500  0.24263700  0.94966600  1
  H  H25  1  0.33493200  0.24263700  0.94966600  1
  H  H26  1  0.09229500  0.75736300  0.44966600  1
  H  H27  1  0.66506800  0.75736300  0.44966600  1
  Ru  Ru28  1  0.60953600  0.21907100  0.81204500  1
  Ru  Ru29  1  0.39046400  0.78092900  0.31204500  1
  N  N30  1  0.68688600  0.37377100  0.68632300  1
  N  N31  1  0.31311400  0.62622900  0.18632300  1
  N  N32  1  0.73267000  0.09048400  0.70248600  1
  N  N33  1  0.35781400  0.09048400  0.70248600  1
  N  N34  1  0.26733000  0.90951600  0.20248600  1
  N  N35  1  0.64218600  0.90951600  0.20248600  1
  N  N36  1  0.85146100  0.32310800  0.93931500  1
  N  N37  1  0.47164700  0.32310800  0.93931500  1
  N  N38  1  0.14853900  0.67689200  0.43931500  1
  N  N39  1  0.52835300  0.67689200  0.43931500  1
  Cl  Cl40  1  0.61249600  0.70789200  0.81717500  1
  Cl  Cl41  1  0.09539600  0.70789200  0.81717500  1
  Cl  Cl42  1  0.38750400  0.29210800  0.31717500  1
  Cl  Cl43  1  0.90460400  0.29210800  0.31717500  1
  Cl  Cl44  1  0.02687800  0.05375500  0.96079500  1
  Cl  Cl45  1  0.97312200  0.94624500  0.46079500  1
  Cl  Cl46  1  0.82539100  0.65078200  0.13427300  1
  Cl  Cl47  1  0.17460900  0.34921800  0.63427300  1
  O  O48  1  0.73253400  0.46506900  0.59368400  1
  O  O49  1  0.26746600  0.53493100  0.09368400  1
  O  O50  1  0.51963900  0.03927900  0.95045200  1
  O  O51  1  0.48036100  0.96072100  0.45045200  1
