# generated using pymatgen
data_K9FeS7
_symmetry_space_group_name_H-M   'P 1'
_cell_length_a   7.95746500
_cell_length_b   10.80128500
_cell_length_c   23.96450067
_cell_angle_alpha   77.06204438
_cell_angle_beta   90.00000000
_cell_angle_gamma   90.00000000
_symmetry_Int_Tables_number   1
_chemical_formula_structural   K9FeS7
_chemical_formula_sum   'K36 Fe4 S28'
_cell_volume   2007.47796083
_cell_formula_units_Z   4
loop_
 _symmetry_equiv_pos_site_id
 _symmetry_equiv_pos_as_xyz
  1  'x, y, z'
loop_
 _atom_site_type_symbol
 _atom_site_label
 _atom_site_symmetry_multiplicity
 _atom_site_fract_x
 _atom_site_fract_y
 _atom_site_fract_z
 _atom_site_occupancy
  K  K0  1  0.09502500  0.98998100  0.27352400  1
  K  K1  1  0.59502500  0.01001900  0.22647600  1
  K  K2  1  0.90497500  0.01001900  0.72647600  1
  K  K3  1  0.40497500  0.98998100  0.77352400  1
  K  K4  1  0.03470500  0.83579700  0.06335300  1
  K  K5  1  0.53470500  0.16420300  0.43664700  1
  K  K6  1  0.96529500  0.16420300  0.93664700  1
  K  K7  1  0.46529500  0.83579700  0.56335300  1
  K  K8  1  0.25887100  0.54510800  0.16505300  1
  K  K9  1  0.75887100  0.45489200  0.33494700  1
  K  K10  1  0.74112900  0.45489200  0.83494700  1
  K  K11  1  0.24112900  0.54510800  0.66505300  1
  K  K12  1  0.54960100  0.77296100  0.08697000  1
  K  K13  1  0.04960100  0.22703900  0.41303000  1
  K  K14  1  0.45039900  0.22703900  0.91303000  1
  K  K15  1  0.95039900  0.77296100  0.58697000  1
  K  K16  1  0.05617500  0.57713900  0.42042000  1
  K  K17  1  0.55617500  0.42286100  0.07958000  1
  K  K18  1  0.94382500  0.42286100  0.57958000  1
  K  K19  1  0.44382500  0.57713900  0.92042000  1
  K  K20  1  0.14030900  0.88528300  0.44737600  1
  K  K21  1  0.64030900  0.11471700  0.05262400  1
  K  K22  1  0.85969100  0.11471700  0.55262400  1
  K  K23  1  0.35969100  0.88528300  0.94737600  1
  K  K24  1  0.43974200  0.26223100  0.28115300  1
  K  K25  1  0.93974200  0.73776900  0.21884700  1
  K  K26  1  0.56025800  0.73776900  0.71884700  1
  K  K27  1  0.06025800  0.26223100  0.78115300  1
  K  K28  1  0.43588600  0.70700100  0.29389700  1
  K  K29  1  0.93588600  0.29299900  0.20610300  1
  K  K30  1  0.56411400  0.29299900  0.70610300  1
  K  K31  1  0.06411400  0.70700100  0.79389700  1
  K  K32  1  0.07892100  0.35280600  0.04606700  1
  K  K33  1  0.57892100  0.64719400  0.45393300  1
  K  K34  1  0.92107900  0.64719400  0.95393300  1
  K  K35  1  0.42107900  0.35280600  0.54606700  1
  Fe  Fe36  1  0.70066300  0.94596900  0.37206400  1
  Fe  Fe37  1  0.20066300  0.05403100  0.12793600  1
  Fe  Fe38  1  0.29933700  0.05403100  0.62793600  1
  Fe  Fe39  1  0.79933700  0.94596900  0.87206400  1
  S  S40  1  0.30903000  0.21830700  0.16418400  1
  S  S41  1  0.80903000  0.78169300  0.33581600  1
  S  S42  1  0.69097000  0.78169300  0.83581600  1
  S  S43  1  0.19097000  0.21830700  0.66418400  1
  S  S44  1  0.30275400  0.85870700  0.17582000  1
  S  S45  1  0.80275400  0.14129300  0.32418000  1
  S  S46  1  0.69724600  0.14129300  0.82418000  1
  S  S47  1  0.19724600  0.85870700  0.67582000  1
  S  S48  1  0.41438400  0.95594100  0.35435400  1
  S  S49  1  0.91438400  0.04405900  0.14564600  1
  S  S50  1  0.58561600  0.04405900  0.64564600  1
  S  S51  1  0.08561600  0.95594100  0.85435400  1
  S  S52  1  0.75752100  0.91464100  0.46881300  1
  S  S53  1  0.25752100  0.08535900  0.03118700  1
  S  S54  1  0.24247900  0.08535900  0.53118700  1
  S  S55  1  0.74247900  0.91464100  0.96881300  1
  S  S56  1  0.16200900  0.46969300  0.30275400  1
  S  S57  1  0.66200900  0.53030700  0.19724600  1
  S  S58  1  0.83799100  0.53030700  0.69724600  1
  S  S59  1  0.33799100  0.46969300  0.80275400  1
  S  S60  1  0.35332000  0.43468700  0.36788100  1
  S  S61  1  0.85332000  0.56531300  0.13211900  1
  S  S62  1  0.64668000  0.56531300  0.63211900  1
  S  S63  1  0.14668000  0.43468700  0.86788100  1
  S  S64  1  0.26823200  0.62397000  0.03027500  1
  S  S65  1  0.76823200  0.37603000  0.46972500  1
  S  S66  1  0.73176800  0.37603000  0.96972500  1
  S  S67  1  0.23176800  0.62397000  0.53027500  1
