# generated using pymatgen
data_BaYb6Si7O24
_symmetry_space_group_name_H-M   'P 1'
_cell_length_a   27.90655400
_cell_length_b   5.66568000
_cell_length_c   7.04704403
_cell_angle_alpha   73.41277236
_cell_angle_beta   90.00000000
_cell_angle_gamma   90.00000000
_symmetry_Int_Tables_number   1
_chemical_formula_structural   BaYb6Si7O24
_chemical_formula_sum   'Ba2 Yb12 Si14 O48'
_cell_volume   1067.83906825
_cell_formula_units_Z   2
loop_
 _symmetry_equiv_pos_site_id
 _symmetry_equiv_pos_as_xyz
  1  'x, y, z'
loop_
 _atom_site_type_symbol
 _atom_site_label
 _atom_site_symmetry_multiplicity
 _atom_site_fract_x
 _atom_site_fract_y
 _atom_site_fract_z
 _atom_site_occupancy
  Ba  Ba0  1  0.75000000  0.71294900  0.91155900  1
  Ba  Ba1  1  0.25000000  0.28705100  0.08844100  1
  Yb  Yb2  1  0.68740600  0.11197300  0.24060100  1
  Yb  Yb3  1  0.18740600  0.88802700  0.75939900  1
  Yb  Yb4  1  0.31259400  0.88802700  0.75939900  1
  Yb  Yb5  1  0.81259400  0.11197300  0.24060100  1
  Yb  Yb6  1  0.60072200  0.78290100  0.59172000  1
  Yb  Yb7  1  0.10072200  0.21709900  0.40828000  1
  Yb  Yb8  1  0.39927800  0.21709900  0.40828000  1
  Yb  Yb9  1  0.89927800  0.78290100  0.59172000  1
  Yb  Yb10  1  0.54237900  0.18160200  0.81823100  1
  Yb  Yb11  1  0.04237900  0.81839800  0.18176900  1
  Yb  Yb12  1  0.45762100  0.81839800  0.18176900  1
  Yb  Yb13  1  0.95762100  0.18160200  0.81823100  1
  Si  Si14  1  0.47361500  0.72207300  0.70185600  1
  Si  Si15  1  0.97361500  0.27792700  0.29814400  1
  Si  Si16  1  0.52638500  0.27792700  0.29814400  1
  Si  Si17  1  0.02638500  0.72207300  0.70185600  1
  Si  Si18  1  0.61098300  0.68048500  0.11350300  1
  Si  Si19  1  0.11098300  0.31951500  0.88649700  1
  Si  Si20  1  0.38901700  0.31951500  0.88649700  1
  Si  Si21  1  0.88901700  0.68048500  0.11350300  1
  Si  Si22  1  0.66974000  0.25162100  0.69685400  1
  Si  Si23  1  0.16974000  0.74837900  0.30314600  1
  Si  Si24  1  0.33026000  0.74837900  0.30314600  1
  Si  Si25  1  0.83026000  0.25162100  0.69685400  1
  Si  Si26  1  0.75000000  0.54643400  0.42360500  1
  Si  Si27  1  0.25000000  0.45356600  0.57639500  1
  O  O28  1  0.45051200  0.87961700  0.49144500  1
  O  O29  1  0.95051200  0.12038300  0.50855500  1
  O  O30  1  0.54948800  0.12038300  0.50855500  1
  O  O31  1  0.04948800  0.87961700  0.49144500  1
  O  O32  1  0.52465000  0.59392100  0.67488400  1
  O  O33  1  0.02465000  0.40607900  0.32511600  1
  O  O34  1  0.47535000  0.40607900  0.32511600  1
  O  O35  1  0.97535000  0.59392100  0.67488400  1
  O  O36  1  0.43498500  0.49799400  0.79557600  1
  O  O37  1  0.93498500  0.50200600  0.20442400  1
  O  O38  1  0.56501500  0.50200600  0.20442400  1
  O  O39  1  0.06501500  0.49799400  0.79557600  1
  O  O40  1  0.48098500  0.88550300  0.85572000  1
  O  O41  1  0.98098500  0.11449700  0.14428000  1
  O  O42  1  0.51901500  0.11449700  0.14428000  1
  O  O43  1  0.01901500  0.88550300  0.85572000  1
  O  O44  1  0.65899200  0.52033800  0.09553200  1
  O  O45  1  0.15899200  0.47966200  0.90446800  1
  O  O46  1  0.34100800  0.47966200  0.90446800  1
  O  O47  1  0.84100800  0.52033800  0.09553200  1
  O  O48  1  0.59396800  0.84853100  0.89760800  1
  O  O49  1  0.09396800  0.15146900  0.10239200  1
  O  O50  1  0.40603200  0.15146900  0.10239200  1
  O  O51  1  0.90603200  0.84853100  0.89760800  1
  O  O52  1  0.62491200  0.83595100  0.26703800  1
  O  O53  1  0.12491200  0.16404900  0.73296200  1
  O  O54  1  0.37508800  0.16404900  0.73296200  1
  O  O55  1  0.87508800  0.83595100  0.26703800  1
  O  O56  1  0.69716800  0.12873300  0.90819600  1
  O  O57  1  0.19716800  0.87126700  0.09180400  1
  O  O58  1  0.30283200  0.87126700  0.09180400  1
  O  O59  1  0.80283200  0.12873300  0.90819600  1
  O  O60  1  0.61801500  0.36785600  0.73179400  1
  O  O61  1  0.11801500  0.63214400  0.26820600  1
  O  O62  1  0.38198500  0.63214400  0.26820600  1
  O  O63  1  0.88198500  0.36785600  0.73179400  1
  O  O64  1  0.66560300  0.05924200  0.56546100  1
  O  O65  1  0.16560300  0.94075800  0.43453900  1
  O  O66  1  0.33439700  0.94075800  0.43453900  1
  O  O67  1  0.83439700  0.05924200  0.56546100  1
  O  O68  1  0.70343600  0.49703800  0.57915600  1
  O  O69  1  0.20343600  0.50296200  0.42084400  1
  O  O70  1  0.29656400  0.50296200  0.42084400  1
  O  O71  1  0.79656400  0.49703800  0.57915600  1
  O  O72  1  0.75000000  0.36025800  0.28527100  1
  O  O73  1  0.25000000  0.63974200  0.71472900  1
  O  O74  1  0.75000000  0.83067300  0.29025400  1
  O  O75  1  0.25000000  0.16932700  0.70974600  1
