# generated using pymatgen
data_CaFe5P5O22
_symmetry_space_group_name_H-M   'P 1'
_cell_length_a   6.44283700
_cell_length_b   7.92967652
_cell_length_c   15.82998524
_cell_angle_alpha   95.30288989
_cell_angle_beta   90.31639188
_cell_angle_gamma   100.94362509
_symmetry_Int_Tables_number   1
_chemical_formula_structural   CaFe5P5O22
_chemical_formula_sum   'Ca2 Fe10 P10 O44'
_cell_volume   790.42170907
_cell_formula_units_Z   2
loop_
 _symmetry_equiv_pos_site_id
 _symmetry_equiv_pos_as_xyz
  1  'x, y, z'
loop_
 _atom_site_type_symbol
 _atom_site_label
 _atom_site_symmetry_multiplicity
 _atom_site_fract_x
 _atom_site_fract_y
 _atom_site_fract_z
 _atom_site_occupancy
  Ca  Ca0  1  0.02286100  0.59739400  0.14054700  1
  Ca  Ca1  1  0.97713900  0.40260600  0.85945300  1
  Fe  Fe2  1  0.40307100  0.39851200  0.63136000  1
  Fe  Fe3  1  0.59692900  0.60148800  0.36864000  1
  Fe  Fe4  1  0.03800500  0.20712800  0.48846100  1
  Fe  Fe5  1  0.96199500  0.79287200  0.51153900  1
  Fe  Fe6  1  0.39388300  0.89709800  0.28120000  1
  Fe  Fe7  1  0.60611700  0.10290200  0.71880000  1
  Fe  Fe8  1  0.28679600  0.73058000  0.75762700  1
  Fe  Fe9  1  0.71320400  0.26942000  0.24237300  1
  Fe  Fe10  1  0.28724600  0.23071100  0.00565900  1
  Fe  Fe11  1  0.71275400  0.76928900  0.99434100  1
  P  P12  1  0.08670900  0.05370200  0.67926100  1
  P  P13  1  0.91329100  0.94629800  0.32073900  1
  P  P14  1  0.08413000  0.52363900  0.35955000  1
  P  P15  1  0.91587000  0.47636100  0.64045000  1
  P  P16  1  0.53433800  0.21289300  0.43978400  1
  P  P17  1  0.46566200  0.78710700  0.56021600  1
  P  P18  1  0.79077300  0.19031700  0.04396100  1
  P  P19  1  0.20922700  0.80968300  0.95603900  1
  P  P20  1  0.48741100  0.56193000  0.15248600  1
  P  P21  1  0.51258900  0.43807000  0.84751400  1
  O  O22  1  0.01526800  0.02371500  0.58245100  1
  O  O23  1  0.98473200  0.97628500  0.41754900  1
  O  O24  1  0.92309300  0.62420500  0.40739600  1
  O  O25  1  0.07690700  0.37579500  0.59260400  1
  O  O26  1  0.11683600  0.37291600  0.40713400  1
  O  O27  1  0.88316400  0.62708400  0.59286600  1
  O  O28  1  0.62145200  0.73344400  0.49032400  1
  O  O29  1  0.37854800  0.26655600  0.50967600  1
  O  O30  1  0.30743600  0.18249300  0.68652800  1
  O  O31  1  0.69256400  0.81750700  0.31347200  1
  O  O32  1  0.30533900  0.64391400  0.35335000  1
  O  O33  1  0.69466100  0.35608600  0.64665000  1
  O  O34  1  0.42433400  0.64742800  0.62618400  1
  O  O35  1  0.57566600  0.35257200  0.37381600  1
  O  O36  1  0.92485000  0.13919700  0.73038200  1
  O  O37  1  0.07515000  0.86080300  0.26961800  1
  O  O38  1  0.56588200  0.95911300  0.60792100  1
  O  O39  1  0.43411800  0.04088700  0.39207900  1
  O  O40  1  0.37221100  0.70861600  0.18574000  1
  O  O41  1  0.62778900  0.29138400  0.81426000  1
  O  O42  1  0.51479000  0.91745700  0.78392100  1
  O  O43  1  0.48521000  0.08254300  0.21607900  1
  O  O44  1  0.98160600  0.46796100  0.27130200  1
  O  O45  1  0.01839400  0.53203900  0.72869800  1
  O  O46  1  0.16078600  0.70060600  0.86874700  1
  O  O47  1  0.83921400  0.29939400  0.13125300  1
  O  O48  1  0.56332200  0.47958200  0.23054000  1
  O  O49  1  0.43667800  0.52041800  0.76946000  1
  O  O50  1  0.11678800  0.88450900  0.70959100  1
  O  O51  1  0.88321200  0.11549100  0.29040900  1
  O  O52  1  0.74298200  0.21071500  0.48437800  1
  O  O53  1  0.25701800  0.78928500  0.51562200  1
  O  O54  1  0.58452000  0.22218700  0.00614500  1
  O  O55  1  0.41548000  0.77781300  0.99385500  1
  O  O56  1  0.21251800  0.99984900  0.94376500  1
  O  O57  1  0.78748200  0.00015100  0.05623500  1
  O  O58  1  0.97616300  0.26275700  0.98628500  1
  O  O59  1  0.02383700  0.73724300  0.01371500  1
  O  O60  1  0.21247400  0.09415700  0.11259900  1
  O  O61  1  0.78752600  0.90584300  0.88740100  1
  O  O62  1  0.31611100  0.43580400  0.09663600  1
  O  O63  1  0.68388900  0.56419600  0.90336400  1
  O  O64  1  0.31728000  0.36861000  0.89931500  1
  O  O65  1  0.68272000  0.63139000  0.10068500  1
