# generated using pymatgen
data_Mg30CdFeO32
_symmetry_space_group_name_H-M   'P 1'
_cell_length_a   8.57692500
_cell_length_b   8.57692500
_cell_length_c   8.56223000
_cell_angle_alpha   90.00000000
_cell_angle_beta   90.00000000
_cell_angle_gamma   90.00000000
_symmetry_Int_Tables_number   1
_chemical_formula_structural   Mg30CdFeO32
_chemical_formula_sum   'Mg30 Cd1 Fe1 O32'
_cell_volume   629.86882634
_cell_formula_units_Z   1
loop_
 _symmetry_equiv_pos_site_id
 _symmetry_equiv_pos_as_xyz
  1  'x, y, z'
loop_
 _atom_site_type_symbol
 _atom_site_label
 _atom_site_symmetry_multiplicity
 _atom_site_fract_x
 _atom_site_fract_y
 _atom_site_fract_z
 _atom_site_occupancy
  Mg  Mg0  1  0.50000000  0.00000000  0.00000000  1
  Mg  Mg1  1  0.50000000  0.00000000  0.50000000  1
  Mg  Mg2  1  0.00000000  0.50000000  0.00000000  1
  Mg  Mg3  1  0.00000000  0.50000000  0.50000000  1
  Mg  Mg4  1  0.50000000  0.50000000  0.00000000  1
  Mg  Mg5  1  0.50000000  0.50000000  0.50000000  1
  Mg  Mg6  1  0.25338900  0.00000000  0.24791400  1
  Mg  Mg7  1  0.25338900  0.00000000  0.75208600  1
  Mg  Mg8  1  0.74661100  0.00000000  0.24791400  1
  Mg  Mg9  1  0.74661100  0.00000000  0.75208600  1
  Mg  Mg10  1  0.24997900  0.50000000  0.24976400  1
  Mg  Mg11  1  0.24997900  0.50000000  0.75023600  1
  Mg  Mg12  1  0.75002100  0.50000000  0.24976400  1
  Mg  Mg13  1  0.75002100  0.50000000  0.75023600  1
  Mg  Mg14  1  0.00000000  0.25338900  0.24791400  1
  Mg  Mg15  1  0.00000000  0.25338900  0.75208600  1
  Mg  Mg16  1  0.50000000  0.24997900  0.24976400  1
  Mg  Mg17  1  0.50000000  0.24997900  0.75023600  1
  Mg  Mg18  1  0.00000000  0.74661100  0.24791400  1
  Mg  Mg19  1  0.00000000  0.74661100  0.75208600  1
  Mg  Mg20  1  0.50000000  0.75002100  0.24976400  1
  Mg  Mg21  1  0.50000000  0.75002100  0.75023600  1
  Mg  Mg22  1  0.24960500  0.24960500  0.00000000  1
  Mg  Mg23  1  0.25217500  0.25217500  0.50000000  1
  Mg  Mg24  1  0.75039500  0.24960500  0.00000000  1
  Mg  Mg25  1  0.74782500  0.25217500  0.50000000  1
  Mg  Mg26  1  0.24960500  0.75039500  0.00000000  1
  Mg  Mg27  1  0.25217500  0.74782500  0.50000000  1
  Mg  Mg28  1  0.75039500  0.75039500  0.00000000  1
  Mg  Mg29  1  0.74782500  0.74782500  0.50000000  1
  Cd  Cd30  1  0.00000000  0.00000000  0.50000000  1
  Fe  Fe31  1  0.00000000  0.00000000  0.00000000  1
  O  O32  1  0.00000000  0.25758900  0.00000000  1
  O  O33  1  0.00000000  0.26340000  0.50000000  1
  O  O34  1  0.50000000  0.25081900  0.00000000  1
  O  O35  1  0.50000000  0.25171200  0.50000000  1
  O  O36  1  0.00000000  0.74241100  0.00000000  1
  O  O37  1  0.00000000  0.73660000  0.50000000  1
  O  O38  1  0.50000000  0.74918100  0.00000000  1
  O  O39  1  0.50000000  0.74828800  0.50000000  1
  O  O40  1  0.24914500  0.24914500  0.25049600  1
  O  O41  1  0.24914500  0.24914500  0.74950400  1
  O  O42  1  0.75085500  0.24914500  0.25049600  1
  O  O43  1  0.75085500  0.24914500  0.74950400  1
  O  O44  1  0.24914500  0.75085500  0.25049600  1
  O  O45  1  0.24914500  0.75085500  0.74950400  1
  O  O46  1  0.75085500  0.75085500  0.25049600  1
  O  O47  1  0.75085500  0.75085500  0.74950400  1
  O  O48  1  0.00000000  0.00000000  0.23741500  1
  O  O49  1  0.00000000  0.00000000  0.76258500  1
  O  O50  1  0.50000000  0.00000000  0.24904100  1
  O  O51  1  0.50000000  0.00000000  0.75095900  1
  O  O52  1  0.00000000  0.50000000  0.24904100  1
  O  O53  1  0.00000000  0.50000000  0.75095900  1
  O  O54  1  0.50000000  0.50000000  0.25000900  1
  O  O55  1  0.50000000  0.50000000  0.74999100  1
  O  O56  1  0.25758900  0.00000000  0.00000000  1
  O  O57  1  0.26340000  0.00000000  0.50000000  1
  O  O58  1  0.74241100  0.00000000  0.00000000  1
  O  O59  1  0.73660000  0.00000000  0.50000000  1
  O  O60  1  0.25081900  0.50000000  0.00000000  1
  O  O61  1  0.25171200  0.50000000  0.50000000  1
  O  O62  1  0.74918100  0.50000000  0.00000000  1
  O  O63  1  0.74828800  0.50000000  0.50000000  1
