# generated using pymatgen
data_Sc2VO5
_symmetry_space_group_name_H-M   'P 1'
_cell_length_a   9.24079355
_cell_length_b   9.24079355
_cell_length_c   9.24079355
_cell_angle_alpha   129.61950863
_cell_angle_beta   129.61950863
_cell_angle_gamma   74.01577952
_symmetry_Int_Tables_number   1
_chemical_formula_structural   Sc2VO5
_chemical_formula_sum   'Sc10 V5 O25'
_cell_volume   456.61070976
_cell_formula_units_Z   5
loop_
 _symmetry_equiv_pos_site_id
 _symmetry_equiv_pos_as_xyz
  1  'x, y, z'
loop_
 _atom_site_type_symbol
 _atom_site_label
 _atom_site_symmetry_multiplicity
 _atom_site_fract_x
 _atom_site_fract_y
 _atom_site_fract_z
 _atom_site_occupancy
  Sc  Sc0  1  0.06178500  0.56178500  0.50000000  1
  Sc  Sc1  1  0.43821500  0.93821500  0.50000000  1
  Sc  Sc2  1  0.94593500  0.69530700  0.15818200  1
  Sc  Sc3  1  0.53712500  0.78775300  0.84181800  1
  Sc  Sc4  1  0.21224700  0.05406500  0.74937200  1
  Sc  Sc5  1  0.30469300  0.46287500  0.25062800  1
  Sc  Sc6  1  0.89896700  0.20702700  0.95419400  1
  Sc  Sc7  1  0.25283300  0.94477300  0.04580600  1
  Sc  Sc8  1  0.05522700  0.10103300  0.30806000  1
  Sc  Sc9  1  0.79297300  0.74716700  0.69194000  1
  V  V10  1  0.62386400  0.31656600  0.10799400  1
  V  V11  1  0.20857200  0.51587000  0.89200600  1
  V  V12  1  0.48413000  0.37613600  0.69270200  1
  V  V13  1  0.68343400  0.79142800  0.30729800  1
  V  V14  1  0.75000000  0.25000000  0.50000000  1
  O  O15  1  0.74908400  0.59107400  0.34655500  1
  O  O16  1  0.24452000  0.40253000  0.65344500  1
  O  O17  1  0.59747000  0.25091600  0.84199000  1
  O  O18  1  0.40892600  0.75548000  0.15801000  1
  O  O19  1  0.04872900  0.49653200  0.22868700  1
  O  O20  1  0.26784400  0.82004200  0.77131300  1
  O  O21  1  0.17995800  0.95127100  0.44780200  1
  O  O22  1  0.50346800  0.73215500  0.55219800  1
  O  O23  1  0.89120100  0.28186100  0.22766300  1
  O  O24  1  0.05419800  0.66353700  0.77233700  1
  O  O25  1  0.33646300  0.10879900  0.39066100  1
  O  O26  1  0.71813900  0.94580200  0.60933900  1
  O  O27  1  0.36157300  0.36157300  0.00000000  1
  O  O28  1  0.63842700  0.63842700  0.00000000  1
  O  O29  1  0.82648000  0.82648000  0.00000000  1
  O  O30  1  0.17352000  0.17352000  0.00000000  1
  O  O31  1  0.00000000  0.00000000  0.00000000  1
  O  O32  1  0.51521100  0.06394500  0.92523100  1
  O  O33  1  0.13871400  0.58998000  0.07476900  1
  O  O34  1  0.41002000  0.48478900  0.54873400  1
  O  O35  1  0.93605500  0.86128600  0.45126600  1
  O  O36  1  0.65644500  0.39568000  0.41181700  1
  O  O37  1  0.98386300  0.24462800  0.58818300  1
  O  O38  1  0.75537200  0.34355500  0.73923400  1
  O  O39  1  0.60432000  0.01613700  0.26076600  1
