# generated using pymatgen
data_Mn4GeP4(H6O11)2
_symmetry_space_group_name_H-M   'P 1'
_cell_length_a   6.64842900
_cell_length_b   16.64852900
_cell_length_c   9.41131340
_cell_angle_alpha   90.00000000
_cell_angle_beta   124.54461123
_cell_angle_gamma   90.00000000
_symmetry_Int_Tables_number   1
_chemical_formula_structural   Mn4GeP4(H6O11)2
_chemical_formula_sum   'Mn8 Ge2 P8 H24 O44'
_cell_volume   858.03747694
_cell_formula_units_Z   2
loop_
 _symmetry_equiv_pos_site_id
 _symmetry_equiv_pos_as_xyz
  1  'x, y, z'
loop_
 _atom_site_type_symbol
 _atom_site_label
 _atom_site_symmetry_multiplicity
 _atom_site_fract_x
 _atom_site_fract_y
 _atom_site_fract_z
 _atom_site_occupancy
  Mn  Mn0  1  0.59250700  0.36172700  0.75951700  1
  Mn  Mn1  1  0.59250700  0.13827300  0.25951700  1
  Mn  Mn2  1  0.40749300  0.63827300  0.24048300  1
  Mn  Mn3  1  0.40749300  0.86172700  0.74048300  1
  Mn  Mn4  1  0.12043400  0.23058500  0.52239500  1
  Mn  Mn5  1  0.12043400  0.26941500  0.02239500  1
  Mn  Mn6  1  0.87956600  0.76941500  0.47760500  1
  Mn  Mn7  1  0.87956600  0.73058500  0.97760500  1
  Ge  Ge8  1  0.50000000  0.50000000  0.00000000  1
  Ge  Ge9  1  0.50000000  0.00000000  0.50000000  1
  P  P10  1  0.06849700  0.39079300  0.71539200  1
  P  P11  1  0.06849700  0.10920700  0.21539200  1
  P  P12  1  0.93150300  0.60920700  0.28460800  1
  P  P13  1  0.93150300  0.89079300  0.78460800  1
  P  P14  1  0.68625000  0.31296500  0.12770800  1
  P  P15  1  0.68625000  0.18703500  0.62770800  1
  P  P16  1  0.31375000  0.68703500  0.87229200  1
  P  P17  1  0.31375000  0.81296500  0.37229200  1
  H  H18  1  0.44000500  0.16797800  0.84306400  1
  H  H19  1  0.44000500  0.33202200  0.34306400  1
  H  H20  1  0.55999500  0.83202200  0.15693600  1
  H  H21  1  0.55999500  0.66797800  0.65693600  1
  H  H22  1  0.36179100  0.09703900  0.71146900  1
  H  H23  1  0.36179100  0.40296100  0.21146900  1
  H  H24  1  0.63820900  0.90296100  0.28853100  1
  H  H25  1  0.63820900  0.59703900  0.78853100  1
  H  H26  1  0.29624300  0.48945100  0.53183900  1
  H  H27  1  0.29624300  0.01054900  0.03183900  1
  H  H28  1  0.70375700  0.51054900  0.46816100  1
  H  H29  1  0.70375700  0.98945100  0.96816100  1
  H  H30  1  0.28649600  0.41527000  0.42077100  1
  H  H31  1  0.28649600  0.08473000  0.92077100  1
  H  H32  1  0.71350400  0.58473000  0.57922900  1
  H  H33  1  0.71350400  0.91527000  0.07922900  1
  H  H34  1  0.84829000  0.47851200  0.00186800  1
  H  H35  1  0.84829000  0.02148800  0.50186800  1
  H  H36  1  0.15171000  0.52148800  0.99813200  1
  H  H37  1  0.15171000  0.97851200  0.49813200  1
  H  H38  1  0.86505900  0.37763200  0.43239900  1
  H  H39  1  0.86505900  0.12236800  0.93239900  1
  H  H40  1  0.13494100  0.62236800  0.56760100  1
  H  H41  1  0.13494100  0.87763200  0.06760100  1
  O  O42  1  0.29708200  0.13987500  0.74763500  1
  O  O43  1  0.29708200  0.36012500  0.24763500  1
  O  O44  1  0.70291800  0.86012500  0.25236500  1
  O  O45  1  0.70291800  0.63987500  0.75236500  1
  O  O46  1  0.37088500  0.43732300  0.53793300  1
  O  O47  1  0.37088500  0.06267700  0.03793300  1
  O  O48  1  0.62911500  0.56267700  0.46206700  1
  O  O49  1  0.62911500  0.93732300  0.96206700  1
  O  O50  1  0.96347500  0.36329500  0.81727300  1
  O  O51  1  0.96347500  0.13670500  0.31727300  1
  O  O52  1  0.03652500  0.63670500  0.18272700  1
  O  O53  1  0.03652500  0.86329500  0.68272700  1
  O  O54  1  0.23331300  0.32658600  0.71362100  1
  O  O55  1  0.23331300  0.17341400  0.21362100  1
  O  O56  1  0.76668700  0.67341400  0.28637900  1
  O  O57  1  0.76668700  0.82658600  0.78637900  1
  O  O58  1  0.89835400  0.31870900  0.32083900  1
  O  O59  1  0.89835400  0.18129100  0.82083900  1
  O  O60  1  0.10164600  0.68129100  0.67916100  1
  O  O61  1  0.10164600  0.81870900  0.17916100  1
  O  O62  1  0.77948000  0.30068400  0.01123900  1
  O  O63  1  0.77948000  0.19931600  0.51123900  1
  O  O64  1  0.22052000  0.69931600  0.98876100  1
  O  O65  1  0.22052000  0.80068400  0.48876100  1
  O  O66  1  0.50312300  0.25506500  0.59650200  1
  O  O67  1  0.50312300  0.24493500  0.09650200  1
  O  O68  1  0.49687700  0.74493500  0.40349800  1
  O  O69  1  0.49687700  0.75506500  0.90349800  1
  O  O70  1  0.67833400  0.47907600  0.90269300  1
  O  O71  1  0.67833400  0.02092400  0.40269300  1
  O  O72  1  0.32166600  0.52092400  0.09730700  1
  O  O73  1  0.32166600  0.97907600  0.59730700  1
  O  O74  1  0.84715400  0.40839100  0.52106100  1
  O  O75  1  0.84715400  0.09160900  0.02106100  1
  O  O76  1  0.15284600  0.59160900  0.47893900  1
  O  O77  1  0.15284600  0.90839100  0.97893900  1
  O  O78  1  0.20036300  0.47333000  0.78386400  1
  O  O79  1  0.20036300  0.02667000  0.28386400  1
  O  O80  1  0.79963700  0.52667000  0.21613600  1
  O  O81  1  0.79963700  0.97333000  0.71613600  1
  O  O82  1  0.53206800  0.39229500  0.07818100  1
  O  O83  1  0.53206800  0.10770500  0.57818100  1
  O  O84  1  0.46793200  0.60770500  0.92181900  1
  O  O85  1  0.46793200  0.89229500  0.42181900  1
