# generated using pymatgen
data_Cs2CaAg2H4C6S6(N3O)2
_symmetry_space_group_name_H-M   'P 1'
_cell_length_a   8.33891200
_cell_length_b   19.35050100
_cell_length_c   8.15589289
_cell_angle_alpha   90.00000000
_cell_angle_beta   90.33797141
_cell_angle_gamma   90.00000000
_symmetry_Int_Tables_number   1
_chemical_formula_structural   Cs2CaAg2H4C6S6(N3O)2
_chemical_formula_sum   'Cs4 Ca2 Ag4 H8 C12 S12 N12 O4'
_cell_volume   1316.02931229
_cell_formula_units_Z   2
loop_
 _symmetry_equiv_pos_site_id
 _symmetry_equiv_pos_as_xyz
  1  'x, y, z'
loop_
 _atom_site_type_symbol
 _atom_site_label
 _atom_site_symmetry_multiplicity
 _atom_site_fract_x
 _atom_site_fract_y
 _atom_site_fract_z
 _atom_site_occupancy
  Cs  Cs0  1  0.75205500  0.88273800  0.97730900  1
  Cs  Cs1  1  0.24794500  0.38273800  0.52269100  1
  Cs  Cs2  1  0.24794500  0.11726200  0.02269100  1
  Cs  Cs3  1  0.75205500  0.61726200  0.47730900  1
  Ca  Ca4  1  0.00000000  0.00000000  0.50000000  1
  Ca  Ca5  1  0.00000000  0.50000000  0.00000000  1
  Ag  Ag6  1  0.27132300  0.78270400  0.01488800  1
  Ag  Ag7  1  0.72867700  0.28270400  0.48511200  1
  Ag  Ag8  1  0.72867700  0.21729600  0.98511200  1
  Ag  Ag9  1  0.27132300  0.71729600  0.51488800  1
  H  H10  1  0.66329700  0.95490100  0.52676700  1
  H  H11  1  0.33670300  0.45490100  0.97323300  1
  H  H12  1  0.33670300  0.04509900  0.47323300  1
  H  H13  1  0.66329700  0.54509900  0.02676700  1
  H  H14  1  0.66256400  0.02329900  0.62902700  1
  H  H15  1  0.33743600  0.52329900  0.87097300  1
  H  H16  1  0.33743600  0.97670100  0.37097300  1
  H  H17  1  0.66256400  0.47670100  0.12902700  1
  C  C18  1  0.18525100  0.93941900  0.87025800  1
  C  C19  1  0.81474900  0.43941900  0.62974200  1
  C  C20  1  0.81474900  0.06058100  0.12974200  1
  C  C21  1  0.18525100  0.56058100  0.37025800  1
  C  C22  1  0.01662100  0.67324300  0.86249700  1
  C  C23  1  0.98337900  0.17324300  0.63750300  1
  C  C24  1  0.98337900  0.32675700  0.13750300  1
  C  C25  1  0.01662100  0.82675700  0.36249700  1
  C  C26  1  0.52413100  0.65311400  0.96089700  1
  C  C27  1  0.47586900  0.15311400  0.53910300  1
  C  C28  1  0.47586900  0.34688600  0.03910300  1
  C  C29  1  0.52413100  0.84688600  0.46089700  1
  S  S30  1  0.29796900  0.91458900  0.02519900  1
  S  S31  1  0.70203100  0.41458900  0.47480100  1
  S  S32  1  0.70203100  0.08541100  0.97480100  1
  S  S33  1  0.29796900  0.58541100  0.52519900  1
  S  S34  1  0.06345300  0.75075200  0.79671900  1
  S  S35  1  0.93654700  0.25075200  0.70328100  1
  S  S36  1  0.93654700  0.24924800  0.20328100  1
  S  S37  1  0.06345300  0.74924800  0.29671900  1
  S  S38  1  0.52365600  0.71881200  0.08966200  1
  S  S39  1  0.47634400  0.21881200  0.41033800  1
  S  S40  1  0.47634400  0.28118800  0.91033800  1
  S  S41  1  0.52365600  0.78118800  0.58966200  1
  N  N42  1  0.10251500  0.96009000  0.76209900  1
  N  N43  1  0.89748500  0.46009000  0.73790100  1
  N  N44  1  0.89748500  0.03991000  0.23790100  1
  N  N45  1  0.10251500  0.53991000  0.26209900  1
  N  N46  1  0.98019200  0.61696600  0.90478800  1
  N  N47  1  0.01980800  0.11696600  0.59521200  1
  N  N48  1  0.01980800  0.38303400  0.09521200  1
  N  N49  1  0.98019200  0.88303400  0.40478800  1
  N  N50  1  0.52975700  0.60380600  0.87436500  1
  N  N51  1  0.47024300  0.10380600  0.62563500  1
  N  N52  1  0.47024300  0.39619400  0.12563500  1
  N  N53  1  0.52975700  0.89619400  0.37436500  1
  O  O54  1  0.72957200  0.98360200  0.60033300  1
  O  O55  1  0.27042800  0.48360200  0.89966700  1
  O  O56  1  0.27042800  0.01639800  0.39966700  1
  O  O57  1  0.72957200  0.51639800  0.10033300  1
