# generated using pymatgen
data_Na4SrSi8O23
_symmetry_space_group_name_H-M   'P 1'
_cell_length_a   7.10708384
_cell_length_b   13.61772656
_cell_length_c   22.36978159
_cell_angle_alpha   92.44900451
_cell_angle_beta   90.00000000
_cell_angle_gamma   90.00000000
_symmetry_Int_Tables_number   1
_chemical_formula_structural   Na4SrSi8O23
_chemical_formula_sum   'Na16 Sr4 Si32 O92'
_cell_volume   2163.02205400
_cell_formula_units_Z   4
loop_
 _symmetry_equiv_pos_site_id
 _symmetry_equiv_pos_as_xyz
  1  'x, y, z'
loop_
 _atom_site_type_symbol
 _atom_site_label
 _atom_site_symmetry_multiplicity
 _atom_site_fract_x
 _atom_site_fract_y
 _atom_site_fract_z
 _atom_site_occupancy
  Na  Na0  1  0.23009092  0.98630149  0.99688612  1
  Na  Na1  1  0.23009092  0.51369851  0.00311388  1
  Na  Na2  1  0.76990908  0.01369851  0.00311388  1
  Na  Na3  1  0.76990908  0.48630149  0.99688612  1
  Na  Na4  1  0.47314088  0.75000000  -0.00000000  1
  Na  Na5  1  0.52685912  0.25000000  -0.00000000  1
  Na  Na6  1  0.77229429  0.50133225  0.49013287  1
  Na  Na7  1  0.77229429  0.99866775  0.50986713  1
  Na  Na8  1  0.22770571  0.49866775  0.50986713  1
  Na  Na9  1  0.22770571  0.00133225  0.49013287  1
  Na  Na10  1  0.48703987  0.75000000  0.50000000  1
  Na  Na11  1  0.51296013  0.25000000  0.50000000  1
  Na  Na12  1  0.75194721  0.99583820  0.25224921  1
  Na  Na13  1  0.75194721  0.50416180  0.74775079  1
  Na  Na14  1  0.24805279  0.00416180  0.74775079  1
  Na  Na15  1  0.24805279  0.49583820  0.25224921  1
  Sr  Sr16  1  0.97483771  0.75000000  -0.00000000  1
  Sr  Sr17  1  0.02516229  0.25000000  -0.00000000  1
  Sr  Sr18  1  0.99212086  0.75000000  0.50000000  1
  Sr  Sr19  1  0.00787914  0.25000000  0.50000000  1
  Si  Si20  1  0.98499766  0.78048700  0.18260660  1
  Si  Si21  1  0.98499766  0.71951300  0.81739340  1
  Si  Si22  1  0.01500234  0.21951300  0.81739340  1
  Si  Si23  1  0.01500234  0.28048700  0.18260660  1
  Si  Si24  1  0.00645807  0.52546797  0.37285356  1
  Si  Si25  1  0.00645807  0.97453203  0.62714644  1
  Si  Si26  1  0.99354193  0.47453203  0.62714644  1
  Si  Si27  1  0.99354193  0.02546797  0.37285356  1
  Si  Si28  1  0.28514381  0.35283259  0.38747903  1
  Si  Si29  1  0.28514381  0.14716741  0.61252097  1
  Si  Si30  1  0.71485619  0.64716741  0.61252097  1
  Si  Si31  1  0.71485619  0.85283259  0.38747903  1
  Si  Si32  1  0.71078033  0.64018775  0.11118425  1
  Si  Si33  1  0.71078033  0.85981225  0.88881575  1
  Si  Si34  1  0.28921967  0.35981225  0.88881575  1
  Si  Si35  1  0.28921967  0.14018775  0.11118425  1
  Si  Si36  1  0.71605047  0.35776023  0.37764783  1
  Si  Si37  1  0.71605047  0.14223977  0.62235217  1
  Si  Si38  1  0.28394953  0.64223977  0.62235217  1
  Si  Si39  1  0.28394953  0.85776023  0.37764783  1
  Si  Si40  1  0.28226946  0.65405208  0.12349536  1
  Si  Si41  1  0.28226946  0.84594792  0.87650464  1
  Si  Si42  1  0.71773054  0.34594792  0.87650464  1
  Si  Si43  1  0.71773054  0.15405208  0.12349536  1
  Si  Si44  1  0.98568455  0.72032216  0.31508241  1
  Si  Si45  1  0.98568455  0.77967784  0.68491759  1
  Si  Si46  1  0.01431545  0.27967784  0.68491759  1
  Si  Si47  1  0.01431545  0.22032216  0.31508241  1
  Si  Si48  1  0.99201037  0.97750728  0.12800511  1
  Si  Si49  1  0.99201037  0.52249272  0.87199489  1
  Si  Si50  1  0.00798963  0.02249272  0.87199489  1
  Si  Si51  1  0.00798963  0.47750728  0.12800511  1
  O  O52  1  0.83934475  0.73737022  0.13168219  1
  O  O53  1  0.83934475  0.76262978  0.86831781  1
  O  O54  1  0.16065525  0.26262978  0.86831781  1
  O  O55  1  0.16065525  0.23737022  0.13168219  1
  O  O56  1  0.91837100  0.74552945  0.24789867  1
  O  O57  1  0.91837100  0.75447055  0.75210133  1
  O  O58  1  0.08162900  0.25447055  0.75210133  1
  O  O59  1  0.08162900  0.24552945  0.24789867  1
  O  O60  1  0.19781919  0.74461115  0.16708529  1
  O  O61  1  0.19781919  0.75538885  0.83291471  1
  O  O62  1  0.80218081  0.25538885  0.83291471  1
  O  O63  1  0.80218081  0.24461115  0.16708529  1
  O  O64  1  0.97686178  0.90061989  0.18386453  1
  O  O65  1  0.97686178  0.59938011  0.81613547  1
  O  O66  1  0.02313822  0.09938011  0.81613547  1
  O  O67  1  0.02313822  0.40061989  0.18386453  1
  O  O68  1  0.03171551  0.57781164  0.43819605  1
  O  O69  1  0.03171551  0.92218836  0.56180395  1
  O  O70  1  0.96828449  0.42218836  0.56180395  1
  O  O71  1  0.96828449  0.07781164  0.43819605  1
  O  O72  1  0.79981433  0.46961835  0.36614119  1
  O  O73  1  0.79981433  0.03038165  0.63385881  1
  O  O74  1  0.20018567  0.53038165  0.63385881  1
  O  O75  1  0.20018567  0.96961835  0.36614119  1
  O  O76  1  0.17154502  0.44346343  0.35472531  1
  O  O77  1  0.17154502  0.05653657  0.64527469  1
  O  O78  1  0.82845498  0.55653657  0.64527469  1
  O  O79  1  0.82845498  0.94346343  0.35472531  1
  O  O80  1  0.02302412  0.60152592  0.31693381  1
  O  O81  1  0.02302412  0.89847408  0.68306619  1
  O  O82  1  0.97697588  0.39847408  0.68306619  1
  O  O83  1  0.97697588  0.10152592  0.31693381  1
  O  O84  1  0.27785445  0.35355794  0.45879127  1
  O  O85  1  0.27785445  0.14644206  0.54120873  1
  O  O86  1  0.72214555  0.64644206  0.54120873  1
  O  O87  1  0.72214555  0.85355794  0.45879127  1
  O  O88  1  0.49475062  0.35714301  0.35729566  1
  O  O89  1  0.49475062  0.14285699  0.64270434  1
  O  O90  1  0.50524938  0.64285699  0.64270434  1
  O  O91  1  0.50524938  0.85714301  0.35729566  1
  O  O92  1  0.82193175  0.75011107  0.36322241  1
  O  O93  1  0.82193175  0.74988893  0.63677759  1
  O  O94  1  0.17806825  0.24988893  0.63677759  1
  O  O95  1  0.17806825  0.25011107  0.36322241  1
  O  O96  1  0.70820353  0.64292352  0.03920180  1
  O  O97  1  0.70820353  0.85707648  0.96079820  1
  O  O98  1  0.29179647  0.35707648  0.96079820  1
  O  O99  1  0.29179647  0.14292352  0.03920180  1
  O  O100  1  0.50468771  0.64836491  0.14298032  1
  O  O101  1  0.50468771  0.85163509  0.85701968  1
  O  O102  1  0.49531229  0.35163509  0.85701968  1
  O  O103  1  0.49531229  0.14836491  0.14298032  1
  O  O104  1  0.81194955  0.54197408  0.13743375  1
  O  O105  1  0.81194955  0.95802592  0.86256625  1
  O  O106  1  0.18805045  0.45802592  0.86256625  1
  O  O107  1  0.18805045  0.04197408  0.13743375  1
  O  O108  1  0.75069932  0.33352522  0.44655386  1
  O  O109  1  0.75069932  0.16647478  0.55344614  1
  O  O110  1  0.24930068  0.66647478  0.55344614  1
  O  O111  1  0.24930068  0.83352522  0.44655386  1
  O  O112  1  0.18109615  0.77811600  0.33073412  1
  O  O113  1  0.18109615  0.72188400  0.66926588  1
  O  O114  1  0.81890385  0.22188400  0.66926588  1
  O  O115  1  0.81890385  0.27811600  0.33073412  1
  O  O116  1  0.24204762  0.66733222  0.05402057  1
  O  O117  1  0.24204762  0.83266778  0.94597943  1
  O  O118  1  0.75795238  0.33266778  0.94597943  1
  O  O119  1  0.75795238  0.16733222  0.05402057  1
  O  O120  1  0.18619193  0.55152818  0.14795498  1
  O  O121  1  0.18619193  0.94847182  0.85204502  1
  O  O122  1  0.81380807  0.44847182  0.85204502  1
  O  O123  1  0.81380807  0.05152818  0.14795498  1
  O  O124  1  0.98298546  0.92561076  0.06252078  1
  O  O125  1  0.98298546  0.57438924  0.93747922  1
  O  O126  1  0.01701454  0.07438924  0.93747922  1
  O  O127  1  0.01701454  0.42561076  0.06252078  1
  O  O128  1  0.55159345  0.90687271  0.04784928  1
  O  O129  1  0.55159345  0.59312729  0.95215072  1
  O  O130  1  0.44840655  0.09312729  0.95215072  1
  O  O131  1  0.44840655  0.40687271  0.04784928  1
  O  O132  1  0.40331704  0.59611431  0.44934167  1
  O  O133  1  0.40331704  0.90388569  0.55065833  1
  O  O134  1  0.59668296  0.40388569  0.55065833  1
  O  O135  1  0.59668296  0.09611431  0.44934167  1
  O  O136  1  0.48275894  0.92205643  0.19027308  1
  O  O137  1  0.48275894  0.57794357  0.80972692  1
  O  O138  1  0.51724106  0.07794357  0.80972692  1
  O  O139  1  0.51724106  0.42205643  0.19027308  1
  O  O140  1  0.50743666  0.60516705  0.28893489  1
  O  O141  1  0.50743666  0.89483295  0.71106511  1
  O  O142  1  0.49256334  0.39483295  0.71106511  1
  O  O143  1  0.49256334  0.10516705  0.28893489  1
