# generated using pymatgen
data_In2BiSe4I
_symmetry_space_group_name_H-M   'P 1'
_cell_length_a   4.19146700
_cell_length_b   14.18215200
_cell_length_c   17.31512000
_cell_angle_alpha   90.00000000
_cell_angle_beta   90.00000000
_cell_angle_gamma   90.00000000
_symmetry_Int_Tables_number   1
_chemical_formula_structural   In2BiSe4I
_chemical_formula_sum   'In8 Bi4 Se16 I4'
_cell_volume   1029.28037589
_cell_formula_units_Z   4
loop_
 _symmetry_equiv_pos_site_id
 _symmetry_equiv_pos_as_xyz
  1  'x, y, z'
loop_
 _atom_site_type_symbol
 _atom_site_label
 _atom_site_symmetry_multiplicity
 _atom_site_fract_x
 _atom_site_fract_y
 _atom_site_fract_z
 _atom_site_occupancy
  In  In0  1  0.25000000  0.24120300  0.49702400  1
  In  In1  1  0.25000000  0.74120300  0.00297600  1
  In  In2  1  0.75000000  0.75879700  0.50297600  1
  In  In3  1  0.75000000  0.25879700  0.99702400  1
  In  In4  1  0.25000000  0.39086500  0.86193400  1
  In  In5  1  0.25000000  0.89086500  0.63806600  1
  In  In6  1  0.75000000  0.60913500  0.13806600  1
  In  In7  1  0.75000000  0.10913500  0.36193400  1
  Bi  Bi8  1  0.25000000  0.54006200  0.39442800  1
  Bi  Bi9  1  0.25000000  0.04006200  0.10557200  1
  Bi  Bi10  1  0.75000000  0.45993800  0.60557200  1
  Bi  Bi11  1  0.75000000  0.95993800  0.89442800  1
  Se  Se12  1  0.25000000  0.10490200  0.95678800  1
  Se  Se13  1  0.25000000  0.60490200  0.54321200  1
  Se  Se14  1  0.75000000  0.89509800  0.04321200  1
  Se  Se15  1  0.75000000  0.39509800  0.45678800  1
  Se  Se16  1  0.25000000  0.22032100  0.33735300  1
  Se  Se17  1  0.25000000  0.72032100  0.16264700  1
  Se  Se18  1  0.75000000  0.77967900  0.66264700  1
  Se  Se19  1  0.75000000  0.27967900  0.83735300  1
  Se  Se20  1  0.25000000  0.32486900  0.63612200  1
  Se  Se21  1  0.25000000  0.82486900  0.86387800  1
  Se  Se22  1  0.75000000  0.67513100  0.36387800  1
  Se  Se23  1  0.75000000  0.17513100  0.13612200  1
  Se  Se24  1  0.25000000  0.88286500  0.48566100  1
  Se  Se25  1  0.25000000  0.38286500  0.01433900  1
  Se  Se26  1  0.75000000  0.11713500  0.51433900  1
  Se  Se27  1  0.75000000  0.61713500  0.98566100  1
  I  I28  1  0.25000000  0.05534200  0.72313200  1
  I  I29  1  0.25000000  0.55534200  0.77686800  1
  I  I30  1  0.75000000  0.94465800  0.27686800  1
  I  I31  1  0.75000000  0.44465800  0.22313200  1
