# generated using pymatgen
data_K2Mn(SO6)2
_symmetry_space_group_name_H-M   'P 1'
_cell_length_a   7.51875087
_cell_length_b   7.51875087
_cell_length_c   11.38965463
_cell_angle_alpha   87.54235724
_cell_angle_beta   87.54235724
_cell_angle_gamma   74.69619525
_symmetry_Int_Tables_number   1
_chemical_formula_structural   K2Mn(SO6)2
_chemical_formula_sum   'K4 Mn2 S4 O24'
_cell_volume   620.13952409
_cell_formula_units_Z   2
loop_
 _symmetry_equiv_pos_site_id
 _symmetry_equiv_pos_as_xyz
  1  'x, y, z'
loop_
 _atom_site_type_symbol
 _atom_site_label
 _atom_site_symmetry_multiplicity
 _atom_site_fract_x
 _atom_site_fract_y
 _atom_site_fract_z
 _atom_site_occupancy
  K  K0  1  0.32069300  0.32069300  0.95119500  1
  K  K1  1  0.67930700  0.67930700  0.04880500  1
  K  K2  1  0.11381800  0.11381800  0.32418200  1
  K  K3  1  0.88618200  0.88618200  0.67581800  1
  Mn  Mn4  1  0.00000000  0.00000000  0.00000000  1
  Mn  Mn5  1  0.50000000  0.50000000  0.50000000  1
  S  S6  1  0.91129500  0.41733000  0.74011000  1
  S  S7  1  0.41733000  0.91129500  0.74011000  1
  S  S8  1  0.08870500  0.58267000  0.25989000  1
  S  S9  1  0.58267000  0.08870500  0.25989000  1
  O  O10  1  0.80260300  0.48997400  0.84798000  1
  O  O11  1  0.48997400  0.80260300  0.84798000  1
  O  O12  1  0.19739700  0.51002600  0.15202000  1
  O  O13  1  0.51002600  0.19739700  0.15202000  1
  O  O14  1  0.82746600  0.53856300  0.63830100  1
  O  O15  1  0.53856300  0.82746600  0.63830100  1
  O  O16  1  0.17253400  0.46143700  0.36169900  1
  O  O17  1  0.46143700  0.17253400  0.36169900  1
  O  O18  1  0.90538800  0.22473600  0.72449600  1
  O  O19  1  0.22473600  0.90538800  0.72449600  1
  O  O20  1  0.09461200  0.77526400  0.27550400  1
  O  O21  1  0.77526400  0.09461200  0.27550400  1
  O  O22  1  0.10473900  0.42677500  0.74992600  1
  O  O23  1  0.42677500  0.10473900  0.74992600  1
  O  O24  1  0.89526100  0.57322500  0.25007400  1
  O  O25  1  0.57322500  0.89526100  0.25007400  1
  O  O26  1  0.97984100  0.23110200  0.03996600  1
  O  O27  1  0.23110200  0.97984100  0.03996600  1
  O  O28  1  0.02015900  0.76889800  0.96003400  1
  O  O29  1  0.76889800  0.02015900  0.96003400  1
  O  O30  1  0.25077300  0.65959500  0.53760100  1
  O  O31  1  0.65959500  0.25077300  0.53760100  1
  O  O32  1  0.74922700  0.34040500  0.46239900  1
  O  O33  1  0.34040500  0.74922700  0.46239900  1
