# generated using pymatgen
data_Cs6Hf5(O2F13)2
_symmetry_space_group_name_H-M   'P 1'
_cell_length_a   12.19754919
_cell_length_b   12.19754919
_cell_length_c   11.18260279
_cell_angle_alpha   68.02433190
_cell_angle_beta   68.02433190
_cell_angle_gamma   32.90638885
_symmetry_Int_Tables_number   1
_chemical_formula_structural   Cs6Hf5(O2F13)2
_chemical_formula_sum   'Cs6 Hf5 O4 F26'
_cell_volume   832.21679417
_cell_formula_units_Z   1
loop_
 _symmetry_equiv_pos_site_id
 _symmetry_equiv_pos_as_xyz
  1  'x, y, z'
loop_
 _atom_site_type_symbol
 _atom_site_label
 _atom_site_symmetry_multiplicity
 _atom_site_fract_x
 _atom_site_fract_y
 _atom_site_fract_z
 _atom_site_occupancy
  Cs  Cs0  1  0.86340000  0.86340000  0.08855900  1
  Cs  Cs1  1  0.13660000  0.13660000  0.91144100  1
  Cs  Cs2  1  0.42649700  0.42649700  0.73003700  1
  Cs  Cs3  1  0.57350300  0.57350300  0.26996300  1
  Cs  Cs4  1  0.33433700  0.33433700  0.42563000  1
  Cs  Cs5  1  0.66566300  0.66566300  0.57437000  1
  Hf  Hf6  1  0.06777300  0.06777300  0.53483300  1
  Hf  Hf7  1  0.93222700  0.93222700  0.46516700  1
  Hf  Hf8  1  0.20355500  0.20355500  0.23565800  1
  Hf  Hf9  1  0.79644500  0.79644500  0.76434200  1
  Hf  Hf10  1  0.50000000  0.50000000  0.00000000  1
  O  O11  1  0.04163500  0.04163500  0.75182900  1
  O  O12  1  0.95836500  0.95836500  0.24817100  1
  O  O13  1  0.28812500  0.28812500  0.04825300  1
  O  O14  1  0.71187500  0.71187500  0.95174700  1
  F  F15  1  0.30992800  0.96511500  0.38197100  1
  F  F16  1  0.96511500  0.30992800  0.38197100  1
  F  F17  1  0.69007200  0.03488500  0.61802900  1
  F  F18  1  0.03488500  0.69007200  0.61802900  1
  F  F19  1  0.96616800  0.96616800  0.61351000  1
  F  F20  1  0.03383200  0.03383200  0.38649000  1
  F  F21  1  0.13705200  0.13705200  0.60428300  1
  F  F22  1  0.86294800  0.86294800  0.39571700  1
  F  F23  1  0.33238700  0.74315700  0.07528200  1
  F  F24  1  0.74315700  0.33238700  0.07528200  1
  F  F25  1  0.66761300  0.25684300  0.92471800  1
  F  F26  1  0.25684300  0.66761300  0.92471800  1
  F  F27  1  0.37525200  0.99457900  0.12060600  1
  F  F28  1  0.99457900  0.37525200  0.12060600  1
  F  F29  1  0.62474800  0.00542100  0.87939400  1
  F  F30  1  0.00542100  0.62474800  0.87939400  1
  F  F31  1  0.45290600  0.06969000  0.26731500  1
  F  F32  1  0.06969000  0.45290600  0.26731500  1
  F  F33  1  0.54709400  0.93031000  0.73268500  1
  F  F34  1  0.93031000  0.54709400  0.73268500  1
  F  F35  1  0.32135100  0.77373300  0.59109400  1
  F  F36  1  0.77373300  0.32135100  0.59109400  1
  F  F37  1  0.67864900  0.22626700  0.40890600  1
  F  F38  1  0.22626700  0.67864900  0.40890600  1
  F  F39  1  0.57868700  0.57868700  0.83963800  1
  F  F40  1  0.42131300  0.42131300  0.16036200  1
