# generated using pymatgen
data_Sc2Se3O10
_symmetry_space_group_name_H-M   'P 1'
_cell_length_a   6.67249500
_cell_length_b   11.33284300
_cell_length_c   12.57503200
_cell_angle_alpha   90.00000000
_cell_angle_beta   90.00000000
_cell_angle_gamma   90.00000000
_symmetry_Int_Tables_number   1
_chemical_formula_structural   Sc2Se3O10
_chemical_formula_sum   'Sc8 Se12 O40'
_cell_volume   950.90302332
_cell_formula_units_Z   4
loop_
 _symmetry_equiv_pos_site_id
 _symmetry_equiv_pos_as_xyz
  1  'x, y, z'
loop_
 _atom_site_type_symbol
 _atom_site_label
 _atom_site_symmetry_multiplicity
 _atom_site_fract_x
 _atom_site_fract_y
 _atom_site_fract_z
 _atom_site_occupancy
  Sc  Sc0  1  0.21226900  0.04445800  0.51625200  1
  Sc  Sc1  1  0.28773100  0.95554200  0.01625200  1
  Sc  Sc2  1  0.71226900  0.45554200  0.48374800  1
  Sc  Sc3  1  0.78773100  0.54445800  0.98374800  1
  Sc  Sc4  1  0.72184600  0.90427000  0.56965100  1
  Sc  Sc5  1  0.77815400  0.09573000  0.06965100  1
  Sc  Sc6  1  0.22184600  0.59573000  0.43034900  1
  Sc  Sc7  1  0.27815400  0.40427000  0.93034900  1
  Se  Se8  1  0.70321800  0.70126300  0.35062800  1
  Se  Se9  1  0.79678200  0.29873700  0.85062800  1
  Se  Se10  1  0.20321800  0.79873700  0.64937200  1
  Se  Se11  1  0.29678200  0.20126300  0.14937200  1
  Se  Se12  1  0.69585500  0.15593600  0.45746100  1
  Se  Se13  1  0.80414500  0.84406400  0.95746100  1
  Se  Se14  1  0.19585500  0.34406400  0.54253900  1
  Se  Se15  1  0.30414500  0.65593600  0.04253900  1
  Se  Se16  1  0.17327100  0.87180200  0.28053800  1
  Se  Se17  1  0.32672900  0.12819800  0.78053800  1
  Se  Se18  1  0.67327100  0.62819800  0.71946200  1
  Se  Se19  1  0.82672900  0.37180200  0.21946200  1
  O  O20  1  0.91455400  0.62067500  0.38782900  1
  O  O21  1  0.58544600  0.37932500  0.88782900  1
  O  O22  1  0.41455400  0.87932500  0.61217100  1
  O  O23  1  0.08544600  0.12067500  0.11217100  1
  O  O24  1  0.55056600  0.61356400  0.43288900  1
  O  O25  1  0.94943400  0.38643600  0.93288900  1
  O  O26  1  0.05056600  0.88643600  0.56711100  1
  O  O27  1  0.44943400  0.11356400  0.06711100  1
  O  O28  1  0.72340700  0.82861100  0.42044400  1
  O  O29  1  0.77659300  0.17138900  0.92044400  1
  O  O30  1  0.22340700  0.67138900  0.57955600  1
  O  O31  1  0.27659300  0.32861100  0.07955600  1
  O  O32  1  0.72592200  0.27498400  0.53885700  1
  O  O33  1  0.77407800  0.72501600  0.03885700  1
  O  O34  1  0.22592200  0.22501600  0.46114300  1
  O  O35  1  0.27407800  0.77498400  0.96114300  1
  O  O36  1  0.53107700  0.06604900  0.52956000  1
  O  O37  1  0.96892300  0.93395100  0.02956000  1
  O  O38  1  0.03107700  0.43395100  0.47044000  1
  O  O39  1  0.46892300  0.56604900  0.97044000  1
  O  O40  1  0.89181200  0.06244300  0.49163200  1
  O  O41  1  0.60818800  0.93755700  0.99163200  1
  O  O42  1  0.39181200  0.43755700  0.50836800  1
  O  O43  1  0.10818800  0.56244300  0.00836800  1
  O  O44  1  0.25245100  0.98457700  0.36070300  1
  O  O45  1  0.24754900  0.01542300  0.86070300  1
  O  O46  1  0.75245100  0.51542300  0.63929700  1
  O  O47  1  0.74754900  0.48457700  0.13929700  1
  O  O48  1  0.32732900  0.88782300  0.17186000  1
  O  O49  1  0.17267100  0.11217700  0.67186000  1
  O  O50  1  0.82732900  0.61217700  0.82814000  1
  O  O51  1  0.67267100  0.38782300  0.32814000  1
  O  O52  1  0.28103000  0.74883400  0.33844100  1
  O  O53  1  0.21897000  0.25116600  0.83844100  1
  O  O54  1  0.78103000  0.75116600  0.66155900  1
  O  O55  1  0.71897000  0.24883400  0.16155900  1
  O  O56  1  0.79759700  0.99882000  0.71482700  1
  O  O57  1  0.70240300  0.00118000  0.21482700  1
  O  O58  1  0.29759700  0.50118000  0.28517300  1
  O  O59  1  0.20240300  0.49882000  0.78517300  1
