# generated using pymatgen
data_AgPHNO2
_symmetry_space_group_name_H-M   'P 1'
_cell_length_a   7.96033200
_cell_length_b   10.09197300
_cell_length_c   11.87722721
_cell_angle_alpha   72.96057959
_cell_angle_beta   90.00000000
_cell_angle_gamma   90.00000000
_symmetry_Int_Tables_number   1
_chemical_formula_structural   AgPHNO2
_chemical_formula_sum   'Ag12 P12 H12 N12 O24'
_cell_volume   912.27794599
_cell_formula_units_Z   12
loop_
 _symmetry_equiv_pos_site_id
 _symmetry_equiv_pos_as_xyz
  1  'x, y, z'
loop_
 _atom_site_type_symbol
 _atom_site_label
 _atom_site_symmetry_multiplicity
 _atom_site_fract_x
 _atom_site_fract_y
 _atom_site_fract_z
 _atom_site_occupancy
  Ag  Ag0  1  0.55781400  0.73011200  0.24132700  1
  Ag  Ag1  1  0.05781400  0.76988800  0.75867300  1
  Ag  Ag2  1  0.44218600  0.26988800  0.75867300  1
  Ag  Ag3  1  0.94218600  0.23011200  0.24132700  1
  Ag  Ag4  1  0.57923500  0.43967600  0.14496200  1
  Ag  Ag5  1  0.07923500  0.06032400  0.85503800  1
  Ag  Ag6  1  0.42076500  0.56032400  0.85503800  1
  Ag  Ag7  1  0.92076500  0.93967600  0.14496200  1
  Ag  Ag8  1  0.64624200  0.33799800  0.44177600  1
  Ag  Ag9  1  0.14624200  0.16200200  0.55822400  1
  Ag  Ag10  1  0.35375800  0.66200200  0.55822400  1
  Ag  Ag11  1  0.85375800  0.83799800  0.44177600  1
  P  P12  1  0.94395800  0.57857000  0.26498900  1
  P  P13  1  0.44395800  0.92143000  0.73501100  1
  P  P14  1  0.05604200  0.42143000  0.73501100  1
  P  P15  1  0.55604200  0.07857000  0.26498900  1
  P  P16  1  0.22241000  0.62927500  0.08544400  1
  P  P17  1  0.72240900  0.87072500  0.91455600  1
  P  P18  1  0.77759000  0.37072500  0.91455600  1
  P  P19  1  0.27759000  0.12927500  0.08544400  1
  P  P20  1  0.28096100  0.44963500  0.32919400  1
  P  P21  1  0.78096100  0.05036500  0.67080600  1
  P  P22  1  0.71903900  0.55036500  0.67080600  1
  P  P23  1  0.21903900  0.94963500  0.32919400  1
  H  H24  1  0.93821200  0.64615800  0.05709100  1
  H  H25  1  0.43821200  0.85384200  0.94290900  1
  H  H26  1  0.06178800  0.35384200  0.94290900  1
  H  H27  1  0.56178800  0.14615800  0.05709100  1
  H  H28  1  0.25205300  0.39324100  0.15319100  1
  H  H29  1  0.75205300  0.10675900  0.84680900  1
  H  H30  1  0.74794700  0.60675900  0.84680900  1
  H  H31  1  0.24794700  0.89324100  0.15319100  1
  H  H32  1  0.16427200  0.64096200  0.36160100  1
  H  H33  1  0.66427200  0.85903800  0.63839900  1
  H  H34  1  0.83572800  0.35903800  0.63839900  1
  H  H35  1  0.33572800  0.14096200  0.36160100  1
  N  N36  1  0.02058100  0.63330800  0.12585400  1
  N  N37  1  0.52058100  0.86669200  0.87414600  1
  N  N38  1  0.97941900  0.36669200  0.87414600  1
  N  N39  1  0.47941900  0.13330800  0.12585400  1
  N  N40  1  0.30146900  0.47649300  0.17821700  1
  N  N41  1  0.80146900  0.02350700  0.82178300  1
  N  N42  1  0.69853100  0.52350700  0.82178300  1
  N  N43  1  0.19853100  0.97649300  0.17821700  1
  N  N44  1  0.12173900  0.55175500  0.34447000  1
  N  N45  1  0.62173900  0.94824500  0.65553000  1
  N  N46  1  0.87826100  0.44824500  0.65553000  1
  N  N47  1  0.37826100  0.05175500  0.34447000  1
  O  O48  1  0.84911400  0.69380600  0.29580300  1
  O  O49  1  0.34911400  0.80619400  0.70419700  1
  O  O50  1  0.15088600  0.30619400  0.70419700  1
  O  O51  1  0.65088600  0.19380600  0.29580300  1
  O  O52  1  0.84563800  0.44527000  0.27979000  1
  O  O53  1  0.34563800  0.05473000  0.72021000  1
  O  O54  1  0.15436200  0.55473000  0.72021000  1
  O  O55  1  0.65436200  0.94527000  0.27979000  1
  O  O56  1  0.32418100  0.74706900  0.10706800  1
  O  O57  1  0.82418100  0.75293100  0.89293200  1
  O  O58  1  0.67581900  0.25293100  0.89293200  1
  O  O59  1  0.17581900  0.24706900  0.10706800  1
  O  O60  1  0.21766100  0.61545800  0.96204700  1
  O  O61  1  0.71766100  0.88454200  0.03795300  1
  O  O62  1  0.78233900  0.38454200  0.03795300  1
  O  O63  1  0.28233900  0.11545800  0.96204700  1
  O  O64  1  0.43577100  0.50588200  0.37381100  1
  O  O65  1  0.93577100  0.99411800  0.62618900  1
  O  O66  1  0.56422900  0.49411800  0.62618900  1
  O  O67  1  0.06422900  0.00588200  0.37381100  1
  O  O68  1  0.23882000  0.29710000  0.37768500  1
  O  O69  1  0.73882000  0.20290000  0.62231500  1
  O  O70  1  0.76118000  0.70290000  0.62231500  1
  O  O71  1  0.26118000  0.79710000  0.37768500  1
