data_image0
_chemical_formula_structural       Ni2Pr2Si4
_chemical_formula_sum              "Ni2 Pr2 Si4"
_cell_length_a       4.07607
_cell_length_b       4.16925
_cell_length_c       8.50252
_cell_angle_alpha    75.8077
_cell_angle_beta     90
_cell_angle_gamma    90

_space_group_name_H-M_alt    "P 1"
_space_group_IT_number       1

loop_
  _space_group_symop_operation_xyz
  'x, y, z'

loop_
  _atom_site_type_symbol
  _atom_site_label
  _atom_site_symmetry_multiplicity
  _atom_site_fract_x
  _atom_site_fract_y
  _atom_site_fract_z
  _atom_site_occupancy
  Ni  Ni1       1.0  0.75000  0.31800  0.36300  1.0000
  Ni  Ni2       1.0  0.25000  0.68200  0.63700  1.0000
  Pr  Pr1       1.0  0.25000  0.89400  0.21300  1.0000
  Pr  Pr2       1.0  0.75000  0.10600  0.78700  1.0000
  Si  Si1       1.0  0.75000  0.45900  0.08110  1.0000
  Si  Si2       1.0  0.75000  0.75000  0.50000  1.0000
  Si  Si3       1.0  0.25000  0.25000  0.50000  1.0000
  Si  Si4       1.0  0.25000  0.54100  0.91900  1.0000
