# generated using pymatgen
data_Na2U2CoH8(C3O7)4
_symmetry_space_group_name_H-M   'P 1'
_cell_length_a   6.52819420
_cell_length_b   7.91652823
_cell_length_c   13.00557889
_cell_angle_alpha   75.70216312
_cell_angle_beta   84.65154550
_cell_angle_gamma   67.67040280
_symmetry_Int_Tables_number   1
_chemical_formula_structural   Na2U2CoH8(C3O7)4
_chemical_formula_sum   'Na2 U2 Co1 H8 C12 O28'
_cell_volume   602.47708070
_cell_formula_units_Z   1
loop_
 _symmetry_equiv_pos_site_id
 _symmetry_equiv_pos_as_xyz
  1  'x, y, z'
loop_
 _atom_site_type_symbol
 _atom_site_label
 _atom_site_symmetry_multiplicity
 _atom_site_fract_x
 _atom_site_fract_y
 _atom_site_fract_z
 _atom_site_occupancy
  Na  Na0  1  0.74718500  0.83843700  0.79106400  1
  Na  Na1  1  0.25281500  0.16156300  0.20893600  1
  U  U2  1  0.76322300  0.33747300  0.80345000  1
  U  U3  1  0.23677700  0.66252700  0.19655000  1
  Co  Co4  1  0.50000000  0.00000000  0.50000000  1
  H  H5  1  0.91610000  0.85221900  0.57554600  1
  H  H6  1  0.08390000  0.14778100  0.42445400  1
  H  H7  1  0.80624200  0.06058300  0.59369200  1
  H  H8  1  0.19375800  0.93941600  0.40630800  1
  H  H9  1  0.75103300  0.97847100  0.31908000  1
  H  H10  1  0.24896700  0.02152900  0.68092000  1
  H  H11  1  0.64787300  0.19332400  0.32558200  1
  H  H12  1  0.35212700  0.80667600  0.67441800  1
  C  C13  1  0.30921700  0.24993500  0.77394700  1
  C  C14  1  0.69078300  0.75006500  0.22605300  1
  C  C15  1  0.21525200  0.45508500  0.78075900  1
  C  C16  1  0.78474800  0.54491500  0.21924100  1
  C  C17  1  0.80338900  0.38697100  0.54357900  1
  C  C18  1  0.19661100  0.61302900  0.45642100  1
  C  C19  1  0.69663000  0.59028800  0.56061300  1
  C  C20  1  0.30337000  0.40971200  0.43938700  1
  C  C21  1  0.52436700  0.58982400  0.97880700  1
  C  C22  1  0.47563300  0.41017600  0.02119400  1
  C  C23  1  0.97351800  0.93215100  0.97515700  1
  C  C24  1  0.02648200  0.06784900  0.02484300  1
  O  O25  1  0.16938400  0.17678900  0.76667000  1
  O  O26  1  0.83061600  0.82321100  0.23333000  1
  O  O27  1  0.00728800  0.52842600  0.78987100  1
  O  O28  1  0.99271200  0.47157400  0.21012900  1
  O  O29  1  0.35349200  0.53370500  0.77605100  1
  O  O30  1  0.64650800  0.46629500  0.22394900  1
  O  O31  1  0.51748500  0.16916000  0.77472400  1
  O  O32  1  0.48251500  0.83084000  0.22527600  1
  O  O33  1  0.82197600  0.26164100  0.63196900  1
  O  O34  1  0.17802400  0.73835900  0.36803100  1
  O  O35  1  0.68070300  0.59870300  0.65824400  1
  O  O36  1  0.31929700  0.40129700  0.34175600  1
  O  O37  1  0.63314100  0.72868400  0.48290700  1
  O  O38  1  0.36685900  0.27131600  0.51709300  1
  O  O39  1  0.86108400  0.35549100  0.45480500  1
  O  O40  1  0.13891600  0.64450900  0.54519500  1
  O  O41  1  0.63115200  0.59962400  0.89205800  1
  O  O42  1  0.36884800  0.40037600  0.10794200  1
  O  O43  1  0.45652500  0.71300400  0.03255100  1
  O  O44  1  0.54347500  0.28699600  0.96744900  1
  O  O45  1  0.88911500  0.99932100  0.88236300  1
  O  O46  1  0.11088500  0.00067900  0.11763700  1
  O  O47  1  0.01592400  0.76727100  0.02907000  1
  O  O48  1  0.98407600  0.23272900  0.97093000  1
  O  O49  1  0.77808200  0.94451800  0.59814100  1
  O  O50  1  0.22191800  0.05548200  0.40185900  1
  O  O51  1  0.69259500  0.06424100  0.36805800  1
  O  O52  1  0.30740500  0.93575900  0.63194200  1
