# generated using pymatgen
data_B20Te2H9C4
_symmetry_space_group_name_H-M   'P 1'
_cell_length_a   7.61426800
_cell_length_b   11.70888120
_cell_length_c   13.56847409
_cell_angle_alpha   112.79586555
_cell_angle_beta   90.00000000
_cell_angle_gamma   90.00000000
_symmetry_Int_Tables_number   1
_chemical_formula_structural   B20Te2H9C4
_chemical_formula_sum   'B40 Te4 H18 C8'
_cell_volume   1115.20368575
_cell_formula_units_Z   2
loop_
 _symmetry_equiv_pos_site_id
 _symmetry_equiv_pos_as_xyz
  1  'x, y, z'
loop_
 _atom_site_type_symbol
 _atom_site_label
 _atom_site_symmetry_multiplicity
 _atom_site_fract_x
 _atom_site_fract_y
 _atom_site_fract_z
 _atom_site_occupancy
  B  B0  1  0.53061500  0.40777400  0.97575500  1
  B  B1  1  0.46938500  0.40777400  0.47575500  1
  B  B2  1  0.67326600  0.33207200  0.86524700  1
  B  B3  1  0.32673400  0.33207200  0.36524700  1
  B  B4  1  0.83934300  0.44239400  0.86554200  1
  B  B5  1  0.16065700  0.44239400  0.36554200  1
  B  B6  1  0.79659300  0.58359000  0.97642800  1
  B  B7  1  0.20340700  0.58359000  0.47642800  1
  B  B8  1  0.72503600  0.56583700  0.84868500  1
  B  B9  1  0.27496400  0.56583700  0.34868500  1
  B  B10  1  0.58912400  0.64319500  0.95978300  1
  B  B11  1  0.41087600  0.64319500  0.45978300  1
  B  B12  1  0.42465900  0.53437300  0.95893700  1
  B  B13  1  0.57534100  0.53437300  0.45893700  1
  B  B14  1  0.47038100  0.39715000  0.84771300  1
  B  B15  1  0.52961900  0.39715000  0.34771300  1
  B  B16  1  0.65760400  0.41189500  0.77771200  1
  B  B17  1  0.34239600  0.41189500  0.27771200  1
  B  B18  1  0.51209200  0.53285300  0.84004100  1
  B  B19  1  0.48790800  0.53285300  0.34004100  1
  B  B20  1  0.02857000  0.07571700  0.87896500  1
  B  B21  1  0.97143000  0.07571700  0.37896500  1
  B  B22  1  0.95433700  0.92303700  0.90775300  1
  B  B23  1  0.04566300  0.92303700  0.40775300  1
  B  B24  1  0.13802300  0.00535500  0.00361600  1
  B  B25  1  0.86197700  0.00535500  0.50361600  1
  B  B26  1  0.33788500  0.07778000  0.98736500  1
  B  B27  1  0.66211500  0.07778000  0.48736500  1
  B  B28  1  0.29058200  0.99839400  0.83964000  1
  B  B29  1  0.70941800  0.99839400  0.33964000  1
  B  B30  1  0.09298900  0.91171300  0.76730000  1
  B  B31  1  0.90701100  0.91171300  0.26730000  1
  B  B32  1  0.03793500  0.80719400  0.81092800  1
  B  B33  1  0.96206500  0.80719400  0.31092800  1
  B  B34  1  0.14675500  0.85336800  0.92424700  1
  B  B35  1  0.85324500  0.85336800  0.42424700  1
  B  B36  1  0.33810600  0.93619500  0.93398300  1
  B  B37  1  0.66189400  0.93619500  0.43398300  1
  B  B38  1  0.26146800  0.83245200  0.81155200  1
  B  B39  1  0.73853200  0.83245200  0.31155200  1
  Te  Te40  1  0.92501800  0.40203900  0.09388700  1
  Te  Te41  1  0.07498200  0.40203900  0.59388700  1
  Te  Te42  1  0.78894900  0.19402100  0.10178400  1
  Te  Te43  1  0.21105100  0.19402100  0.60178400  1
  H  H44  1  0.60763300  0.59658700  0.12301300  1
  H  H45  1  0.39236700  0.59658700  0.62301300  1
  H  H46  1  0.47688900  0.35932000  0.03194200  1
  H  H47  1  0.52311100  0.35932000  0.53194200  1
  H  H48  1  0.71077700  0.22678400  0.84623500  1
  H  H49  1  0.28922300  0.22678400  0.34623500  1
  H  H50  1  0.98855700  0.41081800  0.84734900  1
  H  H51  1  0.01144300  0.41081800  0.34734900  1
  H  H52  1  0.90951200  0.64476000  0.03304700  1
  H  H53  1  0.09048800  0.64476000  0.53304700  1
  H  H54  1  0.56389200  0.75171700  0.00412500  1
  H  H55  1  0.43610800  0.75171700  0.50412500  1
  H  H56  1  0.28742400  0.56865700  0.00263500  1
  H  H57  1  0.71257600  0.56865700  0.50263500  1
  H  H58  1  0.67421100  0.35918500  0.68318200  1
  H  H59  1  0.32578900  0.35918500  0.18318200  1
  H  H60  1  0.35761000  0.18660600  0.02208700  1
  H  H61  1  0.64239000  0.18660600  0.52208700  1
  C  C62  1  0.75044200  0.44219100  0.98181700  1
  C  C63  1  0.24955800  0.44219100  0.48181700  1
  C  C64  1  0.60964600  0.55648400  0.03585300  1
  C  C65  1  0.39035400  0.55648400  0.53585300  1
  C  C66  1  0.95198100  0.06238300  0.97671400  1
  C  C67  1  0.04801900  0.06238300  0.47671400  1
  C  C68  1  0.14220900  0.04345800  0.78548000  1
  C  C69  1  0.85779100  0.04345800  0.28548000  1
