# generated using pymatgen
data_KVH6SeO9
_symmetry_space_group_name_H-M   'P 1'
_cell_length_a   10.14113900
_cell_length_b   6.46622400
_cell_length_c   6.69985747
_cell_angle_alpha   72.20550549
_cell_angle_beta   90.00000000
_cell_angle_gamma   90.00000000
_symmetry_Int_Tables_number   1
_chemical_formula_structural   KVH6SeO9
_chemical_formula_sum   'K2 V2 H12 Se2 O18'
_cell_volume   418.32364505
_cell_formula_units_Z   2
loop_
 _symmetry_equiv_pos_site_id
 _symmetry_equiv_pos_as_xyz
  1  'x, y, z'
loop_
 _atom_site_type_symbol
 _atom_site_label
 _atom_site_symmetry_multiplicity
 _atom_site_fract_x
 _atom_site_fract_y
 _atom_site_fract_z
 _atom_site_occupancy
  K  K0  1  0.15432200  0.30498700  0.18302800  1
  K  K1  1  0.65432200  0.69501300  0.81697200  1
  V  V2  1  0.00494500  0.61139700  0.61186800  1
  V  V3  1  0.50494500  0.38860300  0.38813200  1
  H  H4  1  0.21162600  0.76422400  0.31391400  1
  H  H5  1  0.71162600  0.23577600  0.68608600  1
  H  H6  1  0.85805300  0.11581500  0.07995500  1
  H  H7  1  0.35805300  0.88418500  0.92004500  1
  H  H8  1  0.86224200  0.98384300  0.31545900  1
  H  H9  1  0.36224200  0.01615700  0.68454100  1
  H  H10  1  0.26735000  0.67302800  0.74501800  1
  H  H11  1  0.76735000  0.32697200  0.25498200  1
  H  H12  1  0.08241200  0.79312300  0.18406900  1
  H  H13  1  0.58241200  0.20687700  0.81593100  1
  H  H14  1  0.77042700  0.53712700  0.33699900  1
  H  H15  1  0.27042700  0.46287300  0.66300100  1
  Se  Se16  1  0.00111700  0.06950000  0.73428400  1
  Se  Se17  1  0.50111700  0.93050000  0.26571600  1
  O  O18  1  0.45284900  0.46308700  0.14277600  1
  O  O19  1  0.95284900  0.53691300  0.85722400  1
  O  O20  1  0.36695000  0.32121300  0.53362800  1
  O  O21  1  0.86695000  0.67878700  0.46637200  1
  O  O22  1  0.71320700  0.45128100  0.27033300  1
  O  O23  1  0.21320700  0.54871900  0.72966700  1
  O  O24  1  0.62475400  0.30544300  0.68865000  1
  O  O25  1  0.12475400  0.69455700  0.31135000  1
  O  O26  1  0.05870900  0.91966100  0.58333800  1
  O  O27  1  0.55870900  0.08033900  0.41666200  1
  O  O28  1  0.03601700  0.32155700  0.56928300  1
  O  O29  1  0.53601700  0.67844300  0.43071700  1
  O  O30  1  0.08553700  0.01778400  0.95412100  1
  O  O31  1  0.58553700  0.98221600  0.04587900  1
  O  O32  1  0.34031400  0.95771700  0.22101900  1
  O  O33  1  0.84031400  0.04228300  0.77898100  1
  O  O34  1  0.86987000  0.13331900  0.21908700  1
  O  O35  1  0.36987000  0.86668100  0.78091300  1
