# generated using pymatgen
data_ScH15C3(SO4)3
_symmetry_space_group_name_H-M   'P 1'
_cell_length_a   11.87934728
_cell_length_b   11.87934728
_cell_length_c   11.87934751
_cell_angle_alpha   73.37473736
_cell_angle_beta   73.37473736
_cell_angle_gamma   73.37474070
_symmetry_Int_Tables_number   1
_chemical_formula_structural   ScH15C3(SO4)3
_chemical_formula_sum   'Sc4 H60 C12 S12 O48'
_cell_volume   1500.60163406
_cell_formula_units_Z   4
loop_
 _symmetry_equiv_pos_site_id
 _symmetry_equiv_pos_as_xyz
  1  'x, y, z'
loop_
 _atom_site_type_symbol
 _atom_site_label
 _atom_site_symmetry_multiplicity
 _atom_site_fract_x
 _atom_site_fract_y
 _atom_site_fract_z
 _atom_site_occupancy
  Sc  Sc0  1  0.00000000  0.00000000  0.00000000  1
  Sc  Sc1  1  0.50000000  0.50000000  0.50000000  1
  Sc  Sc2  1  0.76880100  0.76880100  0.76880100  1
  Sc  Sc3  1  0.23119900  0.23119900  0.23119900  1
  H  H4  1  0.95353600  0.91740100  0.25273900  1
  H  H5  1  0.25273900  0.95353600  0.91740100  1
  H  H6  1  0.91740100  0.25273900  0.95353600  1
  H  H7  1  0.04646400  0.08259900  0.74726100  1
  H  H8  1  0.74726100  0.04646400  0.08259900  1
  H  H9  1  0.08259900  0.74726100  0.04646400  1
  H  H10  1  0.09762900  0.90989000  0.20678200  1
  H  H11  1  0.20678200  0.09762900  0.90989000  1
  H  H12  1  0.90989000  0.20678200  0.09762900  1
  H  H13  1  0.90237100  0.09011000  0.79321800  1
  H  H14  1  0.79321800  0.90237100  0.09011000  1
  H  H15  1  0.09011000  0.79321800  0.90237100  1
  H  H16  1  0.43970800  0.59026300  0.70959200  1
  H  H17  1  0.70959200  0.43970800  0.59026300  1
  H  H18  1  0.59026300  0.70959200  0.43970800  1
  H  H19  1  0.56029200  0.40973700  0.29040800  1
  H  H20  1  0.29040800  0.56029200  0.40973700  1
  H  H21  1  0.40973700  0.29040800  0.56029200  1
  H  H22  1  0.41157300  0.45645500  0.75022200  1
  H  H23  1  0.75022200  0.41157300  0.45645500  1
  H  H24  1  0.45645500  0.75022200  0.41157300  1
  H  H25  1  0.58842700  0.54354500  0.24977800  1
  H  H26  1  0.24977800  0.58842700  0.54354500  1
  H  H27  1  0.54354500  0.24977800  0.58842700  1
  H  H28  1  0.85621800  0.52507400  0.01849600  1
  H  H29  1  0.01849600  0.85621800  0.52507400  1
  H  H30  1  0.52507400  0.01849600  0.85621800  1
  H  H31  1  0.14378200  0.47492600  0.98150400  1
  H  H32  1  0.98150400  0.14378200  0.47492600  1
  H  H33  1  0.47492600  0.98150400  0.14378200  1
  H  H34  1  0.86824500  0.53311400  0.16440600  1
  H  H35  1  0.16440600  0.86824500  0.53311400  1
  H  H36  1  0.53311400  0.16440600  0.86824500  1
  H  H37  1  0.13175500  0.46688600  0.83559400  1
  H  H38  1  0.83559400  0.13175500  0.46688600  1
  H  H39  1  0.46688600  0.83559400  0.13175500  1
  H  H40  1  0.94014100  0.62509600  0.02912900  1
  H  H41  1  0.02912900  0.94014100  0.62509600  1
  H  H42  1  0.62509600  0.02912900  0.94014100  1
  H  H43  1  0.05985900  0.37490400  0.97087100  1
  H  H44  1  0.97087100  0.05985900  0.37490400  1
  H  H45  1  0.37490400  0.97087100  0.05985900  1
  H  H46  1  0.48152900  0.87354800  0.57251700  1
  H  H47  1  0.57251700  0.48152900  0.87354800  1
  H  H48  1  0.87354800  0.57251700  0.48152900  1
  H  H49  1  0.51847100  0.12645200  0.42748300  1
  H  H50  1  0.42748300  0.51847100  0.12645200  1
  H  H51  1  0.12645200  0.42748300  0.51847100  1
  H  H52  1  0.41605400  0.99575100  0.64963800  1
  H  H53  1  0.64963800  0.41605400  0.99575100  1
  H  H54  1  0.99575100  0.64963800  0.41605400  1
  H  H55  1  0.58394600  0.00424900  0.35036200  1
  H  H56  1  0.35036200  0.58394600  0.00424900  1
  H  H57  1  0.00424900  0.35036200  0.58394600  1
  H  H58  1  0.32562800  0.89541700  0.65470600  1
  H  H59  1  0.65470600  0.32562800  0.89541700  1
  H  H60  1  0.89541700  0.65470600  0.32562800  1
  H  H61  1  0.67437200  0.10458300  0.34529400  1
  H  H62  1  0.34529400  0.67437200  0.10458300  1
  H  H63  1  0.10458300  0.34529400  0.67437200  1
  C  C64  1  0.86301700  0.58307500  0.07218100  1
  C  C65  1  0.07218100  0.86301700  0.58307500  1
  C  C66  1  0.58307500  0.07218100  0.86301700  1
  C  C67  1  0.13698300  0.41692500  0.92781900  1
  C  C68  1  0.92781900  0.13698300  0.41692500  1
  C  C69  1  0.41692500  0.92781900  0.13698300  1
  C  C70  1  0.41654500  0.90312600  0.65049000  1
  C  C71  1  0.65049000  0.41654500  0.90312600  1
  C  C72  1  0.90312600  0.65049000  0.41654500  1
  C  C73  1  0.58345500  0.09687400  0.34951000  1
  C  C74  1  0.34951000  0.58345500  0.09687400  1
  C  C75  1  0.09687400  0.34951000  0.58345500  1
  S  S76  1  0.73167000  0.69998100  0.07935500  1
  S  S77  1  0.07935500  0.73167000  0.69998100  1
  S  S78  1  0.69998100  0.07935500  0.73167000  1
  S  S79  1  0.26833000  0.30001900  0.92064500  1
  S  S80  1  0.92064500  0.26833000  0.30001900  1
  S  S81  1  0.30001900  0.92064500  0.26833000  1
  S  S82  1  0.46116100  0.80725400  0.78167100  1
  S  S83  1  0.78167100  0.46116100  0.80725400  1
  S  S84  1  0.80725400  0.78167100  0.46116100  1
  S  S85  1  0.53883900  0.19274600  0.21832900  1
  S  S86  1  0.21832900  0.53883900  0.19274600  1
  S  S87  1  0.19274600  0.21832900  0.53883900  1
  O  O88  1  0.01857000  0.94010400  0.18107400  1
  O  O89  1  0.18107400  0.01857000  0.94010400  1
  O  O90  1  0.94010400  0.18107400  0.01857000  1
  O  O91  1  0.98143000  0.05989600  0.81892600  1
  O  O92  1  0.81892600  0.98143000  0.05989600  1
  O  O93  1  0.05989600  0.81892600  0.98143000  1
  O  O94  1  0.43964700  0.52028900  0.67939200  1
  O  O95  1  0.67939200  0.43964700  0.52028900  1
  O  O96  1  0.52028900  0.67939200  0.43964700  1
  O  O97  1  0.56035300  0.47971100  0.32060800  1
  O  O98  1  0.32060800  0.56035300  0.47971100  1
  O  O99  1  0.47971100  0.32060800  0.56035300  1
  O  O100  1  0.73144400  0.76947300  0.95297500  1
  O  O101  1  0.95297500  0.73144400  0.76947300  1
  O  O102  1  0.76947300  0.95297500  0.73144400  1
  O  O103  1  0.26855600  0.23052700  0.04702500  1
  O  O104  1  0.04702500  0.26855600  0.23052700  1
  O  O105  1  0.23052700  0.04702500  0.26855600  1
  O  O106  1  0.62700300  0.64455100  0.12969200  1
  O  O107  1  0.12969200  0.62700300  0.64455100  1
  O  O108  1  0.64455100  0.12969200  0.62700300  1
  O  O109  1  0.37299700  0.35544900  0.87030800  1
  O  O110  1  0.87030800  0.37299700  0.35544900  1
  O  O111  1  0.35544900  0.87030800  0.37299700  1
  O  O112  1  0.74159800  0.77740500  0.15157700  1
  O  O113  1  0.15157700  0.74159800  0.77740500  1
  O  O114  1  0.77740500  0.15157700  0.74159800  1
  O  O115  1  0.25840200  0.22259500  0.84842300  1
  O  O116  1  0.84842300  0.25840200  0.22259500  1
  O  O117  1  0.22259500  0.84842300  0.25840200  1
  O  O118  1  0.58620700  0.82036200  0.76900600  1
  O  O119  1  0.76900600  0.58620700  0.82036200  1
  O  O120  1  0.82036200  0.76900600  0.58620700  1
  O  O121  1  0.41379300  0.17963800  0.23099400  1
  O  O122  1  0.23099400  0.41379300  0.17963800  1
  O  O123  1  0.17963800  0.23099400  0.41379300  1
  O  O124  1  0.38038300  0.85232300  0.88610400  1
  O  O125  1  0.88610400  0.38038300  0.85232300  1
  O  O126  1  0.85232300  0.88610400  0.38038300  1
  O  O127  1  0.61961700  0.14767700  0.11389600  1
  O  O128  1  0.11389600  0.61961700  0.14767700  1
  O  O129  1  0.14767700  0.11389600  0.61961700  1
  O  O130  1  0.46051200  0.68364100  0.78335200  1
  O  O131  1  0.78335200  0.46051200  0.68364100  1
  O  O132  1  0.68364100  0.78335200  0.46051200  1
  O  O133  1  0.53948800  0.31635900  0.21664800  1
  O  O134  1  0.21664800  0.53948800  0.31635900  1
  O  O135  1  0.31635900  0.21664800  0.53948800  1
