# generated using pymatgen
data_Y2Te3MoO12
_symmetry_space_group_name_H-M   'P 1'
_cell_length_a   5.26594800
_cell_length_b   11.22604400
_cell_length_c   18.00801100
_cell_angle_alpha   90.00000000
_cell_angle_beta   90.00000000
_cell_angle_gamma   90.00000000
_symmetry_Int_Tables_number   1
_chemical_formula_structural   Y2Te3MoO12
_chemical_formula_sum   'Y8 Te12 Mo4 O48'
_cell_volume   1064.55732748
_cell_formula_units_Z   4
loop_
 _symmetry_equiv_pos_site_id
 _symmetry_equiv_pos_as_xyz
  1  'x, y, z'
loop_
 _atom_site_type_symbol
 _atom_site_label
 _atom_site_symmetry_multiplicity
 _atom_site_fract_x
 _atom_site_fract_y
 _atom_site_fract_z
 _atom_site_occupancy
  Y  Y0  1  0.74428800  0.57791800  0.93890600  1
  Y  Y1  1  0.75571200  0.92208200  0.43890600  1
  Y  Y2  1  0.25571200  0.07791800  0.06109400  1
  Y  Y3  1  0.24428800  0.42208200  0.56109400  1
  Y  Y4  1  0.25571200  0.42208200  0.06109400  1
  Y  Y5  1  0.24428800  0.07791800  0.56109400  1
  Y  Y6  1  0.74428800  0.92208200  0.93890600  1
  Y  Y7  1  0.75571200  0.57791800  0.43890600  1
  Te  Te8  1  0.21883400  0.75000000  0.04652100  1
  Te  Te9  1  0.28116600  0.75000000  0.54652100  1
  Te  Te10  1  0.78116600  0.25000000  0.95347900  1
  Te  Te11  1  0.71883400  0.25000000  0.45347900  1
  Te  Te12  1  0.22759000  0.41458600  0.83216300  1
  Te  Te13  1  0.27241000  0.08541400  0.33216300  1
  Te  Te14  1  0.77241000  0.91458600  0.16783700  1
  Te  Te15  1  0.72759000  0.58541400  0.66783700  1
  Te  Te16  1  0.77241000  0.58541400  0.16783700  1
  Te  Te17  1  0.72759000  0.91458600  0.66783700  1
  Te  Te18  1  0.22759000  0.08541400  0.83216300  1
  Te  Te19  1  0.27241000  0.41458600  0.33216300  1
  Mo  Mo20  1  0.23904700  0.75000000  0.82191700  1
  Mo  Mo21  1  0.26095300  0.75000000  0.32191700  1
  Mo  Mo22  1  0.76095300  0.25000000  0.17808300  1
  Mo  Mo23  1  0.73904700  0.25000000  0.67808300  1
  O  O24  1  0.98014100  0.75000000  0.96445600  1
  O  O25  1  0.51985900  0.75000000  0.46445600  1
  O  O26  1  0.01985900  0.25000000  0.03554400  1
  O  O27  1  0.48014100  0.25000000  0.53554400  1
  O  O28  1  0.40363000  0.61511500  0.00986900  1
  O  O29  1  0.09637000  0.88488500  0.50986900  1
  O  O30  1  0.59637000  0.11511500  0.99013100  1
  O  O31  1  0.90363000  0.38488500  0.49013100  1
  O  O32  1  0.59637000  0.38488500  0.99013100  1
  O  O33  1  0.90363000  0.11511500  0.49013100  1
  O  O34  1  0.40363000  0.88488500  0.00986900  1
  O  O35  1  0.09637000  0.61511500  0.50986900  1
  O  O36  1  0.07966100  0.43772500  0.92901200  1
  O  O37  1  0.42033900  0.06227500  0.42901200  1
  O  O38  1  0.92033900  0.93772500  0.07098800  1
  O  O39  1  0.57966100  0.56227500  0.57098800  1
  O  O40  1  0.92033900  0.56227500  0.07098800  1
  O  O41  1  0.57966100  0.93772500  0.57098800  1
  O  O42  1  0.07966100  0.06227500  0.92901200  1
  O  O43  1  0.42033900  0.43772500  0.42901200  1
  O  O44  1  0.03748400  0.61879400  0.82964700  1
  O  O45  1  0.46251600  0.88120600  0.32964700  1
  O  O46  1  0.96251600  0.11879400  0.17035300  1
  O  O47  1  0.53748400  0.38120600  0.67035300  1
  O  O48  1  0.96251600  0.38120600  0.17035300  1
  O  O49  1  0.53748400  0.11879400  0.67035300  1
  O  O50  1  0.03748400  0.88120600  0.82964700  1
  O  O51  1  0.46251600  0.61879400  0.32964700  1
  O  O52  1  0.54163200  0.48869900  0.84284400  1
  O  O53  1  0.95836800  0.01130100  0.34284400  1
  O  O54  1  0.45836800  0.98869900  0.15715600  1
  O  O55  1  0.04163200  0.51130100  0.65715600  1
  O  O56  1  0.45836800  0.51130100  0.15715600  1
  O  O57  1  0.04163200  0.98869900  0.65715600  1
  O  O58  1  0.54163200  0.01130100  0.84284400  1
  O  O59  1  0.95836800  0.48869900  0.34284400  1
  O  O60  1  0.35299400  0.25000000  0.85906800  1
  O  O61  1  0.14700600  0.25000000  0.35906800  1
  O  O62  1  0.64700600  0.75000000  0.14093200  1
  O  O63  1  0.85299400  0.75000000  0.64093200  1
  O  O64  1  0.52387700  0.75000000  0.88009700  1
  O  O65  1  0.97612300  0.75000000  0.38009700  1
  O  O66  1  0.47612300  0.25000000  0.11990300  1
  O  O67  1  0.02387700  0.25000000  0.61990300  1
  O  O68  1  0.35173700  0.75000000  0.73014700  1
  O  O69  1  0.14826300  0.75000000  0.23014700  1
  O  O70  1  0.64826300  0.25000000  0.26985300  1
  O  O71  1  0.85173700  0.25000000  0.76985300  1
