# generated using pymatgen
data_V12CoH24C8(NO16)2
_symmetry_space_group_name_H-M   'P 1'
_cell_length_a   6.78602900
_cell_length_b   11.15450903
_cell_length_c   13.89520445
_cell_angle_alpha   81.62904537
_cell_angle_beta   85.48804709
_cell_angle_gamma   84.49679188
_symmetry_Int_Tables_number   1
_chemical_formula_structural   V12CoH24C8(NO16)2
_chemical_formula_sum   'V12 Co1 H24 C8 N2 O32'
_cell_volume   1033.55495146
_cell_formula_units_Z   1
loop_
 _symmetry_equiv_pos_site_id
 _symmetry_equiv_pos_as_xyz
  1  'x, y, z'
loop_
 _atom_site_type_symbol
 _atom_site_label
 _atom_site_symmetry_multiplicity
 _atom_site_fract_x
 _atom_site_fract_y
 _atom_site_fract_z
 _atom_site_occupancy
  V  V0  1  0.72178000  0.93991700  0.10468100  1
  V  V1  1  0.27822000  0.06008300  0.89531900  1
  V  V2  1  0.52599300  0.70041200  0.24215800  1
  V  V3  1  0.47400700  0.29958800  0.75784200  1
  V  V4  1  0.72457500  0.69925900  0.43574300  1
  V  V5  1  0.27542500  0.30074100  0.56425700  1
  V  V6  1  0.24490700  0.61000100  0.46203300  1
  V  V7  1  0.75509300  0.38999900  0.53796700  1
  V  V8  1  0.24989400  0.82516300  0.08632200  1
  V  V9  1  0.75010600  0.17483700  0.91367800  1
  V  V10  1  0.00633700  0.80475200  0.28036700  1
  V  V11  1  0.99366300  0.19524800  0.71963300  1
  Co  Co12  1  0.50000000  0.00000000  0.50000000  1
  H  H13  1  0.19328500  0.14891800  0.15432000  1
  H  H14  1  0.80671500  0.85108200  0.84568000  1
  H  H15  1  0.04427200  0.19016800  0.25855600  1
  H  H16  1  0.95572800  0.80983200  0.74144400  1
  H  H17  1  0.95838800  0.23533800  0.13786900  1
  H  H18  1  0.04161200  0.76466200  0.86213100  1
  H  H19  1  0.47310200  0.24503100  0.20633500  1
  H  H20  1  0.52689800  0.75496900  0.79366500  1
  H  H21  1  0.42890600  0.39758200  0.23579800  1
  H  H22  1  0.57109400  0.60241800  0.76420200  1
  H  H23  1  0.31336600  0.27426000  0.31082900  1
  H  H24  1  0.68663400  0.72574000  0.68917100  1
  H  H25  1  0.13166200  0.51593200  0.19699300  1
  H  H26  1  0.86833800  0.48406800  0.80300700  1
  H  H27  1  0.92405800  0.44865000  0.16062700  1
  H  H28  1  0.07594200  0.55135000  0.83937300  1
  H  H29  1  0.00076300  0.40886400  0.28217800  1
  H  H30  1  0.99923700  0.59113600  0.71782200  1
  H  H31  1  0.18374800  0.45113300  0.03705000  1
  H  H32  1  0.81625200  0.54886700  0.96295000  1
  H  H33  1  0.42540400  0.38647300  0.06850000  1
  H  H34  1  0.57459600  0.61352700  0.93150000  1
  H  H35  1  0.25775600  0.29493000  0.02690700  1
  H  H36  1  0.74224400  0.70507000  0.97309300  1
  C  C37  1  0.08803000  0.21865700  0.18176900  1
  C  C38  1  0.91197000  0.78134300  0.81823100  1
  C  C39  1  0.36470100  0.31092700  0.23680000  1
  C  C40  1  0.63529900  0.68907300  0.76320000  1
  C  C41  1  0.05158500  0.43392300  0.20575000  1
  C  C42  1  0.94841500  0.56607700  0.79425000  1
  C  C43  1  0.26962800  0.36919700  0.06886800  1
  C  C44  1  0.73037200  0.63080300  0.93113200  1
  N  N45  1  0.19188600  0.33317000  0.17324700  1
  N  N46  1  0.80811400  0.66683000  0.82675300  1
  O  O47  1  0.75701800  0.54742800  0.52387900  1
  O  O48  1  0.24298200  0.45257200  0.47612100  1
  O  O49  1  0.02336800  0.68538900  0.39857200  1
  O  O50  1  0.97663200  0.31461100  0.60142800  1
  O  O51  1  0.46902300  0.65651600  0.38895500  1
  O  O52  1  0.53097700  0.34348400  0.61104500  1
  O  O53  1  0.24151400  0.73850000  0.22476600  1
  O  O54  1  0.75848600  0.26150000  0.77523400  1
  O  O55  1  0.96710600  0.86408000  0.14013800  1
  O  O56  1  0.03289400  0.13592000  0.85986200  1
  O  O57  1  0.24465700  0.65180600  0.56915300  1
  O  O58  1  0.75534300  0.34819400  0.43084700  1
  O  O59  1  0.66842200  0.81081400  0.50064600  1
  O  O60  1  0.33157800  0.18918600  0.49935400  1
  O  O61  1  0.74429300  0.01080200  0.98513900  1
  O  O62  1  0.25570700  0.98919800  0.01486100  1
  O  O63  1  0.53578400  0.82668000  0.12032600  1
  O  O64  1  0.46421600  0.17332000  0.87967400  1
  O  O65  1  0.65288300  0.04175200  0.17596000  1
  O  O66  1  0.34711700  0.95824800  0.82404000  1
  O  O67  1  0.03666100  0.92978800  0.32004700  1
  O  O68  1  0.96333900  0.07021200  0.67995300  1
  O  O69  1  0.60188800  0.57313100  0.20021200  1
  O  O70  1  0.39811200  0.42686900  0.79978800  1
  O  O71  1  0.74266500  0.76981800  0.29412600  1
  O  O72  1  0.25733500  0.23018200  0.70587400  1
  O  O73  1  0.24360900  0.72639600  0.01063900  1
  O  O74  1  0.75639100  0.27360400  0.98936100  1
  O  O75  1  0.56861200  0.00522000  0.61796600  1
  O  O76  1  0.43138800  0.99478000  0.38203400  1
  O  O77  1  0.71499100  0.06741200  0.45243400  1
  O  O78  1  0.28500900  0.93258800  0.54756600  1
