# generated using pymatgen
data_KU2(B5O12)2
_symmetry_space_group_name_H-M   'P 1'
_cell_length_a   6.52879473
_cell_length_b   6.52879473
_cell_length_c   25.72660615
_cell_angle_alpha   93.47453465
_cell_angle_beta   93.47453465
_cell_angle_gamma   119.63058102
_symmetry_Int_Tables_number   1
_chemical_formula_structural   KU2(B5O12)2
_chemical_formula_sum   'K2 U4 B20 O48'
_cell_volume   946.24954493
_cell_formula_units_Z   2
loop_
 _symmetry_equiv_pos_site_id
 _symmetry_equiv_pos_as_xyz
  1  'x, y, z'
loop_
 _atom_site_type_symbol
 _atom_site_label
 _atom_site_symmetry_multiplicity
 _atom_site_fract_x
 _atom_site_fract_y
 _atom_site_fract_z
 _atom_site_occupancy
  K  K0  1  0.24515000  0.75485000  0.75000000  1
  K  K1  1  0.75485000  0.24515000  0.25000000  1
  U  U2  1  0.77191400  0.06362600  0.90321300  1
  U  U3  1  0.93637400  0.22808600  0.59678700  1
  U  U4  1  0.22808600  0.93637400  0.09678700  1
  U  U5  1  0.06362600  0.77191400  0.40321300  1
  B  B6  1  0.09330300  0.71878900  0.90124100  1
  B  B7  1  0.28121100  0.90669700  0.59875900  1
  B  B8  1  0.90669700  0.28121100  0.09875900  1
  B  B9  1  0.71878900  0.09330300  0.40124100  1
  B  B10  1  0.30254000  0.27976600  0.79693900  1
  B  B11  1  0.72023400  0.69746000  0.70306100  1
  B  B12  1  0.69746000  0.72023400  0.20306100  1
  B  B13  1  0.27976600  0.30254000  0.29693900  1
  B  B14  1  0.34200400  0.53453900  0.87444600  1
  B  B15  1  0.46546100  0.65799600  0.62555400  1
  B  B16  1  0.65799600  0.46546100  0.12555400  1
  B  B17  1  0.53453900  0.34200400  0.37444600  1
  B  B18  1  0.66688000  0.47871600  0.92405800  1
  B  B19  1  0.52128400  0.33312000  0.57594200  1
  B  B20  1  0.33312000  0.52128400  0.07594200  1
  B  B21  1  0.47871600  0.66688000  0.42405800  1
  B  B22  1  0.26762100  0.14003200  0.88429200  1
  B  B23  1  0.85996800  0.73237900  0.61570800  1
  B  B24  1  0.73237900  0.85996800  0.11570800  1
  B  B25  1  0.14003200  0.26762100  0.38429200  1
  O  O26  1  0.80205800  0.08068400  0.97295000  1
  O  O27  1  0.91931600  0.19794200  0.52705000  1
  O  O28  1  0.19794200  0.91931600  0.02705000  1
  O  O29  1  0.08068400  0.80205800  0.47295000  1
  O  O30  1  0.73325100  0.05017700  0.83343500  1
  O  O31  1  0.94982300  0.26674900  0.66656500  1
  O  O32  1  0.26674900  0.94982300  0.16656500  1
  O  O33  1  0.05017700  0.73325100  0.33343500  1
  O  O34  1  0.50570500  0.22378400  0.91152800  1
  O  O35  1  0.77621600  0.49429500  0.58847200  1
  O  O36  1  0.49429500  0.77621600  0.08847200  1
  O  O37  1  0.22378400  0.50570500  0.41152800  1
  O  O38  1  0.68385900  0.56093600  0.97913400  1
  O  O39  1  0.43906400  0.31614100  0.52086600  1
  O  O40  1  0.31614100  0.43906400  0.02086600  1
  O  O41  1  0.56093600  0.68385900  0.47913400  1
  O  O42  1  0.19056400  0.31412700  0.89622700  1
  O  O43  1  0.68587300  0.80943600  0.60377300  1
  O  O44  1  0.80943600  0.68587300  0.10377300  1
  O  O45  1  0.31412700  0.19056400  0.39622700  1
  O  O46  1  0.89132400  0.71346000  0.67221000  1
  O  O47  1  0.28654000  0.10867600  0.82779000  1
  O  O48  1  0.10867600  0.28654000  0.32779000  1
  O  O49  1  0.71346000  0.89132400  0.17221000  1
  O  O50  1  0.29988100  0.72899500  0.88883200  1
  O  O51  1  0.27100500  0.70011900  0.61116800  1
  O  O52  1  0.70011900  0.27100500  0.11116800  1
  O  O53  1  0.72899500  0.29988100  0.38883200  1
  O  O54  1  0.08003400  0.92232900  0.90179500  1
  O  O55  1  0.07767100  0.91996600  0.59820500  1
  O  O56  1  0.91996600  0.07767100  0.09820500  1
  O  O57  1  0.92232900  0.08003400  0.40179500  1
  O  O58  1  0.89969100  0.50941500  0.91124000  1
  O  O59  1  0.49058500  0.10030900  0.58876000  1
  O  O60  1  0.10030900  0.49058500  0.08876000  1
  O  O61  1  0.50941500  0.89969100  0.41124000  1
  O  O62  1  0.59740300  0.62878800  0.89643800  1
  O  O63  1  0.37121200  0.40259700  0.60356200  1
  O  O64  1  0.40259700  0.37121200  0.10356200  1
  O  O65  1  0.62878800  0.59740300  0.39643800  1
  O  O66  1  0.32800300  0.49290500  0.81716900  1
  O  O67  1  0.50709500  0.67199700  0.68283100  1
  O  O68  1  0.67199700  0.50709500  0.18283100  1
  O  O69  1  0.49290500  0.32800300  0.31716900  1
  O  O70  1  0.28565000  0.22044100  0.74432200  1
  O  O71  1  0.77955900  0.71435000  0.75567800  1
  O  O72  1  0.71435000  0.77955900  0.25567800  1
  O  O73  1  0.22044100  0.28565000  0.24432200  1
