# generated using pymatgen
data_ZnH12S2(NO2)4
_symmetry_space_group_name_H-M   'P 1'
_cell_length_a   10.77836300
_cell_length_b   13.44796800
_cell_length_c   8.36505200
_cell_angle_alpha   90.00000000
_cell_angle_beta   90.00000000
_cell_angle_gamma   90.00000000
_symmetry_Int_Tables_number   1
_chemical_formula_structural   ZnH12S2(NO2)4
_chemical_formula_sum   'Zn4 H48 S8 N16 O32'
_cell_volume   1212.48986744
_cell_formula_units_Z   4
loop_
 _symmetry_equiv_pos_site_id
 _symmetry_equiv_pos_as_xyz
  1  'x, y, z'
loop_
 _atom_site_type_symbol
 _atom_site_label
 _atom_site_symmetry_multiplicity
 _atom_site_fract_x
 _atom_site_fract_y
 _atom_site_fract_z
 _atom_site_occupancy
  Zn  Zn0  1  0.78190400  0.39922900  0.49606200  1
  Zn  Zn1  1  0.21809600  0.60077100  0.99606200  1
  Zn  Zn2  1  0.71809600  0.89922900  0.99606200  1
  Zn  Zn3  1  0.28190400  0.10077100  0.49606200  1
  H  H4  1  0.75982800  0.58126600  0.59355000  1
  H  H5  1  0.24017200  0.41873400  0.09355000  1
  H  H6  1  0.74017200  0.08126600  0.09355000  1
  H  H7  1  0.25982800  0.91873400  0.59355000  1
  H  H8  1  0.89304200  0.56674600  0.50215600  1
  H  H9  1  0.10695800  0.43325400  0.00215600  1
  H  H10  1  0.60695800  0.06674600  0.00215600  1
  H  H11  1  0.39304200  0.93325400  0.50215600  1
  H  H12  1  0.76431200  0.58132800  0.39606200  1
  H  H13  1  0.23568800  0.41867200  0.89606200  1
  H  H14  1  0.73568800  0.08132800  0.89606200  1
  H  H15  1  0.26431200  0.91867200  0.39606200  1
  H  H16  1  0.83466600  0.36911000  0.19988300  1
  H  H17  1  0.16533400  0.63089000  0.69988300  1
  H  H18  1  0.66533400  0.86911000  0.69988300  1
  H  H19  1  0.33466600  0.13089000  0.19988300  1
  H  H20  1  0.96231600  0.35369600  0.30388100  1
  H  H21  1  0.03768400  0.64630400  0.80388100  1
  H  H22  1  0.53768400  0.85369600  0.80388100  1
  H  H23  1  0.46231600  0.14630400  0.30388100  1
  H  H24  1  0.85917500  0.26375200  0.29363000  1
  H  H25  1  0.14082500  0.73624800  0.79363000  1
  H  H26  1  0.64082500  0.76375200  0.79363000  1
  H  H27  1  0.35917500  0.23624800  0.29363000  1
  H  H28  1  0.55014900  0.39125400  0.58125400  1
  H  H29  1  0.44985100  0.60874600  0.08125400  1
  H  H30  1  0.94985100  0.89125400  0.08125400  1
  H  H31  1  0.05014900  0.10874600  0.58125400  1
  H  H32  1  0.55948000  0.38931200  0.38181200  1
  H  H33  1  0.44052000  0.61068800  0.88181200  1
  H  H34  1  0.94052000  0.88931200  0.88181200  1
  H  H35  1  0.05948000  0.11068800  0.38181200  1
  H  H36  1  0.59284300  0.28858700  0.48489400  1
  H  H37  1  0.40715700  0.71141300  0.98489400  1
  H  H38  1  0.90715700  0.78858700  0.98489400  1
  H  H39  1  0.09284300  0.21141300  0.48489400  1
  H  H40  1  0.80626500  0.36233200  0.79838100  1
  H  H41  1  0.19373500  0.63766800  0.29838100  1
  H  H42  1  0.69373500  0.86233200  0.29838100  1
  H  H43  1  0.30626500  0.13766800  0.79838100  1
  H  H44  1  0.84184200  0.26235700  0.69914800  1
  H  H45  1  0.15815800  0.73764300  0.19914800  1
  H  H46  1  0.65815800  0.76235700  0.19914800  1
  H  H47  1  0.34184200  0.23764300  0.69914800  1
  H  H48  1  0.94501500  0.35338100  0.71457200  1
  H  H49  1  0.05498500  0.64661900  0.21457200  1
  H  H50  1  0.55498500  0.85338100  0.21457200  1
  H  H51  1  0.44501500  0.14661900  0.71457200  1
  S  S52  1  0.82732000  0.56989100  0.98441700  1
  S  S53  1  0.17268000  0.43010900  0.48441700  1
  S  S54  1  0.67268000  0.06989100  0.48441700  1
  S  S55  1  0.32732000  0.93010900  0.98441700  1
  S  S56  1  0.56908700  0.36682300  0.00117800  1
  S  S57  1  0.43091300  0.63317700  0.50117800  1
  S  S58  1  0.93091300  0.86682300  0.50117800  1
  S  S59  1  0.06908700  0.13317700  0.00117800  1
  N  N60  1  0.80082300  0.54876400  0.49636300  1
  N  N61  1  0.19917700  0.45123600  0.99636300  1
  N  N62  1  0.69917700  0.04876400  0.99636300  1
  N  N63  1  0.30082300  0.95123600  0.49636300  1
  N  N64  1  0.86841500  0.33922100  0.30393200  1
  N  N65  1  0.13158500  0.66077900  0.80393200  1
  N  N66  1  0.63158500  0.83922100  0.80393200  1
  N  N67  1  0.36841500  0.16077900  0.30393200  1
  N  N68  1  0.59952500  0.36443700  0.48578200  1
  N  N69  1  0.40047500  0.63556300  0.98578200  1
  N  N70  1  0.90047500  0.86443700  0.98578200  1
  N  N71  1  0.09952500  0.13556300  0.48578200  1
  N  N72  1  0.85292300  0.33810900  0.69853300  1
  N  N73  1  0.14707700  0.66189100  0.19853300  1
  N  N74  1  0.64707700  0.83810900  0.19853300  1
  N  N75  1  0.35292300  0.16189100  0.69853300  1
  O  O76  1  0.68983100  0.52716400  0.92288300  1
  O  O77  1  0.31016900  0.47283600  0.42288300  1
  O  O78  1  0.81016900  0.02716400  0.42288300  1
  O  O79  1  0.18983100  0.97283600  0.92288300  1
  O  O80  1  0.62644200  0.47852900  0.06281700  1
  O  O81  1  0.37355800  0.52147100  0.56281700  1
  O  O82  1  0.87355800  0.97852900  0.56281700  1
  O  O83  1  0.12644200  0.02147100  0.06281700  1
  O  O84  1  0.86024500  0.62184800  0.83592700  1
  O  O85  1  0.13975500  0.37815200  0.33592700  1
  O  O86  1  0.63975500  0.12184800  0.33592700  1
  O  O87  1  0.36024500  0.87815200  0.83592700  1
  O  O88  1  0.90472600  0.48370700  0.02107400  1
  O  O89  1  0.09527400  0.51629300  0.52107400  1
  O  O90  1  0.59527400  0.98370700  0.52107400  1
  O  O91  1  0.40472600  0.01629300  0.02107400  1
  O  O92  1  0.80380500  0.63528100  0.12001300  1
  O  O93  1  0.19619500  0.36471900  0.62001300  1
  O  O94  1  0.69619500  0.13528100  0.62001300  1
  O  O95  1  0.30380500  0.86471900  0.12001300  1
  O  O96  1  0.48834000  0.38860200  0.86640400  1
  O  O97  1  0.51166000  0.61139800  0.36640400  1
  O  O98  1  0.01166000  0.88860200  0.36640400  1
  O  O99  1  0.98834000  0.11139800  0.86640400  1
  O  O100  1  0.67707500  0.30572100  0.96336800  1
  O  O101  1  0.32292500  0.69427900  0.46336800  1
  O  O102  1  0.82292500  0.80572100  0.46336800  1
  O  O103  1  0.17707500  0.19427900  0.96336800  1
  O  O104  1  0.50677900  0.34328900  0.15142200  1
  O  O105  1  0.49322100  0.65671100  0.65142200  1
  O  O106  1  0.99322100  0.84328900  0.65142200  1
  O  O107  1  0.00677900  0.15671100  0.15142200  1
