# generated using pymatgen
data_H2Pd(S2O7)2
_symmetry_space_group_name_H-M   'P 1'
_cell_length_a   7.01374700
_cell_length_b   9.52516500
_cell_length_c   9.55079672
_cell_angle_alpha   62.02208931
_cell_angle_beta   90.00000000
_cell_angle_gamma   90.00000000
_symmetry_Int_Tables_number   1
_chemical_formula_structural   H2Pd(S2O7)2
_chemical_formula_sum   'H4 Pd2 S8 O28'
_cell_volume   563.48987476
_cell_formula_units_Z   2
loop_
 _symmetry_equiv_pos_site_id
 _symmetry_equiv_pos_as_xyz
  1  'x, y, z'
loop_
 _atom_site_type_symbol
 _atom_site_label
 _atom_site_symmetry_multiplicity
 _atom_site_fract_x
 _atom_site_fract_y
 _atom_site_fract_z
 _atom_site_occupancy
  H  H0  1  0.29057300  0.94187600  0.46244600  1
  H  H1  1  0.79057300  0.55812400  0.53755400  1
  H  H2  1  0.70942700  0.05812400  0.53755400  1
  H  H3  1  0.20942700  0.44187600  0.46244600  1
  Pd  Pd4  1  0.00000000  0.00000000  0.00000000  1
  Pd  Pd5  1  0.50000000  0.50000000  0.00000000  1
  S  S6  1  0.67765800  0.11583300  0.19965600  1
  S  S7  1  0.17765800  0.38416700  0.80034400  1
  S  S8  1  0.32234200  0.88416700  0.80034400  1
  S  S9  1  0.82234200  0.61583300  0.19965600  1
  S  S10  1  0.36172800  0.89118400  0.27159300  1
  S  S11  1  0.86172800  0.60881600  0.72840700  1
  S  S12  1  0.63827200  0.10881600  0.72840700  1
  S  S13  1  0.13827200  0.39118400  0.27159300  1
  O  O14  1  0.84373000  0.02622800  0.19335000  1
  O  O15  1  0.34373000  0.47377200  0.80665000  1
  O  O16  1  0.15627000  0.97377200  0.80665000  1
  O  O17  1  0.65627000  0.52622800  0.19335000  1
  O  O18  1  0.63230000  0.09337800  0.35633300  1
  O  O19  1  0.13230000  0.40662200  0.64366700  1
  O  O20  1  0.36770000  0.90662200  0.64366700  1
  O  O21  1  0.86770000  0.59337800  0.35633300  1
  O  O22  1  0.67174500  0.27804400  0.06989900  1
  O  O23  1  0.17174500  0.22195600  0.93010100  1
  O  O24  1  0.32825500  0.72195600  0.93010100  1
  O  O25  1  0.82825500  0.77804400  0.06989900  1
  O  O26  1  0.24064300  0.96637300  0.35443900  1
  O  O27  1  0.74064300  0.53362700  0.64556100  1
  O  O28  1  0.75935700  0.03362700  0.64556100  1
  O  O29  1  0.25935700  0.46637300  0.35443900  1
  O  O30  1  0.47844800  0.76290200  0.37894900  1
  O  O31  1  0.97844800  0.73709800  0.62105100  1
  O  O32  1  0.52155200  0.23709800  0.62105100  1
  O  O33  1  0.02155200  0.26290200  0.37894900  1
  O  O34  1  0.23455300  0.86298800  0.16768000  1
  O  O35  1  0.73455300  0.63701200  0.83232000  1
  O  O36  1  0.76544700  0.13701200  0.83232000  1
  O  O37  1  0.26544700  0.36298800  0.16768000  1
  O  O38  1  0.49036100  0.03659400  0.14691800  1
  O  O39  1  0.99036100  0.46340600  0.85308200  1
  O  O40  1  0.50963900  0.96340600  0.85308200  1
  O  O41  1  0.00963900  0.53659400  0.14691800  1
