# generated using pymatgen
data_FeN2Cl5O
_symmetry_space_group_name_H-M   'P 1'
_cell_length_a   6.90280300
_cell_length_b   7.43131800
_cell_length_c   16.55461600
_cell_angle_alpha   90.00000000
_cell_angle_beta   90.00000000
_cell_angle_gamma   90.00000000
_symmetry_Int_Tables_number   1
_chemical_formula_structural   FeN2Cl5O
_chemical_formula_sum   'Fe4 N8 Cl20 O4'
_cell_volume   849.20088185
_cell_formula_units_Z   4
loop_
 _symmetry_equiv_pos_site_id
 _symmetry_equiv_pos_as_xyz
  1  'x, y, z'
loop_
 _atom_site_type_symbol
 _atom_site_label
 _atom_site_symmetry_multiplicity
 _atom_site_fract_x
 _atom_site_fract_y
 _atom_site_fract_z
 _atom_site_occupancy
  Fe  Fe0  1  0.25000000  0.12800400  0.64931900  1
  Fe  Fe1  1  0.25000000  0.37199600  0.14931900  1
  Fe  Fe2  1  0.75000000  0.87199600  0.35068100  1
  Fe  Fe3  1  0.75000000  0.62800400  0.85068100  1
  N  N4  1  0.04335900  0.14770700  0.89168500  1
  N  N5  1  0.45664100  0.35229300  0.39168500  1
  N  N6  1  0.54335900  0.85229300  0.10831500  1
  N  N7  1  0.95664100  0.64770700  0.60831500  1
  N  N8  1  0.95664100  0.85229300  0.10831500  1
  N  N9  1  0.54335900  0.64770700  0.60831500  1
  N  N10  1  0.45664100  0.14770700  0.89168500  1
  N  N11  1  0.04335900  0.35229300  0.39168500  1
  Cl  Cl12  1  0.25000000  0.37072000  0.41410300  1
  Cl  Cl13  1  0.25000000  0.12928000  0.91410300  1
  Cl  Cl14  1  0.75000000  0.62928000  0.58589700  1
  Cl  Cl15  1  0.75000000  0.87072000  0.08589700  1
  Cl  Cl16  1  0.25000000  0.33965600  0.74439400  1
  Cl  Cl17  1  0.25000000  0.16034400  0.24439400  1
  Cl  Cl18  1  0.75000000  0.66034400  0.25560600  1
  Cl  Cl19  1  0.75000000  0.83965600  0.75560600  1
  Cl  Cl20  1  0.25000000  0.84278400  0.69556500  1
  Cl  Cl21  1  0.25000000  0.65721600  0.19556500  1
  Cl  Cl22  1  0.75000000  0.15721600  0.30443500  1
  Cl  Cl23  1  0.75000000  0.34278400  0.80443500  1
  Cl  Cl24  1  0.93777400  0.15932400  0.58866600  1
  Cl  Cl25  1  0.56222600  0.34067600  0.08866600  1
  Cl  Cl26  1  0.43777400  0.84067600  0.41133400  1
  Cl  Cl27  1  0.06222600  0.65932400  0.91133400  1
  Cl  Cl28  1  0.06222600  0.84067600  0.41133400  1
  Cl  Cl29  1  0.43777400  0.65932400  0.91133400  1
  Cl  Cl30  1  0.56222600  0.15932400  0.58866600  1
  Cl  Cl31  1  0.93777400  0.34067600  0.08866600  1
  O  O32  1  0.25000000  0.16723800  0.53875600  1
  O  O33  1  0.25000000  0.33276200  0.03875600  1
  O  O34  1  0.75000000  0.83276200  0.46124400  1
  O  O35  1  0.75000000  0.66723800  0.96124400  1
