# generated using pymatgen
data_Nd4In8Ni7
_symmetry_space_group_name_H-M   'P 1'
_cell_length_a   4.34521100
_cell_length_b   14.13588466
_cell_length_c   14.13588466
_cell_angle_alpha   117.21858589
_cell_angle_beta   90.00000000
_cell_angle_gamma   90.00000000
_symmetry_Int_Tables_number   1
_chemical_formula_structural   Nd4In8Ni7
_chemical_formula_sum   'Nd8 In16 Ni14'
_cell_volume   772.12843361
_cell_formula_units_Z   2
loop_
 _symmetry_equiv_pos_site_id
 _symmetry_equiv_pos_as_xyz
  1  'x, y, z'
loop_
 _atom_site_type_symbol
 _atom_site_label
 _atom_site_symmetry_multiplicity
 _atom_site_fract_x
 _atom_site_fract_y
 _atom_site_fract_z
 _atom_site_occupancy
  Nd  Nd0  1  0.00000000  0.81578000  0.81578000  1
  Nd  Nd1  1  0.00000000  0.18422000  0.18422000  1
  Nd  Nd2  1  0.00000000  0.00494800  0.65173200  1
  Nd  Nd3  1  0.00000000  0.99505200  0.34826800  1
  Nd  Nd4  1  0.00000000  0.65173200  0.00494800  1
  Nd  Nd5  1  0.00000000  0.34826800  0.99505200  1
  Nd  Nd6  1  0.50000000  0.60561100  0.39438900  1
  Nd  Nd7  1  0.50000000  0.39438900  0.60561100  1
  In  In8  1  0.50000000  0.18945500  0.81054500  1
  In  In9  1  0.50000000  0.81054500  0.18945500  1
  In  In10  1  0.00000000  0.08709600  0.91290400  1
  In  In11  1  0.00000000  0.91290400  0.08709600  1
  In  In12  1  0.50000000  0.55738000  0.12540100  1
  In  In13  1  0.50000000  0.44262000  0.87459900  1
  In  In14  1  0.50000000  0.12540100  0.55738000  1
  In  In15  1  0.50000000  0.87459900  0.44262000  1
  In  In16  1  0.50000000  0.00000000  0.00000000  1
  In  In17  1  0.00000000  0.50000000  0.50000000  1
  In  In18  1  0.50000000  0.18133100  0.36900500  1
  In  In19  1  0.50000000  0.81866900  0.63099500  1
  In  In20  1  0.50000000  0.36900500  0.18133100  1
  In  In21  1  0.50000000  0.63099500  0.81866900  1
  In  In22  1  0.00000000  0.72260000  0.27740000  1
  In  In23  1  0.00000000  0.27740000  0.72260000  1
  Ni  Ni24  1  0.50000000  0.99841700  0.80929600  1
  Ni  Ni25  1  0.50000000  0.00158300  0.19070400  1
  Ni  Ni26  1  0.50000000  0.80929600  0.99841700  1
  Ni  Ni27  1  0.50000000  0.19070400  0.00158300  1
  Ni  Ni28  1  0.00000000  0.41051600  0.30194800  1
  Ni  Ni29  1  0.00000000  0.58948400  0.69805200  1
  Ni  Ni30  1  0.00000000  0.30194800  0.41051600  1
  Ni  Ni31  1  0.00000000  0.69805200  0.58948400  1
  Ni  Ni32  1  0.50000000  0.37805900  0.37805900  1
  Ni  Ni33  1  0.50000000  0.62194100  0.62194100  1
  Ni  Ni34  1  0.00000000  0.20832300  0.51557400  1
  Ni  Ni35  1  0.00000000  0.79167700  0.48442600  1
  Ni  Ni36  1  0.00000000  0.51557400  0.20832300  1
  Ni  Ni37  1  0.00000000  0.48442600  0.79167700  1
