# generated using pymatgen
data_CoBH18N6(ClF2)2
_symmetry_space_group_name_H-M   'P 1'
_cell_length_a   7.57648400
_cell_length_b   12.38908400
_cell_length_c   13.72978244
_cell_angle_alpha   70.30126575
_cell_angle_beta   90.00000000
_cell_angle_gamma   90.00000000
_symmetry_Int_Tables_number   1
_chemical_formula_structural   CoBH18N6(ClF2)2
_chemical_formula_sum   'Co4 B4 H72 N24 Cl8 F16'
_cell_volume   1213.33502887
_cell_formula_units_Z   4
loop_
 _symmetry_equiv_pos_site_id
 _symmetry_equiv_pos_as_xyz
  1  'x, y, z'
loop_
 _atom_site_type_symbol
 _atom_site_label
 _atom_site_symmetry_multiplicity
 _atom_site_fract_x
 _atom_site_fract_y
 _atom_site_fract_z
 _atom_site_occupancy
  Co  Co0  1  0.00000000  0.00000000  0.50000000  1
  Co  Co1  1  0.50000000  0.50000000  0.50000000  1
  Co  Co2  1  0.00000000  0.50000000  0.00000000  1
  Co  Co3  1  0.50000000  0.00000000  0.00000000  1
  B  B4  1  0.95599400  0.27062700  0.70241100  1
  B  B5  1  0.45599400  0.22937300  0.29758900  1
  B  B6  1  0.04400600  0.72937300  0.29758900  1
  B  B7  1  0.54400600  0.77062700  0.70241100  1
  H  H8  1  0.70311800  0.09931400  0.49673100  1
  H  H9  1  0.20311800  0.40068600  0.50326900  1
  H  H10  1  0.29688200  0.90068600  0.50326900  1
  H  H11  1  0.79688200  0.59931400  0.49673100  1
  H  H12  1  0.70685600  0.97892900  0.59464800  1
  H  H13  1  0.20685600  0.52107100  0.40535200  1
  H  H14  1  0.29314400  0.02107100  0.40535200  1
  H  H15  1  0.79314400  0.47892900  0.59464800  1
  H  H16  1  0.80919600  0.09077600  0.60417700  1
  H  H17  1  0.30919600  0.40922400  0.39582300  1
  H  H18  1  0.19080400  0.90922400  0.39582300  1
  H  H19  1  0.69080400  0.59077600  0.60417700  1
  H  H20  1  0.24798500  0.14101600  0.49251100  1
  H  H21  1  0.74798500  0.35898400  0.50748900  1
  H  H22  1  0.75201500  0.85898400  0.50748900  1
  H  H23  1  0.25201500  0.64101600  0.49251100  1
  H  H24  1  0.07098600  0.21451600  0.43135100  1
  H  H25  1  0.57098600  0.28548400  0.56864900  1
  H  H26  1  0.92901400  0.78548400  0.56864900  1
  H  H27  1  0.42901400  0.71451600  0.43135100  1
  H  H28  1  0.08520500  0.16593600  0.55889300  1
  H  H29  1  0.58520500  0.33406400  0.44110700  1
  H  H30  1  0.91479500  0.83406400  0.44110700  1
  H  H31  1  0.41479500  0.66593600  0.55889300  1
  H  H32  1  0.00074800  0.06755400  0.30148000  1
  H  H33  1  0.50074800  0.43244600  0.69852000  1
  H  H34  1  0.99925200  0.93244600  0.69852000  1
  H  H35  1  0.49925200  0.56755400  0.30148000  1
  H  H36  1  0.79863900  0.03300200  0.34355700  1
  H  H37  1  0.29863900  0.46699800  0.65644300  1
  H  H38  1  0.20136100  0.96699800  0.65644300  1
  H  H39  1  0.70136100  0.53300200  0.34355700  1
  H  H40  1  0.88563700  0.15771700  0.33975800  1
  H  H41  1  0.38563700  0.34228300  0.66024200  1
  H  H42  1  0.11436300  0.84228300  0.66024200  1
  H  H43  1  0.61436300  0.65771700  0.33975800  1
  H  H44  1  0.21502000  0.41883300  0.14970200  1
  H  H45  1  0.71502000  0.08116700  0.85029800  1
  H  H46  1  0.78498000  0.58116700  0.85029800  1
  H  H47  1  0.28498000  0.91883300  0.14970200  1
  H  H48  1  0.12515600  0.31246100  0.12154500  1
  H  H49  1  0.62515600  0.18753900  0.87845500  1
  H  H50  1  0.87484400  0.68753900  0.87845500  1
  H  H51  1  0.37484400  0.81246100  0.12154500  1
  H  H52  1  0.28531900  0.38703700  0.04800600  1
  H  H53  1  0.78531900  0.11296300  0.95199400  1
  H  H54  1  0.71468100  0.61296300  0.95199400  1
  H  H55  1  0.21468100  0.88703700  0.04800600  1
  H  H56  1  0.69575500  0.40722200  0.03836200  1
  H  H57  1  0.19575500  0.09277800  0.96163800  1
  H  H58  1  0.30424500  0.59277800  0.96163800  1
  H  H59  1  0.80424500  0.90722200  0.03836200  1
  H  H60  1  0.84234900  0.32217200  0.11415200  1
  H  H61  1  0.34234900  0.17782800  0.88584800  1
  H  H62  1  0.15765100  0.67782800  0.88584800  1
  H  H63  1  0.65765100  0.82217200  0.11415200  1
  H  H64  1  0.77073900  0.43122500  0.14360600  1
  H  H65  1  0.27073900  0.06877500  0.85639400  1
  H  H66  1  0.22926100  0.56877500  0.85639400  1
  H  H67  1  0.72926100  0.93122500  0.14360600  1
  H  H68  1  0.08494500  0.42855700  0.85309200  1
  H  H69  1  0.58494500  0.07144300  0.14690800  1
  H  H70  1  0.91505500  0.57144300  0.14690800  1
  H  H71  1  0.41505500  0.92855700  0.85309200  1
  H  H72  1  0.00584500  0.31946200  0.95113400  1
  H  H73  1  0.50584500  0.18053800  0.04886600  1
  H  H74  1  0.99415500  0.68053800  0.04886600  1
  H  H75  1  0.49415500  0.81946200  0.95113400  1
  H  H76  1  0.87217600  0.41341200  0.87232000  1
  H  H77  1  0.37217600  0.08658800  0.12768000  1
  H  H78  1  0.12782400  0.58658800  0.12768000  1
  H  H79  1  0.62782400  0.91341200  0.87232000  1
  N  N80  1  0.78336400  0.04764100  0.55375500  1
  N  N81  1  0.28336400  0.45235900  0.44624500  1
  N  N82  1  0.21663600  0.95235900  0.44624500  1
  N  N83  1  0.71663600  0.54764100  0.55375500  1
  N  N84  1  0.11259800  0.14565800  0.49381800  1
  N  N85  1  0.61259800  0.35434200  0.50618200  1
  N  N86  1  0.88740200  0.85434200  0.50618200  1
  N  N87  1  0.38740200  0.64565800  0.49381800  1
  N  N88  1  0.91242600  0.07170500  0.35668200  1
  N  N89  1  0.41242600  0.42829500  0.64331800  1
  N  N90  1  0.08757400  0.92829500  0.64331800  1
  N  N91  1  0.58757400  0.57170500  0.35668200  1
  N  N92  1  0.17458700  0.39410500  0.08920200  1
  N  N93  1  0.67458700  0.10589500  0.91079800  1
  N  N94  1  0.82541300  0.60589500  0.91079800  1
  N  N95  1  0.32541300  0.89410500  0.08920200  1
  N  N96  1  0.80688900  0.40674400  0.08216900  1
  N  N97  1  0.30688900  0.09325600  0.91783100  1
  N  N98  1  0.19311100  0.59325600  0.91783100  1
  N  N99  1  0.69311100  0.90674400  0.08216900  1
  N  N100  1  0.99085800  0.40587300  0.90992400  1
  N  N101  1  0.49085800  0.09412700  0.09007600  1
  N  N102  1  0.00914200  0.59412700  0.09007600  1
  N  N103  1  0.50914200  0.90587300  0.90992400  1
  Cl  Cl104  1  0.99844900  0.13365800  0.08320400  1
  Cl  Cl105  1  0.49844900  0.36634200  0.91679600  1
  Cl  Cl106  1  0.00155100  0.86634200  0.91679600  1
  Cl  Cl107  1  0.50155100  0.63365800  0.08320400  1
  Cl  Cl108  1  0.92408700  0.37744900  0.32736400  1
  Cl  Cl109  1  0.42408700  0.12255100  0.67263600  1
  Cl  Cl110  1  0.07591300  0.62255100  0.67263600  1
  Cl  Cl111  1  0.57591300  0.87744900  0.32736400  1
  F  F112  1  0.00592400  0.33731600  0.59837600  1
  F  F113  1  0.50592400  0.16268400  0.40162400  1
  F  F114  1  0.99407600  0.66268400  0.40162400  1
  F  F115  1  0.49407600  0.83731600  0.59837600  1
  F  F116  1  0.79690300  0.31738900  0.72557300  1
  F  F117  1  0.29690300  0.18261100  0.27442700  1
  F  F118  1  0.20309700  0.68261100  0.27442700  1
  F  F119  1  0.70309700  0.81738900  0.72557300  1
  F  F120  1  0.08941800  0.27458700  0.77146000  1
  F  F121  1  0.58941800  0.22541300  0.22854000  1
  F  F122  1  0.91058200  0.72541300  0.22854000  1
  F  F123  1  0.41058200  0.77458700  0.77146000  1
  F  F124  1  0.92612500  0.15589100  0.70551200  1
  F  F125  1  0.42612500  0.34410900  0.29448800  1
  F  F126  1  0.07387500  0.84410900  0.29448800  1
  F  F127  1  0.57387500  0.65589100  0.70551200  1
