# generated using pymatgen
data_Mg2B12H24O35
_symmetry_space_group_name_H-M   'P 1'
_cell_length_a   13.70057788
_cell_length_b   13.70057788
_cell_length_c   13.70057808
_cell_angle_alpha   50.75350364
_cell_angle_beta   50.75350364
_cell_angle_gamma   50.75350385
_symmetry_Int_Tables_number   1
_chemical_formula_structural   Mg2B12H24O35
_chemical_formula_sum   'Mg4 B24 H48 O70'
_cell_volume   1421.84309522
_cell_formula_units_Z   2
loop_
 _symmetry_equiv_pos_site_id
 _symmetry_equiv_pos_as_xyz
  1  'x, y, z'
loop_
 _atom_site_type_symbol
 _atom_site_label
 _atom_site_symmetry_multiplicity
 _atom_site_fract_x
 _atom_site_fract_y
 _atom_site_fract_z
 _atom_site_occupancy
  Mg  Mg0  1  0.35673700  0.35673700  0.35673700  1
  Mg  Mg1  1  0.85673700  0.85673700  0.85673700  1
  Mg  Mg2  1  0.64326300  0.64326300  0.64326300  1
  Mg  Mg3  1  0.14326300  0.14326300  0.14326300  1
  B  B4  1  0.31362100  0.41819500  0.56886300  1
  B  B5  1  0.56886300  0.31362100  0.41819500  1
  B  B6  1  0.41819500  0.56886300  0.31362100  1
  B  B7  1  0.06886300  0.91819500  0.81362100  1
  B  B8  1  0.81362100  0.06886300  0.91819500  1
  B  B9  1  0.91819500  0.81362100  0.06886300  1
  B  B10  1  0.68637900  0.58180500  0.43113700  1
  B  B11  1  0.43113700  0.68637900  0.58180500  1
  B  B12  1  0.58180500  0.43113700  0.68637900  1
  B  B13  1  0.93113700  0.08180500  0.18637900  1
  B  B14  1  0.18637900  0.93113700  0.08180500  1
  B  B15  1  0.08180500  0.18637900  0.93113700  1
  B  B16  1  0.32706800  0.52057400  0.77951700  1
  B  B17  1  0.77951700  0.32706800  0.52057400  1
  B  B18  1  0.52057400  0.77951700  0.32706800  1
  B  B19  1  0.27951700  0.02057400  0.82706800  1
  B  B20  1  0.82706800  0.27951700  0.02057400  1
  B  B21  1  0.02057400  0.82706800  0.27951700  1
  B  B22  1  0.67293200  0.47942600  0.22048300  1
  B  B23  1  0.22048300  0.67293200  0.47942600  1
  B  B24  1  0.47942600  0.22048300  0.67293200  1
  B  B25  1  0.72048300  0.97942600  0.17293200  1
  B  B26  1  0.17293200  0.72048300  0.97942600  1
  B  B27  1  0.97942600  0.17293200  0.72048300  1
  H  H28  1  0.79574000  0.72726900  0.13234800  1
  H  H29  1  0.13234800  0.79574000  0.72726900  1
  H  H30  1  0.72726900  0.13234800  0.79574000  1
  H  H31  1  0.63234800  0.22726900  0.29574000  1
  H  H32  1  0.29574000  0.63234800  0.22726900  1
  H  H33  1  0.22726900  0.29574000  0.63234800  1
  H  H34  1  0.20426000  0.27273100  0.86765200  1
  H  H35  1  0.86765200  0.20426000  0.27273100  1
  H  H36  1  0.27273100  0.86765200  0.20426000  1
  H  H37  1  0.36765200  0.77273100  0.70426000  1
  H  H38  1  0.70426000  0.36765200  0.77273100  1
  H  H39  1  0.77273100  0.70426000  0.36765200  1
  H  H40  1  0.94676800  0.63190800  0.81380800  1
  H  H41  1  0.81380800  0.94676800  0.63190800  1
  H  H42  1  0.63190800  0.81380800  0.94676800  1
  H  H43  1  0.31380800  0.13190800  0.44676800  1
  H  H44  1  0.44676800  0.31380800  0.13190800  1
  H  H45  1  0.13190800  0.44676800  0.31380800  1
  H  H46  1  0.05323200  0.36809200  0.18619200  1
  H  H47  1  0.18619200  0.05323200  0.36809200  1
  H  H48  1  0.36809200  0.18619200  0.05323200  1
  H  H49  1  0.68619200  0.86809200  0.55323200  1
  H  H50  1  0.55323200  0.68619200  0.86809200  1
  H  H51  1  0.86809200  0.55323200  0.68619200  1
  H  H52  1  0.04923600  0.59765800  0.86057200  1
  H  H53  1  0.86057200  0.04923600  0.59765800  1
  H  H54  1  0.59765800  0.86057200  0.04923600  1
  H  H55  1  0.36057200  0.09765800  0.54923600  1
  H  H56  1  0.54923600  0.36057200  0.09765800  1
  H  H57  1  0.09765800  0.54923600  0.36057200  1
  H  H58  1  0.95076400  0.40234200  0.13942800  1
  H  H59  1  0.13942800  0.95076400  0.40234200  1
  H  H60  1  0.40234200  0.13942800  0.95076400  1
  H  H61  1  0.63942800  0.90234200  0.45076400  1
  H  H62  1  0.45076400  0.63942800  0.90234200  1
  H  H63  1  0.90234200  0.45076400  0.63942800  1
  H  H64  1  0.95378100  0.45791900  0.81740100  1
  H  H65  1  0.81740100  0.95378100  0.45791900  1
  H  H66  1  0.45791900  0.81740100  0.95378100  1
  H  H67  1  0.31740100  0.95791900  0.45378100  1
  H  H68  1  0.45378100  0.31740100  0.95791900  1
  H  H69  1  0.95791900  0.45378100  0.31740100  1
  H  H70  1  0.04621900  0.54208100  0.18259900  1
  H  H71  1  0.18259900  0.04621900  0.54208100  1
  H  H72  1  0.54208100  0.18259900  0.04621900  1
  H  H73  1  0.68259900  0.04208100  0.54621900  1
  H  H74  1  0.54621900  0.68259900  0.04208100  1
  H  H75  1  0.04208100  0.54621900  0.68259900  1
  O  O76  1  0.35110000  0.32393600  0.68815700  1
  O  O77  1  0.68815700  0.35110000  0.32393600  1
  O  O78  1  0.32393600  0.68815700  0.35110000  1
  O  O79  1  0.18815700  0.82393600  0.85110000  1
  O  O80  1  0.85110000  0.18815700  0.82393600  1
  O  O81  1  0.82393600  0.85110000  0.18815700  1
  O  O82  1  0.64890000  0.67606400  0.31184300  1
  O  O83  1  0.31184300  0.64890000  0.67606400  1
  O  O84  1  0.67606400  0.31184300  0.64890000  1
  O  O85  1  0.81184300  0.17606400  0.14890000  1
  O  O86  1  0.14890000  0.81184300  0.17606400  1
  O  O87  1  0.17606400  0.14890000  0.81184300  1
  O  O88  1  0.20977800  0.55007200  0.58068200  1
  O  O89  1  0.58068200  0.20977800  0.55007200  1
  O  O90  1  0.55007200  0.58068200  0.20977800  1
  O  O91  1  0.08068200  0.05007200  0.70977800  1
  O  O92  1  0.70977800  0.08068200  0.05007200  1
  O  O93  1  0.05007200  0.70977800  0.08068200  1
  O  O94  1  0.79022200  0.44992800  0.41931800  1
  O  O95  1  0.41931800  0.79022200  0.44992800  1
  O  O96  1  0.44992800  0.41931800  0.79022200  1
  O  O97  1  0.91931800  0.94992800  0.29022200  1
  O  O98  1  0.29022200  0.91931800  0.94992800  1
  O  O99  1  0.94992800  0.29022200  0.91931800  1
  O  O100  1  0.44099100  0.44099100  0.44099100  1
  O  O101  1  0.94099100  0.94099100  0.94099100  1
  O  O102  1  0.55900900  0.55900900  0.55900900  1
  O  O103  1  0.05900900  0.05900900  0.05900900  1
  O  O104  1  0.86198000  0.76794300  0.04896000  1
  O  O105  1  0.04896000  0.86198000  0.76794300  1
  O  O106  1  0.76794300  0.04896000  0.86198000  1
  O  O107  1  0.54896000  0.26794300  0.36198000  1
  O  O108  1  0.36198000  0.54896000  0.26794300  1
  O  O109  1  0.26794300  0.36198000  0.54896000  1
  O  O110  1  0.13802000  0.23205700  0.95104000  1
  O  O111  1  0.95104000  0.13802000  0.23205700  1
  O  O112  1  0.23205700  0.95104000  0.13802000  1
  O  O113  1  0.45104000  0.73205700  0.63802000  1
  O  O114  1  0.63802000  0.45104000  0.73205700  1
  O  O115  1  0.73205700  0.63802000  0.45104000  1
  O  O116  1  0.20723200  0.50091000  0.87948000  1
  O  O117  1  0.87948000  0.20723200  0.50091000  1
  O  O118  1  0.50091000  0.87948000  0.20723200  1
  O  O119  1  0.37948000  0.00091000  0.70723200  1
  O  O120  1  0.70723200  0.37948000  0.00091000  1
  O  O121  1  0.00091000  0.70723200  0.37948000  1
  O  O122  1  0.79276800  0.49909000  0.12052000  1
  O  O123  1  0.12052000  0.79276800  0.49909000  1
  O  O124  1  0.49909000  0.12052000  0.79276800  1
  O  O125  1  0.62052000  0.99909000  0.29276800  1
  O  O126  1  0.29276800  0.62052000  0.99909000  1
  O  O127  1  0.99909000  0.29276800  0.62052000  1
  O  O128  1  0.96775600  0.67024200  0.83768800  1
  O  O129  1  0.83768800  0.96775600  0.67024200  1
  O  O130  1  0.67024200  0.83768800  0.96775600  1
  O  O131  1  0.33768800  0.17024200  0.46775600  1
  O  O132  1  0.46775600  0.33768800  0.17024200  1
  O  O133  1  0.17024200  0.46775600  0.33768800  1
  O  O134  1  0.03224400  0.32975800  0.16231200  1
  O  O135  1  0.16231200  0.03224400  0.32975800  1
  O  O136  1  0.32975800  0.16231200  0.03224400  1
  O  O137  1  0.66231200  0.82975800  0.53224400  1
  O  O138  1  0.53224400  0.66231200  0.82975800  1
  O  O139  1  0.82975800  0.53224400  0.66231200  1
  O  O140  1  0.25000000  0.05244900  0.44755100  1
  O  O141  1  0.44755100  0.25000000  0.05244900  1
  O  O142  1  0.05244900  0.44755100  0.25000000  1
  O  O143  1  0.94755100  0.55244900  0.75000000  1
  O  O144  1  0.75000000  0.94755100  0.55244900  1
  O  O145  1  0.55244900  0.75000000  0.94755100  1
