# generated using pymatgen
data_Na2MgH20(SO9)2
_symmetry_space_group_name_H-M   'P 1'
_cell_length_a   12.71143200
_cell_length_b   6.51253400
_cell_length_c   10.19170471
_cell_angle_alpha   90.00000000
_cell_angle_beta   106.34341150
_cell_angle_gamma   90.00000000
_symmetry_Int_Tables_number   1
_chemical_formula_structural   Na2MgH20(SO9)2
_chemical_formula_sum   'Na4 Mg2 H40 S4 O36'
_cell_volume   809.61416314
_cell_formula_units_Z   2
loop_
 _symmetry_equiv_pos_site_id
 _symmetry_equiv_pos_as_xyz
  1  'x, y, z'
loop_
 _atom_site_type_symbol
 _atom_site_label
 _atom_site_symmetry_multiplicity
 _atom_site_fract_x
 _atom_site_fract_y
 _atom_site_fract_z
 _atom_site_occupancy
  Na  Na0  1  0.98100400  0.24412100  0.89673100  1
  Na  Na1  1  0.01899600  0.74412100  0.60326900  1
  Na  Na2  1  0.01899600  0.75587900  0.10326900  1
  Na  Na3  1  0.98100400  0.25587900  0.39673100  1
  Mg  Mg4  1  0.50000000  0.50000000  0.00000000  1
  Mg  Mg5  1  0.50000000  0.00000000  0.50000000  1
  H  H6  1  0.83359000  0.92480400  0.92545000  1
  H  H7  1  0.16641000  0.42480400  0.57455000  1
  H  H8  1  0.16641000  0.07519600  0.07455000  1
  H  H9  1  0.83359000  0.57519600  0.42545000  1
  H  H10  1  0.88682400  0.80631200  0.82442900  1
  H  H11  1  0.11317600  0.30631200  0.67557100  1
  H  H12  1  0.11317600  0.19368800  0.17557100  1
  H  H13  1  0.88682400  0.69368800  0.32442900  1
  H  H14  1  0.85794900  0.38684200  0.09143300  1
  H  H15  1  0.14205100  0.88684200  0.40856700  1
  H  H16  1  0.14205100  0.61315800  0.90856700  1
  H  H17  1  0.85794900  0.11315800  0.59143300  1
  H  H18  1  0.82751700  0.52179700  0.95962800  1
  H  H19  1  0.17248300  0.02179700  0.54037200  1
  H  H20  1  0.17248300  0.47820300  0.04037200  1
  H  H21  1  0.82751700  0.97820300  0.45962800  1
  H  H22  1  0.36272100  0.57803600  0.15657300  1
  H  H23  1  0.63727900  0.07803600  0.34342700  1
  H  H24  1  0.63727900  0.42196400  0.84342700  1
  H  H25  1  0.36272100  0.92196400  0.65657300  1
  H  H26  1  0.36492000  0.78044900  0.06880900  1
  H  H27  1  0.63508000  0.28044900  0.43119100  1
  H  H28  1  0.63508000  0.21955100  0.93119100  1
  H  H29  1  0.36492000  0.71955100  0.56880900  1
  H  H30  1  0.50413500  0.79288300  0.81757800  1
  H  H31  1  0.49586500  0.29288300  0.68242200  1
  H  H32  1  0.49586500  0.20711700  0.18242200  1
  H  H33  1  0.50413500  0.70711700  0.31757800  1
  H  H34  1  0.60043300  0.85202800  0.95218100  1
  H  H35  1  0.39956700  0.35202800  0.54781900  1
  H  H36  1  0.39956700  0.14797200  0.04781900  1
  H  H37  1  0.60043300  0.64797200  0.45218100  1
  H  H38  1  0.66568700  0.67126700  0.19997800  1
  H  H39  1  0.33431300  0.17126700  0.30002200  1
  H  H40  1  0.33431300  0.32873300  0.80002200  1
  H  H41  1  0.66568700  0.82873300  0.69997800  1
  H  H42  1  0.69681200  0.43249900  0.18624700  1
  H  H43  1  0.30318800  0.93249900  0.31375300  1
  H  H44  1  0.30318800  0.56750100  0.81375300  1
  H  H45  1  0.69681200  0.06750100  0.68624700  1
  S  S46  1  0.77571900  0.01580400  0.16860600  1
  S  S47  1  0.22428100  0.51580400  0.33139400  1
  S  S48  1  0.22428100  0.98419600  0.83139400  1
  S  S49  1  0.77571900  0.48419600  0.66860600  1
  O  O50  1  0.79771100  0.23808000  0.20344100  1
  O  O51  1  0.20228900  0.73808000  0.29655900  1
  O  O52  1  0.20228900  0.76192000  0.79655900  1
  O  O53  1  0.79771100  0.26192000  0.70344100  1
  O  O54  1  0.70640100  0.92798100  0.25270000  1
  O  O55  1  0.29359900  0.42798100  0.24730000  1
  O  O56  1  0.29359900  0.07201900  0.74730000  1
  O  O57  1  0.70640100  0.57201900  0.75270000  1
  O  O58  1  0.88132500  0.90257500  0.20108400  1
  O  O59  1  0.11867500  0.40257500  0.29891600  1
  O  O60  1  0.11867500  0.09742500  0.79891600  1
  O  O61  1  0.88132500  0.59742500  0.70108400  1
  O  O62  1  0.71661400  0.99658000  0.01932200  1
  O  O63  1  0.28338600  0.49658000  0.48067800  1
  O  O64  1  0.28338600  0.00342000  0.98067800  1
  O  O65  1  0.71661400  0.50342000  0.51932200  1
  O  O66  1  0.90197600  0.90692800  0.89961200  1
  O  O67  1  0.09802400  0.40692800  0.60038800  1
  O  O68  1  0.09802400  0.09307200  0.10038800  1
  O  O69  1  0.90197600  0.59307200  0.39961200  1
  O  O70  1  0.89012200  0.46323500  0.02823900  1
  O  O71  1  0.10987800  0.96323500  0.47176100  1
  O  O72  1  0.10987800  0.53676500  0.97176100  1
  O  O73  1  0.89012200  0.03676500  0.52823900  1
  O  O74  1  0.41059200  0.66546500  0.11698100  1
  O  O75  1  0.58940800  0.16546500  0.38301900  1
  O  O76  1  0.58940800  0.33453500  0.88301900  1
  O  O77  1  0.41059200  0.83453500  0.61698100  1
  O  O78  1  0.53149500  0.77198700  0.91627200  1
  O  O79  1  0.46850500  0.27198700  0.58372800  1
  O  O80  1  0.46850500  0.22801300  0.08372800  1
  O  O81  1  0.53149500  0.72801300  0.41627200  1
  O  O82  1  0.63598300  0.53352000  0.16846900  1
  O  O83  1  0.36401700  0.03352000  0.33153100  1
  O  O84  1  0.36401700  0.46648000  0.83153100  1
  O  O85  1  0.63598300  0.96648000  0.66846900  1
