# generated using pymatgen
data_La2Fe(SeO)2
_symmetry_space_group_name_H-M   'P 1'
_cell_length_a   4.03387300
_cell_length_b   16.53435700
_cell_length_c   17.65209100
_cell_angle_alpha   90.00000000
_cell_angle_beta   90.00000000
_cell_angle_gamma   90.00000000
_symmetry_Int_Tables_number   1
_chemical_formula_structural   La2Fe(SeO)2
_chemical_formula_sum   'La16 Fe8 Se16 O16'
_cell_volume   1177.35027371
_cell_formula_units_Z   8
loop_
 _symmetry_equiv_pos_site_id
 _symmetry_equiv_pos_as_xyz
  1  'x, y, z'
loop_
 _atom_site_type_symbol
 _atom_site_label
 _atom_site_symmetry_multiplicity
 _atom_site_fract_x
 _atom_site_fract_y
 _atom_site_fract_z
 _atom_site_occupancy
  La  La0  1  0.00136700  0.97704600  0.08998300  1
  La  La1  1  0.50136700  0.02295400  0.91001700  1
  La  La2  1  0.50136700  0.47704600  0.41001700  1
  La  La3  1  0.00136700  0.52295400  0.58998300  1
  La  La4  1  0.50860800  0.48223700  0.09030700  1
  La  La5  1  0.00860800  0.51776300  0.90969300  1
  La  La6  1  0.00860800  0.98223700  0.40969300  1
  La  La7  1  0.50860800  0.01776300  0.59030700  1
  La  La8  1  0.00716500  0.67748200  0.08424300  1
  La  La9  1  0.50716500  0.32251800  0.91575700  1
  La  La10  1  0.50716500  0.17748200  0.41575700  1
  La  La11  1  0.00716500  0.82251800  0.58424300  1
  La  La12  1  0.49969300  0.17195000  0.08819700  1
  La  La13  1  0.99969300  0.82805000  0.91180300  1
  La  La14  1  0.99969300  0.67195000  0.41180300  1
  La  La15  1  0.49969300  0.32805000  0.58819700  1
  Fe  Fe16  1  0.00158700  0.38436000  0.75176100  1
  Fe  Fe17  1  0.50158700  0.61564000  0.24823900  1
  Fe  Fe18  1  0.50158700  0.88436000  0.74823900  1
  Fe  Fe19  1  0.00158700  0.11564000  0.25176100  1
  Fe  Fe20  1  0.00233800  0.33805000  0.22326400  1
  Fe  Fe21  1  0.50233800  0.66195000  0.77673600  1
  Fe  Fe22  1  0.50233800  0.83805000  0.27673600  1
  Fe  Fe23  1  0.00233800  0.16195000  0.72326400  1
  Se  Se24  1  0.01748500  0.01168200  0.74921800  1
  Se  Se25  1  0.51748500  0.98831800  0.25078200  1
  Se  Se26  1  0.51748500  0.51168200  0.75078200  1
  Se  Se27  1  0.01748500  0.48831800  0.24921800  1
  Se  Se28  1  0.00541700  0.33037200  0.07483500  1
  Se  Se29  1  0.50541700  0.66962800  0.92516500  1
  Se  Se30  1  0.50541700  0.83037200  0.42516500  1
  Se  Se31  1  0.00541700  0.16962800  0.57483500  1
  Se  Se32  1  0.50659000  0.82737600  0.06092000  1
  Se  Se33  1  0.00659000  0.17262400  0.93908000  1
  Se  Se34  1  0.00659000  0.32737600  0.43908000  1
  Se  Se35  1  0.50659000  0.67262400  0.56092000  1
  Se  Se36  1  0.00452200  0.75429800  0.74780200  1
  Se  Se37  1  0.50452200  0.24570200  0.25219800  1
  Se  Se38  1  0.50452200  0.25429800  0.75219800  1
  Se  Se39  1  0.00452200  0.74570200  0.24780200  1
  O  O40  1  0.00030400  0.11732200  0.14026600  1
  O  O41  1  0.50030400  0.88267800  0.85973400  1
  O  O42  1  0.50030400  0.61732200  0.35973400  1
  O  O43  1  0.00030400  0.38267800  0.64026600  1
  O  O44  1  0.50702500  0.62207800  0.13624900  1
  O  O45  1  0.00702500  0.37792200  0.86375100  1
  O  O46  1  0.00702500  0.12207800  0.36375100  1
  O  O47  1  0.50702500  0.87792200  0.63624900  1
  O  O48  1  0.00105700  0.53796700  0.45344100  1
  O  O49  1  0.50105700  0.46203300  0.54655900  1
  O  O50  1  0.50105700  0.03796700  0.04655900  1
  O  O51  1  0.00105700  0.96203300  0.95344100  1
  O  O52  1  0.50874400  0.04201600  0.45602300  1
  O  O53  1  0.00874400  0.95798400  0.54397700  1
  O  O54  1  0.00874400  0.54201600  0.04397700  1
  O  O55  1  0.50874400  0.45798400  0.95602300  1
