# generated using pymatgen
data_MgH7C3NO7
_symmetry_space_group_name_H-M   'P 1'
_cell_length_a   7.76151500
_cell_length_b   7.79429600
_cell_length_c   13.21421200
_cell_angle_alpha   90.00000000
_cell_angle_beta   90.00000000
_cell_angle_gamma   90.00000000
_symmetry_Int_Tables_number   1
_chemical_formula_structural   MgH7C3NO7
_chemical_formula_sum   'Mg4 H28 C12 N4 O28'
_cell_volume   799.40096089
_cell_formula_units_Z   4
loop_
 _symmetry_equiv_pos_site_id
 _symmetry_equiv_pos_as_xyz
  1  'x, y, z'
loop_
 _atom_site_type_symbol
 _atom_site_label
 _atom_site_symmetry_multiplicity
 _atom_site_fract_x
 _atom_site_fract_y
 _atom_site_fract_z
 _atom_site_occupancy
  Mg  Mg0  1  0.44780200  0.99560600  0.41665000  1
  Mg  Mg1  1  0.05219800  0.00439400  0.91665000  1
  Mg  Mg2  1  0.94780200  0.50439400  0.58335000  1
  Mg  Mg3  1  0.55219800  0.49560600  0.08335000  1
  H  H4  1  0.44973600  0.66677400  0.27984100  1
  H  H5  1  0.05026400  0.33322600  0.77984100  1
  H  H6  1  0.94973600  0.83322600  0.72015900  1
  H  H7  1  0.55026400  0.16677400  0.22015900  1
  H  H8  1  0.61380600  0.30312900  0.53802700  1
  H  H9  1  0.88619400  0.69687100  0.03802700  1
  H  H10  1  0.11380600  0.19687100  0.46197300  1
  H  H11  1  0.38619400  0.80312900  0.96197300  1
  H  H12  1  0.78034100  0.79716600  0.47390600  1
  H  H13  1  0.71965900  0.20283400  0.97390600  1
  H  H14  1  0.28034100  0.70283400  0.52609400  1
  H  H15  1  0.21965900  0.29716600  0.02609400  1
  H  H16  1  0.79650300  0.97081500  0.29075300  1
  H  H17  1  0.70349700  0.02918500  0.79075300  1
  H  H18  1  0.29650300  0.52918500  0.70924700  1
  H  H19  1  0.20349700  0.47081500  0.20924700  1
  H  H20  1  0.90668100  0.76533200  0.22404000  1
  H  H21  1  0.59331900  0.23466800  0.72404000  1
  H  H22  1  0.40668100  0.73466800  0.77596000  1
  H  H23  1  0.09331900  0.26533200  0.27596000  1
  H  H24  1  0.08922200  0.82591700  0.29080000  1
  H  H25  1  0.41077800  0.17408300  0.79080000  1
  H  H26  1  0.58922200  0.67408300  0.70920000  1
  H  H27  1  0.91077800  0.32591700  0.20920000  1
  H  H28  1  0.05943300  0.88249100  0.16471500  1
  H  H29  1  0.44056700  0.11750900  0.66471500  1
  H  H30  1  0.55943300  0.61750900  0.83528500  1
  H  H31  1  0.94056700  0.38249100  0.33528500  1
  C  C32  1  0.57501100  0.72739200  0.26241100  1
  C  C33  1  0.92498900  0.27260800  0.76241100  1
  C  C34  1  0.07501100  0.77260800  0.73758900  1
  C  C35  1  0.42498900  0.22739200  0.23758900  1
  C  C36  1  0.69942600  0.27689100  0.47259500  1
  C  C37  1  0.80057400  0.72310900  0.97259500  1
  C  C38  1  0.19942600  0.22310900  0.52740500  1
  C  C39  1  0.30057400  0.77689100  0.02740500  1
  C  C40  1  0.68842600  0.77353900  0.53646600  1
  C  C41  1  0.81157400  0.22646100  0.03646600  1
  C  C42  1  0.18842600  0.72646100  0.46353400  1
  C  C43  1  0.31157400  0.27353900  0.96353400  1
  N  N44  1  0.99860100  0.86110600  0.23459900  1
  N  N45  1  0.50139900  0.13889400  0.73459900  1
  N  N46  1  0.49860100  0.63889400  0.76540100  1
  N  N47  1  0.00139900  0.36110600  0.26540100  1
  O  O48  1  0.61097600  0.86480000  0.31108300  1
  O  O49  1  0.88902400  0.13520000  0.81108300  1
  O  O50  1  0.11097600  0.63520000  0.68891700  1
  O  O51  1  0.38902400  0.36480000  0.18891700  1
  O  O52  1  0.67196400  0.65771200  0.19738500  1
  O  O53  1  0.82803600  0.34228800  0.69738500  1
  O  O54  1  0.17196400  0.84228800  0.80261500  1
  O  O55  1  0.32803600  0.15771200  0.30261500  1
  O  O56  1  0.65448700  0.16285000  0.41058400  1
  O  O57  1  0.84551300  0.83715000  0.91058400  1
  O  O58  1  0.15448700  0.33715000  0.58941600  1
  O  O59  1  0.34551300  0.66285000  0.08941600  1
  O  O60  1  0.83627000  0.36676700  0.46513100  1
  O  O61  1  0.66373000  0.63323300  0.96513100  1
  O  O62  1  0.33627000  0.13323300  0.53486900  1
  O  O63  1  0.16373000  0.86676700  0.03486900  1
  O  O64  1  0.54499800  0.84856600  0.53538400  1
  O  O65  1  0.95500200  0.15143400  0.03538400  1
  O  O66  1  0.04499800  0.65143400  0.46461600  1
  O  O67  1  0.45500200  0.34856600  0.96461600  1
  O  O68  1  0.73759400  0.66942100  0.60587000  1
  O  O69  1  0.76240600  0.33057900  0.10587000  1
  O  O70  1  0.23759400  0.83057900  0.39413000  1
  O  O71  1  0.26240600  0.16942100  0.89413000  1
  O  O72  1  0.91375500  0.01257700  0.26796500  1
  O  O73  1  0.58624500  0.98742300  0.76796500  1
  O  O74  1  0.41375500  0.48742300  0.73203500  1
  O  O75  1  0.08624500  0.51257700  0.23203500  1
