# generated using pymatgen
data_KNaSi5SnO16
_symmetry_space_group_name_H-M   'P 1'
_cell_length_a   9.59500991
_cell_length_b   9.59500991
_cell_length_c   9.34574498
_cell_angle_alpha   81.96669920
_cell_angle_beta   81.96669920
_cell_angle_gamma   113.94674701
_symmetry_Int_Tables_number   1
_chemical_formula_structural   KNaSi5SnO16
_chemical_formula_sum   'K2 Na2 Si10 Sn2 O32'
_cell_volume   760.05912296
_cell_formula_units_Z   2
loop_
 _symmetry_equiv_pos_site_id
 _symmetry_equiv_pos_as_xyz
  1  'x, y, z'
loop_
 _atom_site_type_symbol
 _atom_site_label
 _atom_site_symmetry_multiplicity
 _atom_site_fract_x
 _atom_site_fract_y
 _atom_site_fract_z
 _atom_site_occupancy
  K  K0  1  0.87741600  0.87741600  0.36513800  1
  K  K1  1  0.12258400  0.12258400  0.63486200  1
  Na  Na2  1  0.62510400  0.37489600  0.50000000  1
  Na  Na3  1  0.37489600  0.62510400  0.50000000  1
  Si  Si4  1  0.18749800  0.38750400  0.24616100  1
  Si  Si5  1  0.38750400  0.18749800  0.24616100  1
  Si  Si6  1  0.81250200  0.61249600  0.75383900  1
  Si  Si7  1  0.61249600  0.81250200  0.75383900  1
  Si  Si8  1  0.84429600  0.25766000  0.27415200  1
  Si  Si9  1  0.25766000  0.84429600  0.27415200  1
  Si  Si10  1  0.15570400  0.74234000  0.72584800  1
  Si  Si11  1  0.74234000  0.15570400  0.72584800  1
  Si  Si12  1  0.30536700  0.69463300  0.00000000  1
  Si  Si13  1  0.69463300  0.30536700  0.00000000  1
  Sn  Sn14  1  0.00000000  0.50000000  0.50000000  1
  Sn  Sn15  1  0.50000000  0.00000000  0.50000000  1
  O  O16  1  0.01483700  0.24787600  0.24780200  1
  O  O17  1  0.24787600  0.01483700  0.24780200  1
  O  O18  1  0.98516300  0.75212400  0.75219800  1
  O  O19  1  0.75212400  0.98516300  0.75219800  1
  O  O20  1  0.85644400  0.39721900  0.36087500  1
  O  O21  1  0.39721900  0.85644400  0.36087500  1
  O  O22  1  0.14355600  0.60278100  0.63912500  1
  O  O23  1  0.60278100  0.14355600  0.63912500  1
  O  O24  1  0.30582400  0.30582400  0.25429200  1
  O  O25  1  0.69417600  0.69417600  0.74570800  1
  O  O26  1  0.24646600  0.51613400  0.09087200  1
  O  O27  1  0.51613400  0.24646600  0.09087200  1
  O  O28  1  0.75353400  0.48386600  0.90912800  1
  O  O29  1  0.48386600  0.75353400  0.90912800  1
  O  O30  1  0.80864000  0.30181900  0.11204500  1
  O  O31  1  0.30181900  0.80864000  0.11204500  1
  O  O32  1  0.19136000  0.69818100  0.88795500  1
  O  O33  1  0.69818100  0.19136000  0.88795500  1
  O  O34  1  0.18240200  0.46393000  0.39046500  1
  O  O35  1  0.46393000  0.18240200  0.39046500  1
  O  O36  1  0.81759800  0.53607000  0.60953500  1
  O  O37  1  0.53607000  0.81759800  0.60953500  1
  O  O38  1  0.91822100  0.28080200  0.63686900  1
  O  O39  1  0.28080200  0.91822100  0.63686900  1
  O  O40  1  0.08177900  0.71919800  0.36313100  1
  O  O41  1  0.71919800  0.08177900  0.36313100  1
  O  O42  1  0.13585200  0.21265600  0.92764000  1
  O  O43  1  0.21265600  0.13585200  0.92764000  1
  O  O44  1  0.86414800  0.78734400  0.07236000  1
  O  O45  1  0.78734400  0.86414800  0.07236000  1
  O  O46  1  0.40708700  0.40708700  0.58992200  1
  O  O47  1  0.59291300  0.59291300  0.41007800  1
