# generated using pymatgen
data_Y4NiB13
_symmetry_space_group_name_H-M   'P 1'
_cell_length_a   7.34828900
_cell_length_b   7.34828900
_cell_length_c   6.94249000
_cell_angle_alpha   90.00000000
_cell_angle_beta   90.00000000
_cell_angle_gamma   90.00000000
_symmetry_Int_Tables_number   1
_chemical_formula_structural   Y4NiB13
_chemical_formula_sum   'Y8 Ni2 B26'
_cell_volume   374.87607092
_cell_formula_units_Z   2
loop_
 _symmetry_equiv_pos_site_id
 _symmetry_equiv_pos_as_xyz
  1  'x, y, z'
loop_
 _atom_site_type_symbol
 _atom_site_label
 _atom_site_symmetry_multiplicity
 _atom_site_fract_x
 _atom_site_fract_y
 _atom_site_fract_z
 _atom_site_occupancy
  Y  Y0  1  0.68495800  0.18027700  0.50000000  1
  Y  Y1  1  0.31504200  0.81972300  0.50000000  1
  Y  Y2  1  0.18495800  0.31972300  0.00000000  1
  Y  Y3  1  0.81504200  0.68027700  0.00000000  1
  Y  Y4  1  0.81972300  0.68495800  0.50000000  1
  Y  Y5  1  0.18027700  0.31504200  0.50000000  1
  Y  Y6  1  0.68027700  0.18495800  0.00000000  1
  Y  Y7  1  0.31972300  0.81504200  0.00000000  1
  Ni  Ni8  1  0.50000000  0.50000000  0.50000000  1
  Ni  Ni9  1  0.00000000  0.00000000  0.00000000  1
  B  B10  1  0.50000000  0.50000000  0.00000000  1
  B  B11  1  0.00000000  0.00000000  0.50000000  1
  B  B12  1  0.90693600  0.40693600  0.25000000  1
  B  B13  1  0.09306400  0.59306400  0.25000000  1
  B  B14  1  0.40693600  0.09306400  0.75000000  1
  B  B15  1  0.59306400  0.90693600  0.75000000  1
  B  B16  1  0.59306400  0.90693600  0.25000000  1
  B  B17  1  0.40693600  0.09306400  0.25000000  1
  B  B18  1  0.90693600  0.40693600  0.75000000  1
  B  B19  1  0.09306400  0.59306400  0.75000000  1
  B  B20  1  0.53985000  0.66983800  0.24357000  1
  B  B21  1  0.46015000  0.33016200  0.24357000  1
  B  B22  1  0.03985000  0.83016200  0.74357000  1
  B  B23  1  0.96015000  0.16983800  0.74357000  1
  B  B24  1  0.33016200  0.53985000  0.24357000  1
  B  B25  1  0.66983800  0.46015000  0.24357000  1
  B  B26  1  0.16983800  0.03985000  0.74357000  1
  B  B27  1  0.83016200  0.96015000  0.74357000  1
  B  B28  1  0.46015000  0.33016200  0.75643000  1
  B  B29  1  0.53985000  0.66983800  0.75643000  1
  B  B30  1  0.96015000  0.16983800  0.25643000  1
  B  B31  1  0.03985000  0.83016200  0.25643000  1
  B  B32  1  0.66983800  0.46015000  0.75643000  1
  B  B33  1  0.33016200  0.53985000  0.75643000  1
  B  B34  1  0.83016200  0.96015000  0.25643000  1
  B  B35  1  0.16983800  0.03985000  0.25643000  1
