# generated using pymatgen
data_Ba2VTe4HO13
_symmetry_space_group_name_H-M   'P 1'
_cell_length_a   11.02033500
_cell_length_b   7.43893300
_cell_length_c   19.34415110
_cell_angle_alpha   90.00000000
_cell_angle_beta   119.78544894
_cell_angle_gamma   90.00000000
_symmetry_Int_Tables_number   1
_chemical_formula_structural   Ba2VTe4HO13
_chemical_formula_sum   'Ba8 V4 Te16 H4 O52'
_cell_volume   1376.32381297
_cell_formula_units_Z   4
loop_
 _symmetry_equiv_pos_site_id
 _symmetry_equiv_pos_as_xyz
  1  'x, y, z'
loop_
 _atom_site_type_symbol
 _atom_site_label
 _atom_site_symmetry_multiplicity
 _atom_site_fract_x
 _atom_site_fract_y
 _atom_site_fract_z
 _atom_site_occupancy
  Ba  Ba0  1  0.05079000  0.26818000  0.30378400  1
  Ba  Ba1  1  0.05079000  0.23182000  0.80378400  1
  Ba  Ba2  1  0.94921000  0.73182000  0.69621600  1
  Ba  Ba3  1  0.94921000  0.76818000  0.19621600  1
  Ba  Ba4  1  0.92689600  0.23528800  0.03650600  1
  Ba  Ba5  1  0.92689600  0.26471200  0.53650600  1
  Ba  Ba6  1  0.07310400  0.76471200  0.96349400  1
  Ba  Ba7  1  0.07310400  0.73528800  0.46349400  1
  V  V8  1  0.51258000  0.74994300  0.10587600  1
  V  V9  1  0.51258000  0.75005700  0.60587600  1
  V  V10  1  0.48742000  0.25005700  0.89412400  1
  V  V11  1  0.48742000  0.24994300  0.39412400  1
  Te  Te12  1  0.65946100  0.14816000  0.10524300  1
  Te  Te13  1  0.65946100  0.35184000  0.60524300  1
  Te  Te14  1  0.34053900  0.85184000  0.89475700  1
  Te  Te15  1  0.34053900  0.64816000  0.39475700  1
  Te  Te16  1  0.73680400  0.01997600  0.31282200  1
  Te  Te17  1  0.73680400  0.48002400  0.81282200  1
  Te  Te18  1  0.26319600  0.98002400  0.68717800  1
  Te  Te19  1  0.26319600  0.51997600  0.18717800  1
  Te  Te20  1  0.69431300  0.48256600  0.28149300  1
  Te  Te21  1  0.69431300  0.01743400  0.78149300  1
  Te  Te22  1  0.30568700  0.51743400  0.71850700  1
  Te  Te23  1  0.30568700  0.98256600  0.21850700  1
  Te  Te24  1  0.74106000  0.76736000  0.46673500  1
  Te  Te25  1  0.74106000  0.73264000  0.96673500  1
  Te  Te26  1  0.25894000  0.23264000  0.53326500  1
  Te  Te27  1  0.25894000  0.26736000  0.03326500  1
  H  H28  1  0.68023500  0.96334900  0.55339200  1
  H  H29  1  0.68023500  0.53665100  0.05339200  1
  H  H30  1  0.31976500  0.03665100  0.44660800  1
  H  H31  1  0.31976500  0.46334900  0.94660800  1
  O  O32  1  0.85259900  0.15064100  0.14946100  1
  O  O33  1  0.85259900  0.34935900  0.64946100  1
  O  O34  1  0.14740100  0.84935900  0.85053900  1
  O  O35  1  0.14740100  0.65064100  0.35053900  1
  O  O36  1  0.64956800  0.88502000  0.09742000  1
  O  O37  1  0.64956800  0.61498000  0.59742000  1
  O  O38  1  0.35043200  0.11498000  0.90258000  1
  O  O39  1  0.35043200  0.38502000  0.40258000  1
  O  O40  1  0.64449500  0.15800200  0.20016200  1
  O  O41  1  0.64449500  0.34199800  0.70016200  1
  O  O42  1  0.35550500  0.84199800  0.79983800  1
  O  O43  1  0.35550500  0.65800200  0.29983800  1
  O  O44  1  0.90119400  0.95969000  0.31339100  1
  O  O45  1  0.90119400  0.54031000  0.81339100  1
  O  O46  1  0.09880600  0.04031000  0.68660900  1
  O  O47  1  0.09880600  0.45969000  0.18660900  1
  O  O48  1  0.79420900  0.26580700  0.35429000  1
  O  O49  1  0.79420900  0.23419300  0.85429000  1
  O  O50  1  0.20579100  0.73419300  0.64571000  1
  O  O51  1  0.20579100  0.76580700  0.14571000  1
  O  O52  1  0.77531100  0.63661800  0.37298700  1
  O  O53  1  0.77531100  0.86338200  0.87298700  1
  O  O54  1  0.22468900  0.36338200  0.62701300  1
  O  O55  1  0.22468900  0.13661800  0.12701300  1
  O  O56  1  0.83413700  0.51754800  0.25541000  1
  O  O57  1  0.83413700  0.98245200  0.75541000  1
  O  O58  1  0.16586300  0.48245200  0.74459000  1
  O  O59  1  0.16586300  0.01754800  0.24459000  1
  O  O60  1  0.83083800  0.95976400  0.43927100  1
  O  O61  1  0.83083800  0.54023600  0.93927100  1
  O  O62  1  0.16916200  0.04023600  0.56072900  1
  O  O63  1  0.16916200  0.45976400  0.06072900  1
  O  O64  1  0.77238900  0.93865100  0.55817400  1
  O  O65  1  0.77238900  0.56134900  0.05817400  1
  O  O66  1  0.22761100  0.06134900  0.44182600  1
  O  O67  1  0.22761100  0.43865100  0.94182600  1
  O  O68  1  0.90212600  0.64502000  0.53806300  1
  O  O69  1  0.90212600  0.85498000  0.03806300  1
  O  O70  1  0.09787400  0.35498000  0.46193700  1
  O  O71  1  0.09787400  0.14502000  0.96193700  1
  O  O72  1  0.54982800  0.75266600  0.20408800  1
  O  O73  1  0.54982800  0.74733400  0.70408800  1
  O  O74  1  0.45017200  0.24733400  0.79591200  1
  O  O75  1  0.45017200  0.25266600  0.29591200  1
  O  O76  1  0.35488300  0.84783400  0.03888600  1
  O  O77  1  0.35488300  0.65216600  0.53888600  1
  O  O78  1  0.64511700  0.15216600  0.96111400  1
  O  O79  1  0.64511700  0.34783400  0.46111400  1
  O  O80  1  0.52445500  0.53491700  0.08193100  1
  O  O81  1  0.52445500  0.96508300  0.58193100  1
  O  O82  1  0.47554500  0.46508300  0.91806900  1
  O  O83  1  0.47554500  0.03491700  0.41806900  1
