# generated using pymatgen
data_HgClO6
_symmetry_space_group_name_H-M   'P 1'
_cell_length_a   8.83469600
_cell_length_b   6.13899000
_cell_length_c   12.25781274
_cell_angle_alpha   104.50185298
_cell_angle_beta   111.12292084
_cell_angle_gamma   90.00000000
_symmetry_Int_Tables_number   1
_chemical_formula_structural   HgClO6
_chemical_formula_sum   'Hg4 Cl4 O24'
_cell_volume   597.38363797
_cell_formula_units_Z   4
loop_
 _symmetry_equiv_pos_site_id
 _symmetry_equiv_pos_as_xyz
  1  'x, y, z'
loop_
 _atom_site_type_symbol
 _atom_site_label
 _atom_site_symmetry_multiplicity
 _atom_site_fract_x
 _atom_site_fract_y
 _atom_site_fract_z
 _atom_site_occupancy
  Hg  Hg0  1  0.56897600  0.62031900  0.24063700  1
  Hg  Hg1  1  0.43102400  0.37968100  0.75936300  1
  Hg  Hg2  1  0.17166100  0.12031900  0.24063700  1
  Hg  Hg3  1  0.82833900  0.87968100  0.75936300  1
  Cl  Cl4  1  0.07303700  0.65158000  0.30316000  1
  Cl  Cl5  1  0.92696300  0.34842000  0.69684000  1
  Cl  Cl6  1  0.73012400  0.15158000  0.30316000  1
  Cl  Cl7  1  0.26987600  0.84842000  0.69684000  1
  O  O8  1  0.18100100  0.48670800  0.35761400  1
  O  O9  1  0.81899900  0.12909500  0.64238600  1
  O  O10  1  0.67661300  0.98670800  0.35761400  1
  O  O11  1  0.32338700  0.62909500  0.64238600  1
  O  O12  1  0.81899900  0.51329200  0.64238600  1
  O  O13  1  0.18100100  0.87090500  0.35761400  1
  O  O14  1  0.32338700  0.01329200  0.64238600  1
  O  O15  1  0.67661300  0.37090500  0.35761400  1
  O  O16  1  0.02260400  0.58645400  0.17290700  1
  O  O17  1  0.97739600  0.41354600  0.82709300  1
  O  O18  1  0.65030400  0.08645400  0.17290700  1
  O  O19  1  0.34969600  0.91354600  0.82709300  1
  O  O20  1  0.93671000  0.67100400  0.34200700  1
  O  O21  1  0.06329000  0.32899600  0.65799300  1
  O  O22  1  0.90529700  0.17100400  0.34200700  1
  O  O23  1  0.09470300  0.82899600  0.65799300  1
  O  O24  1  0.32262500  0.55278500  0.10557000  1
  O  O25  1  0.67737500  0.44721500  0.89443000  1
  O  O26  1  0.28294500  0.05278500  0.10557000  1
  O  O27  1  0.71705500  0.94721500  0.89443000  1
  O  O28  1  0.27696400  0.27696400  0.05392900  1
  O  O29  1  0.72303600  0.22303600  0.94607100  1
  O  O30  1  0.27696400  0.77696400  0.05392900  1
  O  O31  1  0.72303600  0.72303600  0.94607100  1
