# generated using pymatgen
data_Fe2Cl6O5
_symmetry_space_group_name_H-M   'P 1'
_cell_length_a   12.49120000
_cell_length_b   6.06811200
_cell_length_c   17.61632800
_cell_angle_alpha   90.00000000
_cell_angle_beta   90.00000000
_cell_angle_gamma   90.00000000
_symmetry_Int_Tables_number   1
_chemical_formula_structural   Fe2Cl6O5
_chemical_formula_sum   'Fe8 Cl24 O20'
_cell_volume   1335.28244057
_cell_formula_units_Z   4
loop_
 _symmetry_equiv_pos_site_id
 _symmetry_equiv_pos_as_xyz
  1  'x, y, z'
loop_
 _atom_site_type_symbol
 _atom_site_label
 _atom_site_symmetry_multiplicity
 _atom_site_fract_x
 _atom_site_fract_y
 _atom_site_fract_z
 _atom_site_occupancy
  Fe  Fe0  1  0.01768400  0.53683300  0.75314300  1
  Fe  Fe1  1  0.98231600  0.46316700  0.25314300  1
  Fe  Fe2  1  0.48231600  0.53683300  0.25314300  1
  Fe  Fe3  1  0.51768400  0.46316700  0.75314300  1
  Fe  Fe4  1  0.74487400  0.91885700  0.49977000  1
  Fe  Fe5  1  0.25512600  0.08114300  0.99977000  1
  Fe  Fe6  1  0.75512600  0.91885700  0.99977000  1
  Fe  Fe7  1  0.24487400  0.08114300  0.49977000  1
  Cl  Cl8  1  0.02788400  0.91478200  0.74382800  1
  Cl  Cl9  1  0.97211600  0.08521800  0.24382800  1
  Cl  Cl10  1  0.47211600  0.91478200  0.24382800  1
  Cl  Cl11  1  0.52788400  0.08521800  0.74382800  1
  Cl  Cl12  1  0.19601000  0.44614900  0.75531500  1
  Cl  Cl13  1  0.80399000  0.55385100  0.25531500  1
  Cl  Cl14  1  0.30399000  0.44614900  0.25531500  1
  Cl  Cl15  1  0.69601000  0.55385100  0.75531500  1
  Cl  Cl16  1  0.94510800  0.44050700  0.86079400  1
  Cl  Cl17  1  0.05489200  0.55949300  0.36079400  1
  Cl  Cl18  1  0.55489200  0.44050700  0.36079400  1
  Cl  Cl19  1  0.44510800  0.55949300  0.86079400  1
  Cl  Cl20  1  0.94495000  0.41738800  0.64836000  1
  Cl  Cl21  1  0.05505000  0.58261200  0.14836000  1
  Cl  Cl22  1  0.55505000  0.41738800  0.14836000  1
  Cl  Cl23  1  0.44495000  0.58261200  0.64836000  1
  Cl  Cl24  1  0.67037400  0.21374000  0.55829700  1
  Cl  Cl25  1  0.32962600  0.78626000  0.05829700  1
  Cl  Cl26  1  0.82962600  0.21374000  0.05829700  1
  Cl  Cl27  1  0.17037400  0.78626000  0.55829700  1
  Cl  Cl28  1  0.87317200  0.11842600  0.44124300  1
  Cl  Cl29  1  0.12682800  0.88157400  0.94124300  1
  Cl  Cl30  1  0.62682800  0.11842600  0.94124300  1
  Cl  Cl31  1  0.37317200  0.88157400  0.44124300  1
  O  O32  1  0.20829800  0.82596000  0.74360800  1
  O  O33  1  0.79170200  0.17404000  0.24360800  1
  O  O34  1  0.29170200  0.82596000  0.24360800  1
  O  O35  1  0.70829800  0.17404000  0.74360800  1
  O  O36  1  0.77941500  0.90929900  0.59982000  1
  O  O37  1  0.22058500  0.09070100  0.09982000  1
  O  O38  1  0.72058500  0.90929900  0.09982000  1
  O  O39  1  0.27941500  0.09070100  0.59982000  1
  O  O40  1  0.64339500  0.73529700  0.52938600  1
  O  O41  1  0.35660500  0.26470300  0.02938600  1
  O  O42  1  0.85660500  0.73529700  0.02938600  1
  O  O43  1  0.14339500  0.26470300  0.52938600  1
  O  O44  1  0.71178500  0.94279500  0.39947700  1
  O  O45  1  0.28821500  0.05720500  0.89947700  1
  O  O46  1  0.78821500  0.94279500  0.89947700  1
  O  O47  1  0.21178500  0.05720500  0.39947700  1
  O  O48  1  0.79774600  0.66374100  0.46985700  1
  O  O49  1  0.20225400  0.33625900  0.96985700  1
  O  O50  1  0.70225400  0.66374100  0.96985700  1
  O  O51  1  0.29774600  0.33625900  0.46985700  1
