# generated using pymatgen
data_Ni9S8
_symmetry_space_group_name_H-M   'P 1'
_cell_length_a   9.54609900
_cell_length_b   9.54609900
_cell_length_c   12.97223143
_cell_angle_alpha   111.58884702
_cell_angle_beta   111.58884702
_cell_angle_gamma   90.00000000
_symmetry_Int_Tables_number   1
_chemical_formula_structural   Ni9S8
_chemical_formula_sum   'Ni36 S32'
_cell_volume   1009.48607066
_cell_formula_units_Z   4
loop_
 _symmetry_equiv_pos_site_id
 _symmetry_equiv_pos_as_xyz
  1  'x, y, z'
loop_
 _atom_site_type_symbol
 _atom_site_label
 _atom_site_symmetry_multiplicity
 _atom_site_fract_x
 _atom_site_fract_y
 _atom_site_fract_z
 _atom_site_occupancy
  Ni  Ni0  1  0.48403700  0.74880600  0.50272900  1
  Ni  Ni1  1  0.76596300  0.99607600  0.99727100  1
  Ni  Ni2  1  0.01869200  0.75392400  0.50272900  1
  Ni  Ni3  1  0.23130800  0.00119400  0.99727100  1
  Ni  Ni4  1  0.25119400  0.98130800  0.49727100  1
  Ni  Ni5  1  0.99880600  0.23403700  0.00272900  1
  Ni  Ni6  1  0.24607600  0.51596300  0.49727100  1
  Ni  Ni7  1  0.00392400  0.76869200  0.00272900  1
  Ni  Ni8  1  0.75336900  0.75336900  0.50673800  1
  Ni  Ni9  1  0.49663100  0.99663100  0.99326200  1
  Ni  Ni10  1  0.24663100  0.24663100  0.49326200  1
  Ni  Ni11  1  0.00336900  0.50336900  0.00673800  1
  Ni  Ni12  1  0.41625100  0.37500000  0.25000000  1
  Ni  Ni13  1  0.83374900  0.87500000  0.25000000  1
  Ni  Ni14  1  0.62500000  0.16625100  0.75000000  1
  Ni  Ni15  1  0.12500000  0.58374900  0.75000000  1
  Ni  Ni16  1  0.88422100  0.38422100  0.76844200  1
  Ni  Ni17  1  0.36577900  0.36577900  0.73155800  1
  Ni  Ni18  1  0.61577900  0.11577900  0.23155800  1
  Ni  Ni19  1  0.63422100  0.63422100  0.26844200  1
  Ni  Ni20  1  0.23603200  0.74309800  0.67839800  1
  Ni  Ni21  1  0.01396800  0.81470000  0.82160200  1
  Ni  Ni22  1  0.44236700  0.93530000  0.67839800  1
  Ni  Ni23  1  0.80763300  0.00690200  0.82160200  1
  Ni  Ni24  1  0.25690200  0.55763300  0.32160200  1
  Ni  Ni25  1  0.99309800  0.98603200  0.17839800  1
  Ni  Ni26  1  0.06470000  0.76396800  0.32160200  1
  Ni  Ni27  1  0.18530000  0.19236700  0.17839800  1
  Ni  Ni28  1  0.59405900  0.32919000  0.42266500  1
  Ni  Ni29  1  0.65594100  0.65652500  0.07733500  1
  Ni  Ni30  1  0.82860600  0.09347500  0.42266500  1
  Ni  Ni31  1  0.42139400  0.42081000  0.07733500  1
  Ni  Ni32  1  0.67081000  0.17139400  0.57733500  1
  Ni  Ni33  1  0.57919000  0.34405900  0.92266500  1
  Ni  Ni34  1  0.90652500  0.40594100  0.57733500  1
  Ni  Ni35  1  0.34347500  0.57860600  0.92266500  1
  S  S36  1  0.57476700  0.56263000  0.39981700  1
  S  S37  1  0.67523300  0.91281400  0.10018300  1
  S  S38  1  0.82505000  0.83718600  0.39981700  1
  S  S39  1  0.42495000  0.18737000  0.10018300  1
  S  S40  1  0.43737000  0.17495000  0.60018300  1
  S  S41  1  0.81263000  0.32476700  0.89981700  1
  S  S42  1  0.16281400  0.42523300  0.60018300  1
  S  S43  1  0.08718600  0.57505000  0.89981700  1
  S  S44  1  0.67710300  0.94747500  0.62288400  1
  S  S45  1  0.57289700  0.07459100  0.87711600  1
  S  S46  1  0.94578200  0.67540900  0.62288400  1
  S  S47  1  0.30421800  0.80252500  0.87711600  1
  S  S48  1  0.05252500  0.05421800  0.37711600  1
  S  S49  1  0.19747500  0.42710300  0.12288400  1
  S  S50  1  0.32459100  0.32289700  0.37711600  1
  S  S51  1  0.92540900  0.69578200  0.12288400  1
  S  S52  1  0.44423400  0.69024800  0.64084800  1
  S  S53  1  0.80576600  0.79940000  0.85915200  1
  S  S54  1  0.19661400  0.95060000  0.64084800  1
  S  S55  1  0.05338600  0.05975200  0.85915200  1
  S  S56  1  0.30975200  0.80338600  0.35915200  1
  S  S57  1  0.94024800  0.19423400  0.14084800  1
  S  S58  1  0.04940000  0.55576600  0.35915200  1
  S  S59  1  0.20060000  0.94661400  0.14084800  1
  S  S60  1  0.69916100  0.42864600  0.62551800  1
  S  S61  1  0.55083900  0.55312800  0.87448200  1
  S  S62  1  0.92635700  0.19687200  0.62551800  1
  S  S63  1  0.32364300  0.32135400  0.87448200  1
  S  S64  1  0.57135400  0.07364300  0.37448200  1
  S  S65  1  0.67864600  0.44916100  0.12551800  1
  S  S66  1  0.80312800  0.30083900  0.37448200  1
  S  S67  1  0.44687200  0.67635700  0.12551800  1
