# generated using pymatgen
data_NdN3O13
_symmetry_space_group_name_H-M   'P 1'
_cell_length_a   9.22868100
_cell_length_b   9.81224900
_cell_length_c   12.53159980
_cell_angle_alpha   84.04335471
_cell_angle_beta   90.00000000
_cell_angle_gamma   90.00000000
_symmetry_Int_Tables_number   1
_chemical_formula_structural   NdN3O13
_chemical_formula_sum   'Nd4 N12 O52'
_cell_volume   1128.66088639
_cell_formula_units_Z   4
loop_
 _symmetry_equiv_pos_site_id
 _symmetry_equiv_pos_as_xyz
  1  'x, y, z'
loop_
 _atom_site_type_symbol
 _atom_site_label
 _atom_site_symmetry_multiplicity
 _atom_site_fract_x
 _atom_site_fract_y
 _atom_site_fract_z
 _atom_site_occupancy
  Nd  Nd0  1  0.92055700  0.74180100  0.84473100  1
  Nd  Nd1  1  0.42055700  0.25819900  0.65526900  1
  Nd  Nd2  1  0.07944300  0.25819900  0.15526900  1
  Nd  Nd3  1  0.57944300  0.74180100  0.34473100  1
  N  N4  1  0.80561500  0.99265100  0.91578200  1
  N  N5  1  0.30561500  0.00734900  0.58421800  1
  N  N6  1  0.19438500  0.00734900  0.08421800  1
  N  N7  1  0.69438500  0.99265100  0.41578200  1
  N  N8  1  0.73975800  0.50485800  0.90974500  1
  N  N9  1  0.23975800  0.49514200  0.59025500  1
  N  N10  1  0.26024200  0.49514200  0.09025500  1
  N  N11  1  0.76024200  0.50485800  0.40974500  1
  N  N12  1  0.22788000  0.72155300  0.79689500  1
  N  N13  1  0.72788000  0.27844700  0.70310500  1
  N  N14  1  0.77212000  0.27844700  0.20310500  1
  N  N15  1  0.27212000  0.72155300  0.29689500  1
  O  O16  1  0.93894300  0.97814500  0.88438800  1
  O  O17  1  0.43894300  0.02185500  0.61561200  1
  O  O18  1  0.06105700  0.02185500  0.11561200  1
  O  O19  1  0.56105700  0.97814500  0.38438800  1
  O  O20  1  0.72199800  0.88935600  0.90318500  1
  O  O21  1  0.22199800  0.11064400  0.59681500  1
  O  O22  1  0.27800200  0.11064400  0.09681500  1
  O  O23  1  0.77800200  0.88935600  0.40318500  1
  O  O24  1  0.76431000  0.09435600  0.95502300  1
  O  O25  1  0.26431000  0.90564400  0.54497700  1
  O  O26  1  0.23569000  0.90564400  0.04497700  1
  O  O27  1  0.73569000  0.09435600  0.45502300  1
  O  O28  1  0.68482400  0.61658300  0.86336300  1
  O  O29  1  0.18482400  0.38341700  0.63663700  1
  O  O30  1  0.31517600  0.38341700  0.13663700  1
  O  O31  1  0.81517600  0.61658300  0.36336300  1
  O  O32  1  0.88047400  0.50596900  0.92033000  1
  O  O33  1  0.38047400  0.49403100  0.57967000  1
  O  O34  1  0.11952600  0.49403100  0.07967000  1
  O  O35  1  0.61952600  0.50596900  0.42033000  1
  O  O36  1  0.66723100  0.40521100  0.94242000  1
  O  O37  1  0.16723100  0.59478900  0.55758000  1
  O  O38  1  0.33276900  0.59478900  0.05758000  1
  O  O39  1  0.83276900  0.40521100  0.44242000  1
  O  O40  1  0.15881000  0.83755200  0.78565800  1
  O  O41  1  0.65881000  0.16244800  0.71434200  1
  O  O42  1  0.84119000  0.16244800  0.21434200  1
  O  O43  1  0.34119000  0.83755200  0.28565800  1
  O  O44  1  0.14617800  0.61466700  0.82206600  1
  O  O45  1  0.64617800  0.38533300  0.67793400  1
  O  O46  1  0.85382200  0.38533300  0.17793400  1
  O  O47  1  0.35382200  0.61466700  0.32206600  1
  O  O48  1  0.35826600  0.71289200  0.78547700  1
  O  O49  1  0.85826600  0.28710800  0.71452300  1
  O  O50  1  0.64173400  0.28710800  0.21452300  1
  O  O51  1  0.14173400  0.71289200  0.28547700  1
  O  O52  1  0.58884900  0.74540100  0.64693200  1
  O  O53  1  0.08884900  0.25459900  0.85306800  1
  O  O54  1  0.41115100  0.25459900  0.35306800  1
  O  O55  1  0.91115100  0.74540100  0.14693200  1
  O  O56  1  0.94898000  0.73503800  0.05429700  1
  O  O57  1  0.44898000  0.26496200  0.44570300  1
  O  O58  1  0.05102000  0.26496200  0.94570300  1
  O  O59  1  0.55102000  0.73503800  0.55429700  1
  O  O60  1  0.91442600  0.81021600  0.61350900  1
  O  O61  1  0.41442600  0.18978400  0.88649100  1
  O  O62  1  0.08557400  0.18978400  0.38649100  1
  O  O63  1  0.58557400  0.81021600  0.11350900  1
  O  O64  1  0.89234100  0.68445700  0.62839700  1
  O  O65  1  0.39234100  0.31554300  0.87160300  1
  O  O66  1  0.10765900  0.31554300  0.37160300  1
  O  O67  1  0.60765900  0.68445700  0.12839700  1
