# generated using pymatgen
data_Na3FeH10C6O17
_symmetry_space_group_name_H-M   'P 1'
_cell_length_a   10.90535160
_cell_length_b   10.90535160
_cell_length_c   15.12353233
_cell_angle_alpha   81.36840073
_cell_angle_beta   81.36840073
_cell_angle_gamma   73.03717236
_symmetry_Int_Tables_number   1
_chemical_formula_structural   Na3FeH10C6O17
_chemical_formula_sum   'Na12 Fe4 H40 C24 O68'
_cell_volume   1690.07887902
_cell_formula_units_Z   4
loop_
 _symmetry_equiv_pos_site_id
 _symmetry_equiv_pos_as_xyz
  1  'x, y, z'
loop_
 _atom_site_type_symbol
 _atom_site_label
 _atom_site_symmetry_multiplicity
 _atom_site_fract_x
 _atom_site_fract_y
 _atom_site_fract_z
 _atom_site_occupancy
  Na  Na0  1  0.50120600  0.49879400  0.25000000  1
  Na  Na1  1  0.49879400  0.50120600  0.75000000  1
  Na  Na2  1  0.77282900  0.22717100  0.25000000  1
  Na  Na3  1  0.22717100  0.77282900  0.75000000  1
  Na  Na4  1  0.07185700  0.84570400  0.99859500  1
  Na  Na5  1  0.15429600  0.92814300  0.50140500  1
  Na  Na6  1  0.92814300  0.15429600  0.00140500  1
  Na  Na7  1  0.84570400  0.07185700  0.49859500  1
  Na  Na8  1  0.25156700  0.51403600  0.01664900  1
  Na  Na9  1  0.48596400  0.74843300  0.48335100  1
  Na  Na10  1  0.74843300  0.48596400  0.98335100  1
  Na  Na11  1  0.51403600  0.25156700  0.51664900  1
  Fe  Fe12  1  0.94438000  0.67357400  0.23151100  1
  Fe  Fe13  1  0.32642600  0.05562000  0.26848900  1
  Fe  Fe14  1  0.05562000  0.32642600  0.76848900  1
  Fe  Fe15  1  0.67357400  0.94438000  0.73151100  1
  H  H16  1  0.35319200  0.72869000  0.94586300  1
  H  H17  1  0.27131000  0.64680800  0.55413700  1
  H  H18  1  0.64680800  0.27131000  0.05413700  1
  H  H19  1  0.72869000  0.35319200  0.44586300  1
  H  H20  1  0.34620200  0.72220100  0.05240300  1
  H  H21  1  0.27779900  0.65379800  0.44759700  1
  H  H22  1  0.65379800  0.27779900  0.94759700  1
  H  H23  1  0.72220100  0.34620200  0.55240300  1
  H  H24  1  0.22140800  0.03575400  0.99352000  1
  H  H25  1  0.96424600  0.77859200  0.50648000  1
  H  H26  1  0.77859200  0.96424600  0.00648000  1
  H  H27  1  0.03575400  0.22140800  0.49352000  1
  H  H28  1  0.18893800  0.98812800  0.09335600  1
  H  H29  1  0.01187200  0.81106200  0.40664400  1
  H  H30  1  0.81106200  0.01187200  0.90664400  1
  H  H31  1  0.98812800  0.18893800  0.59335600  1
  H  H32  1  0.96280800  0.61834000  0.02244200  1
  H  H33  1  0.38166000  0.03719200  0.47755800  1
  H  H34  1  0.03719200  0.38166000  0.97755800  1
  H  H35  1  0.61834000  0.96280800  0.52244200  1
  H  H36  1  0.01103500  0.65830600  0.91997600  1
  H  H37  1  0.34169400  0.98896500  0.58002400  1
  H  H38  1  0.98896500  0.34169400  0.08002400  1
  H  H39  1  0.65830600  0.01103500  0.41997600  1
  H  H40  1  0.27223100  0.25028600  0.08360900  1
  H  H41  1  0.74971400  0.72776900  0.41639100  1
  H  H42  1  0.72776900  0.74971400  0.91639100  1
  H  H43  1  0.25028600  0.27223100  0.58360900  1
  H  H44  1  0.24691600  0.27195500  0.98238300  1
  H  H45  1  0.72804500  0.75308400  0.51761700  1
  H  H46  1  0.75308400  0.72804500  0.01761700  1
  H  H47  1  0.27195500  0.24691600  0.48238300  1
  H  H48  1  0.39953200  0.12447700  0.93607000  1
  H  H49  1  0.87552300  0.60046800  0.56393000  1
  H  H50  1  0.60046800  0.87552300  0.06393000  1
  H  H51  1  0.12447700  0.39953200  0.43607000  1
  H  H52  1  0.40925900  0.00898200  0.88299500  1
  H  H53  1  0.99101800  0.59074100  0.61700500  1
  H  H54  1  0.59074100  0.99101800  0.11700500  1
  H  H55  1  0.00898200  0.40925900  0.38299500  1
  C  C56  1  0.77717700  0.54254200  0.18518200  1
  C  C57  1  0.45745800  0.22282300  0.31481800  1
  C  C58  1  0.22282300  0.45745800  0.81481800  1
  C  C59  1  0.54254200  0.77717700  0.68518200  1
  C  C60  1  0.79974500  0.49122600  0.28497300  1
  C  C61  1  0.50877400  0.20025500  0.21502700  1
  C  C62  1  0.20025500  0.50877400  0.71502700  1
  C  C63  1  0.49122600  0.79974500  0.78497300  1
  C  C64  1  0.79455700  0.92292200  0.27287300  1
  C  C65  1  0.07707800  0.20544300  0.22712700  1
  C  C66  1  0.20544300  0.07707800  0.72712700  1
  C  C67  1  0.92292200  0.79455700  0.77287300  1
  C  C68  1  0.88149600  0.94548200  0.18407800  1
  C  C69  1  0.05451800  0.11850400  0.31592200  1
  C  C70  1  0.11850400  0.05451800  0.81592200  1
  C  C71  1  0.94548200  0.88149600  0.68407800  1
  C  C72  1  0.18827500  0.60538200  0.29936700  1
  C  C73  1  0.39461800  0.81172500  0.20063300  1
  C  C74  1  0.81172500  0.39461800  0.70063300  1
  C  C75  1  0.60538200  0.18827500  0.79936700  1
  C  C76  1  0.21070800  0.54157000  0.21062800  1
  C  C77  1  0.45843000  0.78929200  0.28937200  1
  C  C78  1  0.78929200  0.45843000  0.78937200  1
  C  C79  1  0.54157000  0.21070800  0.71062800  1
  O  O80  1  0.83744800  0.62731400  0.14867000  1
  O  O81  1  0.37268600  0.16255200  0.35133000  1
  O  O82  1  0.16255200  0.37268600  0.85133000  1
  O  O83  1  0.62731400  0.83744800  0.64867000  1
  O  O84  1  0.88570700  0.52967600  0.31487100  1
  O  O85  1  0.47032400  0.11429300  0.18512900  1
  O  O86  1  0.11429300  0.47032400  0.68512900  1
  O  O87  1  0.52967600  0.88570700  0.81487100  1
  O  O88  1  0.70860000  0.49832700  0.14706000  1
  O  O89  1  0.50167300  0.29140000  0.35294000  1
  O  O90  1  0.29140000  0.50167300  0.85294000  1
  O  O91  1  0.49832700  0.70860000  0.64706000  1
  O  O92  1  0.73892400  0.41610000  0.32719900  1
  O  O93  1  0.58390000  0.26107600  0.17280100  1
  O  O94  1  0.26107600  0.58390000  0.67280100  1
  O  O95  1  0.41610000  0.73892400  0.82719900  1
  O  O96  1  0.95540600  0.84065000  0.15319100  1
  O  O97  1  0.15935000  0.04459400  0.34680900  1
  O  O98  1  0.04459400  0.15935000  0.84680900  1
  O  O99  1  0.84065000  0.95540600  0.65319100  1
  O  O100  1  0.80628800  0.80337500  0.30274600  1
  O  O101  1  0.19662500  0.19371200  0.19725400  1
  O  O102  1  0.19371200  0.19662500  0.69725400  1
  O  O103  1  0.80337500  0.80628800  0.80274600  1
  O  O104  1  0.87599400  0.05755000  0.14992000  1
  O  O105  1  0.94245000  0.12400600  0.35008000  1
  O  O106  1  0.12400600  0.94245000  0.85008000  1
  O  O107  1  0.05755000  0.87599400  0.64992000  1
  O  O108  1  0.72213200  0.01796200  0.30875600  1
  O  O109  1  0.98203800  0.27786800  0.19124400  1
  O  O110  1  0.27786800  0.98203800  0.69124400  1
  O  O111  1  0.01796200  0.72213200  0.80875600  1
  O  O112  1  0.07148400  0.67678300  0.31746900  1
  O  O113  1  0.32321700  0.92851600  0.18253100  1
  O  O114  1  0.92851600  0.32321700  0.68253100  1
  O  O115  1  0.67678300  0.07148400  0.81746900  1
  O  O116  1  0.10797100  0.56457000  0.17021100  1
  O  O117  1  0.43543000  0.89202900  0.32978900  1
  O  O118  1  0.89202900  0.43543000  0.82978900  1
  O  O119  1  0.56457000  0.10797100  0.67021100  1
  O  O120  1  0.27931200  0.58645700  0.34485700  1
  O  O121  1  0.41354300  0.72068800  0.15514300  1
  O  O122  1  0.72068800  0.41354300  0.65514300  1
  O  O123  1  0.58645700  0.27931200  0.84485700  1
  O  O124  1  0.31959000  0.47759400  0.18179200  1
  O  O125  1  0.52240600  0.68041000  0.31820800  1
  O  O126  1  0.68041000  0.52240600  0.81820800  1
  O  O127  1  0.47759400  0.31959000  0.68179200  1
  O  O128  1  0.30100300  0.71129700  0.00321900  1
  O  O129  1  0.28870300  0.69899700  0.49678100  1
  O  O130  1  0.69899700  0.28870300  0.99678100  1
  O  O131  1  0.71129700  0.30100300  0.50321900  1
  O  O132  1  0.14916600  0.01878800  0.03717300  1
  O  O133  1  0.98121200  0.85083400  0.46282700  1
  O  O134  1  0.85083400  0.98121200  0.96282700  1
  O  O135  1  0.01878800  0.14916600  0.53717300  1
  O  O136  1  0.03533000  0.63816600  0.98249900  1
  O  O137  1  0.36183400  0.96467000  0.51750100  1
  O  O138  1  0.96467000  0.36183400  0.01750100  1
  O  O139  1  0.63816600  0.03533000  0.48249900  1
  O  O140  1  0.29727500  0.29153100  0.02385700  1
  O  O141  1  0.70846900  0.70272500  0.47614300  1
  O  O142  1  0.70272500  0.70846900  0.97614300  1
  O  O143  1  0.29153100  0.29727500  0.52385700  1
  O  O144  1  0.34734600  0.08145700  0.91149900  1
  O  O145  1  0.91854300  0.65265400  0.58850100  1
  O  O146  1  0.65265400  0.91854300  0.08850100  1
  O  O147  1  0.08145700  0.34734600  0.41149900  1
