# generated using pymatgen
data_TlH12C4S2I3O2
_symmetry_space_group_name_H-M   'P 1'
_cell_length_a   9.35873328
_cell_length_b   9.35873328
_cell_length_c   13.12740081
_cell_angle_alpha   95.20693401
_cell_angle_beta   95.20693401
_cell_angle_gamma   119.53420391
_symmetry_Int_Tables_number   1
_chemical_formula_structural   TlH12C4S2I3O2
_chemical_formula_sum   'Tl2 H24 C8 S4 I6 O4'
_cell_volume   983.99186161
_cell_formula_units_Z   2
loop_
 _symmetry_equiv_pos_site_id
 _symmetry_equiv_pos_as_xyz
  1  'x, y, z'
loop_
 _atom_site_type_symbol
 _atom_site_label
 _atom_site_symmetry_multiplicity
 _atom_site_fract_x
 _atom_site_fract_y
 _atom_site_fract_z
 _atom_site_occupancy
  Tl  Tl0  1  0.78719800  0.21280200  0.75000000  1
  Tl  Tl1  1  0.21280200  0.78719800  0.25000000  1
  H  H2  1  0.80188300  0.09202000  0.38739400  1
  H  H3  1  0.90798000  0.19811700  0.11260600  1
  H  H4  1  0.19811700  0.90798000  0.61260600  1
  H  H5  1  0.09202000  0.80188300  0.88739400  1
  H  H6  1  0.93264700  0.30913100  0.37640400  1
  H  H7  1  0.69086900  0.06735300  0.12359600  1
  H  H8  1  0.06735300  0.69086900  0.62359600  1
  H  H9  1  0.30913100  0.93264700  0.87640400  1
  H  H10  1  0.01068100  0.16702900  0.36092400  1
  H  H11  1  0.83297100  0.98931900  0.13907600  1
  H  H12  1  0.98931900  0.83297100  0.63907600  1
  H  H13  1  0.16702900  0.01068100  0.86092400  1
  H  H14  1  0.27309100  0.46144600  0.61579900  1
  H  H15  1  0.53855400  0.72690900  0.88420100  1
  H  H16  1  0.72690900  0.53855400  0.38420100  1
  H  H17  1  0.46144600  0.27309100  0.11579900  1
  H  H18  1  0.27358600  0.37293900  0.48824200  1
  H  H19  1  0.62706100  0.72641400  0.01175800  1
  H  H20  1  0.72641400  0.62706100  0.51175800  1
  H  H21  1  0.37293900  0.27358600  0.98824200  1
  H  H22  1  0.19530800  0.51553100  0.50281600  1
  H  H23  1  0.48446900  0.80469200  0.99718400  1
  H  H24  1  0.80469200  0.48446900  0.49718400  1
  H  H25  1  0.51553100  0.19530800  0.00281600  1
  C  C26  1  0.92916800  0.19877000  0.40070900  1
  C  C27  1  0.80123000  0.07083200  0.09929100  1
  C  C28  1  0.07083200  0.80123000  0.59929100  1
  C  C29  1  0.19877000  0.92916800  0.90070900  1
  C  C30  1  0.20826600  0.41799300  0.53559500  1
  C  C31  1  0.58200700  0.79173400  0.96440500  1
  C  C32  1  0.79173400  0.58200700  0.46440500  1
  C  C33  1  0.41799300  0.20826600  0.03559500  1
  S  S34  1  0.00470200  0.24419000  0.53800200  1
  S  S35  1  0.75581000  0.99529800  0.96199800  1
  S  S36  1  0.99529800  0.75581000  0.46199800  1
  S  S37  1  0.24419000  0.00470200  0.03800200  1
  I  I38  1  0.11374000  0.37511900  0.85655500  1
  I  I39  1  0.62488100  0.88626000  0.64344500  1
  I  I40  1  0.88626000  0.62488100  0.14344500  1
  I  I41  1  0.37511900  0.11374000  0.35655500  1
  I  I42  1  0.61544800  0.38455200  0.75000000  1
  I  I43  1  0.38455200  0.61544800  0.25000000  1
  O  O44  1  0.90868000  0.31836200  0.58747400  1
  O  O45  1  0.68163800  0.09132000  0.91252600  1
  O  O46  1  0.09132000  0.68163800  0.41252600  1
  O  O47  1  0.31836200  0.90868000  0.08747400  1
