# generated using pymatgen
data_PrH3CSO7
_symmetry_space_group_name_H-M   'P 1'
_cell_length_a   7.05953000
_cell_length_b   7.05953000
_cell_length_c   11.98053800
_cell_angle_alpha   90.00000000
_cell_angle_beta   90.00000000
_cell_angle_gamma   90.00000000
_symmetry_Int_Tables_number   1
_chemical_formula_structural   PrH3CSO7
_chemical_formula_sum   'Pr4 H12 C4 S4 O28'
_cell_volume   597.07363886
_cell_formula_units_Z   4
loop_
 _symmetry_equiv_pos_site_id
 _symmetry_equiv_pos_as_xyz
  1  'x, y, z'
loop_
 _atom_site_type_symbol
 _atom_site_label
 _atom_site_symmetry_multiplicity
 _atom_site_fract_x
 _atom_site_fract_y
 _atom_site_fract_z
 _atom_site_occupancy
  Pr  Pr0  1  0.11446400  0.63118500  0.90721200  1
  Pr  Pr1  1  0.88553600  0.36881500  0.40721200  1
  Pr  Pr2  1  0.63118500  0.88553600  0.65721200  1
  Pr  Pr3  1  0.36881500  0.11446400  0.15721200  1
  H  H4  1  0.03158900  0.14033800  0.86638600  1
  H  H5  1  0.96841100  0.85966200  0.36638600  1
  H  H6  1  0.14033800  0.96841100  0.61638600  1
  H  H7  1  0.85966200  0.03158900  0.11638600  1
  H  H8  1  0.17536100  0.39965800  0.68838200  1
  H  H9  1  0.82463900  0.60034200  0.18838200  1
  H  H10  1  0.39965800  0.82463900  0.43838200  1
  H  H11  1  0.60034200  0.17536100  0.93838200  1
  H  H12  1  0.38288600  0.45875000  0.72542800  1
  H  H13  1  0.61711400  0.54125000  0.22542800  1
  H  H14  1  0.45875000  0.61711400  0.47542800  1
  H  H15  1  0.54125000  0.38288600  0.97542800  1
  C  C16  1  0.11352500  0.13594200  0.94456000  1
  C  C17  1  0.88647500  0.86405800  0.44456000  1
  C  C18  1  0.13594200  0.88647500  0.69456000  1
  C  C19  1  0.86405800  0.11352500  0.19456000  1
  S  S20  1  0.76501900  0.38734600  0.71313300  1
  S  S21  1  0.23498100  0.61265400  0.21313300  1
  S  S22  1  0.38734600  0.23498100  0.46313300  1
  S  S23  1  0.61265400  0.76501900  0.96313300  1
  O  O24  1  0.88824400  0.36667600  0.61344500  1
  O  O25  1  0.11175600  0.63332400  0.11344500  1
  O  O26  1  0.36667600  0.11175600  0.36344500  1
  O  O27  1  0.63332400  0.88824400  0.86344500  1
  O  O28  1  0.61827700  0.53788700  0.69265400  1
  O  O29  1  0.38172300  0.46211300  0.19265400  1
  O  O30  1  0.53788700  0.38172300  0.44265400  1
  O  O31  1  0.46211300  0.61827700  0.94265400  1
  O  O32  1  0.88252300  0.44102100  0.80999400  1
  O  O33  1  0.11747700  0.55897900  0.30999400  1
  O  O34  1  0.44102100  0.11747700  0.55999400  1
  O  O35  1  0.55897900  0.88252300  0.05999400  1
  O  O36  1  0.66962200  0.20628500  0.73930300  1
  O  O37  1  0.33037800  0.79371500  0.23930300  1
  O  O38  1  0.20628500  0.33037800  0.48930300  1
  O  O39  1  0.79371500  0.66962200  0.98930300  1
  O  O40  1  0.15579700  0.29068400  0.99245500  1
  O  O41  1  0.84420300  0.70931600  0.49245500  1
  O  O42  1  0.29068400  0.84420300  0.74245500  1
  O  O43  1  0.70931600  0.15579700  0.24245500  1
  O  O44  1  0.16099300  0.97543200  0.98537300  1
  O  O45  1  0.83900700  0.02456800  0.48537300  1
  O  O46  1  0.97543200  0.83900700  0.73537300  1
  O  O47  1  0.02456800  0.16099300  0.23537300  1
  O  O48  1  0.25371800  0.43173500  0.75315700  1
  O  O49  1  0.74628200  0.56826500  0.25315700  1
  O  O50  1  0.43173500  0.74628200  0.50315700  1
  O  O51  1  0.56826500  0.25371800  0.00315700  1
