# generated using pymatgen
data_CeAsO5F
_symmetry_space_group_name_H-M   'P 1'
_cell_length_a   7.33940400
_cell_length_b   5.30978200
_cell_length_c   12.86736704
_cell_angle_alpha   70.94896114
_cell_angle_beta   90.00000000
_cell_angle_gamma   90.00000000
_symmetry_Int_Tables_number   1
_chemical_formula_structural   CeAsO5F
_chemical_formula_sum   'Ce4 As4 O20 F4'
_cell_volume   473.98417035
_cell_formula_units_Z   4
loop_
 _symmetry_equiv_pos_site_id
 _symmetry_equiv_pos_as_xyz
  1  'x, y, z'
loop_
 _atom_site_type_symbol
 _atom_site_label
 _atom_site_symmetry_multiplicity
 _atom_site_fract_x
 _atom_site_fract_y
 _atom_site_fract_z
 _atom_site_occupancy
  Ce  Ce0  1  0.79700900  0.95256300  0.80884500  1
  Ce  Ce1  1  0.20299100  0.04743700  0.19115500  1
  Ce  Ce2  1  0.29700900  0.04743700  0.69115500  1
  Ce  Ce3  1  0.70299100  0.95256300  0.30884500  1
  As  As4  1  0.13784700  0.39212300  0.88660900  1
  As  As5  1  0.86215300  0.60787700  0.11339100  1
  As  As6  1  0.63784700  0.60787700  0.61339100  1
  As  As7  1  0.36215300  0.39212300  0.38660900  1
  O  O8  1  0.29355600  0.29101400  0.80986400  1
  O  O9  1  0.70644400  0.70898600  0.19013600  1
  O  O10  1  0.79355600  0.70898600  0.69013600  1
  O  O11  1  0.20644400  0.29101400  0.30986400  1
  O  O12  1  0.10180700  0.73221000  0.82607100  1
  O  O13  1  0.89819300  0.26779000  0.17392900  1
  O  O14  1  0.60180700  0.26779000  0.67392900  1
  O  O15  1  0.39819300  0.73221000  0.32607100  1
  O  O16  1  0.28773600  0.33053800  0.51876000  1
  O  O17  1  0.71226400  0.66946200  0.48124000  1
  O  O18  1  0.78773600  0.66946200  0.98124000  1
  O  O19  1  0.21226400  0.33053800  0.01876000  1
  O  O20  1  0.43604600  0.77706900  0.61081800  1
  O  O21  1  0.56395400  0.22293100  0.38918200  1
  O  O22  1  0.93604600  0.22293100  0.88918200  1
  O  O23  1  0.06395400  0.77706900  0.11081800  1
  O  O24  1  0.11549600  0.82068800  0.58169500  1
  O  O25  1  0.88450400  0.17931200  0.41830500  1
  O  O26  1  0.61549600  0.17931200  0.91830500  1
  O  O27  1  0.38450400  0.82068800  0.08169500  1
  F  F28  1  0.50123800  0.80936100  0.81984200  1
  F  F29  1  0.49876200  0.19063900  0.18015800  1
  F  F30  1  0.00123800  0.19063900  0.68015800  1
  F  F31  1  0.99876200  0.80936100  0.31984200  1
