# generated using pymatgen
data_FeMo2H4NO8
_symmetry_space_group_name_H-M   'P 1'
_cell_length_a   15.23263600
_cell_length_b   5.74531300
_cell_length_c   8.96523400
_cell_angle_alpha   90.00000000
_cell_angle_beta   90.00000000
_cell_angle_gamma   90.00000000
_symmetry_Int_Tables_number   1
_chemical_formula_structural   FeMo2H4NO8
_chemical_formula_sum   'Fe4 Mo8 H16 N4 O32'
_cell_volume   784.60376436
_cell_formula_units_Z   4
loop_
 _symmetry_equiv_pos_site_id
 _symmetry_equiv_pos_as_xyz
  1  'x, y, z'
loop_
 _atom_site_type_symbol
 _atom_site_label
 _atom_site_symmetry_multiplicity
 _atom_site_fract_x
 _atom_site_fract_y
 _atom_site_fract_z
 _atom_site_occupancy
  Fe  Fe0  1  0.61949200  0.25000000  0.81394700  1
  Fe  Fe1  1  0.11949200  0.25000000  0.68605300  1
  Fe  Fe2  1  0.38050800  0.75000000  0.18605300  1
  Fe  Fe3  1  0.88050800  0.75000000  0.31394700  1
  Mo  Mo4  1  0.52907800  0.25000000  0.20324000  1
  Mo  Mo5  1  0.02907800  0.25000000  0.29676000  1
  Mo  Mo6  1  0.47092200  0.75000000  0.79676000  1
  Mo  Mo7  1  0.97092200  0.75000000  0.70324000  1
  Mo  Mo8  1  0.78077900  0.25000000  0.50587700  1
  Mo  Mo9  1  0.28077900  0.25000000  0.99412300  1
  Mo  Mo10  1  0.21922100  0.75000000  0.49412300  1
  Mo  Mo11  1  0.71922100  0.75000000  0.00587700  1
  H  H12  1  0.92991300  0.25000000  0.88267400  1
  H  H13  1  0.42991300  0.25000000  0.61732600  1
  H  H14  1  0.07008700  0.75000000  0.11732600  1
  H  H15  1  0.57008700  0.75000000  0.38267400  1
  H  H16  1  0.82187900  0.25000000  0.92087100  1
  H  H17  1  0.32187900  0.25000000  0.57912900  1
  H  H18  1  0.17812100  0.75000000  0.07912900  1
  H  H19  1  0.67812100  0.75000000  0.42087100  1
  H  H20  1  0.89175900  0.10343200  0.03346300  1
  H  H21  1  0.39175900  0.39656800  0.46653700  1
  H  H22  1  0.10824100  0.60343200  0.96653700  1
  H  H23  1  0.60824100  0.89656800  0.53346300  1
  H  H24  1  0.10824100  0.89656800  0.96653700  1
  H  H25  1  0.60824100  0.60343200  0.53346300  1
  H  H26  1  0.89175900  0.39656800  0.03346300  1
  H  H27  1  0.39175900  0.10343200  0.46653700  1
  N  N28  1  0.88395900  0.25000000  0.96760600  1
  N  N29  1  0.38395900  0.25000000  0.53239400  1
  N  N30  1  0.11604100  0.75000000  0.03239400  1
  N  N31  1  0.61604100  0.75000000  0.46760600  1
  O  O32  1  0.55327300  0.25000000  0.00751500  1
  O  O33  1  0.05327300  0.25000000  0.49248500  1
  O  O34  1  0.44672700  0.75000000  0.99248500  1
  O  O35  1  0.94672700  0.75000000  0.50751500  1
  O  O36  1  0.46425300  0.99821800  0.26269400  1
  O  O37  1  0.96425300  0.50178200  0.23730600  1
  O  O38  1  0.53574700  0.49821800  0.73730600  1
  O  O39  1  0.03574700  0.00178200  0.76269400  1
  O  O40  1  0.53574700  0.00178200  0.73730600  1
  O  O41  1  0.03574700  0.49821800  0.76269400  1
  O  O42  1  0.46425300  0.50178200  0.26269400  1
  O  O43  1  0.96425300  0.99821800  0.23730600  1
  O  O44  1  0.86578300  0.25000000  0.63503300  1
  O  O45  1  0.36578300  0.25000000  0.86496700  1
  O  O46  1  0.13421700  0.75000000  0.36496700  1
  O  O47  1  0.63421700  0.75000000  0.13503300  1
  O  O48  1  0.67800600  0.25000000  0.61199600  1
  O  O49  1  0.17800600  0.25000000  0.88800400  1
  O  O50  1  0.32199400  0.75000000  0.38800400  1
  O  O51  1  0.82199400  0.75000000  0.11199600  1
  O  O52  1  0.62566100  0.25000000  0.30748300  1
  O  O53  1  0.12566100  0.25000000  0.19251700  1
  O  O54  1  0.37433900  0.75000000  0.69251700  1
  O  O55  1  0.87433900  0.75000000  0.80748300  1
  O  O56  1  0.79470700  0.98916300  0.39344900  1
  O  O57  1  0.29470700  0.51083700  0.10655100  1
  O  O58  1  0.20529300  0.48916300  0.60655100  1
  O  O59  1  0.70529300  0.01083700  0.89344900  1
  O  O60  1  0.20529300  0.01083700  0.60655100  1
  O  O61  1  0.70529300  0.48916300  0.89344900  1
  O  O62  1  0.79470700  0.51083700  0.39344900  1
  O  O63  1  0.29470700  0.98916300  0.10655100  1
