# generated using pymatgen
data_U3O10
_symmetry_space_group_name_H-M   'P 1'
_cell_length_a   19.10410300
_cell_length_b   6.97959800
_cell_length_c   7.35551183
_cell_angle_alpha   59.66061948
_cell_angle_beta   90.00000000
_cell_angle_gamma   90.00000000
_symmetry_Int_Tables_number   1
_chemical_formula_structural   U3O10
_chemical_formula_sum   'U12 O40'
_cell_volume   846.45757990
_cell_formula_units_Z   4
loop_
 _symmetry_equiv_pos_site_id
 _symmetry_equiv_pos_as_xyz
  1  'x, y, z'
loop_
 _atom_site_type_symbol
 _atom_site_label
 _atom_site_symmetry_multiplicity
 _atom_site_fract_x
 _atom_site_fract_y
 _atom_site_fract_z
 _atom_site_occupancy
  U  U0  1  0.34335500  0.71930000  0.23909900  1
  U  U1  1  0.84335500  0.28070000  0.26090100  1
  U  U2  1  0.65664500  0.28070000  0.76090100  1
  U  U3  1  0.15664500  0.71930000  0.73909900  1
  U  U4  1  0.25592100  0.22511400  0.23647600  1
  U  U5  1  0.75592100  0.77488600  0.26352400  1
  U  U6  1  0.74407900  0.77488600  0.76352400  1
  U  U7  1  0.24407900  0.22511400  0.73647600  1
  U  U8  1  0.03317700  0.24483700  0.24806400  1
  U  U9  1  0.53317700  0.75516300  0.25193600  1
  U  U10  1  0.96682300  0.75516300  0.75193600  1
  U  U11  1  0.46682300  0.24483700  0.74806400  1
  O  O12  1  0.43883700  0.53621400  0.40085200  1
  O  O13  1  0.93883700  0.46378600  0.09914800  1
  O  O14  1  0.56116300  0.46378600  0.59914800  1
  O  O15  1  0.06116300  0.53621400  0.90085200  1
  O  O16  1  0.35064200  0.22203100  0.26291600  1
  O  O17  1  0.85064200  0.77796900  0.23708400  1
  O  O18  1  0.64935800  0.77796900  0.73708400  1
  O  O19  1  0.14935800  0.22203100  0.76291600  1
  O  O20  1  0.26665200  0.01120700  0.09110700  1
  O  O21  1  0.76665200  0.98879300  0.40889300  1
  O  O22  1  0.73334800  0.98879300  0.90889300  1
  O  O23  1  0.23334800  0.01120700  0.59110700  1
  O  O24  1  0.16681800  0.69395100  0.50536000  1
  O  O25  1  0.66681800  0.30604900  0.99464000  1
  O  O26  1  0.83318200  0.30604900  0.49464000  1
  O  O27  1  0.33318200  0.69395100  0.00536000  1
  O  O28  1  0.43448400  0.93177100  0.07661300  1
  O  O29  1  0.93448400  0.06822900  0.42338700  1
  O  O30  1  0.56551600  0.06822900  0.92338700  1
  O  O31  1  0.06551600  0.93177100  0.57661300  1
  O  O32  1  0.25776500  0.44206400  0.38100500  1
  O  O33  1  0.75776500  0.55793600  0.11899500  1
  O  O34  1  0.74223500  0.55793600  0.61899500  1
  O  O35  1  0.24223500  0.44206400  0.88100500  1
  O  O36  1  0.33370600  0.74477700  0.47282000  1
  O  O37  1  0.83370600  0.25522300  0.02718000  1
  O  O38  1  0.66629400  0.25522300  0.52718000  1
  O  O39  1  0.16629400  0.74477700  0.97282000  1
  O  O40  1  0.15783200  0.22635400  0.21911900  1
  O  O41  1  0.65783200  0.77364600  0.28088100  1
  O  O42  1  0.84216800  0.77364600  0.78088100  1
  O  O43  1  0.34216800  0.22635400  0.71911900  1
  O  O44  1  0.02793500  0.06209700  0.14170500  1
  O  O45  1  0.52793500  0.93790300  0.35829500  1
  O  O46  1  0.97206500  0.93790300  0.85829500  1
  O  O47  1  0.47206500  0.06209700  0.64170500  1
  O  O48  1  0.05277400  0.42344100  0.35284500  1
  O  O49  1  0.55277400  0.57655900  0.14715500  1
  O  O50  1  0.94722600  0.57655900  0.64715500  1
  O  O51  1  0.44722600  0.42344100  0.85284500  1
