# generated using pymatgen
data_Sr5Ti7O19
_symmetry_space_group_name_H-M   'P 1'
_cell_length_a   3.83557400
_cell_length_b   5.61462200
_cell_length_c   32.32718700
_cell_angle_alpha   90.00000000
_cell_angle_beta   90.00000000
_cell_angle_gamma   90.00000000
_symmetry_Int_Tables_number   1
_chemical_formula_structural   Sr5Ti7O19
_chemical_formula_sum   'Sr5 Ti7 O19'
_cell_volume   696.17561082
_cell_formula_units_Z   1
loop_
 _symmetry_equiv_pos_site_id
 _symmetry_equiv_pos_as_xyz
  1  'x, y, z'
loop_
 _atom_site_type_symbol
 _atom_site_label
 _atom_site_symmetry_multiplicity
 _atom_site_fract_x
 _atom_site_fract_y
 _atom_site_fract_z
 _atom_site_occupancy
  Sr  Sr0  1  0.00000000  0.00000000  0.17206000  1
  Sr  Sr1  1  0.00000000  0.00000000  0.82794000  1
  Sr  Sr2  1  0.00000000  0.50000000  0.08746600  1
  Sr  Sr3  1  0.00000000  0.50000000  0.91253400  1
  Sr  Sr4  1  0.00000000  0.00000000  0.00000000  1
  Ti  Ti5  1  0.50000000  0.00000000  0.25362700  1
  Ti  Ti6  1  0.50000000  0.00000000  0.74637300  1
  Ti  Ti7  1  0.50000000  0.50000000  0.17445400  1
  Ti  Ti8  1  0.50000000  0.50000000  0.82554600  1
  Ti  Ti9  1  0.50000000  0.00000000  0.08677300  1
  Ti  Ti10  1  0.50000000  0.00000000  0.91322700  1
  Ti  Ti11  1  0.50000000  0.50000000  0.00000000  1
  O  O12  1  0.00000000  0.00000000  0.26834800  1
  O  O13  1  0.00000000  0.00000000  0.73165200  1
  O  O14  1  0.50000000  0.23715500  0.21618900  1
  O  O15  1  0.50000000  0.76284500  0.21618900  1
  O  O16  1  0.50000000  0.76284500  0.78381100  1
  O  O17  1  0.50000000  0.23715500  0.78381100  1
  O  O18  1  0.00000000  0.50000000  0.17117400  1
  O  O19  1  0.00000000  0.50000000  0.82882600  1
  O  O20  1  0.50000000  0.75038900  0.13053500  1
  O  O21  1  0.50000000  0.24961100  0.13053500  1
  O  O22  1  0.50000000  0.24961100  0.86946500  1
  O  O23  1  0.50000000  0.75038900  0.86946500  1
  O  O24  1  0.00000000  0.00000000  0.08708200  1
  O  O25  1  0.00000000  0.00000000  0.91291800  1
  O  O26  1  0.50000000  0.75034200  0.04347700  1
  O  O27  1  0.50000000  0.24965800  0.04347700  1
  O  O28  1  0.50000000  0.24965800  0.95652300  1
  O  O29  1  0.50000000  0.75034200  0.95652300  1
  O  O30  1  0.00000000  0.50000000  0.00000000  1
