# generated using pymatgen
data_Pu(N4O9)2
_symmetry_space_group_name_H-M   'P 1'
_cell_length_a   6.70307300
_cell_length_b   8.03331400
_cell_length_c   14.96202932
_cell_angle_alpha   58.89259287
_cell_angle_beta   90.00000000
_cell_angle_gamma   90.00000000
_symmetry_Int_Tables_number   1
_chemical_formula_structural   Pu(N4O9)2
_chemical_formula_sum   'Pu2 N16 O36'
_cell_volume   689.81807399
_cell_formula_units_Z   2
loop_
 _symmetry_equiv_pos_site_id
 _symmetry_equiv_pos_as_xyz
  1  'x, y, z'
loop_
 _atom_site_type_symbol
 _atom_site_label
 _atom_site_symmetry_multiplicity
 _atom_site_fract_x
 _atom_site_fract_y
 _atom_site_fract_z
 _atom_site_occupancy
  Pu  Pu0  1  0.50000000  0.00000000  0.50000000  1
  Pu  Pu1  1  0.00000000  0.00000000  0.00000000  1
  N  N2  1  0.73491000  0.36776300  0.16073100  1
  N  N3  1  0.76509000  0.36776300  0.66073100  1
  N  N4  1  0.26509000  0.63223700  0.83926900  1
  N  N5  1  0.23491000  0.63223700  0.33926900  1
  N  N6  1  0.23941500  0.22245500  0.31940100  1
  N  N7  1  0.26058500  0.22245500  0.81940100  1
  N  N8  1  0.76058500  0.77754500  0.68059900  1
  N  N9  1  0.73941500  0.77754500  0.18059900  1
  N  N10  1  0.74896900  0.33638800  0.44696200  1
  N  N11  1  0.75103100  0.33638800  0.94696200  1
  N  N12  1  0.25103100  0.66361200  0.55303800  1
  N  N13  1  0.24896900  0.66361200  0.05303800  1
  N  N14  1  0.77504900  0.89528700  0.38595300  1
  N  N15  1  0.72495100  0.89528700  0.88595300  1
  N  N16  1  0.22495100  0.10471300  0.61404700  1
  N  N17  1  0.27504900  0.10471300  0.11404700  1
  O  O18  1  0.22072200  0.03846400  0.38396100  1
  O  O19  1  0.27927800  0.03846400  0.88396100  1
  O  O20  1  0.77927800  0.96153600  0.61603900  1
  O  O21  1  0.72072200  0.96153600  0.11603900  1
  O  O22  1  0.11907300  0.31848700  0.25063700  1
  O  O23  1  0.38092700  0.31848700  0.75063700  1
  O  O24  1  0.88092700  0.68151300  0.74936300  1
  O  O25  1  0.61907300  0.68151300  0.24936300  1
  O  O26  1  0.39734900  0.29591200  0.33513500  1
  O  O27  1  0.10265100  0.29591200  0.83513500  1
  O  O28  1  0.60265100  0.70408800  0.66486500  1
  O  O29  1  0.89734900  0.70408800  0.16486500  1
  O  O30  1  0.86275400  0.46452700  0.43573000  1
  O  O31  1  0.63724600  0.46452700  0.93573000  1
  O  O32  1  0.13724600  0.53547300  0.56427000  1
  O  O33  1  0.36275400  0.53547300  0.06427000  1
  O  O34  1  0.58491000  0.29852700  0.49915900  1
  O  O35  1  0.91509000  0.29852700  0.99915900  1
  O  O36  1  0.41509000  0.70147300  0.50084100  1
  O  O37  1  0.08491000  0.70147300  0.00084100  1
  O  O38  1  0.78167100  0.22695600  0.40933200  1
  O  O39  1  0.71832900  0.22695600  0.90933200  1
  O  O40  1  0.21832900  0.77304400  0.59066800  1
  O  O41  1  0.28167100  0.77304400  0.09066800  1
  O  O42  1  0.79331100  0.83033300  0.48423100  1
  O  O43  1  0.70668900  0.83033300  0.98423100  1
  O  O44  1  0.20668900  0.16966700  0.51576900  1
  O  O45  1  0.29331100  0.16966700  0.01576900  1
  O  O46  1  0.89259300  0.86009100  0.33612700  1
  O  O47  1  0.60740700  0.86009100  0.83612700  1
  O  O48  1  0.10740700  0.13990900  0.66387300  1
  O  O49  1  0.39259300  0.13990900  0.16387300  1
  O  O50  1  0.61919800  0.00404700  0.34468300  1
  O  O51  1  0.88080200  0.00404700  0.84468300  1
  O  O52  1  0.38080200  0.99595300  0.65531700  1
  O  O53  1  0.11919800  0.99595300  0.15531700  1
