# generated using pymatgen
data_NaO8
_symmetry_space_group_name_H-M   'P 1'
_cell_length_a   7.26740943
_cell_length_b   4.64905714
_cell_length_c   18.38670400
_cell_angle_alpha   90.00000000
_cell_angle_beta   90.00000000
_cell_angle_gamma   90.97990025
_symmetry_Int_Tables_number   1
_chemical_formula_structural   NaO8
_chemical_formula_sum   'Na4 O32'
_cell_volume   621.13339391
_cell_formula_units_Z   4
loop_
 _symmetry_equiv_pos_site_id
 _symmetry_equiv_pos_as_xyz
  1  'x, y, z'
loop_
 _atom_site_type_symbol
 _atom_site_label
 _atom_site_symmetry_multiplicity
 _atom_site_fract_x
 _atom_site_fract_y
 _atom_site_fract_z
 _atom_site_occupancy
  Na  Na0  1  0.95898500  0.46361500  0.18345100  1
  Na  Na1  1  0.54101500  0.53638500  0.68345100  1
  Na  Na2  1  0.04101500  0.53638500  0.81654900  1
  Na  Na3  1  0.45898500  0.46361500  0.31654900  1
  O  O4  1  0.64361500  0.08821000  0.43088700  1
  O  O5  1  0.85638500  0.91179000  0.93088700  1
  O  O6  1  0.35638500  0.91179000  0.56911300  1
  O  O7  1  0.14361500  0.08821000  0.06911300  1
  O  O8  1  0.73698800  0.01796100  0.25295900  1
  O  O9  1  0.76301200  0.98203900  0.75295900  1
  O  O10  1  0.26301200  0.98203900  0.74704100  1
  O  O11  1  0.23698800  0.01796100  0.24704100  1
  O  O12  1  0.73801400  0.30026100  0.26929700  1
  O  O13  1  0.76198600  0.69973900  0.76929700  1
  O  O14  1  0.26198600  0.69973900  0.73070300  1
  O  O15  1  0.23801400  0.30026100  0.23070300  1
  O  O16  1  0.34660100  0.56153100  0.43429600  1
  O  O17  1  0.15339900  0.43846900  0.93429600  1
  O  O18  1  0.65339900  0.43846900  0.56570400  1
  O  O19  1  0.84660100  0.56153100  0.06570400  1
  O  O20  1  0.18996700  0.44263700  0.45586400  1
  O  O21  1  0.31003300  0.55736300  0.95586400  1
  O  O22  1  0.81003300  0.55736300  0.54413600  1
  O  O23  1  0.68996700  0.44263700  0.04413600  1
  O  O24  1  0.09427600  0.30446100  0.40715400  1
  O  O25  1  0.40572400  0.69553900  0.90715400  1
  O  O26  1  0.90572400  0.69553900  0.59284600  1
  O  O27  1  0.59427600  0.30446100  0.09284600  1
  O  O28  1  0.71737100  0.86765500  0.40936100  1
  O  O29  1  0.78262900  0.13234500  0.90936100  1
  O  O30  1  0.28262900  0.13234500  0.59063900  1
  O  O31  1  0.21737100  0.86765500  0.09063900  1
  O  O32  1  0.35938600  0.94658000  0.29761500  1
  O  O33  1  0.14061400  0.05342000  0.79761500  1
  O  O34  1  0.64061400  0.05342000  0.70238500  1
  O  O35  1  0.85938600  0.94658000  0.20238500  1
