# generated using pymatgen
data_LaTaO4
_symmetry_space_group_name_H-M   'P 1'
_cell_length_a   7.56932500
_cell_length_b   8.00348600
_cell_length_c   11.21635900
_cell_angle_alpha   90.00000000
_cell_angle_beta   90.00000000
_cell_angle_gamma   90.00000000
_symmetry_Int_Tables_number   1
_chemical_formula_structural   LaTaO4
_chemical_formula_sum   'La8 Ta8 O32'
_cell_volume   679.49809503
_cell_formula_units_Z   8
loop_
 _symmetry_equiv_pos_site_id
 _symmetry_equiv_pos_as_xyz
  1  'x, y, z'
loop_
 _atom_site_type_symbol
 _atom_site_label
 _atom_site_symmetry_multiplicity
 _atom_site_fract_x
 _atom_site_fract_y
 _atom_site_fract_z
 _atom_site_occupancy
  La  La0  1  0.74625500  0.37408300  0.02522600  1
  La  La1  1  0.25374500  0.87408300  0.47477400  1
  La  La2  1  0.75374500  0.62591700  0.52522600  1
  La  La3  1  0.24625500  0.12591700  0.97477400  1
  La  La4  1  0.25374500  0.62591700  0.97477400  1
  La  La5  1  0.74625500  0.12591700  0.52522600  1
  La  La6  1  0.24625500  0.37408300  0.47477400  1
  La  La7  1  0.75374500  0.87408300  0.02522600  1
  Ta  Ta8  1  0.99609800  0.12054100  0.25127800  1
  Ta  Ta9  1  0.00390200  0.62054100  0.24872200  1
  Ta  Ta10  1  0.50390200  0.87945900  0.75127800  1
  Ta  Ta11  1  0.49609800  0.37945900  0.74872200  1
  Ta  Ta12  1  0.00390200  0.87945900  0.74872200  1
  Ta  Ta13  1  0.99609800  0.37945900  0.75127800  1
  Ta  Ta14  1  0.49609800  0.12054100  0.24872200  1
  Ta  Ta15  1  0.50390200  0.62054100  0.25127800  1
  O  O16  1  0.74643400  0.13291400  0.30851400  1
  O  O17  1  0.25356600  0.63291400  0.19148600  1
  O  O18  1  0.75356600  0.86708600  0.80851400  1
  O  O19  1  0.24643400  0.36708600  0.69148600  1
  O  O20  1  0.25356600  0.86708600  0.69148600  1
  O  O21  1  0.74643400  0.36708600  0.80851400  1
  O  O22  1  0.24643400  0.13291400  0.19148600  1
  O  O23  1  0.75356600  0.63291400  0.30851400  1
  O  O24  1  0.06633500  0.12585000  0.42110000  1
  O  O25  1  0.93366500  0.62585000  0.07890000  1
  O  O26  1  0.43366500  0.87415000  0.92110000  1
  O  O27  1  0.56633500  0.37415000  0.57890000  1
  O  O28  1  0.93366500  0.87415000  0.57890000  1
  O  O29  1  0.06633500  0.37415000  0.92110000  1
  O  O30  1  0.56633500  0.12585000  0.07890000  1
  O  O31  1  0.43366500  0.62585000  0.42110000  1
  O  O32  1  0.00039600  0.37776200  0.25148300  1
  O  O33  1  0.99960400  0.87776200  0.24851700  1
  O  O34  1  0.49960400  0.62223800  0.75148300  1
  O  O35  1  0.50039600  0.12223800  0.74851700  1
  O  O36  1  0.99960400  0.62223800  0.74851700  1
  O  O37  1  0.00039600  0.12223800  0.75148300  1
  O  O38  1  0.50039600  0.37776200  0.24851700  1
  O  O39  1  0.49960400  0.87776200  0.25148300  1
  O  O40  1  0.57518200  0.87422100  0.58026800  1
  O  O41  1  0.42481800  0.37422100  0.91973200  1
  O  O42  1  0.92481800  0.12577900  0.08026800  1
  O  O43  1  0.07518200  0.62577900  0.41973200  1
  O  O44  1  0.42481800  0.12577900  0.41973200  1
  O  O45  1  0.57518200  0.62577900  0.08026800  1
  O  O46  1  0.07518200  0.87422100  0.91973200  1
  O  O47  1  0.92481800  0.37422100  0.58026800  1
