# generated using pymatgen
data_HgC8(NCl2)2
_symmetry_space_group_name_H-M   'P 1'
_cell_length_a   13.82669800
_cell_length_b   9.12224000
_cell_length_c   13.03572602
_cell_angle_alpha   89.73922662
_cell_angle_beta   90.00000000
_cell_angle_gamma   90.00000000
_symmetry_Int_Tables_number   1
_chemical_formula_structural   HgC8(NCl2)2
_chemical_formula_sum   'Hg4 C32 N8 Cl16'
_cell_volume   1644.18505744
_cell_formula_units_Z   4
loop_
 _symmetry_equiv_pos_site_id
 _symmetry_equiv_pos_as_xyz
  1  'x, y, z'
loop_
 _atom_site_type_symbol
 _atom_site_label
 _atom_site_symmetry_multiplicity
 _atom_site_fract_x
 _atom_site_fract_y
 _atom_site_fract_z
 _atom_site_occupancy
  Hg  Hg0  1  0.11364700  0.20749800  0.69297000  1
  Hg  Hg1  1  0.61364700  0.79250200  0.80703000  1
  Hg  Hg2  1  0.88635300  0.79250200  0.30703000  1
  Hg  Hg3  1  0.38635300  0.20749800  0.19297000  1
  C  C4  1  0.36971600  0.11838900  0.78840000  1
  C  C5  1  0.86971600  0.88161100  0.71160000  1
  C  C6  1  0.63028400  0.88161100  0.21160000  1
  C  C7  1  0.13028400  0.11838900  0.28840000  1
  C  C8  1  0.45830700  0.45937400  0.49359900  1
  C  C9  1  0.95830700  0.54062600  0.00640100  1
  C  C10  1  0.54169300  0.54062600  0.50640100  1
  C  C11  1  0.04169300  0.45937400  0.99359900  1
  C  C12  1  0.40567700  0.27185900  0.63467000  1
  C  C13  1  0.90567700  0.72814100  0.86533000  1
  C  C14  1  0.59432300  0.72814100  0.36533000  1
  C  C15  1  0.09432300  0.27185900  0.13467000  1
  C  C16  1  0.42739300  0.35488900  0.56466200  1
  C  C17  1  0.92739300  0.64511100  0.93533800  1
  C  C18  1  0.57260700  0.64511100  0.43533800  1
  C  C19  1  0.07260700  0.35488900  0.06466200  1
  C  C20  1  0.68325500  0.27187400  0.97558300  1
  C  C21  1  0.18325500  0.72812600  0.52441700  1
  C  C22  1  0.31674500  0.72812600  0.02441700  1
  C  C23  1  0.81674500  0.27187400  0.47558300  1
  C  C24  1  0.67333200  0.28648800  0.86645900  1
  C  C25  1  0.17333200  0.71351200  0.63354100  1
  C  C26  1  0.32666800  0.71351200  0.13354100  1
  C  C27  1  0.82666800  0.28648800  0.36645900  1
  C  C28  1  0.60153500  0.29862500  0.14718400  1
  C  C29  1  0.10153500  0.70137500  0.35281600  1
  C  C30  1  0.39846500  0.70137500  0.85281600  1
  C  C31  1  0.89846500  0.29862500  0.64718400  1
  C  C32  1  0.75804500  0.23277700  0.91619600  1
  C  C33  1  0.25804500  0.76722300  0.58380400  1
  C  C34  1  0.24195500  0.76722300  0.08380400  1
  C  C35  1  0.74195500  0.23277700  0.41619600  1
  N  N36  1  0.38431400  0.19014500  0.71287300  1
  N  N37  1  0.88431400  0.80985500  0.78712700  1
  N  N38  1  0.61568600  0.80985500  0.28712700  1
  N  N39  1  0.11568600  0.19014500  0.21287300  1
  N  N40  1  0.64202400  0.28812100  0.06710200  1
  N  N41  1  0.14202400  0.71187900  0.43289800  1
  N  N42  1  0.35797600  0.71187900  0.93289800  1
  N  N43  1  0.85797600  0.28812100  0.56710200  1
  Cl  Cl44  1  0.13444500  0.33003100  0.54030000  1
  Cl  Cl45  1  0.63444500  0.66996900  0.95970000  1
  Cl  Cl46  1  0.86555500  0.66996900  0.45970000  1
  Cl  Cl47  1  0.36555500  0.33003100  0.04030000  1
  Cl  Cl48  1  0.87009900  0.16899400  0.90455600  1
  Cl  Cl49  1  0.37009900  0.83100600  0.59544400  1
  Cl  Cl50  1  0.12990100  0.83100600  0.09544400  1
  Cl  Cl51  1  0.62990100  0.16899400  0.40455600  1
  Cl  Cl52  1  0.11542000  0.05113000  0.83171200  1
  Cl  Cl53  1  0.61542000  0.94887000  0.66828800  1
  Cl  Cl54  1  0.88458000  0.94887000  0.16828800  1
  Cl  Cl55  1  0.38458000  0.05113000  0.33171200  1
  Cl  Cl56  1  0.11279500  0.49231600  0.88667200  1
  Cl  Cl57  1  0.61279500  0.50768400  0.61332800  1
  Cl  Cl58  1  0.88720500  0.50768400  0.11332800  1
  Cl  Cl59  1  0.38720500  0.49231600  0.38667200  1
