# generated using pymatgen
data_KCa7Si3(O4F)3
_symmetry_space_group_name_H-M   'P 1'
_cell_length_a   10.92933273
_cell_length_b   10.92933273
_cell_length_c   6.70020100
_cell_angle_alpha   90.00000000
_cell_angle_beta   90.00000000
_cell_angle_gamma   120.00000441
_symmetry_Int_Tables_number   1
_chemical_formula_structural   KCa7Si3(O4F)3
_chemical_formula_sum   'K2 Ca14 Si6 O24 F6'
_cell_volume   693.11570442
_cell_formula_units_Z   2
loop_
 _symmetry_equiv_pos_site_id
 _symmetry_equiv_pos_as_xyz
  1  'x, y, z'
loop_
 _atom_site_type_symbol
 _atom_site_label
 _atom_site_symmetry_multiplicity
 _atom_site_fract_x
 _atom_site_fract_y
 _atom_site_fract_z
 _atom_site_occupancy
  K  K0  1  0.33333300  0.66666700  0.18933400  1
  K  K1  1  0.66666700  0.33333300  0.68933400  1
  Ca  Ca2  1  0.00000000  0.00000000  0.15253300  1
  Ca  Ca3  1  0.00000000  0.00000000  0.65253300  1
  Ca  Ca4  1  0.93853600  0.45740800  0.05479900  1
  Ca  Ca5  1  0.51887200  0.06146400  0.05479900  1
  Ca  Ca6  1  0.54259200  0.48112800  0.05479900  1
  Ca  Ca7  1  0.48112800  0.54259200  0.55479900  1
  Ca  Ca8  1  0.45740800  0.93853600  0.55479900  1
  Ca  Ca9  1  0.06146400  0.51887200  0.55479900  1
  Ca  Ca10  1  0.82501600  0.63173700  0.37236700  1
  Ca  Ca11  1  0.80672100  0.17498400  0.37236700  1
  Ca  Ca12  1  0.36826300  0.19327900  0.37236700  1
  Ca  Ca13  1  0.19327900  0.36826300  0.87236700  1
  Ca  Ca14  1  0.63173700  0.82501600  0.87236700  1
  Ca  Ca15  1  0.17498400  0.80672100  0.87236700  1
  Si  Si16  1  0.15403900  0.81619000  0.35075500  1
  Si  Si17  1  0.66215200  0.84596100  0.35075500  1
  Si  Si18  1  0.18381000  0.33784800  0.35075500  1
  Si  Si19  1  0.33784800  0.18381000  0.85075500  1
  Si  Si20  1  0.81619000  0.15403900  0.85075500  1
  Si  Si21  1  0.84596100  0.66215200  0.85075500  1
  O  O22  1  0.21807100  0.77086900  0.54257000  1
  O  O23  1  0.55279800  0.78192900  0.54257000  1
  O  O24  1  0.22913100  0.44720200  0.54257000  1
  O  O25  1  0.44720200  0.22913100  0.04257000  1
  O  O26  1  0.77086900  0.21807100  0.04257000  1
  O  O27  1  0.78192900  0.55279800  0.04257000  1
  O  O28  1  0.07324200  0.67084700  0.21527600  1
  O  O29  1  0.59760500  0.92675800  0.21527600  1
  O  O30  1  0.32915300  0.40239500  0.21527600  1
  O  O31  1  0.40239500  0.32915300  0.71527600  1
  O  O32  1  0.67084700  0.07324200  0.71527600  1
  O  O33  1  0.92675800  0.59760500  0.71527600  1
  O  O34  1  0.28676100  0.94362600  0.22547600  1
  O  O35  1  0.65686500  0.71323900  0.22547600  1
  O  O36  1  0.05637400  0.34313500  0.22547600  1
  O  O37  1  0.34313500  0.05637400  0.72547600  1
  O  O38  1  0.94362600  0.28676100  0.72547600  1
  O  O39  1  0.71323900  0.65686500  0.72547600  1
  O  O40  1  0.82657700  0.96571200  0.40964000  1
  O  O41  1  0.13913500  0.17342300  0.40964000  1
  O  O42  1  0.03428800  0.86086500  0.40964000  1
  O  O43  1  0.86086500  0.03428800  0.90964000  1
  O  O44  1  0.96571200  0.82657700  0.90964000  1
  O  O45  1  0.17342300  0.13913500  0.90964000  1
  F  F46  1  0.15160900  0.56319700  0.88325700  1
  F  F47  1  0.41158900  0.84839100  0.88325700  1
  F  F48  1  0.43680300  0.58841100  0.88325700  1
  F  F49  1  0.58841100  0.43680300  0.38325700  1
  F  F50  1  0.56319700  0.15160900  0.38325700  1
  F  F51  1  0.84839100  0.41158900  0.38325700  1
