# generated using pymatgen
data_Mg(BH4)2
_symmetry_space_group_name_H-M   'P 1'
_cell_length_a   7.97145454
_cell_length_b   7.97145454
_cell_length_c   7.97145454
_cell_angle_alpha   116.57998368
_cell_angle_beta   116.57998368
_cell_angle_gamma   96.03330976
_symmetry_Int_Tables_number   1
_chemical_formula_structural   Mg(BH4)2
_chemical_formula_sum   'Mg4 B8 H32'
_cell_volume   374.44458374
_cell_formula_units_Z   4
loop_
 _symmetry_equiv_pos_site_id
 _symmetry_equiv_pos_as_xyz
  1  'x, y, z'
loop_
 _atom_site_type_symbol
 _atom_site_label
 _atom_site_symmetry_multiplicity
 _atom_site_fract_x
 _atom_site_fract_y
 _atom_site_fract_z
 _atom_site_occupancy
  Mg  Mg0  1  0.75000000  0.25000000  0.50000000  1
  Mg  Mg1  1  0.00000000  0.00000000  0.00000000  1
  Mg  Mg2  1  0.50000000  0.50000000  0.00000000  1
  Mg  Mg3  1  0.25000000  0.75000000  0.50000000  1
  B  B4  1  0.64412400  0.40956100  0.76543700  1
  B  B5  1  0.15956100  0.89412400  0.26543700  1
  B  B6  1  0.62868700  0.89412400  0.73456300  1
  B  B7  1  0.64412400  0.87868700  0.23456300  1
  B  B8  1  0.10587600  0.84043900  0.73456300  1
  B  B9  1  0.59043900  0.35587600  0.23456300  1
  B  B10  1  0.12131300  0.35587600  0.76543700  1
  B  B11  1  0.10587600  0.37131300  0.26543700  1
  H  H12  1  0.73775200  0.45053700  0.95816700  1
  H  H13  1  0.49237100  0.45053700  0.71278500  1
  H  H14  1  0.20053700  0.98775200  0.45816700  1
  H  H15  1  0.52958600  0.98775300  0.78721500  1
  H  H16  1  0.73775200  0.77958600  0.28721500  1
  H  H17  1  0.49237100  0.77958600  0.04183300  1
  H  H18  1  0.20053700  0.74237100  0.21278500  1
  H  H19  1  0.52958600  0.74237100  0.54183300  1
  H  H20  1  0.01224700  0.79946300  0.54183300  1
  H  H21  1  0.25762900  0.79946300  0.78721500  1
  H  H22  1  0.54946300  0.26224700  0.04183300  1
  H  H23  1  0.22041400  0.26224700  0.71278500  1
  H  H24  1  0.01224700  0.47041400  0.21278500  1
  H  H25  1  0.25762900  0.47041400  0.45816700  1
  H  H26  1  0.54946300  0.50762900  0.28721500  1
  H  H27  1  0.22041400  0.50762900  0.95816700  1
  H  H28  1  0.58819900  0.95091500  0.36271600  1
  H  H29  1  0.70091500  0.83819900  0.86271600  1
  H  H30  1  0.97548400  0.83819900  0.13728400  1
  H  H31  1  0.58819900  0.22548400  0.63728400  1
  H  H32  1  0.16180100  0.29908500  0.13728400  1
  H  H33  1  0.04908500  0.41180100  0.63728400  1
  H  H34  1  0.77451600  0.41180100  0.36271600  1
  H  H35  1  0.16180100  0.02451600  0.86271600  1
  H  H36  1  0.75848600  0.51145600  0.75297000  1
  H  H37  1  0.26145600  0.00848600  0.25297000  1
  H  H38  1  0.75551600  0.00848600  0.74703000  1
  H  H39  1  0.75848600  0.00551600  0.24703000  1
  H  H40  1  0.99151400  0.73854400  0.74703000  1
  H  H41  1  0.48854400  0.24151400  0.24703000  1
  H  H42  1  0.99448400  0.24151400  0.75297000  1
  H  H43  1  0.99151400  0.24448400  0.25297000  1
