# generated using pymatgen
data_YbCrMo6(H17O19)2
_symmetry_space_group_name_H-M   'P 1'
_cell_length_a   11.37568369
_cell_length_b   11.57655557
_cell_length_c   14.31416791
_cell_angle_alpha   76.76028168
_cell_angle_beta   85.92711843
_cell_angle_gamma   90.74665615
_symmetry_Int_Tables_number   1
_chemical_formula_structural   YbCrMo6(H17O19)2
_chemical_formula_sum   'Yb2 Cr2 Mo12 H68 O76'
_cell_volume   1829.47894994
_cell_formula_units_Z   2
loop_
 _symmetry_equiv_pos_site_id
 _symmetry_equiv_pos_as_xyz
  1  'x, y, z'
loop_
 _atom_site_type_symbol
 _atom_site_label
 _atom_site_symmetry_multiplicity
 _atom_site_fract_x
 _atom_site_fract_y
 _atom_site_fract_z
 _atom_site_occupancy
  Yb  Yb0  1  0.71413975  0.25189557  0.95203071  1
  Yb  Yb1  1  0.28586025  0.74810443  0.04796929  1
  Cr  Cr2  1  -0.00000000  0.00000000  0.50000000  1
  Cr  Cr3  1  0.50000000  0.50000000  0.50000000  1
  Mo  Mo4  1  0.22159603  0.86602532  0.63011569  1
  Mo  Mo5  1  0.77840397  0.13397468  0.36988431  1
  Mo  Mo6  1  0.74377380  0.05664057  0.61461132  1
  Mo  Mo7  1  0.25622620  0.94335943  0.38538868  1
  Mo  Mo8  1  0.96326956  0.92396277  0.74556190  1
  Mo  Mo9  1  0.03673044  0.07603723  0.25443810  1
  Mo  Mo10  1  0.49051791  0.42682057  0.74773383  1
  Mo  Mo11  1  0.50948209  0.57317943  0.25226617  1
  Mo  Mo12  1  0.25178544  0.36619907  0.63378383  1
  Mo  Mo13  1  0.74821456  0.63380093  0.36621617  1
  Mo  Mo14  1  0.73291437  0.56999209  0.61341852  1
  Mo  Mo15  1  0.26708563  0.43000791  0.38658148  1
  H  H16  1  0.84866391  0.83349908  0.59889429  1
  H  H17  1  0.15133609  0.16650092  0.40110571  1
  H  H18  1  0.63069748  0.33571930  0.59499513  1
  H  H19  1  0.36930252  0.66428070  0.40500487  1
  H  H20  1  0.35930480  0.60399479  0.60911401  1
  H  H21  1  0.64069520  0.39600521  0.39088599  1
  H  H22  1  0.56654915  0.72033427  0.49388945  1
  H  H23  1  0.43345085  0.27966573  0.50611055  1
  H  H24  1  0.49463988  0.05048735  0.73772583  1
  H  H25  1  0.50536012  0.94951265  0.26227417  1
  H  H26  1  0.41689831  0.03180818  0.83499702  1
  H  H27  1  0.58310169  0.96819182  0.16500298  1
  H  H28  1  0.66370597  0.40047208  0.10835537  1
  H  H29  1  0.33629403  0.59952792  0.89164463  1
  H  H30  1  0.78355173  0.34560076  0.12729901  1
  H  H31  1  0.21644827  0.65439924  0.87270099  1
  H  H32  1  0.90751580  0.29337242  0.78557091  1
  H  H33  1  0.09248420  0.70662758  0.21442909  1
  H  H34  1  0.84090327  0.18037905  0.77255979  1
  H  H35  1  0.15909673  0.81962095  0.22744021  1
  H  H36  1  0.93010082  0.21767679  0.50107411  1
  H  H37  1  0.06989918  0.78232321  0.49892589  1
  H  H38  1  0.71250769  0.08609440  0.15980209  1
  H  H39  1  0.28749231  0.91390560  0.84019791  1
  H  H40  1  0.77307984  0.01727357  0.09031603  1
  H  H41  1  0.22692016  0.98272643  0.90968397  1
  H  H42  1  0.25237852  0.20342480  0.05517520  1
  H  H43  1  0.74762148  0.79657520  0.94482480  1
  H  H44  1  0.27635628  0.07385684  0.05230939  1
  H  H45  1  0.72364372  0.92614316  0.94769061  1
  H  H46  1  0.60612087  0.03513767  0.96614515  1
  H  H47  1  0.39387913  0.96486233  0.03385485  1
  H  H48  1  0.59553305  0.07597387  0.85552170  1
  H  H49  1  0.40446695  0.92402613  0.14447830  1
  H  H50  1  0.94002088  0.23444184  0.05920818  1
  H  H51  1  0.05997912  0.76555816  0.94079182  1
  H  H52  1  0.97645018  0.21263640  0.95614583  1
  H  H53  1  0.02354982  0.78736360  0.04385417  1
  H  H54  1  0.15851198  0.17531681  0.92860811  1
  H  H55  1  0.84148802  0.82468319  0.07139189  1
  H  H56  1  0.07610120  0.11667618  0.86548737  1
  H  H57  1  0.92389880  0.88332382  0.13451263  1
  H  H58  1  0.79519169  0.50991720  0.92465221  1
  H  H59  1  0.20480831  0.49008280  0.07534779  1
  H  H60  1  0.78921726  0.48019263  0.82206630  1
  H  H61  1  0.21078274  0.51980737  0.17793370  1
  H  H62  1  0.53650931  0.13061924  0.48307428  1
  H  H63  1  0.46349069  0.86938076  0.51692572  1
  H  H64  1  0.40098131  0.09375980  0.50666956  1
  H  H65  1  0.59901869  0.90624020  0.49333044  1
  H  H66  1  0.53981307  0.27355297  0.20072445  1
  H  H67  1  0.46018693  0.72644703  0.79927555  1
  H  H68  1  0.43215933  0.18422000  0.23731643  1
  H  H69  1  0.56784067  0.81578000  0.76268357  1
  H  H70  1  0.03819779  0.37382542  0.50607130  1
  H  H71  1  0.96180221  0.62617458  0.49392870  1
  H  H72  1  0.90313553  0.40548626  0.49732834  1
  H  H73  1  0.09686447  0.59451374  0.50267166  1
  H  H74  1  0.48782195  0.24418764  0.07601748  1
  H  H75  1  0.51217805  0.75581236  0.92398252  1
  H  H76  1  0.44730554  0.23889603  0.97350939  1
  H  H77  1  0.55269446  0.76110397  0.02649061  1
  H  H78  1  0.12175464  0.11011823  0.60584327  1
  H  H79  1  0.87824536  0.88988177  0.39415673  1
  H  H80  1  0.01679386  0.58861832  0.84165831  1
  H  H81  1  0.98320614  0.41138168  0.15834169  1
  H  H82  1  0.11673249  0.51310072  0.80965130  1
  H  H83  1  0.88326751  0.48689928  0.19034870  1
  O  O84  1  0.58585133  0.32884756  0.81286063  1
  O  O85  1  0.41414867  0.67115244  0.18713937  1
  O  O86  1  0.78203133  0.71745546  0.59888934  1
  O  O87  1  0.21796867  0.28254454  0.40111066  1
  O  O88  1  0.86026487  0.05956479  0.70784919  1
  O  O89  1  0.13973513  0.94043521  0.29215081  1
  O  O90  1  0.15796920  0.42495151  0.71041237  1
  O  O91  1  0.84203080  0.57504849  0.28958763  1
  O  O92  1  0.19059085  0.22810654  0.62909779  1
  O  O93  1  0.80940915  0.77189346  0.37090221  1
  O  O94  1  0.04739738  0.98451153  0.82069997  1
  O  O95  1  0.95260262  0.01548847  0.17930003  1
  O  O96  1  0.63788397  0.95627434  0.68261273  1
  O  O97  1  0.36211603  0.04372566  0.31738727  1
  O  O98  1  0.68940877  0.19801794  0.60870432  1
  O  O99  1  0.31059123  0.80198206  0.39129568  1
  O  O100  1  0.88319689  0.91428655  0.60216001  1
  O  O101  1  0.11680311  0.08571345  0.39783999  1
  O  O102  1  0.59819504  0.41480603  0.59819667  1
  O  O103  1  0.40180496  0.58519397  0.40180333  1
  O  O104  1  0.39191183  0.52463377  0.60877270  1
  O  O105  1  0.60808817  0.47536623  0.39122730  1
  O  O106  1  0.40249745  0.47929442  0.83217489  1
  O  O107  1  0.59750255  0.52070558  0.16782511  1
  O  O108  1  0.29998804  0.96746680  0.51190431  1
  O  O109  1  0.70001196  0.03253320  0.48809569  1
  O  O110  1  0.59788906  0.63691932  0.49253354  1
  O  O111  1  0.40211094  0.36308068  0.50746646  1
  O  O112  1  0.08465684  0.03093527  0.60391450  1
  O  O113  1  0.91534316  0.96906473  0.39608550  1
  O  O114  1  0.29862999  0.91931473  0.71303591  1
  O  O115  1  0.70137001  0.08068527  0.28696409  1
  O  O116  1  0.48377375  0.07925335  0.79657166  1
  O  O117  1  0.51622625  0.92074665  0.20342834  1
  O  O118  1  0.70658244  0.32821315  0.10410801  1
  O  O119  1  0.29341756  0.67178685  0.89589199  1
  O  O120  1  0.84095342  0.23936096  0.81230164  1
  O  O121  1  0.15904658  0.76063904  0.18769836  1
  O  O122  1  0.38144060  0.31646637  0.71138363  1
  O  O123  1  0.61855940  0.68353363  0.28861637  1
  O  O124  1  0.89860316  0.13332880  0.49939985  1
  O  O125  1  0.10139684  0.86667120  0.50060015  1
  O  O126  1  0.59519140  0.56685236  0.69873334  1
  O  O127  1  0.40480860  0.43314764  0.30126666  1
  O  O128  1  0.28399321  0.73089730  0.62403121  1
  O  O129  1  0.71600679  0.26910270  0.37596879  1
  O  O130  1  0.70389312  0.06434412  0.09751467  1
  O  O131  1  0.29610688  0.93565588  0.90248533  1
  O  O132  1  0.82700376  0.48685072  0.69148431  1
  O  O133  1  0.17299624  0.51314928  0.30851569  1
  O  O134  1  0.86956327  0.81811429  0.82145935  1
  O  O135  1  0.13043673  0.18188571  0.17854065  1
  O  O136  1  0.27229710  0.15415393  0.00959166  1
  O  O137  1  0.72770290  0.84584607  0.99040834  1
  O  O138  1  0.19684632  0.45959339  0.50894577  1
  O  O139  1  0.80315368  0.54040661  0.49105423  1
  O  O140  1  0.65457507  0.06971471  0.90722184  1
  O  O141  1  0.34542493  0.93028529  0.09277816  1
  O  O142  1  0.07546827  0.81513621  0.70537637  1
  O  O143  1  0.92453173  0.18486379  0.29462363  1
  O  O144  1  0.90750614  0.22973223  0.99935295  1
  O  O145  1  0.09249386  0.77026777  0.00064705  1
  O  O146  1  0.08916581  0.18842501  0.88959186  1
  O  O147  1  0.91083419  0.81157499  0.11040814  1
  O  O148  1  0.76458282  0.45358508  0.89109916  1
  O  O149  1  0.23541718  0.54641492  0.10890084  1
  O  O150  1  0.46292839  0.15106565  0.51401151  1
  O  O151  1  0.53707161  0.84893435  0.48598849  1
  O  O152  1  0.46053707  0.25316986  0.18654288  1
  O  O153  1  0.53946293  0.74683014  0.81345712  1
  O  O154  1  0.95785888  0.33972265  0.51345796  1
  O  O155  1  0.04214112  0.66027735  0.48654204  1
  O  O156  1  0.51714319  0.24539802  0.00783960  1
  O  O157  1  0.48285681  0.75460198  0.99216040  1
  O  O158  1  0.09459450  0.55999398  0.85719262  1
  O  O159  1  0.90540550  0.44000602  0.14280738  1
