# generated using pymatgen
data_Cd4Si4O9
_symmetry_space_group_name_H-M   'P 1'
_cell_length_a   6.14279596
_cell_length_b   8.19677800
_cell_length_c   11.18343625
_cell_angle_alpha   90.00000000
_cell_angle_beta   97.22926555
_cell_angle_gamma   90.00000000
_symmetry_Int_Tables_number   1
_chemical_formula_structural   Cd4Si4O9
_chemical_formula_sum   'Cd8 Si8 O18'
_cell_volume   558.62238293
_cell_formula_units_Z   2
loop_
 _symmetry_equiv_pos_site_id
 _symmetry_equiv_pos_as_xyz
  1  'x, y, z'
loop_
 _atom_site_type_symbol
 _atom_site_label
 _atom_site_symmetry_multiplicity
 _atom_site_fract_x
 _atom_site_fract_y
 _atom_site_fract_z
 _atom_site_occupancy
  Cd  Cd0  1  0.78788900  0.82869900  0.85205400  1
  Cd  Cd1  1  0.21211100  0.32869900  0.64794600  1
  Cd  Cd2  1  0.21211100  0.17130100  0.14794600  1
  Cd  Cd3  1  0.78788900  0.67130100  0.35205400  1
  Cd  Cd4  1  0.73338400  0.38810000  0.91524300  1
  Cd  Cd5  1  0.26661600  0.88810000  0.58475700  1
  Cd  Cd6  1  0.26661600  0.61190000  0.08475700  1
  Cd  Cd7  1  0.73338400  0.11190000  0.41524300  1
  Si  Si8  1  0.69343100  0.05450900  0.10887400  1
  Si  Si9  1  0.30656900  0.55450900  0.39112600  1
  Si  Si10  1  0.30656900  0.94549100  0.89112600  1
  Si  Si11  1  0.69343100  0.44549100  0.60887400  1
  Si  Si12  1  0.85594500  0.68567300  0.12323900  1
  Si  Si13  1  0.14405500  0.18567300  0.37676100  1
  Si  Si14  1  0.14405500  0.31432700  0.87676100  1
  Si  Si15  1  0.85594500  0.81432700  0.62323900  1
  O  O16  1  0.50000000  0.00000000  0.00000000  1
  O  O17  1  0.50000000  0.50000000  0.50000000  1
  O  O18  1  0.85816100  0.18374300  0.05551600  1
  O  O19  1  0.14183900  0.68374300  0.44448400  1
  O  O20  1  0.14183900  0.81625700  0.94448400  1
  O  O21  1  0.85816100  0.31625700  0.55551600  1
  O  O22  1  0.83687700  0.88617400  0.14689200  1
  O  O23  1  0.16312300  0.38617400  0.35310800  1
  O  O24  1  0.16312300  0.11382600  0.85310800  1
  O  O25  1  0.83687700  0.61382600  0.64689200  1
  O  O26  1  0.57052300  0.11641300  0.22151600  1
  O  O27  1  0.42947700  0.61641300  0.27848400  1
  O  O28  1  0.42947700  0.88358700  0.77848400  1
  O  O29  1  0.57052300  0.38358700  0.72151600  1
  O  O30  1  0.31440800  0.36196300  0.99782200  1
  O  O31  1  0.68559200  0.86196300  0.50217800  1
  O  O32  1  0.68559200  0.63803700  0.00217800  1
  O  O33  1  0.31440800  0.13803700  0.49782200  1
