# generated using pymatgen
data_LiYb(CN2)2
_symmetry_space_group_name_H-M   'P 1'
_cell_length_a   6.05501300
_cell_length_b   6.94255900
_cell_length_c   10.12593600
_cell_angle_alpha   90.00000000
_cell_angle_beta   90.00000000
_cell_angle_gamma   90.00000000
_symmetry_Int_Tables_number   1
_chemical_formula_structural   LiYb(CN2)2
_chemical_formula_sum   'Li4 Yb4 C8 N16'
_cell_volume   425.66685751
_cell_formula_units_Z   4
loop_
 _symmetry_equiv_pos_site_id
 _symmetry_equiv_pos_as_xyz
  1  'x, y, z'
loop_
 _atom_site_type_symbol
 _atom_site_label
 _atom_site_symmetry_multiplicity
 _atom_site_fract_x
 _atom_site_fract_y
 _atom_site_fract_z
 _atom_site_occupancy
  Li  Li0  1  0.25000000  0.60867600  0.00000000  1
  Li  Li1  1  0.75000000  0.89132400  0.50000000  1
  Li  Li2  1  0.75000000  0.39132400  0.00000000  1
  Li  Li3  1  0.25000000  0.10867600  0.50000000  1
  Yb  Yb4  1  0.25000000  0.13782600  0.00000000  1
  Yb  Yb5  1  0.75000000  0.36217400  0.50000000  1
  Yb  Yb6  1  0.75000000  0.86217400  0.00000000  1
  Yb  Yb7  1  0.25000000  0.63782600  0.50000000  1
  C  C8  1  0.41901500  0.38775300  0.75367800  1
  C  C9  1  0.91901500  0.11224700  0.74632200  1
  C  C10  1  0.58098500  0.11224700  0.25367800  1
  C  C11  1  0.08098500  0.38775300  0.24632200  1
  C  C12  1  0.58098500  0.61224700  0.24632200  1
  C  C13  1  0.08098500  0.88775300  0.25367800  1
  C  C14  1  0.41901500  0.88775300  0.74632200  1
  C  C15  1  0.91901500  0.61224700  0.75367800  1
  N  N16  1  0.41861000  0.38964400  0.87547600  1
  N  N17  1  0.91861000  0.11035600  0.62452400  1
  N  N18  1  0.58139000  0.11035600  0.37547600  1
  N  N19  1  0.08139000  0.38964400  0.12452400  1
  N  N20  1  0.58139000  0.61035600  0.12452400  1
  N  N21  1  0.08139000  0.88964400  0.37547600  1
  N  N22  1  0.41861000  0.88964400  0.62452400  1
  N  N23  1  0.91861000  0.61035600  0.87547600  1
  N  N24  1  0.42061700  0.38686000  0.63159300  1
  N  N25  1  0.92061700  0.11314000  0.86840700  1
  N  N26  1  0.57938300  0.11314000  0.13159300  1
  N  N27  1  0.07938300  0.38686000  0.36840700  1
  N  N28  1  0.57938300  0.61314000  0.36840700  1
  N  N29  1  0.07938300  0.88686000  0.13159300  1
  N  N30  1  0.42061700  0.88686000  0.86840700  1
  N  N31  1  0.92061700  0.61314000  0.63159300  1
