# generated using pymatgen
data_Cu7PSe6
_symmetry_space_group_name_H-M   'P 1'
_cell_length_a   10.07280800
_cell_length_b   10.07280800
_cell_length_c   10.07280800
_cell_angle_alpha   90.00000000
_cell_angle_beta   90.00000000
_cell_angle_gamma   90.00000000
_symmetry_Int_Tables_number   1
_chemical_formula_structural   Cu7PSe6
_chemical_formula_sum   'Cu28 P4 Se24'
_cell_volume   1022.00181610
_cell_formula_units_Z   4
loop_
 _symmetry_equiv_pos_site_id
 _symmetry_equiv_pos_as_xyz
  1  'x, y, z'
loop_
 _atom_site_type_symbol
 _atom_site_label
 _atom_site_symmetry_multiplicity
 _atom_site_fract_x
 _atom_site_fract_y
 _atom_site_fract_z
 _atom_site_occupancy
  Cu  Cu0  1  0.22488000  0.92713500  0.89694200  1
  Cu  Cu1  1  0.10305800  0.72488000  0.57286500  1
  Cu  Cu2  1  0.42713500  0.60305800  0.77512000  1
  Cu  Cu3  1  0.72488000  0.57286500  0.10305800  1
  Cu  Cu4  1  0.60305800  0.77512000  0.42713500  1
  Cu  Cu5  1  0.92713500  0.89694200  0.22488000  1
  Cu  Cu6  1  0.77512000  0.42713500  0.60305800  1
  Cu  Cu7  1  0.89694200  0.22488000  0.92713500  1
  Cu  Cu8  1  0.57286500  0.10305800  0.72488000  1
  Cu  Cu9  1  0.27512000  0.07286500  0.39694200  1
  Cu  Cu10  1  0.39694200  0.27512000  0.07286500  1
  Cu  Cu11  1  0.07286500  0.39694200  0.27512000  1
  Cu  Cu12  1  0.01227500  0.77891500  0.98561500  1
  Cu  Cu13  1  0.01438500  0.51227500  0.72108500  1
  Cu  Cu14  1  0.27891500  0.51438500  0.98772500  1
  Cu  Cu15  1  0.51227500  0.72108500  0.01438500  1
  Cu  Cu16  1  0.51438500  0.98772500  0.27891500  1
  Cu  Cu17  1  0.77891500  0.98561500  0.01227500  1
  Cu  Cu18  1  0.98772500  0.27891500  0.51438500  1
  Cu  Cu19  1  0.98561500  0.01227500  0.77891500  1
  Cu  Cu20  1  0.72108500  0.01438500  0.51227500  1
  Cu  Cu21  1  0.48772500  0.22108500  0.48561500  1
  Cu  Cu22  1  0.48561500  0.48772500  0.22108500  1
  Cu  Cu23  1  0.22108500  0.48561500  0.48772500  1
  Cu  Cu24  1  0.34940200  0.84940200  0.65059800  1
  Cu  Cu25  1  0.84940200  0.65059800  0.34940200  1
  Cu  Cu26  1  0.65059800  0.34940200  0.84940200  1
  Cu  Cu27  1  0.15059800  0.15059800  0.15059800  1
  P  P28  1  0.75005300  0.25005300  0.24994700  1
  P  P29  1  0.25005300  0.24994700  0.75005300  1
  P  P30  1  0.24994700  0.75005300  0.25005300  1
  P  P31  1  0.74994700  0.74994700  0.74994700  1
  Se  Se32  1  0.87841900  0.37841900  0.12158100  1
  Se  Se33  1  0.37841900  0.12158100  0.87841900  1
  Se  Se34  1  0.12158100  0.87841900  0.37841900  1
  Se  Se35  1  0.62158100  0.62158100  0.62158100  1
  Se  Se36  1  0.36830400  0.87955300  0.11588400  1
  Se  Se37  1  0.88411600  0.86830400  0.62044700  1
  Se  Se38  1  0.37955300  0.38411600  0.63169600  1
  Se  Se39  1  0.86830400  0.62044700  0.88411600  1
  Se  Se40  1  0.38411600  0.63169600  0.37955300  1
  Se  Se41  1  0.87955300  0.11588400  0.36830400  1
  Se  Se42  1  0.63169600  0.37955300  0.38411600  1
  Se  Se43  1  0.11588400  0.36830400  0.87955300  1
  Se  Se44  1  0.62044700  0.88411600  0.86830400  1
  Se  Se45  1  0.13169600  0.12044700  0.61588400  1
  Se  Se46  1  0.61588400  0.13169600  0.12044700  1
  Se  Se47  1  0.12044700  0.61588400  0.13169600  1
  Se  Se48  1  0.21857700  0.71857700  0.78142300  1
  Se  Se49  1  0.71857700  0.78142300  0.21857700  1
  Se  Se50  1  0.78142300  0.21857700  0.71857700  1
  Se  Se51  1  0.28142300  0.28142300  0.28142300  1
  Se  Se52  1  0.48324100  0.98324100  0.51675900  1
  Se  Se53  1  0.98324100  0.51675900  0.48324100  1
  Se  Se54  1  0.51675900  0.48324100  0.98324100  1
  Se  Se55  1  0.01675900  0.01675900  0.01675900  1
