# generated using pymatgen
data_RbB6H8O7
_symmetry_space_group_name_H-M   'P 1'
_cell_length_a   8.94209038
_cell_length_b   8.94209038
_cell_length_c   13.24966800
_cell_angle_alpha   90.00000000
_cell_angle_beta   90.00000000
_cell_angle_gamma   122.85131041
_symmetry_Int_Tables_number   1
_chemical_formula_structural   RbB6H8O7
_chemical_formula_sum   'Rb4 B24 H32 O28'
_cell_volume   890.02938322
_cell_formula_units_Z   4
loop_
 _symmetry_equiv_pos_site_id
 _symmetry_equiv_pos_as_xyz
  1  'x, y, z'
loop_
 _atom_site_type_symbol
 _atom_site_label
 _atom_site_symmetry_multiplicity
 _atom_site_fract_x
 _atom_site_fract_y
 _atom_site_fract_z
 _atom_site_occupancy
  Rb  Rb0  1  0.17768800  0.82231200  0.50000000  1
  Rb  Rb1  1  0.67768800  0.32231200  0.00000000  1
  Rb  Rb2  1  0.82231200  0.17768800  0.50000000  1
  Rb  Rb3  1  0.32231200  0.67768800  0.00000000  1
  B  B4  1  0.69148000  0.69148000  0.53192800  1
  B  B5  1  0.30852000  0.30852000  0.46807200  1
  B  B6  1  0.80852000  0.80852000  0.03192800  1
  B  B7  1  0.19148000  0.19148000  0.96807200  1
  B  B8  1  0.31759000  0.43416700  0.57542900  1
  B  B9  1  0.56583300  0.68241000  0.42457100  1
  B  B10  1  0.06583300  0.18241000  0.07542900  1
  B  B11  1  0.81759000  0.93416700  0.92457100  1
  B  B12  1  0.68241000  0.56583300  0.42457100  1
  B  B13  1  0.43416700  0.31759000  0.57542900  1
  B  B14  1  0.93416700  0.81759000  0.92457100  1
  B  B15  1  0.18241000  0.06583300  0.07542900  1
  B  B16  1  0.33306600  0.51941400  0.45151000  1
  B  B17  1  0.48058600  0.66693400  0.54849000  1
  B  B18  1  0.98058600  0.16693400  0.95151000  1
  B  B19  1  0.83306600  0.01941400  0.04849000  1
  B  B20  1  0.66693400  0.48058600  0.54849000  1
  B  B21  1  0.51941400  0.33306600  0.45151000  1
  B  B22  1  0.01941400  0.83306600  0.04849000  1
  B  B23  1  0.16693400  0.98058600  0.95151000  1
  B  B24  1  0.95896300  0.95896300  0.12261500  1
  B  B25  1  0.04103700  0.04103700  0.87738500  1
  B  B26  1  0.54103700  0.54103700  0.62261500  1
  B  B27  1  0.45896300  0.45896300  0.37738500  1
  H  H28  1  0.84455400  0.84455400  0.63873200  1
  H  H29  1  0.15544600  0.15544600  0.36126800  1
  H  H30  1  0.65544600  0.65544600  0.13873200  1
  H  H31  1  0.34455400  0.34455400  0.86126800  1
  H  H32  1  0.13452800  0.28091600  0.68344600  1
  H  H33  1  0.71908400  0.86547200  0.31655400  1
  H  H34  1  0.21908400  0.36547200  0.18344600  1
  H  H35  1  0.63452800  0.78091600  0.81655400  1
  H  H36  1  0.86547200  0.71908400  0.31655400  1
  H  H37  1  0.28091600  0.13452800  0.68344600  1
  H  H38  1  0.78091600  0.63452800  0.81655400  1
  H  H39  1  0.36547200  0.21908400  0.18344600  1
  H  H40  1  0.20017700  0.54741600  0.33865300  1
  H  H41  1  0.45258400  0.79982300  0.66134700  1
  H  H42  1  0.95258400  0.29982300  0.83865300  1
  H  H43  1  0.70017700  0.04741600  0.16134700  1
  H  H44  1  0.79982300  0.45258400  0.66134700  1
  H  H45  1  0.54741600  0.20017700  0.33865300  1
  H  H46  1  0.04741600  0.70017700  0.16134700  1
  H  H47  1  0.29982300  0.95258400  0.83865300  1
  H  H48  1  0.01130500  0.01130500  0.27005300  1
  H  H49  1  0.98869500  0.98869500  0.72994700  1
  H  H50  1  0.48869500  0.48869500  0.77005300  1
  H  H51  1  0.51130500  0.51130500  0.22994700  1
  H  H52  1  0.35462800  0.93646300  0.21457900  1
  H  H53  1  0.06353700  0.64537200  0.78542100  1
  H  H54  1  0.56353700  0.14537200  0.71457900  1
  H  H55  1  0.85462800  0.43646300  0.28542100  1
  H  H56  1  0.64537200  0.06353700  0.78542100  1
  H  H57  1  0.93646300  0.35462800  0.21457900  1
  H  H58  1  0.43646300  0.85462800  0.28542100  1
  H  H59  1  0.14537200  0.56353700  0.71457900  1
  O  O60  1  0.85284300  0.85284300  0.56575400  1
  O  O61  1  0.14715700  0.14715700  0.43424600  1
  O  O62  1  0.64715700  0.64715700  0.06575400  1
  O  O63  1  0.35284300  0.35284300  0.93424600  1
  O  O64  1  0.16522200  0.38224700  0.63982200  1
  O  O65  1  0.61775300  0.83477800  0.36017800  1
  O  O66  1  0.11775300  0.33477800  0.13982200  1
  O  O67  1  0.66522200  0.88224700  0.86017800  1
  O  O68  1  0.83477800  0.61775300  0.36017800  1
  O  O69  1  0.38224700  0.16522200  0.63982200  1
  O  O70  1  0.88224700  0.66522200  0.86017800  1
  O  O71  1  0.33477800  0.11775300  0.13982200  1
  O  O72  1  0.18523800  0.52180700  0.41036900  1
  O  O73  1  0.47819300  0.81476200  0.58963100  1
  O  O74  1  0.97819300  0.31476200  0.91036900  1
  O  O75  1  0.68523800  0.02180700  0.08963100  1
  O  O76  1  0.81476200  0.47819300  0.58963100  1
  O  O77  1  0.52180700  0.18523800  0.41036900  1
  O  O78  1  0.02180700  0.68523800  0.08963100  1
  O  O79  1  0.31476200  0.97819300  0.91036900  1
  O  O80  1  0.91603200  0.91603200  0.23025800  1
  O  O81  1  0.08396800  0.08396800  0.76974200  1
  O  O82  1  0.58396800  0.58396800  0.73025800  1
  O  O83  1  0.41603200  0.41603200  0.26974200  1
  O  O84  1  0.32774100  0.82774100  0.25000000  1
  O  O85  1  0.17225900  0.67225900  0.75000000  1
  O  O86  1  0.67225900  0.17225900  0.75000000  1
  O  O87  1  0.82774100  0.32774100  0.25000000  1
