# generated using pymatgen
data_TeP2C6(NCl)2
_symmetry_space_group_name_H-M   'P 1'
_cell_length_a   9.80600700
_cell_length_b   11.18814500
_cell_length_c   13.36746239
_cell_angle_alpha   79.04712785
_cell_angle_beta   90.00000000
_cell_angle_gamma   90.00000000
_symmetry_Int_Tables_number   1
_chemical_formula_structural   TeP2C6(NCl)2
_chemical_formula_sum   'Te4 P8 C24 N8 Cl8'
_cell_volume   1439.84292606
_cell_formula_units_Z   4
loop_
 _symmetry_equiv_pos_site_id
 _symmetry_equiv_pos_as_xyz
  1  'x, y, z'
loop_
 _atom_site_type_symbol
 _atom_site_label
 _atom_site_symmetry_multiplicity
 _atom_site_fract_x
 _atom_site_fract_y
 _atom_site_fract_z
 _atom_site_occupancy
  Te  Te0  1  0.48333500  0.47045800  0.22119100  1
  Te  Te1  1  0.98333500  0.02954200  0.77880900  1
  Te  Te2  1  0.51666500  0.52954200  0.77880900  1
  Te  Te3  1  0.01666500  0.97045800  0.22119100  1
  P  P4  1  0.19372400  0.42497700  0.34402200  1
  P  P5  1  0.69372400  0.07502300  0.65597800  1
  P  P6  1  0.80627600  0.57502300  0.65597800  1
  P  P7  1  0.30627600  0.92497700  0.34402200  1
  P  P8  1  0.46793500  0.22058800  0.12853700  1
  P  P9  1  0.96793500  0.27941200  0.87146300  1
  P  P10  1  0.53206500  0.77941200  0.87146300  1
  P  P11  1  0.03206500  0.72058800  0.12853700  1
  C  C12  1  0.21847500  0.25334300  0.37458000  1
  C  C13  1  0.71847500  0.24665700  0.62542000  1
  C  C14  1  0.78152500  0.74665700  0.62542000  1
  C  C15  1  0.28152500  0.75334300  0.37458000  1
  C  C16  1  0.20249100  0.36236600  0.49924200  1
  C  C17  1  0.70249100  0.13763400  0.50075800  1
  C  C18  1  0.79750900  0.63763400  0.50075800  1
  C  C19  1  0.29750900  0.86236600  0.49924200  1
  C  C20  1  0.26227300  0.26754800  0.46787100  1
  C  C21  1  0.76227300  0.23245200  0.53212900  1
  C  C22  1  0.73772700  0.73245200  0.53212900  1
  C  C23  1  0.23772700  0.76754800  0.46787100  1
  C  C24  1  0.62082900  0.27535100  0.04724900  1
  C  C25  1  0.12082900  0.22464900  0.95275100  1
  C  C26  1  0.37917100  0.72464900  0.95275100  1
  C  C27  1  0.87917100  0.77535100  0.04724900  1
  C  C28  1  0.59932200  0.08382500  0.17454100  1
  C  C29  1  0.09932200  0.41617500  0.82545900  1
  C  C30  1  0.40067800  0.91617500  0.82545900  1
  C  C31  1  0.90067800  0.58382500  0.17454100  1
  C  C32  1  0.66484700  0.17269300  0.11390200  1
  C  C33  1  0.16484700  0.32730700  0.88609800  1
  C  C34  1  0.33515300  0.82730700  0.88609800  1
  C  C35  1  0.83515300  0.67269300  0.11390200  1
  N  N36  1  0.31467400  0.50446900  0.29084800  1
  N  N37  1  0.81467400  0.99553100  0.70915200  1
  N  N38  1  0.68532600  0.49553100  0.70915200  1
  N  N39  1  0.18532600  0.00446900  0.29084800  1
  N  N40  1  0.44622700  0.30283800  0.21637000  1
  N  N41  1  0.94622700  0.19716200  0.78363000  1
  N  N42  1  0.55377300  0.69716200  0.78363000  1
  N  N43  1  0.05377300  0.80283800  0.21637000  1
  Cl  Cl44  1  0.30633400  0.58455400  0.99090000  1
  Cl  Cl45  1  0.80633400  0.91544600  0.00910000  1
  Cl  Cl46  1  0.69366600  0.41544600  0.00910000  1
  Cl  Cl47  1  0.19366600  0.08455400  0.99090000  1
  Cl  Cl48  1  0.63286600  0.46132500  0.36460000  1
  Cl  Cl49  1  0.13286600  0.03867500  0.63540000  1
  Cl  Cl50  1  0.36713400  0.53867500  0.63540000  1
  Cl  Cl51  1  0.86713400  0.96132500  0.36460000  1
