# generated using pymatgen
data_K3NaP2O11
_symmetry_space_group_name_H-M   'P 1'
_cell_length_a   12.07059300
_cell_length_b   5.62219000
_cell_length_c   17.61265933
_cell_angle_alpha   83.57289248
_cell_angle_beta   90.00000000
_cell_angle_gamma   90.00000000
_symmetry_Int_Tables_number   1
_chemical_formula_structural   K3NaP2O11
_chemical_formula_sum   'K12 Na4 P8 O44'
_cell_volume   1187.73877815
_cell_formula_units_Z   4
loop_
 _symmetry_equiv_pos_site_id
 _symmetry_equiv_pos_as_xyz
  1  'x, y, z'
loop_
 _atom_site_type_symbol
 _atom_site_label
 _atom_site_symmetry_multiplicity
 _atom_site_fract_x
 _atom_site_fract_y
 _atom_site_fract_z
 _atom_site_occupancy
  K  K0  1  0.09720900  0.25884800  0.59377600  1
  K  K1  1  0.59720900  0.74115200  0.90622400  1
  K  K2  1  0.90279100  0.74115200  0.40622400  1
  K  K3  1  0.40279100  0.25884800  0.09377600  1
  K  K4  1  0.04853000  0.74011000  0.79935600  1
  K  K5  1  0.54853000  0.25989000  0.70064400  1
  K  K6  1  0.95147000  0.25989000  0.20064400  1
  K  K7  1  0.45147000  0.74011000  0.29935600  1
  K  K8  1  0.66321200  0.82713200  0.49255700  1
  K  K9  1  0.16321200  0.17286800  0.00744300  1
  K  K10  1  0.33678800  0.17286800  0.50744300  1
  K  K11  1  0.83678800  0.82713200  0.99255700  1
  Na  Na12  1  0.89710700  0.80951600  0.63348900  1
  Na  Na13  1  0.39710700  0.19048400  0.86651100  1
  Na  Na14  1  0.10289300  0.19048400  0.36651100  1
  Na  Na15  1  0.60289300  0.80951600  0.13348900  1
  P  P16  1  0.77390000  0.31455400  0.56644800  1
  P  P17  1  0.27390000  0.68544600  0.93355200  1
  P  P18  1  0.22610000  0.68544600  0.43355200  1
  P  P19  1  0.72610000  0.31455400  0.06644800  1
  P  P20  1  0.86005500  0.24848200  0.73058200  1
  P  P21  1  0.36005500  0.75151800  0.76941800  1
  P  P22  1  0.13994500  0.75151800  0.26941800  1
  P  P23  1  0.63994500  0.24848200  0.23058200  1
  O  O24  1  0.65183100  0.31777500  0.54439700  1
  O  O25  1  0.15183100  0.68222500  0.95560300  1
  O  O26  1  0.34816900  0.68222500  0.45560300  1
  O  O27  1  0.84816900  0.31777500  0.04439700  1
  O  O28  1  0.83371500  0.55435100  0.55245900  1
  O  O29  1  0.33371500  0.44564900  0.94754100  1
  O  O30  1  0.16628500  0.44564900  0.44754100  1
  O  O31  1  0.66628500  0.55435100  0.05245900  1
  O  O32  1  0.83960200  0.10515500  0.53484000  1
  O  O33  1  0.33960200  0.89484500  0.96516000  1
  O  O34  1  0.16039800  0.89484500  0.46516000  1
  O  O35  1  0.66039800  0.10515500  0.03484000  1
  O  O36  1  0.76932700  0.22908600  0.65988200  1
  O  O37  1  0.26932700  0.77091400  0.84011800  1
  O  O38  1  0.23067300  0.77091400  0.34011800  1
  O  O39  1  0.73067300  0.22908600  0.15988200  1
  O  O40  1  0.96009500  0.10187700  0.71017700  1
  O  O41  1  0.46009500  0.89812300  0.78982300  1
  O  O42  1  0.03990500  0.89812300  0.28982300  1
  O  O43  1  0.53990500  0.10187700  0.21017700  1
  O  O44  1  0.88591900  0.51313100  0.73306300  1
  O  O45  1  0.38591900  0.48686900  0.76693700  1
  O  O46  1  0.11408100  0.48686900  0.26693700  1
  O  O47  1  0.61408100  0.51313100  0.23306300  1
  O  O48  1  0.79181300  0.14272200  0.80060900  1
  O  O49  1  0.29181300  0.85727800  0.69939100  1
  O  O50  1  0.20818700  0.85727800  0.19939100  1
  O  O51  1  0.70818700  0.14272200  0.30060900  1
  O  O52  1  0.09307600  0.76254600  0.57811700  1
  O  O53  1  0.59307600  0.23745400  0.92188300  1
  O  O54  1  0.90692400  0.23745400  0.42188300  1
  O  O55  1  0.40692400  0.76254600  0.07811700  1
  O  O56  1  0.06232600  0.23318800  0.85556900  1
  O  O57  1  0.56232600  0.76681200  0.64443100  1
  O  O58  1  0.93767400  0.76681200  0.14443100  1
  O  O59  1  0.43767400  0.23318800  0.35556900  1
  O  O60  1  0.98282700  0.16022100  0.89706700  1
  O  O61  1  0.48282700  0.83977900  0.60293300  1
  O  O62  1  0.01717300  0.83977900  0.10293300  1
  O  O63  1  0.51717300  0.16022100  0.39706700  1
  O  O64  1  0.82795100  0.76983500  0.84859700  1
  O  O65  1  0.32795100  0.23016500  0.65140300  1
  O  O66  1  0.17204900  0.23016500  0.15140300  1
  O  O67  1  0.67204900  0.76983500  0.34859700  1
