# generated using pymatgen
data_CeErS3
_symmetry_space_group_name_H-M   'P 1'
_cell_length_a   3.92719700
_cell_length_b   10.97052400
_cell_length_c   21.49247287
_cell_angle_alpha   78.46956427
_cell_angle_beta   90.00000000
_cell_angle_gamma   90.00000000
_symmetry_Int_Tables_number   1
_chemical_formula_structural   CeErS3
_chemical_formula_sum   'Ce8 Er8 S24'
_cell_volume   907.28170404
_cell_formula_units_Z   8
loop_
 _symmetry_equiv_pos_site_id
 _symmetry_equiv_pos_as_xyz
  1  'x, y, z'
loop_
 _atom_site_type_symbol
 _atom_site_label
 _atom_site_symmetry_multiplicity
 _atom_site_fract_x
 _atom_site_fract_y
 _atom_site_fract_z
 _atom_site_occupancy
  Ce  Ce0  1  0.25000000  0.30415000  0.76637100  1
  Ce  Ce1  1  0.75000000  0.69585000  0.23362900  1
  Ce  Ce2  1  0.25000000  0.90767500  0.86288600  1
  Ce  Ce3  1  0.75000000  0.09232500  0.13711400  1
  Ce  Ce4  1  0.25000000  0.69284200  0.73145700  1
  Ce  Ce5  1  0.75000000  0.30715800  0.26854300  1
  Ce  Ce6  1  0.25000000  0.80028400  0.53704900  1
  Ce  Ce7  1  0.75000000  0.19971600  0.46295100  1
  Er  Er8  1  0.25000000  0.55335200  0.41769600  1
  Er  Er9  1  0.75000000  0.44664800  0.58230400  1
  Er  Er10  1  0.25000000  0.96996200  0.35226100  1
  Er  Er11  1  0.75000000  0.03003800  0.64773900  1
  Er  Er12  1  0.25000000  0.82277200  0.04649300  1
  Er  Er13  1  0.75000000  0.17722800  0.95350700  1
  Er  Er14  1  0.25000000  0.47734800  0.08868000  1
  Er  Er15  1  0.75000000  0.52265200  0.91132000  1
  S  S16  1  0.25000000  0.08572600  0.03825800  1
  S  S17  1  0.75000000  0.91427400  0.96174200  1
  S  S18  1  0.25000000  0.20646500  0.36572800  1
  S  S19  1  0.75000000  0.79353500  0.63427200  1
  S  S20  1  0.25000000  0.74534700  0.32265600  1
  S  S21  1  0.75000000  0.25465300  0.67734400  1
  S  S22  1  0.25000000  0.63709900  0.96414000  1
  S  S23  1  0.75000000  0.36290100  0.03586000  1
  S  S24  1  0.25000000  0.50579700  0.22235300  1
  S  S25  1  0.75000000  0.49420300  0.77764700  1
  S  S26  1  0.25000000  0.25174700  0.17556300  1
  S  S27  1  0.75000000  0.74825300  0.82443700  1
  S  S28  1  0.25000000  0.87562400  0.16496700  1
  S  S29  1  0.75000000  0.12437600  0.83503300  1
  S  S30  1  0.25000000  0.35361200  0.51465800  1
  S  S31  1  0.75000000  0.64638800  0.48534200  1
  S  S32  1  0.25000000  0.05809600  0.55527600  1
  S  S33  1  0.75000000  0.94190400  0.44472400  1
  S  S34  1  0.25000000  0.96052300  0.72923700  1
  S  S35  1  0.75000000  0.03947700  0.27076300  1
  S  S36  1  0.25000000  0.54855000  0.63409000  1
  S  S37  1  0.75000000  0.45145000  0.36591000  1
  S  S38  1  0.25000000  0.34180700  0.90012200  1
  S  S39  1  0.75000000  0.65819300  0.09987800  1
