# generated using pymatgen
data_InSi2H19C7Br2
_symmetry_space_group_name_H-M   'P 1'
_cell_length_a   9.88565300
_cell_length_b   14.16891107
_cell_length_c   14.61388557
_cell_angle_alpha   62.66706876
_cell_angle_beta   78.66939468
_cell_angle_gamma   81.73132303
_symmetry_Int_Tables_number   1
_chemical_formula_structural   InSi2H19C7Br2
_chemical_formula_sum   'In4 Si8 H76 C28 Br8'
_cell_volume   1779.59575659
_cell_formula_units_Z   4
loop_
 _symmetry_equiv_pos_site_id
 _symmetry_equiv_pos_as_xyz
  1  'x, y, z'
loop_
 _atom_site_type_symbol
 _atom_site_label
 _atom_site_symmetry_multiplicity
 _atom_site_fract_x
 _atom_site_fract_y
 _atom_site_fract_z
 _atom_site_occupancy
  In  In0  1  0.05437800  0.84209100  0.61649600  1
  In  In1  1  0.94562200  0.15790900  0.38350400  1
  In  In2  1  0.90362400  0.66467300  0.94025500  1
  In  In3  1  0.09637600  0.33532700  0.05974500  1
  Si  Si4  1  0.16803600  0.70026100  0.48106000  1
  Si  Si5  1  0.83196400  0.29973900  0.51894000  1
  Si  Si6  1  0.39408700  0.74988500  0.58934000  1
  Si  Si7  1  0.60591300  0.25011500  0.41066000  1
  Si  Si8  1  0.58811400  0.75585400  0.01591300  1
  Si  Si9  1  0.41188600  0.24414600  0.98408700  1
  Si  Si10  1  0.85075600  0.77605600  0.11203000  1
  Si  Si11  1  0.14924400  0.22394400  0.88797000  1
  H  H12  1  0.18078500  0.65609500  0.66217100  1
  H  H13  1  0.81921500  0.34390500  0.33782900  1
  H  H14  1  0.14519900  0.80476900  0.29473300  1
  H  H15  1  0.85480100  0.19523100  0.70526700  1
  H  H16  1  0.08487100  0.88363200  0.36166500  1
  H  H17  1  0.91512900  0.11636800  0.63833500  1
  H  H18  1  0.26561500  0.86169000  0.32783500  1
  H  H19  1  0.73438500  0.13831000  0.67216500  1
  H  H20  1  0.98516500  0.57434600  0.59874700  1
  H  H21  1  0.01483500  0.42565400  0.40125300  1
  H  H22  1  0.90812600  0.69978900  0.51842800  1
  H  H23  1  0.09187400  0.30021100  0.48157200  1
  H  H24  1  0.98379700  0.61097900  0.46501400  1
  H  H25  1  0.01620300  0.38902100  0.53498600  1
  H  H26  1  0.30027900  0.52304200  0.52811800  1
  H  H27  1  0.69972100  0.47695800  0.47188200  1
  H  H28  1  0.27013900  0.58574100  0.39674000  1
  H  H29  1  0.72986100  0.41425900  0.60326000  1
  H  H30  1  0.40460500  0.62721200  0.43259500  1
  H  H31  1  0.59539500  0.37278800  0.56740500  1
  H  H32  1  0.35244800  0.77611000  0.75157400  1
  H  H33  1  0.64755200  0.22389000  0.24842600  1
  H  H34  1  0.51622000  0.81731500  0.67555600  1
  H  H35  1  0.48378000  0.18268500  0.32444400  1
  H  H36  1  0.36521600  0.90117800  0.63853100  1
  H  H37  1  0.63478400  0.09882200  0.36146900  1
  H  H38  1  0.46387500  0.57801600  0.73344100  1
  H  H39  1  0.53612500  0.42198400  0.26655900  1
  H  H40  1  0.46618900  0.56030600  0.61990600  1
  H  H41  1  0.53381100  0.43969400  0.38009400  1
  H  H42  1  0.60083000  0.62576300  0.62818700  1
  H  H43  1  0.39917000  0.37423700  0.37181300  1
  H  H44  1  0.49627200  0.79124200  0.40453700  1
  H  H45  1  0.50372800  0.20875800  0.59546300  1
  H  H46  1  0.43311300  0.90986000  0.41683500  1
  H  H47  1  0.56688700  0.09014000  0.58316500  1
  H  H48  1  0.59089800  0.84290200  0.46122800  1
  H  H49  1  0.40910200  0.15709800  0.53877200  1
  H  H50  1  0.75245900  0.62431600  0.12017500  1
  H  H51  1  0.24754100  0.37568400  0.87982500  1
  H  H52  1  0.39997300  0.66990300  0.99904400  1
  H  H53  1  0.60002700  0.33009700  0.00095600  1
  H  H54  1  0.55960000  0.63774800  0.93604700  1
  H  H55  1  0.44040000  0.36225200  0.06395300  1
  H  H56  1  0.51855400  0.57167000  0.07420500  1
  H  H57  1  0.48144600  0.42833000  0.92579500  1
  H  H58  1  0.36499600  0.80519800  0.09700900  1
  H  H59  1  0.63500400  0.19480200  0.90299100  1
  H  H60  1  0.46377100  0.71619500  0.19553300  1
  H  H61  1  0.53622900  0.28380500  0.80446700  1
  H  H62  1  0.49986800  0.85324900  0.12599900  1
  H  H63  1  0.50013200  0.14675100  0.87400100  1
  H  H64  1  0.65764200  0.86536900  0.82495100  1
  H  H65  1  0.34235800  0.13463100  0.17504900  1
  H  H66  1  0.48870500  0.90457900  0.86863500  1
  H  H67  1  0.51129500  0.09542100  0.13136500  1
  H  H68  1  0.63551800  0.94541600  0.89220200  1
  H  H69  1  0.36448200  0.05458400  0.10779800  1
  H  H70  1  0.06852400  0.65753000  0.13235500  1
  H  H71  1  0.93147600  0.34247000  0.86764500  1
  H  H72  1  0.09859700  0.78594800  0.02724400  1
  H  H73  1  0.90140300  0.21405200  0.97275600  1
  H  H74  1  0.08121100  0.76706500  0.15777000  1
  H  H75  1  0.91878900  0.23293500  0.84223000  1
  H  H76  1  0.87970100  0.96293300  0.07130100  1
  H  H77  1  0.12029900  0.03706700  0.92869900  1
  H  H78  1  0.85200600  0.95447000  0.95864700  1
  H  H79  1  0.14799400  0.04553000  0.04135300  1
  H  H80  1  0.71012100  0.94950600  0.05669100  1
  H  H81  1  0.28987900  0.05049400  0.94330900  1
  H  H82  1  0.80708100  0.77747900  0.28443000  1
  H  H83  1  0.19291900  0.22252100  0.71557000  1
  H  H84  1  0.66248600  0.72900200  0.26702200  1
  H  H85  1  0.33751400  0.27099800  0.73297800  1
  H  H86  1  0.81539100  0.64508200  0.29966400  1
  H  H87  1  0.18460900  0.35491800  0.70033600  1
  C  C88  1  0.20855800  0.72751800  0.58827200  1
  C  C89  1  0.79144200  0.27248200  0.41172800  1
  C  C90  1  0.16602700  0.82436100  0.35497500  1
  C  C91  1  0.83397300  0.17563900  0.64502500  1
  C  C92  1  0.99477600  0.64114700  0.52019100  1
  C  C93  1  0.00522400  0.35885300  0.47980900  1
  C  C94  1  0.29918200  0.59972200  0.45826000  1
  C  C95  1  0.70081800  0.40027800  0.54174000  1
  C  C96  1  0.40607200  0.81773200  0.67163100  1
  C  C97  1  0.59392800  0.18226800  0.32836900  1
  C  C98  1  0.48892500  0.61514400  0.64821600  1
  C  C99  1  0.51107500  0.38485600  0.35178400  1
  C  C100  1  0.48624600  0.83094800  0.45503900  1
  C  C101  1  0.51375400  0.16905200  0.54496100  1
  C  C102  1  0.76661900  0.70553900  0.05608400  1
  C  C103  1  0.23338100  0.29446100  0.94391600  1
  C  C104  1  0.51030700  0.64863300  0.00512500  1
  C  C105  1  0.48969300  0.35136700  0.99487500  1
  C  C106  1  0.46965400  0.78547200  0.11897500  1
  C  C107  1  0.53034600  0.21452800  0.88102500  1
  C  C108  1  0.59388300  0.87945400  0.88860700  1
  C  C109  1  0.40611700  0.12054600  0.11139300  1
  C  C110  1  0.04268000  0.74320700  0.10619400  1
  C  C111  1  0.95732000  0.25679300  0.89380600  1
  C  C112  1  0.81978800  0.92466300  0.04304100  1
  C  C113  1  0.18021200  0.07533700  0.95695900  1
  C  C114  1  0.77583200  0.72700800  0.25404900  1
  C  C115  1  0.22416800  0.27299200  0.74595100  1
  Br  Br116  1  0.83620200  0.94313200  0.52351800  1
  Br  Br117  1  0.16379800  0.05686800  0.47648200  1
  Br  Br118  1  0.02304800  0.87456700  0.78272700  1
  Br  Br119  1  0.97695200  0.12543300  0.21727300  1
  Br  Br120  1  0.84405600  0.66751000  0.77263700  1
  Br  Br121  1  0.15594400  0.33249000  0.22736300  1
  Br  Br122  1  0.15549400  0.57746300  0.93974400  1
  Br  Br123  1  0.84450600  0.42253700  0.06025600  1
