# generated using pymatgen
data_WO3
_symmetry_space_group_name_H-M   'P 1'
_cell_length_a   12.34835700
_cell_length_b   12.34835700
_cell_length_c   3.87944200
_cell_angle_alpha   90.00000000
_cell_angle_beta   90.00000000
_cell_angle_gamma   90.00000000
_symmetry_Int_Tables_number   1
_chemical_formula_structural   WO3
_chemical_formula_sum   'W10 O30'
_cell_volume   591.54476701
_cell_formula_units_Z   10
loop_
 _symmetry_equiv_pos_site_id
 _symmetry_equiv_pos_as_xyz
  1  'x, y, z'
loop_
 _atom_site_type_symbol
 _atom_site_label
 _atom_site_symmetry_multiplicity
 _atom_site_fract_x
 _atom_site_fract_y
 _atom_site_fract_z
 _atom_site_occupancy
  W  W0  1  0.00000000  0.50000000  0.54223300  1
  W  W1  1  0.50000000  0.00000000  0.45776700  1
  W  W2  1  0.29297700  0.57733300  0.48038600  1
  W  W3  1  0.20702300  0.07733300  0.51961400  1
  W  W4  1  0.70702300  0.42266700  0.48038600  1
  W  W5  1  0.79297700  0.92266700  0.51961400  1
  W  W6  1  0.57733300  0.70702300  0.51961400  1
  W  W7  1  0.92266700  0.20702300  0.48038600  1
  W  W8  1  0.42266700  0.29297700  0.51961400  1
  W  W9  1  0.07733300  0.79297700  0.48038600  1
  O  O10  1  0.00000000  0.50000000  0.01617100  1
  O  O11  1  0.50000000  0.00000000  0.98382900  1
  O  O12  1  0.29311200  0.57752900  0.99785400  1
  O  O13  1  0.20688800  0.07752900  0.00214600  1
  O  O14  1  0.70688800  0.42247100  0.99785400  1
  O  O15  1  0.79311200  0.92247100  0.00214600  1
  O  O16  1  0.57752900  0.70688800  0.00214600  1
  O  O17  1  0.92247100  0.20688800  0.99785400  1
  O  O18  1  0.42247100  0.29311200  0.00214600  1
  O  O19  1  0.07752900  0.79311200  0.99785400  1
  O  O20  1  0.71321700  0.78678300  0.49991000  1
  O  O21  1  0.78678300  0.28678300  0.50009000  1
  O  O22  1  0.28678300  0.21321700  0.49991000  1
  O  O23  1  0.21321700  0.71321700  0.50009000  1
  O  O24  1  0.50375700  0.84458200  0.49505100  1
  O  O25  1  0.99624300  0.34458200  0.50494900  1
  O  O26  1  0.49624300  0.15541800  0.49505100  1
  O  O27  1  0.00375700  0.65541800  0.50494900  1
  O  O28  1  0.84458200  0.49624300  0.50494900  1
  O  O29  1  0.65541800  0.99624300  0.49505100  1
  O  O30  1  0.15541800  0.50375700  0.50494900  1
  O  O31  1  0.34458200  0.00375700  0.49505100  1
  O  O32  1  0.43293800  0.64241900  0.50083100  1
  O  O33  1  0.06706200  0.14241900  0.49916900  1
  O  O34  1  0.56706200  0.35758100  0.50083100  1
  O  O35  1  0.93293800  0.85758100  0.49916900  1
  O  O36  1  0.64241900  0.56706200  0.49916900  1
  O  O37  1  0.85758100  0.06706200  0.50083100  1
  O  O38  1  0.35758100  0.43293800  0.49916900  1
  O  O39  1  0.14241900  0.93293800  0.50083100  1
