# generated using pymatgen
data_MgP3H16C3NO12
_symmetry_space_group_name_H-M   'P 1'
_cell_length_a   9.29760800
_cell_length_b   16.39419200
_cell_length_c   9.90238544
_cell_angle_alpha   90.00000000
_cell_angle_beta   115.73402856
_cell_angle_gamma   90.00000000
_symmetry_Int_Tables_number   1
_chemical_formula_structural   MgP3H16C3NO12
_chemical_formula_sum   'Mg4 P12 H64 C12 N4 O48'
_cell_volume   1359.68642554
_cell_formula_units_Z   4
loop_
 _symmetry_equiv_pos_site_id
 _symmetry_equiv_pos_as_xyz
  1  'x, y, z'
loop_
 _atom_site_type_symbol
 _atom_site_label
 _atom_site_symmetry_multiplicity
 _atom_site_fract_x
 _atom_site_fract_y
 _atom_site_fract_z
 _atom_site_occupancy
  Mg  Mg0  1  0.53842100  0.71015500  0.67012300  1
  Mg  Mg1  1  0.46157900  0.21015500  0.82987700  1
  Mg  Mg2  1  0.46157900  0.28984500  0.32987700  1
  Mg  Mg3  1  0.53842100  0.78984500  0.17012300  1
  P  P4  1  0.93976700  0.96301500  0.71610700  1
  P  P5  1  0.06023300  0.46301500  0.78389300  1
  P  P6  1  0.06023300  0.03698500  0.28389300  1
  P  P7  1  0.93976700  0.53698500  0.21610700  1
  P  P8  1  0.53912600  0.87952400  0.88061600  1
  P  P9  1  0.46087400  0.37952400  0.61938400  1
  P  P10  1  0.46087400  0.12047600  0.11938400  1
  P  P11  1  0.53912600  0.62047600  0.38061600  1
  P  P12  1  0.17039300  0.78368400  0.48986300  1
  P  P13  1  0.82960700  0.28368400  0.01013700  1
  P  P14  1  0.82960700  0.21631600  0.51013700  1
  P  P15  1  0.17039300  0.71631600  0.98986300  1
  H  H16  1  0.92180800  0.09656800  0.73020500  1
  H  H17  1  0.07819200  0.59656800  0.76979500  1
  H  H18  1  0.07819200  0.90343200  0.26979500  1
  H  H19  1  0.92180800  0.40343200  0.23020500  1
  H  H20  1  0.76253700  0.91682100  0.86770000  1
  H  H21  1  0.23746300  0.41682100  0.63230000  1
  H  H22  1  0.23746300  0.08317900  0.13230000  1
  H  H23  1  0.76253700  0.58317900  0.36770000  1
  H  H24  1  0.01740900  0.66847100  0.41495900  1
  H  H25  1  0.98259100  0.16847100  0.08504100  1
  H  H26  1  0.98259100  0.33152900  0.58504100  1
  H  H27  1  0.01740900  0.83152900  0.91495900  1
  H  H28  1  0.85268800  0.66587500  0.82800700  1
  H  H29  1  0.14731200  0.16587500  0.67199300  1
  H  H30  1  0.14731200  0.33412500  0.17199300  1
  H  H31  1  0.85268800  0.83412500  0.32800700  1
  H  H32  1  0.68390600  0.76758100  0.50634300  1
  H  H33  1  0.31609400  0.26758100  0.99365700  1
  H  H34  1  0.31609400  0.23241900  0.49365700  1
  H  H35  1  0.68390600  0.73241900  0.00634300  1
  H  H36  1  0.21761600  0.92955000  0.89574700  1
  H  H37  1  0.78238400  0.42955000  0.60425300  1
  H  H38  1  0.78238400  0.07045000  0.10425300  1
  H  H39  1  0.21761600  0.57045000  0.39574700  1
  H  H40  1  0.20311800  0.02297000  0.80162100  1
  H  H41  1  0.79688200  0.52297000  0.69837900  1
  H  H42  1  0.79688200  0.97703000  0.19837900  1
  H  H43  1  0.20311800  0.47703000  0.30162100  1
  H  H44  1  0.24984100  0.79811400  0.76028400  1
  H  H45  1  0.75015900  0.29811400  0.73971600  1
  H  H46  1  0.75015900  0.20188600  0.23971600  1
  H  H47  1  0.24984100  0.70188600  0.26028400  1
  H  H48  1  0.04750200  0.82485500  0.64695900  1
  H  H49  1  0.95249800  0.32485500  0.85304100  1
  H  H50  1  0.95249800  0.17514500  0.35304100  1
  H  H51  1  0.04750200  0.67514500  0.14695900  1
  H  H52  1  0.15302700  0.95134000  0.57683700  1
  H  H53  1  0.84697300  0.45134000  0.92316300  1
  H  H54  1  0.84697300  0.04866000  0.42316300  1
  H  H55  1  0.15302700  0.54866000  0.07683700  1
  H  H56  1  0.40553200  0.00222800  0.75051100  1
  H  H57  1  0.59446800  0.50222800  0.74948900  1
  H  H58  1  0.59446800  0.99777200  0.24948900  1
  H  H59  1  0.40553200  0.49777200  0.25051100  1
  H  H60  1  0.40786900  0.92509900  0.62440800  1
  H  H61  1  0.59213100  0.42509900  0.87559200  1
  H  H62  1  0.59213100  0.07490100  0.37559200  1
  H  H63  1  0.40786900  0.57490100  0.12440800  1
  H  H64  1  0.39684600  0.66771600  0.85356600  1
  H  H65  1  0.60315400  0.16771600  0.64643400  1
  H  H66  1  0.60315400  0.33228400  0.14643400  1
  H  H67  1  0.39684600  0.83228400  0.35356600  1
  H  H68  1  0.31878900  0.61032800  0.71324500  1
  H  H69  1  0.68121100  0.11032800  0.78675500  1
  H  H70  1  0.68121100  0.38967200  0.28675500  1
  H  H71  1  0.31878900  0.88967200  0.21324500  1
  H  H72  1  0.77476700  0.61204100  0.90993100  1
  H  H73  1  0.22523300  0.11204100  0.59006900  1
  H  H74  1  0.22523300  0.38795900  0.09006900  1
  H  H75  1  0.77476700  0.88795900  0.40993100  1
  H  H76  1  0.76226100  0.81934000  0.66231700  1
  H  H77  1  0.23773900  0.31934000  0.83768300  1
  H  H78  1  0.23773900  0.18066000  0.33768300  1
  H  H79  1  0.76226100  0.68066000  0.16231700  1
  C  C80  1  0.15918500  0.95996700  0.78677700  1
  C  C81  1  0.84081500  0.45996700  0.71322300  1
  C  C82  1  0.84081500  0.04003300  0.21322300  1
  C  C83  1  0.15918500  0.54003300  0.28677700  1
  C  C84  1  0.38722800  0.93707900  0.72362100  1
  C  C85  1  0.61277200  0.43707900  0.77637900  1
  C  C86  1  0.61277200  0.06292100  0.27637900  1
  C  C87  1  0.38722800  0.56292100  0.22362100  1
  C  C88  1  0.16986100  0.83079000  0.65852200  1
  C  C89  1  0.83013900  0.33079000  0.84147800  1
  C  C90  1  0.83013900  0.16921000  0.34147800  1
  C  C91  1  0.16986100  0.66921000  0.15852200  1
  N  N92  1  0.21272700  0.91985300  0.67936000  1
  N  N93  1  0.78727300  0.41985300  0.82064000  1
  N  N94  1  0.78727300  0.08014700  0.32064000  1
  N  N95  1  0.21272700  0.58014700  0.17936000  1
  O  O96  1  0.86794600  0.96370000  0.54614800  1
  O  O97  1  0.13205400  0.46370000  0.95385200  1
  O  O98  1  0.13205400  0.03630000  0.45385200  1
  O  O99  1  0.86794600  0.53630000  0.04614800  1
  O  O100  1  0.88767600  0.89224400  0.78688800  1
  O  O101  1  0.11232400  0.39224400  0.71311200  1
  O  O102  1  0.11232400  0.10775600  0.21311200  1
  O  O103  1  0.88767600  0.60775600  0.28688800  1
  O  O104  1  0.90650900  0.04490200  0.78209300  1
  O  O105  1  0.09349100  0.54490200  0.71790700  1
  O  O106  1  0.09349100  0.95509800  0.21790700  1
  O  O107  1  0.90650900  0.45509800  0.28209300  1
  O  O108  1  0.56088100  0.79634200  0.82588200  1
  O  O109  1  0.43911900  0.29634200  0.67411800  1
  O  O110  1  0.43911900  0.20365800  0.17411800  1
  O  O111  1  0.56088100  0.70365800  0.32588200  1
  O  O112  1  0.69181300  0.93507200  0.91488600  1
  O  O113  1  0.30818700  0.43507200  0.58511400  1
  O  O114  1  0.30818700  0.06492800  0.08511400  1
  O  O115  1  0.69181300  0.56492800  0.41488600  1
  O  O116  1  0.50043700  0.88064100  0.01375400  1
  O  O117  1  0.49956300  0.38064100  0.48624600  1
  O  O118  1  0.49956300  0.11935900  0.98624600  1
  O  O119  1  0.50043700  0.61935900  0.51375400  1
  O  O120  1  0.34017600  0.77845700  0.50547000  1
  O  O121  1  0.65982400  0.27845700  0.99453000  1
  O  O122  1  0.65982400  0.22154300  0.49453000  1
  O  O123  1  0.34017600  0.72154300  0.00547000  1
  O  O124  1  0.10557800  0.69614200  0.50351900  1
  O  O125  1  0.89442200  0.19614200  0.99648100  1
  O  O126  1  0.89442200  0.30385800  0.49648100  1
  O  O127  1  0.10557800  0.80385800  0.00351900  1
  O  O128  1  0.05230600  0.82968600  0.35298200  1
  O  O129  1  0.94769400  0.32968600  0.14701800  1
  O  O130  1  0.94769400  0.17031400  0.64701800  1
  O  O131  1  0.05230600  0.67031400  0.85298200  1
  O  O132  1  0.41444800  0.64219700  0.77177600  1
  O  O133  1  0.58555200  0.14219700  0.72822400  1
  O  O134  1  0.58555200  0.35780300  0.22822400  1
  O  O135  1  0.41444800  0.85780300  0.27177600  1
  O  O136  1  0.74965500  0.65466700  0.83198100  1
  O  O137  1  0.25034500  0.15466700  0.66801900  1
  O  O138  1  0.25034500  0.34533300  0.16801900  1
  O  O139  1  0.74965500  0.84533300  0.33198100  1
  O  O140  1  0.69058000  0.77400900  0.60737100  1
  O  O141  1  0.30942000  0.27400900  0.89262900  1
  O  O142  1  0.30942000  0.22599100  0.39262900  1
  O  O143  1  0.69058000  0.72599100  0.10737100  1
