# generated using pymatgen
data_InGe2P(H3C)8
_symmetry_space_group_name_H-M   'P 1'
_cell_length_a   9.81348200
_cell_length_b   10.29702891
_cell_length_c   10.35824383
_cell_angle_alpha   77.22142105
_cell_angle_beta   80.44899594
_cell_angle_gamma   64.14891573
_symmetry_Int_Tables_number   1
_chemical_formula_structural   InGe2P(H3C)8
_chemical_formula_sum   'In2 Ge4 P2 H48 C16'
_cell_volume   915.74128120
_cell_formula_units_Z   2
loop_
 _symmetry_equiv_pos_site_id
 _symmetry_equiv_pos_as_xyz
  1  'x, y, z'
loop_
 _atom_site_type_symbol
 _atom_site_label
 _atom_site_symmetry_multiplicity
 _atom_site_fract_x
 _atom_site_fract_y
 _atom_site_fract_z
 _atom_site_occupancy
  In  In0  1  0.96353400  0.35733100  0.92965000  1
  In  In1  1  0.03646600  0.64266900  0.07035000  1
  Ge  Ge2  1  0.75118300  0.80780800  0.76352900  1
  Ge  Ge3  1  0.24881700  0.19219200  0.23647100  1
  Ge  Ge4  1  0.17279000  0.63063900  0.66541900  1
  Ge  Ge5  1  0.82721000  0.36936100  0.33458100  1
  P  P6  1  0.98250900  0.61617000  0.83329200  1
  P  P7  1  0.01749100  0.38383000  0.16670800  1
  H  H8  1  0.58274500  0.70229900  0.92114100  1
  H  H9  1  0.41725500  0.29770100  0.07885900  1
  H  H10  1  0.61953000  0.82292100  0.99736100  1
  H  H11  1  0.38047000  0.17707900  0.00263900  1
  H  H12  1  0.48403600  0.89592800  0.87526400  1
  H  H13  1  0.51596400  0.10407200  0.12473600  1
  H  H14  1  0.84476400  0.00602600  0.65114000  1
  H  H15  1  0.15523600  0.99397400  0.34886000  1
  H  H16  1  0.64802200  0.08579900  0.70646300  1
  H  H17  1  0.35197800  0.91420100  0.29353700  1
  H  H18  1  0.78821600  0.01901700  0.82291500  1
  H  H19  1  0.21178400  0.98098300  0.17708500  1
  H  H20  1  0.67845800  0.68005900  0.61684000  1
  H  H21  1  0.32154200  0.31994100  0.38316000  1
  H  H22  1  0.57780600  0.87408200  0.58083600  1
  H  H23  1  0.42219400  0.12591800  0.41916400  1
  H  H24  1  0.77050000  0.78833200  0.51604400  1
  H  H25  1  0.22950000  0.21166800  0.48395600  1
  H  H26  1  0.01589100  0.76380200  0.46223500  1
  H  H27  1  0.98410900  0.23619800  0.53776500  1
  H  H28  1  0.21064600  0.66329800  0.41398500  1
  H  H29  1  0.78935400  0.33670200  0.58601500  1
  H  H30  1  0.09007800  0.56983600  0.47047300  1
  H  H31  1  0.90992200  0.43016400  0.52952700  1
  H  H32  1  0.12691600  0.89800600  0.65857700  1
  H  H33  1  0.87308400  0.10199400  0.34142300  1
  H  H34  1  0.26369900  0.77741300  0.77357800  1
  H  H35  1  0.73630100  0.22258700  0.22642200  1
  H  H36  1  0.31741000  0.79247600  0.59960200  1
  H  H37  1  0.68259000  0.20752400  0.40039800  1
  H  H38  1  0.39443000  0.42739900  0.78983200  1
  H  H39  1  0.60557000  0.57260100  0.21016800  1
  H  H40  1  0.33182300  0.35489700  0.68032600  1
  H  H41  1  0.66817700  0.64510300  0.31967400  1
  H  H42  1  0.44515300  0.45499100  0.61556700  1
  H  H43  1  0.55484700  0.54500900  0.38443300  1
  H  H44  1  0.25713500  0.16334500  0.85376600  1
  H  H45  1  0.74286500  0.83665500  0.14623400  1
  H  H46  1  0.13944700  0.06629100  0.90937000  1
  H  H47  1  0.86055300  0.93370900  0.09063000  1
  H  H48  1  0.12672000  0.17192400  0.74725400  1
  H  H49  1  0.87328000  0.82807600  0.25274600  1
  H  H50  1  0.64631500  0.47631700  0.96678700  1
  H  H51  1  0.35368500  0.52368300  0.03321300  1
  H  H52  1  0.70717200  0.38850900  0.82383600  1
  H  H53  1  0.29282800  0.61149100  0.17616400  1
  H  H54  1  0.71863000  0.28212700  0.98537100  1
  H  H55  1  0.28137000  0.71787300  0.01462900  1
  C  C56  1  0.59257700  0.80676000  0.90523900  1
  C  C57  1  0.40742300  0.19324000  0.09476100  1
  C  C58  1  0.75987500  0.99972100  0.73287800  1
  C  C59  1  0.24012500  0.00027900  0.26712200  1
  C  C60  1  0.68933100  0.78390000  0.60181800  1
  C  C61  1  0.31066900  0.21610000  0.39818200  1
  C  C62  1  0.11474500  0.65976300  0.48452600  1
  C  C63  1  0.88525500  0.34023700  0.51547400  1
  C  C64  1  0.22514600  0.79199700  0.67574600  1
  C  C65  1  0.77485400  0.20800300  0.32425400  1
  C  C66  1  0.35532400  0.44662900  0.69132500  1
  C  C67  1  0.64467600  0.55337100  0.30867500  1
  C  C68  1  0.14459700  0.16755100  0.85040900  1
  C  C69  1  0.85540300  0.83244900  0.14959100  1
  C  C70  1  0.73055700  0.38010100  0.92636000  1
  C  C71  1  0.26944300  0.61989900  0.07364000  1
