# generated using pymatgen
data_UAl4B3O14
_symmetry_space_group_name_H-M   'P 1'
_cell_length_a   5.65054900
_cell_length_b   9.65414900
_cell_length_c   10.68481030
_cell_angle_alpha   67.18471549
_cell_angle_beta   90.00000000
_cell_angle_gamma   90.00000000
_symmetry_Int_Tables_number   1
_chemical_formula_structural   UAl4B3O14
_chemical_formula_sum   'U2 Al8 B6 O28'
_cell_volume   537.26579943
_cell_formula_units_Z   2
loop_
 _symmetry_equiv_pos_site_id
 _symmetry_equiv_pos_as_xyz
  1  'x, y, z'
loop_
 _atom_site_type_symbol
 _atom_site_label
 _atom_site_symmetry_multiplicity
 _atom_site_fract_x
 _atom_site_fract_y
 _atom_site_fract_z
 _atom_site_occupancy
  U  U0  1  0.25000000  0.10555300  0.22592900  1
  U  U1  1  0.75000000  0.89444700  0.77407100  1
  Al  Al2  1  0.25000000  0.41384700  0.76801000  1
  Al  Al3  1  0.75000000  0.58615300  0.23199000  1
  Al  Al4  1  0.00000000  0.50000000  0.50000000  1
  Al  Al5  1  0.50000000  0.50000000  0.50000000  1
  Al  Al6  1  0.75000000  0.86027700  0.32764200  1
  Al  Al7  1  0.25000000  0.13972300  0.67235800  1
  Al  Al8  1  0.00000000  0.50000000  0.00000000  1
  Al  Al9  1  0.50000000  0.50000000  0.00000000  1
  B  B10  1  0.25000000  0.79237300  0.41727600  1
  B  B11  1  0.75000000  0.20762700  0.58272400  1
  B  B12  1  0.75000000  0.49205400  0.75090500  1
  B  B13  1  0.25000000  0.50794600  0.24909500  1
  B  B14  1  0.25000000  0.78639300  0.85653200  1
  B  B15  1  0.75000000  0.21360700  0.14346800  1
  O  O16  1  0.75000000  0.64031900  0.42958500  1
  O  O17  1  0.25000000  0.35968100  0.57041500  1
  O  O18  1  0.25000000  0.02171100  0.10171500  1
  O  O19  1  0.75000000  0.97828900  0.89828500  1
  O  O20  1  0.25000000  0.63804500  0.47492600  1
  O  O21  1  0.75000000  0.36195500  0.52507400  1
  O  O22  1  0.04750800  0.87707300  0.38183900  1
  O  O23  1  0.54750800  0.12292700  0.61816100  1
  O  O24  1  0.95249200  0.12292700  0.61816100  1
  O  O25  1  0.45249200  0.87707300  0.38183900  1
  O  O26  1  0.25000000  0.51122400  0.12062600  1
  O  O27  1  0.75000000  0.48877600  0.87937400  1
  O  O28  1  0.25000000  0.46005300  0.90862300  1
  O  O29  1  0.75000000  0.53994700  0.09137700  1
  O  O30  1  0.03586400  0.71429400  0.89474600  1
  O  O31  1  0.53586400  0.28570600  0.10525400  1
  O  O32  1  0.96413600  0.28570600  0.10525400  1
  O  O33  1  0.46413600  0.71429400  0.89474600  1
  O  O34  1  0.25000000  0.22066100  0.79817100  1
  O  O35  1  0.75000000  0.77933900  0.20182900  1
  O  O36  1  0.96294400  0.48889800  0.68479700  1
  O  O37  1  0.46294400  0.51110200  0.31520300  1
  O  O38  1  0.03705600  0.51110200  0.31520300  1
  O  O39  1  0.53705600  0.48889800  0.68479700  1
  O  O40  1  0.25000000  0.18311400  0.35518700  1
  O  O41  1  0.75000000  0.81688600  0.64481300  1
  O  O42  1  0.75000000  0.06436100  0.22918600  1
  O  O43  1  0.25000000  0.93563900  0.77081400  1
