# generated using pymatgen
data_Al2H15SClO13
_symmetry_space_group_name_H-M   'P 1'
_cell_length_a   7.56605316
_cell_length_b   9.74294996
_cell_length_c   10.19128469
_cell_angle_alpha   117.50328074
_cell_angle_beta   110.50781160
_cell_angle_gamma   92.50201629
_symmetry_Int_Tables_number   1
_chemical_formula_structural   Al2H15SClO13
_chemical_formula_sum   'Al4 H30 S2 Cl2 O26'
_cell_volume   604.73922794
_cell_formula_units_Z   2
loop_
 _symmetry_equiv_pos_site_id
 _symmetry_equiv_pos_as_xyz
  1  'x, y, z'
loop_
 _atom_site_type_symbol
 _atom_site_label
 _atom_site_symmetry_multiplicity
 _atom_site_fract_x
 _atom_site_fract_y
 _atom_site_fract_z
 _atom_site_occupancy
  Al  Al0  1  0.04614000  0.14756500  0.65637700  1
  Al  Al1  1  0.11023700  0.50881200  0.65637700  1
  Al  Al2  1  0.95386000  0.85243500  0.34362300  1
  Al  Al3  1  0.88976300  0.49118800  0.34362300  1
  H  H4  1  0.16732100  0.17432300  0.93973200  1
  H  H5  1  0.27241100  0.76540900  0.93973200  1
  H  H6  1  0.83267900  0.82567700  0.06026800  1
  H  H7  1  0.72758900  0.23459100  0.06026800  1
  H  H8  1  0.68383700  0.13567500  0.49540900  1
  H  H9  1  0.31157200  0.35973400  0.49540900  1
  H  H10  1  0.31616300  0.86432500  0.50459100  1
  H  H11  1  0.68842800  0.64026600  0.50459100  1
  H  H12  1  0.17894900  0.42894900  0.85789900  1
  H  H13  1  0.82105100  0.57105100  0.14210100  1
  H  H14  1  0.74228000  0.24090100  0.68622300  1
  H  H15  1  0.44394400  0.44532200  0.68622300  1
  H  H16  1  0.25772000  0.75909900  0.31377700  1
  H  H17  1  0.55605600  0.55467800  0.31377700  1
  H  H18  1  0.37519700  0.06178600  0.73777800  1
  H  H19  1  0.86258100  0.67599300  0.73777800  1
  H  H20  1  0.62480300  0.93821400  0.26222200  1
  H  H21  1  0.13741900  0.32400700  0.26222200  1
  H  H22  1  0.42789000  0.24453100  0.77973300  1
  H  H23  1  0.85184300  0.53520200  0.77973300  1
  H  H24  1  0.57211000  0.75546900  0.22026700  1
  H  H25  1  0.14815700  0.46479800  0.22026700  1
  H  H26  1  0.07475300  0.13060000  0.40390000  1
  H  H27  1  0.82914700  0.27330000  0.40390000  1
  H  H28  1  0.92524700  0.86940000  0.59610000  1
  H  H29  1  0.17085300  0.72670000  0.59610000  1
  H  H30  1  0.93346800  0.13251500  0.86580100  1
  H  H31  1  0.43233300  0.73328600  0.86580100  1
  H  H32  1  0.06653200  0.86748500  0.13419900  1
  H  H33  1  0.56766700  0.26671400  0.13419900  1
  S  S34  1  0.35211400  0.10211400  0.20422800  1
  S  S35  1  0.64788600  0.89788600  0.79577200  1
  Cl  Cl36  1  0.32806600  0.57806600  0.15613300  1
  Cl  Cl37  1  0.67193400  0.42193400  0.84386700  1
  O  O38  1  0.01182200  0.07757400  0.44235700  1
  O  O39  1  0.93053500  0.36478300  0.44235700  1
  O  O40  1  0.98817800  0.92242600  0.55764300  1
  O  O41  1  0.06946500  0.63521700  0.55764300  1
  O  O42  1  0.04995600  0.17633200  0.85781700  1
  O  O43  1  0.30786100  0.68148500  0.85781700  1
  O  O44  1  0.95004400  0.82366800  0.14218300  1
  O  O45  1  0.69213900  0.31851500  0.14218300  1
  O  O46  1  0.77223300  0.15157400  0.60263300  1
  O  O47  1  0.33040000  0.45105900  0.60263300  1
  O  O48  1  0.22776700  0.84842600  0.39736700  1
  O  O49  1  0.66960000  0.54894100  0.39736700  1
  O  O50  1  0.11917200  0.36917200  0.73834300  1
  O  O51  1  0.88082800  0.63082800  0.26165700  1
  O  O52  1  0.25384100  0.19737000  0.30911000  1
  O  O53  1  0.55527000  0.11174000  0.30911000  1
  O  O54  1  0.74615900  0.80263000  0.69089000  1
  O  O55  1  0.44473000  0.88826000  0.69089000  1
  O  O56  1  0.32266600  0.15697000  0.74928600  1
  O  O57  1  0.92662000  0.59231600  0.74928600  1
  O  O58  1  0.67733400  0.84303000  0.25071400  1
  O  O59  1  0.07338000  0.40768400  0.25071400  1
  O  O60  1  0.36250400  0.16828400  0.10082000  1
  O  O61  1  0.23831600  0.93253600  0.10082000  1
  O  O62  1  0.63749600  0.83171600  0.89918000  1
  O  O63  1  0.76168400  0.06746400  0.89918000  1
