# generated using pymatgen
data_NaPO4
_symmetry_space_group_name_H-M   'P 1'
_cell_length_a   13.59134200
_cell_length_b   6.53407200
_cell_length_c   9.60440719
_cell_angle_alpha   85.01278048
_cell_angle_beta   90.00000000
_cell_angle_gamma   90.00000000
_symmetry_Int_Tables_number   1
_chemical_formula_structural   NaPO4
_chemical_formula_sum   'Na8 P8 O32'
_cell_volume   849.70761645
_cell_formula_units_Z   8
loop_
 _symmetry_equiv_pos_site_id
 _symmetry_equiv_pos_as_xyz
  1  'x, y, z'
loop_
 _atom_site_type_symbol
 _atom_site_label
 _atom_site_symmetry_multiplicity
 _atom_site_fract_x
 _atom_site_fract_y
 _atom_site_fract_z
 _atom_site_occupancy
  Na  Na0  1  0.12847900  0.48144400  0.97985300  1
  Na  Na1  1  0.62847900  0.51855600  0.52014700  1
  Na  Na2  1  0.87152100  0.51855600  0.02014700  1
  Na  Na3  1  0.37152100  0.48144400  0.47985300  1
  Na  Na4  1  0.11163000  0.10284300  0.51159100  1
  Na  Na5  1  0.61163000  0.89715700  0.98840900  1
  Na  Na6  1  0.88837000  0.89715700  0.48840900  1
  Na  Na7  1  0.38837000  0.10284300  0.01159100  1
  P  P8  1  0.49637100  0.09991500  0.68666400  1
  P  P9  1  0.99637100  0.90008500  0.81333600  1
  P  P10  1  0.50362900  0.90008500  0.31333600  1
  P  P11  1  0.00362900  0.09991500  0.18666400  1
  P  P12  1  0.33507000  0.98675500  0.49897100  1
  P  P13  1  0.83507000  0.01324500  0.00102900  1
  P  P14  1  0.66493000  0.01324500  0.50102900  1
  P  P15  1  0.16493000  0.98675500  0.99897100  1
  O  O16  1  0.21335000  0.78324000  0.99099500  1
  O  O17  1  0.71335000  0.21676000  0.50900500  1
  O  O18  1  0.78665000  0.21676000  0.00900500  1
  O  O19  1  0.28665000  0.78324000  0.49099500  1
  O  O20  1  0.27350100  0.17901500  0.49560000  1
  O  O21  1  0.77350100  0.82098500  0.00440000  1
  O  O22  1  0.72649900  0.82098500  0.50440000  1
  O  O23  1  0.22649900  0.17901500  0.99560000  1
  O  O24  1  0.40207600  0.96927400  0.64048900  1
  O  O25  1  0.90207600  0.03072600  0.85951100  1
  O  O26  1  0.59792400  0.03072600  0.35951100  1
  O  O27  1  0.09792400  0.96927400  0.14048900  1
  O  O28  1  0.49561000  0.31396900  0.61626400  1
  O  O29  1  0.99561000  0.68603100  0.88373600  1
  O  O30  1  0.50439000  0.68603100  0.38373600  1
  O  O31  1  0.00439000  0.31396900  0.11626400  1
  O  O32  1  0.00144600  0.93366800  0.65692300  1
  O  O33  1  0.50144600  0.06633200  0.84307700  1
  O  O34  1  0.99855400  0.06633200  0.34307700  1
  O  O35  1  0.49855400  0.93366800  0.15692300  1
  O  O36  1  0.08534000  0.03549500  0.87284500  1
  O  O37  1  0.58534000  0.96450500  0.62715500  1
  O  O38  1  0.91466000  0.96450500  0.12715500  1
  O  O39  1  0.41466000  0.03549500  0.37284500  1
  O  O40  1  0.39159000  0.57353200  0.98363200  1
  O  O41  1  0.89159000  0.42646800  0.51636800  1
  O  O42  1  0.60841000  0.42646800  0.01636800  1
  O  O43  1  0.10841000  0.57353200  0.48363200  1
  O  O44  1  0.11179700  0.50243500  0.60669400  1
  O  O45  1  0.61179700  0.49756500  0.89330600  1
  O  O46  1  0.88820300  0.49756500  0.39330600  1
  O  O47  1  0.38820300  0.50243500  0.10669400  1
