# generated using pymatgen
data_MnN2F5
_symmetry_space_group_name_H-M   'P 1'
_cell_length_a   6.26760300
_cell_length_b   7.51447400
_cell_length_c   11.22141700
_cell_angle_alpha   90.00000000
_cell_angle_beta   90.00000000
_cell_angle_gamma   90.00000000
_symmetry_Int_Tables_number   1
_chemical_formula_structural   MnN2F5
_chemical_formula_sum   'Mn4 N8 F20'
_cell_volume   528.50337789
_cell_formula_units_Z   4
loop_
 _symmetry_equiv_pos_site_id
 _symmetry_equiv_pos_as_xyz
  1  'x, y, z'
loop_
 _atom_site_type_symbol
 _atom_site_label
 _atom_site_symmetry_multiplicity
 _atom_site_fract_x
 _atom_site_fract_y
 _atom_site_fract_z
 _atom_site_occupancy
  Mn  Mn0  1  0.50000000  0.00000000  0.50000000  1
  Mn  Mn1  1  0.00000000  0.50000000  0.00000000  1
  Mn  Mn2  1  0.50000000  0.50000000  0.50000000  1
  Mn  Mn3  1  0.00000000  0.00000000  0.00000000  1
  N  N4  1  0.94949600  0.25000000  0.27069100  1
  N  N5  1  0.44949600  0.25000000  0.22930900  1
  N  N6  1  0.05050400  0.75000000  0.72930900  1
  N  N7  1  0.55050400  0.75000000  0.77069100  1
  N  N8  1  0.90090100  0.75000000  0.36135700  1
  N  N9  1  0.40090100  0.75000000  0.13864300  1
  N  N10  1  0.09909900  0.25000000  0.63864300  1
  N  N11  1  0.59909900  0.25000000  0.86135700  1
  F  F12  1  0.56651500  0.25000000  0.48722700  1
  F  F13  1  0.06651500  0.25000000  0.01277300  1
  F  F14  1  0.43348500  0.75000000  0.51277300  1
  F  F15  1  0.93348500  0.75000000  0.98722700  1
  F  F16  1  0.76135600  0.02469500  0.08691900  1
  F  F17  1  0.26135600  0.47530500  0.41308100  1
  F  F18  1  0.23864400  0.52469500  0.91308100  1
  F  F19  1  0.73864400  0.97530500  0.58691900  1
  F  F20  1  0.23864400  0.97530500  0.91308100  1
  F  F21  1  0.73864400  0.52469500  0.58691900  1
  F  F22  1  0.76135600  0.47530500  0.08691900  1
  F  F23  1  0.26135600  0.02469500  0.41308100  1
  F  F24  1  0.76971900  0.60685600  0.33210700  1
  F  F25  1  0.26971900  0.89314400  0.16789300  1
  F  F26  1  0.23028100  0.10685600  0.66789300  1
  F  F27  1  0.73028100  0.39314400  0.83210700  1
  F  F28  1  0.23028100  0.39314400  0.66789300  1
  F  F29  1  0.73028100  0.10685600  0.83210700  1
  F  F30  1  0.76971900  0.89314400  0.33210700  1
  F  F31  1  0.26971900  0.60685600  0.16789300  1
