# generated using pymatgen
data_Co3B7IO13
_symmetry_space_group_name_H-M   'P 1'
_cell_length_a   8.68584500
_cell_length_b   8.65825900
_cell_length_c   12.28777100
_cell_angle_alpha   90.00000000
_cell_angle_beta   90.00000000
_cell_angle_gamma   90.00000000
_symmetry_Int_Tables_number   1
_chemical_formula_structural   Co3B7IO13
_chemical_formula_sum   'Co12 B28 I4 O52'
_cell_volume   924.09316309
_cell_formula_units_Z   4
loop_
 _symmetry_equiv_pos_site_id
 _symmetry_equiv_pos_as_xyz
  1  'x, y, z'
loop_
 _atom_site_type_symbol
 _atom_site_label
 _atom_site_symmetry_multiplicity
 _atom_site_fract_x
 _atom_site_fract_y
 _atom_site_fract_z
 _atom_site_occupancy
  Co  Co0  1  0.74420300  0.25238400  0.00207100  1
  Co  Co1  1  0.25579700  0.74761600  0.50207100  1
  Co  Co2  1  0.75579700  0.25238400  0.50207100  1
  Co  Co3  1  0.24420300  0.74761600  0.00207100  1
  Co  Co4  1  0.99475300  0.02030700  0.77304400  1
  Co  Co5  1  0.00524700  0.97969300  0.27304400  1
  Co  Co6  1  0.50524700  0.02030700  0.27304400  1
  Co  Co7  1  0.49475300  0.97969300  0.77304400  1
  Co  Co8  1  0.99375900  0.47904500  0.77132700  1
  Co  Co9  1  0.00624100  0.52095500  0.27132700  1
  Co  Co10  1  0.50624100  0.47904500  0.27132700  1
  Co  Co11  1  0.49375900  0.52095500  0.77132700  1
  B  B12  1  0.00139300  0.00121100  0.02017200  1
  B  B13  1  0.99860700  0.99878900  0.52017200  1
  B  B14  1  0.49860700  0.00121100  0.52017200  1
  B  B15  1  0.50139300  0.99878900  0.02017200  1
  B  B16  1  0.75620400  0.75372800  0.76829500  1
  B  B17  1  0.24379600  0.24627200  0.26829500  1
  B  B18  1  0.74379600  0.75372800  0.26829500  1
  B  B19  1  0.25620400  0.24627200  0.76829500  1
  B  B20  1  0.00216100  0.49675500  0.01999300  1
  B  B21  1  0.99783900  0.50324500  0.51999300  1
  B  B22  1  0.49783900  0.49675500  0.51999300  1
  B  B23  1  0.50216100  0.50324500  0.01999300  1
  B  B24  1  0.75694200  0.59766700  0.94057900  1
  B  B25  1  0.24305800  0.40233300  0.44057900  1
  B  B26  1  0.74305800  0.59766700  0.44057900  1
  B  B27  1  0.25694200  0.40233300  0.94057900  1
  B  B28  1  0.75614700  0.90453600  0.94087300  1
  B  B29  1  0.24385300  0.09546400  0.44087300  1
  B  B30  1  0.74385300  0.90453600  0.44087300  1
  B  B31  1  0.25614700  0.09546400  0.94087300  1
  B  B32  1  0.90754500  0.74943400  0.09395200  1
  B  B33  1  0.09245500  0.25056600  0.59395200  1
  B  B34  1  0.59245500  0.74943400  0.59395200  1
  B  B35  1  0.40754500  0.25056600  0.09395200  1
  B  B36  1  0.05157000  0.24795900  0.11866100  1
  B  B37  1  0.94843000  0.75204100  0.61866100  1
  B  B38  1  0.44843000  0.24795900  0.61866100  1
  B  B39  1  0.55157000  0.75204100  0.11866100  1
  I  I40  1  0.76073000  0.24760000  0.77452000  1
  I  I41  1  0.23927000  0.75240000  0.27452000  1
  I  I42  1  0.73927000  0.24760000  0.27452000  1
  I  I43  1  0.26073000  0.75240000  0.77452000  1
  O  O44  1  0.77104200  0.74993700  0.00968000  1
  O  O45  1  0.22895800  0.25006300  0.50968000  1
  O  O46  1  0.72895800  0.74993700  0.50968000  1
  O  O47  1  0.27104200  0.25006300  0.00968000  1
  O  O48  1  0.83657000  0.02541000  0.99955200  1
  O  O49  1  0.16343000  0.97459000  0.49955200  1
  O  O50  1  0.66343000  0.02541000  0.49955200  1
  O  O51  1  0.33657000  0.97459000  0.99955200  1
  O  O52  1  0.91483100  0.54164000  0.92239300  1
  O  O53  1  0.08516900  0.45836000  0.42239300  1
  O  O54  1  0.58516900  0.54164000  0.42239300  1
  O  O55  1  0.41483100  0.45836000  0.92239300  1
  O  O56  1  0.82888300  0.87332200  0.83570600  1
  O  O57  1  0.17111700  0.12667800  0.33570600  1
  O  O58  1  0.67111700  0.87332200  0.33570600  1
  O  O59  1  0.32888300  0.12667800  0.83570600  1
  O  O60  1  0.66789900  0.48225200  0.00088200  1
  O  O61  1  0.33210100  0.51774800  0.50088200  1
  O  O62  1  0.83210100  0.48225200  0.50088200  1
  O  O63  1  0.16789900  0.51774800  0.00088200  1
  O  O64  1  0.59322200  0.94451300  0.92645100  1
  O  O65  1  0.40677800  0.05548700  0.42645100  1
  O  O66  1  0.90677800  0.94451300  0.42645100  1
  O  O67  1  0.09322200  0.05548700  0.92645100  1
  O  O68  1  0.68123800  0.63673300  0.83790700  1
  O  O69  1  0.31876200  0.36326700  0.33790700  1
  O  O70  1  0.81876200  0.63673300  0.33790700  1
  O  O71  1  0.18123800  0.36326700  0.83790700  1
  O  O72  1  0.87975700  0.67334700  0.70362800  1
  O  O73  1  0.12024300  0.32665300  0.20362800  1
  O  O74  1  0.62024300  0.67334700  0.20362800  1
  O  O75  1  0.37975700  0.32665300  0.70362800  1
  O  O76  1  0.04259500  0.08884500  0.12176600  1
  O  O77  1  0.95740500  0.91115500  0.62176600  1
  O  O78  1  0.45740500  0.08884500  0.62176600  1
  O  O79  1  0.54259500  0.91115500  0.12176600  1
  O  O80  1  0.03387300  0.83655000  0.04224500  1
  O  O81  1  0.96612700  0.16345000  0.54224500  1
  O  O82  1  0.46612700  0.83655000  0.54224500  1
  O  O83  1  0.53387300  0.16345000  0.04224500  1
  O  O84  1  0.85938900  0.82403300  0.19558200  1
  O  O85  1  0.14061100  0.17596700  0.69558200  1
  O  O86  1  0.64061100  0.82403300  0.69558200  1
  O  O87  1  0.35938900  0.17596700  0.19558200  1
  O  O88  1  0.95188500  0.58959700  0.11410400  1
  O  O89  1  0.04811500  0.41040300  0.61410400  1
  O  O90  1  0.54811500  0.58959700  0.61410400  1
  O  O91  1  0.45188500  0.41040300  0.11410400  1
  O  O92  1  0.96499100  0.32966800  0.04311700  1
  O  O93  1  0.03500900  0.67033200  0.54311700  1
  O  O94  1  0.53500900  0.32966800  0.54311700  1
  O  O95  1  0.46499100  0.67033200  0.04311700  1
