# generated using pymatgen
data_Na5Fe3F14
_symmetry_space_group_name_H-M   'P 1'
_cell_length_a   7.72380000
_cell_length_b   7.72380000
_cell_length_c   10.28810700
_cell_angle_alpha   90.00000000
_cell_angle_beta   90.00000000
_cell_angle_gamma   90.00000000
_symmetry_Int_Tables_number   1
_chemical_formula_structural   Na5Fe3F14
_chemical_formula_sum   'Na10 Fe6 F28'
_cell_volume   613.75848860
_cell_formula_units_Z   2
loop_
 _symmetry_equiv_pos_site_id
 _symmetry_equiv_pos_as_xyz
  1  'x, y, z'
loop_
 _atom_site_type_symbol
 _atom_site_label
 _atom_site_symmetry_multiplicity
 _atom_site_fract_x
 _atom_site_fract_y
 _atom_site_fract_z
 _atom_site_occupancy
  Na  Na0  1  0.77314200  0.76307800  0.76040900  1
  Na  Na1  1  0.22685800  0.23692200  0.76040900  1
  Na  Na2  1  0.27314200  0.73692200  0.73959100  1
  Na  Na3  1  0.72685800  0.26307800  0.73959100  1
  Na  Na4  1  0.76307800  0.77314200  0.23959100  1
  Na  Na5  1  0.23692200  0.22685800  0.23959100  1
  Na  Na6  1  0.73692200  0.27314200  0.26040900  1
  Na  Na7  1  0.26307800  0.72685800  0.26040900  1
  Na  Na8  1  0.50000000  0.50000000  0.00000000  1
  Na  Na9  1  0.00000000  0.00000000  0.50000000  1
  Fe  Fe10  1  0.00000000  0.50000000  0.99746800  1
  Fe  Fe11  1  0.50000000  0.00000000  0.50253200  1
  Fe  Fe12  1  0.50000000  0.00000000  0.00253200  1
  Fe  Fe13  1  0.00000000  0.50000000  0.49746800  1
  Fe  Fe14  1  0.50000000  0.50000000  0.50000000  1
  Fe  Fe15  1  0.00000000  0.00000000  0.00000000  1
  F  F16  1  0.19068400  0.50196700  0.87056500  1
  F  F17  1  0.80931600  0.49803300  0.87056500  1
  F  F18  1  0.69068400  0.99803300  0.62943500  1
  F  F19  1  0.30931600  0.00196700  0.62943500  1
  F  F20  1  0.50196700  0.19068400  0.12943500  1
  F  F21  1  0.49803300  0.80931600  0.12943500  1
  F  F22  1  0.99803300  0.69068400  0.37056500  1
  F  F23  1  0.00196700  0.30931600  0.37056500  1
  F  F24  1  0.50500400  0.81586800  0.87209300  1
  F  F25  1  0.49499600  0.18413200  0.87209300  1
  F  F26  1  0.00500400  0.68413200  0.62790700  1
  F  F27  1  0.99499600  0.31586800  0.62790700  1
  F  F28  1  0.81586800  0.50500400  0.12790700  1
  F  F29  1  0.18413200  0.49499600  0.12790700  1
  F  F30  1  0.68413200  0.00500400  0.37209300  1
  F  F31  1  0.31586800  0.99499600  0.37209300  1
  F  F32  1  0.99725000  0.75069400  0.99040500  1
  F  F33  1  0.00275000  0.24930600  0.99040500  1
  F  F34  1  0.49725000  0.74930600  0.50959500  1
  F  F35  1  0.50275000  0.25069400  0.50959500  1
  F  F36  1  0.75069400  0.99725000  0.00959500  1
  F  F37  1  0.24930600  0.00275000  0.00959500  1
  F  F38  1  0.74930600  0.49725000  0.49040500  1
  F  F39  1  0.25069400  0.50275000  0.49040500  1
  F  F40  1  0.50000000  0.50000000  0.68663600  1
  F  F41  1  0.00000000  0.00000000  0.81336400  1
  F  F42  1  0.50000000  0.50000000  0.31336400  1
  F  F43  1  0.00000000  0.00000000  0.18663600  1
