# generated using pymatgen
data_NaCaPH18SO12
_symmetry_space_group_name_H-M   'P 1'
_cell_length_a   10.85222400
_cell_length_b   10.85222400
_cell_length_c   10.85222400
_cell_angle_alpha   90.00000000
_cell_angle_beta   90.00000000
_cell_angle_gamma   90.00000000
_symmetry_Int_Tables_number   1
_chemical_formula_structural   NaCaPH18SO12
_chemical_formula_sum   'Na4 Ca4 P4 H72 S4 O48'
_cell_volume   1278.07473053
_cell_formula_units_Z   4
loop_
 _symmetry_equiv_pos_site_id
 _symmetry_equiv_pos_as_xyz
  1  'x, y, z'
loop_
 _atom_site_type_symbol
 _atom_site_label
 _atom_site_symmetry_multiplicity
 _atom_site_fract_x
 _atom_site_fract_y
 _atom_site_fract_z
 _atom_site_occupancy
  Na  Na0  1  0.68223700  0.18223700  0.31776300  1
  Na  Na1  1  0.18223700  0.31776300  0.68223700  1
  Na  Na2  1  0.31776300  0.68223700  0.18223700  1
  Na  Na3  1  0.81776300  0.81776300  0.81776300  1
  Ca  Ca4  1  0.43828600  0.43828600  0.43828600  1
  Ca  Ca5  1  0.56171300  0.93828700  0.06171400  1
  Ca  Ca6  1  0.93828700  0.06171400  0.56171300  1
  Ca  Ca7  1  0.06171400  0.56171300  0.93828700  1
  P  P8  1  0.44115600  0.94115600  0.55884400  1
  P  P9  1  0.94115600  0.55884400  0.44115600  1
  P  P10  1  0.55884400  0.44115600  0.94115600  1
  P  P11  1  0.05884400  0.05884400  0.05884400  1
  H  H12  1  0.42510000  0.42900900  0.15706800  1
  H  H13  1  0.84293200  0.92510000  0.07099100  1
  H  H14  1  0.92900900  0.34293200  0.57490000  1
  H  H15  1  0.92510000  0.07099100  0.84293200  1
  H  H16  1  0.34293200  0.57490000  0.92900900  1
  H  H17  1  0.42900900  0.15706800  0.42510000  1
  H  H18  1  0.57490000  0.92900900  0.34293200  1
  H  H19  1  0.15706800  0.42510000  0.42900900  1
  H  H20  1  0.07099100  0.84293200  0.92510000  1
  H  H21  1  0.07490000  0.57099100  0.65706800  1
  H  H22  1  0.65706800  0.07490000  0.57099100  1
  H  H23  1  0.57099100  0.65706800  0.07490000  1
  H  H24  1  0.28508000  0.44001500  0.19862600  1
  H  H25  1  0.80137400  0.78508000  0.05998500  1
  H  H26  1  0.94001500  0.30137400  0.71492000  1
  H  H27  1  0.78508000  0.05998500  0.80137400  1
  H  H28  1  0.30137400  0.71492000  0.94001500  1
  H  H29  1  0.44001500  0.19862600  0.28508000  1
  H  H30  1  0.71492000  0.94001500  0.30137400  1
  H  H31  1  0.19862600  0.28508000  0.44001500  1
  H  H32  1  0.05998500  0.80137400  0.78508000  1
  H  H33  1  0.21492000  0.55998500  0.69862600  1
  H  H34  1  0.69862600  0.21492000  0.55998500  1
  H  H35  1  0.55998500  0.69862600  0.21492000  1
  H  H36  1  0.61513900  0.39728800  0.19321300  1
  H  H37  1  0.80678700  0.11513900  0.10271200  1
  H  H38  1  0.89728800  0.30678700  0.38486100  1
  H  H39  1  0.11513900  0.10271200  0.80678700  1
  H  H40  1  0.30678700  0.38486100  0.89728800  1
  H  H41  1  0.39728800  0.19321300  0.61513900  1
  H  H42  1  0.38486100  0.89728800  0.30678700  1
  H  H43  1  0.19321300  0.61513900  0.39728800  1
  H  H44  1  0.10271200  0.80678700  0.11513900  1
  H  H45  1  0.88486100  0.60271200  0.69321300  1
  H  H46  1  0.69321300  0.88486100  0.60271200  1
  H  H47  1  0.60271200  0.69321300  0.88486100  1
  H  H48  1  0.70758600  0.45969900  0.28831000  1
  H  H49  1  0.71169000  0.20758600  0.04030100  1
  H  H50  1  0.95969900  0.21169000  0.29241400  1
  H  H51  1  0.20758600  0.04030100  0.71169000  1
  H  H52  1  0.21169000  0.29241400  0.95969900  1
  H  H53  1  0.45969900  0.28831000  0.70758600  1
  H  H54  1  0.29241400  0.95969900  0.21169000  1
  H  H55  1  0.28831000  0.70758600  0.45969900  1
  H  H56  1  0.04030100  0.71169000  0.20758600  1
  H  H57  1  0.79241400  0.54030100  0.78831000  1
  H  H58  1  0.78831000  0.79241400  0.54030100  1
  H  H59  1  0.54030100  0.78831000  0.79241400  1
  H  H60  1  0.51600400  0.71921400  0.42186400  1
  H  H61  1  0.57813600  0.01600400  0.78078600  1
  H  H62  1  0.21921400  0.07813600  0.48399600  1
  H  H63  1  0.01600400  0.78078600  0.57813600  1
  H  H64  1  0.07813600  0.48399600  0.21921400  1
  H  H65  1  0.71921400  0.42186400  0.51600400  1
  H  H66  1  0.48399600  0.21921400  0.07813600  1
  H  H67  1  0.42186400  0.51600400  0.71921400  1
  H  H68  1  0.78078600  0.57813600  0.01600400  1
  H  H69  1  0.98399600  0.28078600  0.92186400  1
  H  H70  1  0.92186400  0.98399600  0.28078600  1
  H  H71  1  0.28078600  0.92186400  0.98399600  1
  H  H72  1  0.63497300  0.63913400  0.39348600  1
  H  H73  1  0.60651400  0.13497300  0.86086600  1
  H  H74  1  0.13913400  0.10651400  0.36502700  1
  H  H75  1  0.13497300  0.86086600  0.60651400  1
  H  H76  1  0.10651400  0.36502700  0.13913400  1
  H  H77  1  0.63913400  0.39348600  0.63497300  1
  H  H78  1  0.36502700  0.13913400  0.10651400  1
  H  H79  1  0.39348600  0.63497300  0.63913400  1
  H  H80  1  0.86086600  0.60651400  0.13497300  1
  H  H81  1  0.86502700  0.36086600  0.89348600  1
  H  H82  1  0.89348600  0.86502700  0.36086600  1
  H  H83  1  0.36086600  0.89348600  0.86502700  1
  S  S84  1  0.33138600  0.83138600  0.66861400  1
  S  S85  1  0.83138600  0.66861400  0.33138600  1
  S  S86  1  0.66861400  0.33138600  0.83138600  1
  S  S87  1  0.16861400  0.16861400  0.16861400  1
  O  O88  1  0.56199400  0.97029900  0.62978000  1
  O  O89  1  0.37022000  0.06199400  0.52970100  1
  O  O90  1  0.47029900  0.87022000  0.43800600  1
  O  O91  1  0.06199400  0.52970100  0.37022000  1
  O  O92  1  0.87022000  0.43800600  0.47029900  1
  O  O93  1  0.97029900  0.62978000  0.56199400  1
  O  O94  1  0.43800600  0.47029900  0.87022000  1
  O  O95  1  0.62978000  0.56199400  0.97029900  1
  O  O96  1  0.52970100  0.37022000  0.06199400  1
  O  O97  1  0.93800600  0.02970100  0.12978000  1
  O  O98  1  0.12978000  0.93800600  0.02970100  1
  O  O99  1  0.02970100  0.12978000  0.93800600  1
  O  O100  1  0.36924100  0.46207900  0.22299900  1
  O  O101  1  0.77700100  0.86924100  0.03792100  1
  O  O102  1  0.96207900  0.27700100  0.63075900  1
  O  O103  1  0.86924100  0.03792100  0.77700100  1
  O  O104  1  0.27700100  0.63075900  0.96207900  1
  O  O105  1  0.46207900  0.22299900  0.36924100  1
  O  O106  1  0.63075900  0.96207900  0.27700100  1
  O  O107  1  0.22299900  0.36924100  0.46207900  1
  O  O108  1  0.03792100  0.77700100  0.86924100  1
  O  O109  1  0.13075900  0.53792100  0.72299900  1
  O  O110  1  0.72299900  0.13075900  0.53792100  1
  O  O111  1  0.53792100  0.72299900  0.13075900  1
  O  O112  1  0.64224800  0.39799800  0.28123100  1
  O  O113  1  0.71876900  0.14224800  0.10200200  1
  O  O114  1  0.89799800  0.21876900  0.35775200  1
  O  O115  1  0.14224800  0.10200200  0.71876900  1
  O  O116  1  0.21876900  0.35775200  0.89799800  1
  O  O117  1  0.39799800  0.28123100  0.64224800  1
  O  O118  1  0.35775200  0.89799800  0.21876900  1
  O  O119  1  0.28123100  0.64224800  0.39799800  1
  O  O120  1  0.10200200  0.71876900  0.14224800  1
  O  O121  1  0.85775200  0.60200200  0.78123100  1
  O  O122  1  0.78123100  0.85775200  0.60200200  1
  O  O123  1  0.60200200  0.78123100  0.85775200  1
  O  O124  1  0.54388100  0.63688600  0.39138900  1
  O  O125  1  0.60861100  0.04388100  0.86311400  1
  O  O126  1  0.13688600  0.10861100  0.45611900  1
  O  O127  1  0.04388100  0.86311400  0.60861100  1
  O  O128  1  0.10861100  0.45611900  0.13688600  1
  O  O129  1  0.63688600  0.39138900  0.54388100  1
  O  O130  1  0.45611900  0.13688600  0.10861100  1
  O  O131  1  0.39138900  0.54388100  0.63688600  1
  O  O132  1  0.86311400  0.60861100  0.04388100  1
  O  O133  1  0.95611900  0.36311400  0.89138900  1
  O  O134  1  0.89138900  0.95611900  0.36311400  1
  O  O135  1  0.36311400  0.89138900  0.95611900  1
