# generated using pymatgen
data_Cu4BiSe4I
_symmetry_space_group_name_H-M   'P 1'
_cell_length_a   4.14186300
_cell_length_b   9.75664000
_cell_length_c   23.18401400
_cell_angle_alpha   90.00000000
_cell_angle_beta   90.00000000
_cell_angle_gamma   90.00000000
_symmetry_Int_Tables_number   1
_chemical_formula_structural   Cu4BiSe4I
_chemical_formula_sum   'Cu16 Bi4 Se16 I4'
_cell_volume   936.88145140
_cell_formula_units_Z   4
loop_
 _symmetry_equiv_pos_site_id
 _symmetry_equiv_pos_as_xyz
  1  'x, y, z'
loop_
 _atom_site_type_symbol
 _atom_site_label
 _atom_site_symmetry_multiplicity
 _atom_site_fract_x
 _atom_site_fract_y
 _atom_site_fract_z
 _atom_site_occupancy
  Cu  Cu0  1  0.75000000  0.35312100  0.90722500  1
  Cu  Cu1  1  0.75000000  0.85312100  0.59277500  1
  Cu  Cu2  1  0.25000000  0.64687900  0.09277500  1
  Cu  Cu3  1  0.25000000  0.14687900  0.40722500  1
  Cu  Cu4  1  0.75000000  0.46156600  0.46938900  1
  Cu  Cu5  1  0.75000000  0.96156600  0.03061100  1
  Cu  Cu6  1  0.25000000  0.53843400  0.53061100  1
  Cu  Cu7  1  0.25000000  0.03843400  0.96938900  1
  Cu  Cu8  1  0.75000000  0.35784700  0.29513900  1
  Cu  Cu9  1  0.75000000  0.85784700  0.20486100  1
  Cu  Cu10  1  0.25000000  0.64215300  0.70486100  1
  Cu  Cu11  1  0.25000000  0.14215300  0.79513900  1
  Cu  Cu12  1  0.75000000  0.47452000  0.73830600  1
  Cu  Cu13  1  0.75000000  0.97452000  0.76169400  1
  Cu  Cu14  1  0.25000000  0.52548000  0.26169400  1
  Cu  Cu15  1  0.25000000  0.02548000  0.23830600  1
  Bi  Bi16  1  0.75000000  0.28264400  0.12418000  1
  Bi  Bi17  1  0.75000000  0.78264400  0.37582000  1
  Bi  Bi18  1  0.25000000  0.71735600  0.87582000  1
  Bi  Bi19  1  0.25000000  0.21735600  0.62418000  1
  Se  Se20  1  0.75000000  0.03724300  0.65889500  1
  Se  Se21  1  0.75000000  0.53724300  0.84110500  1
  Se  Se22  1  0.25000000  0.96275700  0.34110500  1
  Se  Se23  1  0.25000000  0.46275700  0.15889500  1
  Se  Se24  1  0.75000000  0.16211400  0.23035800  1
  Se  Se25  1  0.75000000  0.66211400  0.26964200  1
  Se  Se26  1  0.25000000  0.83788600  0.76964200  1
  Se  Se27  1  0.25000000  0.33788600  0.73035800  1
  Se  Se28  1  0.75000000  0.45816700  0.57851500  1
  Se  Se29  1  0.75000000  0.95816700  0.92148500  1
  Se  Se30  1  0.25000000  0.54183300  0.42148500  1
  Se  Se31  1  0.25000000  0.04183300  0.07851500  1
  Se  Se32  1  0.75000000  0.14332400  0.84553500  1
  Se  Se33  1  0.75000000  0.64332400  0.65446500  1
  Se  Se34  1  0.25000000  0.85667600  0.15446500  1
  Se  Se35  1  0.25000000  0.35667600  0.34553500  1
  I  I36  1  0.75000000  0.18419200  0.47699300  1
  I  I37  1  0.75000000  0.68419200  0.02300700  1
  I  I38  1  0.25000000  0.81580800  0.52300700  1
  I  I39  1  0.25000000  0.31580800  0.97699300  1
