# generated using pymatgen
data_Ca3Si3(HO5)2
_symmetry_space_group_name_H-M   'P 1'
_cell_length_a   6.89751174
_cell_length_b   7.05279595
_cell_length_c   9.56524338
_cell_angle_alpha   95.82736068
_cell_angle_beta   108.49330512
_cell_angle_gamma   95.54420584
_symmetry_Int_Tables_number   1
_chemical_formula_structural   Ca3Si3(HO5)2
_chemical_formula_sum   'Ca6 Si6 H4 O20'
_cell_volume   434.89738492
_cell_formula_units_Z   2
loop_
 _symmetry_equiv_pos_site_id
 _symmetry_equiv_pos_as_xyz
  1  'x, y, z'
loop_
 _atom_site_type_symbol
 _atom_site_label
 _atom_site_symmetry_multiplicity
 _atom_site_fract_x
 _atom_site_fract_y
 _atom_site_fract_z
 _atom_site_occupancy
  Ca  Ca0  1  0.82260100  0.71953000  0.65595700  1
  Ca  Ca1  1  0.17739900  0.28047000  0.34404300  1
  Ca  Ca2  1  0.75381900  0.90473400  0.31907300  1
  Ca  Ca3  1  0.24618100  0.09526600  0.68092700  1
  Ca  Ca4  1  0.73125700  0.15575300  0.99091800  1
  Ca  Ca5  1  0.26874300  0.84424700  0.00908200  1
  Si  Si6  1  0.72344400  0.69922900  0.94985400  1
  Si  Si7  1  0.27655600  0.30077100  0.05014600  1
  Si  Si8  1  0.67232500  0.37334700  0.33995000  1
  Si  Si9  1  0.32767500  0.62665300  0.66005000  1
  Si  Si10  1  0.73339200  0.19665200  0.62601100  1
  Si  Si11  1  0.26660800  0.80334800  0.37398900  1
  H  H12  1  0.09535300  0.46818700  0.88154500  1
  H  H13  1  0.90464700  0.53181300  0.11845500  1
  H  H14  1  0.02626600  0.39874900  0.65488600  1
  H  H15  1  0.97373400  0.60125100  0.34511400  1
  O  O16  1  0.91481200  0.80563900  0.91164100  1
  O  O17  1  0.08518800  0.19436100  0.08835900  1
  O  O18  1  0.77855400  0.50139700  0.02824900  1
  O  O19  1  0.22144600  0.49860300  0.97175100  1
  O  O20  1  0.63571800  0.84540900  0.05059600  1
  O  O21  1  0.36428200  0.15459100  0.94940400  1
  O  O22  1  0.55362900  0.61343900  0.78371800  1
  O  O23  1  0.44637100  0.38656100  0.21628200  1
  O  O24  1  0.80459700  0.23051200  0.27534500  1
  O  O25  1  0.19540300  0.76948800  0.72465500  1
  O  O26  1  0.79308200  0.59129100  0.40571700  1
  O  O27  1  0.20691800  0.40870900  0.59428300  1
  O  O28  1  0.59179800  0.27695400  0.47018700  1
  O  O29  1  0.40820200  0.72304600  0.52981300  1
  O  O30  1  0.91502800  0.39085900  0.70725200  1
  O  O31  1  0.08497200  0.60914100  0.29274800  1
  O  O32  1  0.60049200  0.14557700  0.73091800  1
  O  O33  1  0.39950800  0.85442300  0.26908200  1
  O  O34  1  0.85164500  0.02266600  0.58123600  1
  O  O35  1  0.14835500  0.97733400  0.41876400  1
