# generated using pymatgen
data_Cu4H6SO10
_symmetry_space_group_name_H-M   'P 1'
_cell_length_a   6.08870848
_cell_length_b   10.06153100
_cell_length_c   13.19531709
_cell_angle_alpha   90.00000000
_cell_angle_beta   101.41686227
_cell_angle_gamma   90.00000000
_symmetry_Int_Tables_number   1
_chemical_formula_structural   Cu4H6SO10
_chemical_formula_sum   'Cu16 H24 S4 O40'
_cell_volume   792.37273322
_cell_formula_units_Z   4
loop_
 _symmetry_equiv_pos_site_id
 _symmetry_equiv_pos_as_xyz
  1  'x, y, z'
loop_
 _atom_site_type_symbol
 _atom_site_label
 _atom_site_symmetry_multiplicity
 _atom_site_fract_x
 _atom_site_fract_y
 _atom_site_fract_z
 _atom_site_occupancy
  Cu  Cu0  1  0.72565800  0.00554900  0.20638800  1
  Cu  Cu1  1  0.77434200  0.50554900  0.29361200  1
  Cu  Cu2  1  0.27434200  0.99445100  0.79361200  1
  Cu  Cu3  1  0.22565800  0.49445100  0.70638800  1
  Cu  Cu4  1  0.22184300  0.01095600  0.19838100  1
  Cu  Cu5  1  0.27815700  0.51095600  0.30161900  1
  Cu  Cu6  1  0.77815700  0.98904400  0.80161900  1
  Cu  Cu7  1  0.72184300  0.48904400  0.69838100  1
  Cu  Cu8  1  0.55321900  0.23645100  0.37631900  1
  Cu  Cu9  1  0.94678100  0.73645100  0.12368100  1
  Cu  Cu10  1  0.44678100  0.76354900  0.62368100  1
  Cu  Cu11  1  0.05321900  0.26354900  0.87631900  1
  Cu  Cu12  1  0.05806600  0.23815900  0.37970700  1
  Cu  Cu13  1  0.44193400  0.73815900  0.12029300  1
  Cu  Cu14  1  0.94193400  0.76184100  0.62029300  1
  Cu  Cu15  1  0.55806600  0.26184100  0.87970700  1
  H  H16  1  0.84349600  0.38821300  0.47723900  1
  H  H17  1  0.65650400  0.88821300  0.02276100  1
  H  H18  1  0.15650400  0.61178700  0.52276100  1
  H  H19  1  0.34349600  0.11178700  0.97723900  1
  H  H20  1  0.36468800  0.37397800  0.49374700  1
  H  H21  1  0.13531200  0.87397800  0.00625300  1
  H  H22  1  0.63531200  0.62602200  0.50625300  1
  H  H23  1  0.86468800  0.12602200  0.99374700  1
  H  H24  1  0.81686200  0.04648000  0.39183000  1
  H  H25  1  0.68313800  0.54648000  0.10817000  1
  H  H26  1  0.18313800  0.95352000  0.60817000  1
  H  H27  1  0.31686200  0.45352000  0.89183000  1
  H  H28  1  0.30310900  0.04188300  0.39204900  1
  H  H29  1  0.19689100  0.54188300  0.10795100  1
  H  H30  1  0.69689100  0.95811700  0.60795100  1
  H  H31  1  0.80310900  0.45811700  0.89204900  1
  H  H32  1  0.49889900  0.90073000  0.32758200  1
  H  H33  1  0.00110100  0.40073000  0.17241800  1
  H  H34  1  0.50110100  0.09927000  0.67241800  1
  H  H35  1  0.99889900  0.59927000  0.82758200  1
  H  H36  1  0.94285800  0.18891400  0.15863000  1
  H  H37  1  0.55714200  0.68891400  0.34137000  1
  H  H38  1  0.05714200  0.81108600  0.84137000  1
  H  H39  1  0.44285800  0.31108600  0.65863000  1
  S  S40  1  0.42488100  0.30419300  0.11175800  1
  S  S41  1  0.07511900  0.80419300  0.38824200  1
  S  S42  1  0.57511900  0.69580700  0.88824200  1
  S  S43  1  0.92488100  0.19580700  0.61175800  1
  O  O44  1  0.81487400  0.36319500  0.40334800  1
  O  O45  1  0.68512600  0.86319500  0.09665200  1
  O  O46  1  0.18512600  0.63680500  0.59665200  1
  O  O47  1  0.31487400  0.13680500  0.90334800  1
  O  O48  1  0.32603400  0.35771000  0.41804800  1
  O  O49  1  0.17396600  0.85771000  0.08195200  1
  O  O50  1  0.67396600  0.64229000  0.58195200  1
  O  O51  1  0.82603400  0.14229000  0.91804800  1
  O  O52  1  0.78875500  0.11552300  0.33811800  1
  O  O53  1  0.71124500  0.61552300  0.16188200  1
  O  O54  1  0.21124500  0.88447700  0.66188200  1
  O  O55  1  0.28875500  0.38447700  0.83811800  1
  O  O56  1  0.28549000  0.11568300  0.34177200  1
  O  O57  1  0.21451000  0.61568300  0.15822800  1
  O  O58  1  0.71451000  0.88431700  0.65822800  1
  O  O59  1  0.78549000  0.38431700  0.84177200  1
  O  O60  1  0.48768400  0.90794800  0.25285700  1
  O  O61  1  0.01231600  0.40794800  0.24714300  1
  O  O62  1  0.51231600  0.09205200  0.74714300  1
  O  O63  1  0.98768400  0.59205200  0.75285700  1
  O  O64  1  0.94087000  0.09567300  0.13854400  1
  O  O65  1  0.55913000  0.59567300  0.36145600  1
  O  O66  1  0.05913000  0.90432700  0.86145600  1
  O  O67  1  0.44087000  0.40432700  0.63854400  1
  O  O68  1  0.47951200  0.35082400  0.22114000  1
  O  O69  1  0.02048800  0.85082400  0.27886000  1
  O  O70  1  0.52048800  0.64917600  0.77886000  1
  O  O71  1  0.97951200  0.14917600  0.72114000  1
  O  O72  1  0.41757100  0.15447500  0.11168800  1
  O  O73  1  0.08242900  0.65447500  0.38831200  1
  O  O74  1  0.58242900  0.84552500  0.88831200  1
  O  O75  1  0.91757100  0.34552500  0.61168800  1
  O  O76  1  0.20136200  0.35835100  0.06144700  1
  O  O77  1  0.29863800  0.85835100  0.43855300  1
  O  O78  1  0.79863800  0.64164900  0.93855300  1
  O  O79  1  0.70136200  0.14164900  0.56144700  1
  O  O80  1  0.60188600  0.34955800  0.05661900  1
  O  O81  1  0.89811400  0.84955800  0.44338100  1
  O  O82  1  0.39811400  0.65044200  0.94338100  1
  O  O83  1  0.10188600  0.15044200  0.55661900  1
