# generated using pymatgen
data_FeB2P2(HO4)3
_symmetry_space_group_name_H-M   'P 1'
_cell_length_a   9.08433245
_cell_length_b   9.08433245
_cell_length_c   6.88850181
_cell_angle_alpha   79.76564738
_cell_angle_beta   79.76564738
_cell_angle_gamma   42.62957153
_symmetry_Int_Tables_number   1
_chemical_formula_structural   FeB2P2(HO4)3
_chemical_formula_sum   'Fe2 B4 P4 H6 O24'
_cell_volume   377.93553142
_cell_formula_units_Z   2
loop_
 _symmetry_equiv_pos_site_id
 _symmetry_equiv_pos_as_xyz
  1  'x, y, z'
loop_
 _atom_site_type_symbol
 _atom_site_label
 _atom_site_symmetry_multiplicity
 _atom_site_fract_x
 _atom_site_fract_y
 _atom_site_fract_z
 _atom_site_occupancy
  Fe  Fe0  1  0.00000000  0.50000000  0.50000000  1
  Fe  Fe1  1  0.50000000  0.00000000  0.00000000  1
  B  B2  1  0.16555700  0.65089400  0.15523000  1
  B  B3  1  0.34910600  0.83444300  0.34477000  1
  B  B4  1  0.83444300  0.34910600  0.84477000  1
  B  B5  1  0.65089400  0.16555600  0.65523000  1
  P  P6  1  0.76982700  0.51255400  0.17862000  1
  P  P7  1  0.48744600  0.23017300  0.32138000  1
  P  P8  1  0.23017300  0.48744600  0.82138000  1
  P  P9  1  0.51255400  0.76982700  0.67862000  1
  H  H10  1  0.00000000  0.00000000  0.00000000  1
  H  H11  1  0.00000000  0.00000000  0.50000000  1
  H  H12  1  0.84822700  0.82277200  0.23642500  1
  H  H13  1  0.17722800  0.15177300  0.26357500  1
  H  H14  1  0.15177300  0.17722800  0.76357500  1
  H  H15  1  0.82277200  0.84822700  0.73642500  1
  O  O16  1  0.11354400  0.86040900  0.15136800  1
  O  O17  1  0.13959100  0.88645600  0.34863200  1
  O  O18  1  0.88645600  0.13959100  0.84863200  1
  O  O19  1  0.86040900  0.11354400  0.65136800  1
  O  O20  1  0.38160300  0.45478400  0.21605900  1
  O  O21  1  0.54521600  0.61839700  0.28394100  1
  O  O22  1  0.61839700  0.54521600  0.78394100  1
  O  O23  1  0.45478400  0.38160300  0.71605900  1
  O  O24  1  0.99875700  0.68159700  0.27605100  1
  O  O25  1  0.31840300  0.00124200  0.22394900  1
  O  O26  1  0.00124300  0.31840300  0.72394900  1
  O  O27  1  0.68159700  0.99875700  0.77605100  1
  O  O28  1  0.74443000  0.68289600  0.04670200  1
  O  O29  1  0.31710400  0.25557000  0.45329800  1
  O  O30  1  0.25557000  0.31710400  0.95329800  1
  O  O31  1  0.68289600  0.74443000  0.54670200  1
  O  O32  1  0.94447400  0.38762000  0.32590300  1
  O  O33  1  0.61238000  0.05552600  0.17409700  1
  O  O34  1  0.05552600  0.61238000  0.67409700  1
  O  O35  1  0.38762000  0.94447400  0.82590300  1
  O  O36  1  0.85083800  0.33140700  0.05662200  1
  O  O37  1  0.66859300  0.14916200  0.44337800  1
  O  O38  1  0.14916200  0.66859300  0.94337800  1
  O  O39  1  0.33140700  0.85083800  0.55662200  1
