# generated using pymatgen
data_Rb2PrH8N5O19
_symmetry_space_group_name_H-M   'P 1'
_cell_length_a   7.19575808
_cell_length_b   7.19575808
_cell_length_c   18.52709917
_cell_angle_alpha   80.94478580
_cell_angle_beta   80.94478580
_cell_angle_gamma   78.07156839
_symmetry_Int_Tables_number   1
_chemical_formula_structural   Rb2PrH8N5O19
_chemical_formula_sum   'Rb4 Pr2 H16 N10 O38'
_cell_volume   919.12948321
_cell_formula_units_Z   2
loop_
 _symmetry_equiv_pos_site_id
 _symmetry_equiv_pos_as_xyz
  1  'x, y, z'
loop_
 _atom_site_type_symbol
 _atom_site_label
 _atom_site_symmetry_multiplicity
 _atom_site_fract_x
 _atom_site_fract_y
 _atom_site_fract_z
 _atom_site_occupancy
  Rb  Rb0  1  0.05357000  0.86758500  0.62264000  1
  Rb  Rb1  1  0.86758500  0.05357000  0.12264000  1
  Rb  Rb2  1  0.64315600  0.45617500  0.57054800  1
  Rb  Rb3  1  0.45617500  0.64315600  0.07054800  1
  Pr  Pr4  1  0.30527600  0.20036700  0.39864400  1
  Pr  Pr5  1  0.20036700  0.30527600  0.89864400  1
  H  H6  1  0.10076000  0.83395800  0.42111200  1
  H  H7  1  0.83395800  0.10076000  0.92111200  1
  H  H8  1  0.93353900  0.00559600  0.43871600  1
  H  H9  1  0.00559600  0.93353900  0.93871600  1
  H  H10  1  0.67227200  0.40531600  0.37284600  1
  H  H11  1  0.40531600  0.67227200  0.87284600  1
  H  H12  1  0.50285300  0.57753500  0.35833200  1
  H  H13  1  0.57753500  0.50285300  0.85833200  1
  H  H14  1  0.78162300  0.47875700  0.18126300  1
  H  H15  1  0.47875700  0.78162300  0.68126300  1
  H  H16  1  0.62495500  0.37880100  0.23007000  1
  H  H17  1  0.37880100  0.62495500  0.73007000  1
  H  H18  1  0.23252000  0.88892700  0.20889700  1
  H  H19  1  0.88892700  0.23252000  0.70889700  1
  H  H20  1  0.19227000  0.67947700  0.22495900  1
  H  H21  1  0.67947700  0.19227000  0.72495900  1
  N  N22  1  0.95466700  0.54010200  0.40208800  1
  N  N23  1  0.54010200  0.95466700  0.90208800  1
  N  N24  1  0.91741200  0.56763400  0.79963000  1
  N  N25  1  0.56763400  0.91741200  0.29963000  1
  N  N26  1  0.36286400  0.15639700  0.05093300  1
  N  N27  1  0.15639700  0.36286400  0.55093300  1
  N  N28  1  0.29790700  0.17773500  0.74227100  1
  N  N29  1  0.17773500  0.29790700  0.24227100  1
  N  N30  1  0.96504100  0.58161200  0.00855100  1
  N  N31  1  0.58161200  0.96504100  0.50855100  1
  O  O32  1  0.81167300  0.66454500  0.41599900  1
  O  O33  1  0.66454500  0.81167300  0.91599900  1
  O  O34  1  0.56641000  0.12433200  0.90458100  1
  O  O35  1  0.12433200  0.56641000  0.40458100  1
  O  O36  1  0.37699400  0.93932600  0.88604200  1
  O  O37  1  0.93932600  0.37699400  0.38604200  1
  O  O38  1  0.81595100  0.66231900  0.75359300  1
  O  O39  1  0.66231900  0.81595100  0.25359300  1
  O  O40  1  0.09472500  0.57706100  0.79592700  1
  O  O41  1  0.57706100  0.09472500  0.29592700  1
  O  O42  1  0.85145300  0.45314400  0.85360000  1
  O  O43  1  0.45314400  0.85145300  0.35360000  1
  O  O44  1  0.45737700  0.08483500  0.10263800  1
  O  O45  1  0.08483500  0.45737700  0.60263800  1
  O  O46  1  0.26177400  0.05960600  0.02587700  1
  O  O47  1  0.05960600  0.26177400  0.52587700  1
  O  O48  1  0.36385600  0.32695800  0.01922900  1
  O  O49  1  0.32695800  0.36385600  0.51922900  1
  O  O50  1  0.34311300  0.11202800  0.68255900  1
  O  O51  1  0.11202800  0.34311300  0.18255900  1
  O  O52  1  0.13268800  0.17729100  0.77971400  1
  O  O53  1  0.17729100  0.13268800  0.27971400  1
  O  O54  1  0.41624100  0.24922300  0.77006400  1
  O  O55  1  0.24922300  0.41624100  0.27006400  1
  O  O56  1  0.87710300  0.68345200  0.05611300  1
  O  O57  1  0.68345200  0.87710300  0.55611300  1
  O  O58  1  0.94229700  0.40947200  0.01019300  1
  O  O59  1  0.40947200  0.94229700  0.51019300  1
  O  O60  1  0.08272000  0.64488000  0.95549700  1
  O  O61  1  0.64488000  0.08272000  0.45549700  1
  O  O62  1  0.07288500  0.96195000  0.43734300  1
  O  O63  1  0.96195000  0.07288500  0.93734300  1
  O  O64  1  0.53824400  0.43639500  0.36267700  1
  O  O65  1  0.43639500  0.53824400  0.86267700  1
  O  O66  1  0.67671800  0.41427400  0.17890300  1
  O  O67  1  0.41427400  0.67671800  0.67890300  1
  O  O68  1  0.18354400  0.79470200  0.18826900  1
  O  O69  1  0.79470200  0.18354400  0.68826900  1
