# generated using pymatgen
data_Li2Ge7O15
_symmetry_space_group_name_H-M   'P 1'
_cell_length_a   17.16073500
_cell_length_b   7.48149500
_cell_length_c   9.78734600
_cell_angle_alpha   90.00000000
_cell_angle_beta   90.00000000
_cell_angle_gamma   90.00000000
_symmetry_Int_Tables_number   1
_chemical_formula_structural   Li2Ge7O15
_chemical_formula_sum   'Li8 Ge28 O60'
_cell_volume   1256.57731921
_cell_formula_units_Z   4
loop_
 _symmetry_equiv_pos_site_id
 _symmetry_equiv_pos_as_xyz
  1  'x, y, z'
loop_
 _atom_site_type_symbol
 _atom_site_label
 _atom_site_symmetry_multiplicity
 _atom_site_fract_x
 _atom_site_fract_y
 _atom_site_fract_z
 _atom_site_occupancy
  Li  Li0  1  0.74416600  0.24051100  0.99362400  1
  Li  Li1  1  0.25583400  0.75948900  0.49362400  1
  Li  Li2  1  0.75583400  0.24051100  0.49362400  1
  Li  Li3  1  0.24416600  0.75948900  0.99362400  1
  Li  Li4  1  0.00704500  0.26484000  0.74919400  1
  Li  Li5  1  0.99295500  0.73516000  0.24919400  1
  Li  Li6  1  0.49295500  0.26484000  0.24919400  1
  Li  Li7  1  0.50704500  0.73516000  0.74919400  1
  Ge  Ge8  1  0.83711100  0.25040200  0.74950200  1
  Ge  Ge9  1  0.16288900  0.74959800  0.24950200  1
  Ge  Ge10  1  0.66288900  0.25040200  0.24950200  1
  Ge  Ge11  1  0.33711100  0.74959800  0.74950200  1
  Ge  Ge12  1  0.19080700  0.46011400  0.75194600  1
  Ge  Ge13  1  0.80919300  0.53988600  0.25194600  1
  Ge  Ge14  1  0.30919300  0.46011400  0.25194600  1
  Ge  Ge15  1  0.69080700  0.53988600  0.75194600  1
  Ge  Ge16  1  0.91286500  0.54051200  0.96692500  1
  Ge  Ge17  1  0.08713500  0.45948800  0.46692500  1
  Ge  Ge18  1  0.58713500  0.54051200  0.46692500  1
  Ge  Ge19  1  0.41286500  0.45948800  0.96692500  1
  Ge  Ge20  1  0.90524300  0.53732100  0.52714800  1
  Ge  Ge21  1  0.09475700  0.46267900  0.02714800  1
  Ge  Ge22  1  0.59475700  0.53732100  0.02714800  1
  Ge  Ge23  1  0.40524300  0.46267900  0.52714800  1
  Ge  Ge24  1  0.30744300  0.03732800  0.24979000  1
  Ge  Ge25  1  0.69255700  0.96267200  0.74979000  1
  Ge  Ge26  1  0.19255700  0.03732800  0.74979000  1
  Ge  Ge27  1  0.80744300  0.96267200  0.24979000  1
  Ge  Ge28  1  0.59078000  0.96511500  0.03252600  1
  Ge  Ge29  1  0.40922000  0.03488500  0.53252600  1
  Ge  Ge30  1  0.90922000  0.96511500  0.53252600  1
  Ge  Ge31  1  0.09078000  0.03488500  0.03252600  1
  Ge  Ge32  1  0.59189500  0.96775000  0.47028100  1
  Ge  Ge33  1  0.40810500  0.03225000  0.97028100  1
  Ge  Ge34  1  0.90810500  0.96775000  0.97028100  1
  Ge  Ge35  1  0.09189500  0.03225000  0.47028100  1
  O  O36  1  0.23488500  0.24921800  0.77382200  1
  O  O37  1  0.76511500  0.75078200  0.27382200  1
  O  O38  1  0.26511500  0.24921800  0.27382200  1
  O  O39  1  0.73488500  0.75078200  0.77382200  1
  O  O40  1  0.16496200  0.51123500  0.58044500  1
  O  O41  1  0.83503800  0.48876500  0.08044500  1
  O  O42  1  0.33503800  0.51123500  0.08044500  1
  O  O43  1  0.66496200  0.48876500  0.58044500  1
  O  O44  1  0.09948600  0.44996500  0.84334900  1
  O  O45  1  0.90051400  0.55003500  0.34334900  1
  O  O46  1  0.40051400  0.44996500  0.34334900  1
  O  O47  1  0.59948600  0.55003500  0.84334900  1
  O  O48  1  0.00120200  0.46692500  0.57126000  1
  O  O49  1  0.99879800  0.53307500  0.07126000  1
  O  O50  1  0.49879800  0.46692500  0.07126000  1
  O  O51  1  0.50120200  0.53307500  0.57126000  1
  O  O52  1  0.91724200  0.39419000  0.82839800  1
  O  O53  1  0.08275800  0.60581000  0.32839800  1
  O  O54  1  0.58275800  0.39419000  0.32839800  1
  O  O55  1  0.41724200  0.60581000  0.82839800  1
  O  O56  1  0.91107600  0.75551700  0.89333700  1
  O  O57  1  0.08892400  0.24448300  0.39333700  1
  O  O58  1  0.58892400  0.75551700  0.39333700  1
  O  O59  1  0.41107600  0.24448300  0.89333700  1
  O  O60  1  0.83499800  0.38890000  0.58747200  1
  O  O61  1  0.16500200  0.61110000  0.08747200  1
  O  O62  1  0.66500200  0.38890000  0.08747200  1
  O  O63  1  0.33499800  0.61110000  0.58747200  1
  O  O64  1  0.75485000  0.38768400  0.82652300  1
  O  O65  1  0.24515000  0.61231600  0.32652300  1
  O  O66  1  0.74515000  0.38768400  0.32652300  1
  O  O67  1  0.25485000  0.61231600  0.82652300  1
  O  O68  1  0.34187600  0.94875400  0.40844300  1
  O  O69  1  0.65812400  0.05124600  0.90844300  1
  O  O70  1  0.15812400  0.94875400  0.90844300  1
  O  O71  1  0.84187600  0.05124600  0.40844300  1
  O  O72  1  0.39405800  0.07414500  0.14969400  1
  O  O73  1  0.60594200  0.92585500  0.64969400  1
  O  O74  1  0.10594200  0.07414500  0.64969400  1
  O  O75  1  0.89405800  0.92585500  0.14969400  1
  O  O76  1  0.49952900  0.07109300  0.44540800  1
  O  O77  1  0.50047100  0.92890700  0.94540800  1
  O  O78  1  0.00047100  0.07109300  0.94540800  1
  O  O79  1  0.99952900  0.92890700  0.44540800  1
  O  O80  1  0.57986600  0.10923800  0.17206200  1
  O  O81  1  0.42013400  0.89076200  0.67206200  1
  O  O82  1  0.92013400  0.10923800  0.67206200  1
  O  O83  1  0.07986600  0.89076200  0.17206200  1
  O  O84  1  0.61752900  0.75117600  0.08971800  1
  O  O85  1  0.38247100  0.24882400  0.58971800  1
  O  O86  1  0.88247100  0.75117600  0.58971800  1
  O  O87  1  0.11752900  0.24882400  0.08971800  1
  O  O88  1  0.66562900  0.10831900  0.41128700  1
  O  O89  1  0.33437100  0.89168100  0.91128700  1
  O  O90  1  0.83437100  0.10831900  0.91128700  1
  O  O91  1  0.16562900  0.89168100  0.41128700  1
  O  O92  1  0.74056800  0.10079900  0.16694700  1
  O  O93  1  0.25943200  0.89920100  0.66694700  1
  O  O94  1  0.75943200  0.10079900  0.66694700  1
  O  O95  1  0.24056800  0.89920100  0.16694700  1
