# generated using pymatgen
data_Ca2B5O13
_symmetry_space_group_name_H-M   'P 1'
_cell_length_a   7.05075300
_cell_length_b   11.64950300
_cell_length_c   12.43701259
_cell_angle_alpha   66.96958266
_cell_angle_beta   90.00000000
_cell_angle_gamma   90.00000000
_symmetry_Int_Tables_number   1
_chemical_formula_structural   Ca2B5O13
_chemical_formula_sum   'Ca8 B20 O52'
_cell_volume   940.12827853
_cell_formula_units_Z   4
loop_
 _symmetry_equiv_pos_site_id
 _symmetry_equiv_pos_as_xyz
  1  'x, y, z'
loop_
 _atom_site_type_symbol
 _atom_site_label
 _atom_site_symmetry_multiplicity
 _atom_site_fract_x
 _atom_site_fract_y
 _atom_site_fract_z
 _atom_site_occupancy
  Ca  Ca0  1  0.23380900  0.50925500  0.91792800  1
  Ca  Ca1  1  0.73380900  0.49074500  0.58207200  1
  Ca  Ca2  1  0.76619100  0.49074500  0.08207200  1
  Ca  Ca3  1  0.26619100  0.50925500  0.41792800  1
  Ca  Ca4  1  0.25135100  0.18699500  0.37927600  1
  Ca  Ca5  1  0.75135100  0.81300500  0.12072400  1
  Ca  Ca6  1  0.74864900  0.81300500  0.62072400  1
  Ca  Ca7  1  0.24864900  0.18699500  0.87927600  1
  B  B8  1  0.75667000  0.24717100  0.36071600  1
  B  B9  1  0.25667000  0.75282900  0.13928400  1
  B  B10  1  0.24333000  0.75282900  0.63928400  1
  B  B11  1  0.74333000  0.24717100  0.86071600  1
  B  B12  1  0.73622600  0.48300700  0.83417700  1
  B  B13  1  0.23622600  0.51699300  0.66582300  1
  B  B14  1  0.26377400  0.51699300  0.16582300  1
  B  B15  1  0.76377400  0.48300700  0.33417700  1
  B  B16  1  0.96222100  0.31602400  0.48594200  1
  B  B17  1  0.46222100  0.68397600  0.01405800  1
  B  B18  1  0.03777900  0.68397600  0.51405800  1
  B  B19  1  0.53777900  0.31602400  0.98594200  1
  B  B20  1  0.28093200  0.19722600  0.13161200  1
  B  B21  1  0.78093200  0.80277400  0.36838800  1
  B  B22  1  0.71906800  0.80277400  0.86838800  1
  B  B23  1  0.21906800  0.19722600  0.63161200  1
  B  B24  1  0.88416200  0.20326500  0.69568400  1
  B  B25  1  0.38416200  0.79673500  0.80431600  1
  B  B26  1  0.11583800  0.79673500  0.30431600  1
  B  B27  1  0.61583800  0.20326500  0.19568400  1
  O  O28  1  0.24818100  0.82470900  0.21390100  1
  O  O29  1  0.74818100  0.17529100  0.28609900  1
  O  O30  1  0.75181900  0.17529100  0.78609900  1
  O  O31  1  0.25181900  0.82470900  0.71390100  1
  O  O32  1  0.58426100  0.19558500  0.42556400  1
  O  O33  1  0.08426100  0.80441500  0.07443600  1
  O  O34  1  0.41573900  0.80441500  0.57443600  1
  O  O35  1  0.91573900  0.19558500  0.92556400  1
  O  O36  1  0.93035300  0.23007700  0.42591300  1
  O  O37  1  0.43035300  0.76992300  0.07408700  1
  O  O38  1  0.06964700  0.76992300  0.57408700  1
  O  O39  1  0.56964700  0.23007700  0.92591300  1
  O  O40  1  0.78134700  0.38045200  0.79233200  1
  O  O41  1  0.28134700  0.61954800  0.70766800  1
  O  O42  1  0.21865300  0.61954800  0.20766800  1
  O  O43  1  0.71865300  0.38045200  0.29233200  1
  O  O44  1  0.09799600  0.49305400  0.10988700  1
  O  O45  1  0.59799600  0.50694600  0.39011300  1
  O  O46  1  0.90200400  0.50694600  0.89011300  1
  O  O47  1  0.40200400  0.49305400  0.60988700  1
  O  O48  1  0.78677300  0.59688600  0.23318400  1
  O  O49  1  0.28677300  0.40311400  0.26681600  1
  O  O50  1  0.21322700  0.40311400  0.76681600  1
  O  O51  1  0.71322700  0.59688600  0.73318400  1
  O  O52  1  0.93242900  0.44787000  0.41021200  1
  O  O53  1  0.43242900  0.55213000  0.08978800  1
  O  O54  1  0.06757100  0.55213000  0.58978800  1
  O  O55  1  0.56757100  0.44787000  0.91021200  1
  O  O56  1  0.83260200  0.28856300  0.58813700  1
  O  O57  1  0.33260200  0.71143700  0.91186300  1
  O  O58  1  0.16739800  0.71143700  0.41186300  1
  O  O59  1  0.66739800  0.28856300  0.08813700  1
  O  O60  1  0.33639400  0.30160400  0.02321800  1
  O  O61  1  0.83639400  0.69839600  0.47678200  1
  O  O62  1  0.66360600  0.69839600  0.97678200  1
  O  O63  1  0.16360600  0.30160400  0.52321800  1
  O  O64  1  0.10822300  0.21705100  0.18314100  1
  O  O65  1  0.60822300  0.78294900  0.31685900  1
  O  O66  1  0.89177700  0.78294900  0.81685900  1
  O  O67  1  0.39177700  0.21705100  0.68314100  1
  O  O68  1  0.20542500  0.09953100  0.09877900  1
  O  O69  1  0.70542500  0.90046900  0.40122100  1
  O  O70  1  0.79457500  0.90046900  0.90122100  1
  O  O71  1  0.29457500  0.09953100  0.59877900  1
  O  O72  1  0.43419900  0.15852700  0.21990400  1
  O  O73  1  0.93419900  0.84147300  0.28009600  1
  O  O74  1  0.56580100  0.84147300  0.78009600  1
  O  O75  1  0.06580100  0.15852700  0.71990400  1
  O  O76  1  0.16307800  0.97663100  0.39081700  1
  O  O77  1  0.66307800  0.02336900  0.10918300  1
  O  O78  1  0.83692200  0.02336900  0.60918300  1
  O  O79  1  0.33692200  0.97663100  0.89081700  1
