# generated using pymatgen
data_Cr2Ni2H64N13Cl11O12
_symmetry_space_group_name_H-M   'P 1'
_cell_length_a   14.63308652
_cell_length_b   14.63308652
_cell_length_c   14.63308652
_cell_angle_alpha   60.00000000
_cell_angle_beta   60.00000000
_cell_angle_gamma   60.00000000
_symmetry_Int_Tables_number   1
_chemical_formula_structural   Cr2Ni2H64N13Cl11O12
_chemical_formula_sum   'Cr4 Ni4 H128 N26 Cl22 O24'
_cell_volume   2215.60748523
_cell_formula_units_Z   2
loop_
 _symmetry_equiv_pos_site_id
 _symmetry_equiv_pos_as_xyz
  1  'x, y, z'
loop_
 _atom_site_type_symbol
 _atom_site_label
 _atom_site_symmetry_multiplicity
 _atom_site_fract_x
 _atom_site_fract_y
 _atom_site_fract_z
 _atom_site_occupancy
  Cr  Cr0  1  0.50000000  0.50000000  -0.00000000  1
  Cr  Cr1  1  -0.00000000  0.50000000  0.50000000  1
  Cr  Cr2  1  0.50000000  0.00000000  0.50000000  1
  Cr  Cr3  1  0.50000000  0.50000000  0.50000000  1
  Ni  Ni4  1  -0.00000000  0.00000000  0.50000000  1
  Ni  Ni5  1  0.50000000  0.00000000  -0.00000000  1
  Ni  Ni6  1  -0.00000000  0.50000000  -0.00000000  1
  Ni  Ni7  1  -0.00000000  0.00000000  -0.00000000  1
  H  H8  1  0.17001921  0.34019829  0.56982846  1
  H  H9  1  0.56982846  0.41995404  0.17001921  1
  H  H10  1  0.41995404  0.56982846  0.34019829  1
  H  H11  1  0.34019829  0.17001921  0.41995404  1
  H  H12  1  0.34019829  0.56982846  0.17001921  1
  H  H13  1  0.41995404  0.17001921  0.56982846  1
  H  H14  1  0.56982846  0.34019829  0.41995404  1
  H  H15  1  0.17001921  0.41995404  0.34019829  1
  H  H16  1  0.56982846  0.17001921  0.34019829  1
  H  H17  1  0.17001921  0.56982846  0.41995404  1
  H  H18  1  0.34019829  0.41995404  0.56982846  1
  H  H19  1  0.41995404  0.34019829  0.17001921  1
  H  H20  1  0.82998079  0.65980171  0.43017154  1
  H  H21  1  0.43017154  0.58004596  0.82998079  1
  H  H22  1  0.58004596  0.43017154  0.65980171  1
  H  H23  1  0.65980171  0.82998079  0.58004596  1
  H  H24  1  0.65980171  0.43017154  0.82998079  1
  H  H25  1  0.58004596  0.82998079  0.43017154  1
  H  H26  1  0.43017154  0.65980171  0.58004596  1
  H  H27  1  0.82998079  0.58004596  0.65980171  1
  H  H28  1  0.43017154  0.82998079  0.65980171  1
  H  H29  1  0.82998079  0.43017154  0.58004596  1
  H  H30  1  0.65980171  0.58004596  0.43017154  1
  H  H31  1  0.58004596  0.65980171  0.82998079  1
  H  H32  1  0.12720727  0.44712928  0.61096399  1
  H  H33  1  0.61096399  0.31469945  0.12720727  1
  H  H34  1  0.31469945  0.61096399  0.44712928  1
  H  H35  1  0.44712928  0.12720727  0.31469945  1
  H  H36  1  0.44712928  0.61096399  0.12720727  1
  H  H37  1  0.31469945  0.12720727  0.61096399  1
  H  H38  1  0.61096399  0.44712928  0.31469945  1
  H  H39  1  0.12720727  0.31469945  0.44712928  1
  H  H40  1  0.61096399  0.12720727  0.44712928  1
  H  H41  1  0.12720727  0.61096399  0.31469945  1
  H  H42  1  0.44712928  0.31469945  0.61096399  1
  H  H43  1  0.31469945  0.44712928  0.12720727  1
  H  H44  1  0.87279273  0.55287072  0.38903601  1
  H  H45  1  0.38903601  0.68530055  0.87279273  1
  H  H46  1  0.68530055  0.38903601  0.55287072  1
  H  H47  1  0.55287072  0.87279273  0.68530055  1
  H  H48  1  0.55287072  0.38903601  0.87279273  1
  H  H49  1  0.68530055  0.87279273  0.38903601  1
  H  H50  1  0.38903601  0.55287072  0.68530055  1
  H  H51  1  0.87279273  0.68530055  0.55287072  1
  H  H52  1  0.38903601  0.87279273  0.55287072  1
  H  H53  1  0.87279273  0.38903601  0.68530055  1
  H  H54  1  0.55287072  0.68530055  0.38903601  1
  H  H55  1  0.68530055  0.55287072  0.87279273  1
  H  H56  1  0.05914628  0.35644215  0.68176458  1
  H  H57  1  0.68176458  0.40264699  0.05914628  1
  H  H58  1  0.40264699  0.68176458  0.35644215  1
  H  H59  1  0.35644215  0.05914628  0.40264699  1
  H  H60  1  0.35644215  0.68176458  0.05914628  1
  H  H61  1  0.40264699  0.05914628  0.68176458  1
  H  H62  1  0.68176458  0.35644215  0.40264699  1
  H  H63  1  0.05914628  0.40264699  0.35644215  1
  H  H64  1  0.68176458  0.05914628  0.35644215  1
  H  H65  1  0.05914628  0.68176458  0.40264699  1
  H  H66  1  0.35644215  0.40264699  0.68176458  1
  H  H67  1  0.40264699  0.35644215  0.05914628  1
  H  H68  1  0.94085372  0.64355785  0.31823542  1
  H  H69  1  0.31823542  0.59735301  0.94085372  1
  H  H70  1  0.59735301  0.31823542  0.64355785  1
  H  H71  1  0.64355785  0.94085372  0.59735301  1
  H  H72  1  0.64355785  0.31823542  0.94085372  1
  H  H73  1  0.59735301  0.94085372  0.31823542  1
  H  H74  1  0.31823542  0.64355785  0.59735301  1
  H  H75  1  0.94085372  0.59735301  0.64355785  1
  H  H76  1  0.31823542  0.94085372  0.64355785  1
  H  H77  1  0.94085372  0.31823542  0.59735301  1
  H  H78  1  0.64355785  0.59735301  0.31823542  1
  H  H79  1  0.59735301  0.64355785  0.94085372  1
  H  H80  1  0.41008138  0.95677531  0.90784576  1
  H  H81  1  0.90784576  0.22529754  0.41008138  1
  H  H82  1  0.22529754  0.90784576  0.95677531  1
  H  H83  1  0.95677531  0.41008138  0.22529754  1
  H  H84  1  0.95677531  0.90784576  0.41008138  1
  H  H85  1  0.22529754  0.41008138  0.90784576  1
  H  H86  1  0.90784576  0.95677531  0.22529754  1
  H  H87  1  0.41008138  0.22529754  0.95677531  1
  H  H88  1  0.90784576  0.41008138  0.95677531  1
  H  H89  1  0.41008138  0.90784576  0.22529754  1
  H  H90  1  0.95677531  0.22529754  0.90784576  1
  H  H91  1  0.22529754  0.95677531  0.41008138  1
  H  H92  1  0.58991862  0.04322469  0.09215424  1
  H  H93  1  0.09215424  0.77470246  0.58991862  1
  H  H94  1  0.77470246  0.09215424  0.04322469  1
  H  H95  1  0.04322469  0.58991862  0.77470246  1
  H  H96  1  0.04322469  0.09215424  0.58991862  1
  H  H97  1  0.77470246  0.58991862  0.09215424  1
  H  H98  1  0.09215424  0.04322469  0.77470246  1
  H  H99  1  0.58991862  0.77470246  0.04322469  1
  H  H100  1  0.09215424  0.58991862  0.04322469  1
  H  H101  1  0.58991862  0.09215424  0.77470246  1
  H  H102  1  0.04322469  0.77470246  0.09215424  1
  H  H103  1  0.77470246  0.04322469  0.58991862  1
  H  H104  1  0.34721881  0.08687785  0.89294819  1
  H  H105  1  0.89294819  0.17295516  0.34721881  1
  H  H106  1  0.17295516  0.89294819  0.08687785  1
  H  H107  1  0.08687785  0.34721881  0.17295516  1
  H  H108  1  0.08687785  0.89294819  0.34721881  1
  H  H109  1  0.17295516  0.34721881  0.89294819  1
  H  H110  1  0.89294819  0.08687785  0.17295516  1
  H  H111  1  0.34721881  0.17295516  0.08687785  1
  H  H112  1  0.89294819  0.34721881  0.08687785  1
  H  H113  1  0.34721881  0.89294819  0.17295516  1
  H  H114  1  0.08687785  0.17295516  0.89294819  1
  H  H115  1  0.17295516  0.08687785  0.34721881  1
  H  H116  1  0.65278119  0.91312215  0.10705181  1
  H  H117  1  0.10705181  0.82704484  0.65278119  1
  H  H118  1  0.82704484  0.10705181  0.91312215  1
  H  H119  1  0.91312215  0.65278119  0.82704484  1
  H  H120  1  0.91312215  0.10705181  0.65278119  1
  H  H121  1  0.82704484  0.65278119  0.10705181  1
  H  H122  1  0.10705181  0.91312215  0.82704484  1
  H  H123  1  0.65278119  0.82704484  0.91312215  1
  H  H124  1  0.10705181  0.65278119  0.91312215  1
  H  H125  1  0.65278119  0.10705181  0.82704484  1
  H  H126  1  0.91312215  0.82704484  0.10705181  1
  H  H127  1  0.82704484  0.91312215  0.65278119  1
  H  H128  1  0.15394459  0.15394459  0.03816624  1
  H  H129  1  0.03816624  0.15394459  0.15394459  1
  H  H130  1  0.15394459  0.03816624  0.15394459  1
  H  H131  1  0.15394459  0.15394459  0.15394459  1
  H  H132  1  0.84605541  0.84605541  0.96183376  1
  H  H133  1  0.96183376  0.84605541  0.84605541  1
  H  H134  1  0.84605541  0.96183376  0.84605541  1
  H  H135  1  0.84605541  0.84605541  0.84605541  1
  N  N136  1  0.10080659  0.39887006  0.60261113  1
  N  N137  1  0.60261113  0.39771222  0.10080659  1
  N  N138  1  0.39771222  0.60261113  0.39887006  1
  N  N139  1  0.39887006  0.10080659  0.39771222  1
  N  N140  1  0.39887006  0.60261113  0.10080659  1
  N  N141  1  0.39771222  0.10080659  0.60261113  1
  N  N142  1  0.60261113  0.39887006  0.39771222  1
  N  N143  1  0.10080659  0.39771222  0.39887006  1
  N  N144  1  0.60261113  0.10080659  0.39887006  1
  N  N145  1  0.10080659  0.60261113  0.39771222  1
  N  N146  1  0.39887006  0.39771222  0.60261113  1
  N  N147  1  0.39771222  0.39887006  0.10080659  1
  N  N148  1  0.89919341  0.60112994  0.39738887  1
  N  N149  1  0.39738887  0.60228778  0.89919341  1
  N  N150  1  0.60228778  0.39738887  0.60112994  1
  N  N151  1  0.60112994  0.89919341  0.60228778  1
  N  N152  1  0.60112994  0.39738887  0.89919341  1
  N  N153  1  0.60228778  0.89919341  0.39738887  1
  N  N154  1  0.39738887  0.60112994  0.60228778  1
  N  N155  1  0.89919341  0.60228778  0.60112994  1
  N  N156  1  0.39738887  0.89919341  0.60112994  1
  N  N157  1  0.89919341  0.39738887  0.60228778  1
  N  N158  1  0.60112994  0.60228778  0.39738887  1
  N  N159  1  0.60228778  0.60112994  0.89919341  1
  N  N160  1  0.12500000  0.12500000  0.12500000  1
  N  N161  1  0.87500000  0.87500000  0.87500000  1
  Cl  Cl162  1  0.22426710  0.22426710  0.82719870  1
  Cl  Cl163  1  0.82719870  0.22426710  0.22426710  1
  Cl  Cl164  1  0.22426710  0.82719870  0.22426710  1
  Cl  Cl165  1  0.22426710  0.22426710  0.22426710  1
  Cl  Cl166  1  0.77573290  0.77573290  0.17280130  1
  Cl  Cl167  1  0.17280130  0.77573290  0.77573290  1
  Cl  Cl168  1  0.77573290  0.17280130  0.77573290  1
  Cl  Cl169  1  0.77573290  0.77573290  0.77573290  1
  Cl  Cl170  1  0.85054531  0.39945469  0.85054531  1
  Cl  Cl171  1  0.39945469  0.85054531  0.39945469  1
  Cl  Cl172  1  0.39945469  0.85054531  0.85054531  1
  Cl  Cl173  1  0.85054531  0.39945469  0.39945469  1
  Cl  Cl174  1  0.85054531  0.85054531  0.39945469  1
  Cl  Cl175  1  0.39945469  0.39945469  0.85054531  1
  Cl  Cl176  1  0.14945469  0.60054531  0.14945469  1
  Cl  Cl177  1  0.60054531  0.14945469  0.60054531  1
  Cl  Cl178  1  0.60054531  0.14945469  0.14945469  1
  Cl  Cl179  1  0.14945469  0.60054531  0.60054531  1
  Cl  Cl180  1  0.14945469  0.14945469  0.60054531  1
  Cl  Cl181  1  0.60054531  0.60054531  0.14945469  1
  Cl  Cl182  1  0.62500000  0.62500000  0.62500000  1
  Cl  Cl183  1  0.37500000  0.37500000  0.37500000  1
  O  O184  1  0.39873070  0.01667368  0.92905424  1
  O  O185  1  0.92905424  0.15554138  0.39873070  1
  O  O186  1  0.15554138  0.92905424  0.01667368  1
  O  O187  1  0.01667368  0.39873070  0.15554138  1
  O  O188  1  0.01667368  0.92905424  0.39873070  1
  O  O189  1  0.15554138  0.39873070  0.92905424  1
  O  O190  1  0.92905424  0.01667368  0.15554138  1
  O  O191  1  0.39873070  0.15554138  0.01667368  1
  O  O192  1  0.92905424  0.39873070  0.01667368  1
  O  O193  1  0.39873070  0.92905424  0.15554138  1
  O  O194  1  0.01667368  0.15554138  0.92905424  1
  O  O195  1  0.15554138  0.01667368  0.39873070  1
  O  O196  1  0.60126930  0.98332632  0.07094576  1
  O  O197  1  0.07094576  0.84445862  0.60126930  1
  O  O198  1  0.84445862  0.07094576  0.98332632  1
  O  O199  1  0.98332632  0.60126930  0.84445862  1
  O  O200  1  0.98332632  0.07094576  0.60126930  1
  O  O201  1  0.84445862  0.60126930  0.07094576  1
  O  O202  1  0.07094576  0.98332632  0.84445862  1
  O  O203  1  0.60126930  0.84445862  0.98332632  1
  O  O204  1  0.07094576  0.60126930  0.98332632  1
  O  O205  1  0.60126930  0.07094576  0.84445862  1
  O  O206  1  0.98332632  0.84445862  0.07094576  1
  O  O207  1  0.84445862  0.98332632  0.60126930  1
