# generated using pymatgen
data_Zn2SiHO5
_symmetry_space_group_name_H-M   'P 1'
_cell_length_a   5.17676500
_cell_length_b   8.46097700
_cell_length_c   10.81191200
_cell_angle_alpha   90.00000000
_cell_angle_beta   90.00000000
_cell_angle_gamma   90.00000000
_symmetry_Int_Tables_number   1
_chemical_formula_structural   Zn2SiHO5
_chemical_formula_sum   'Zn8 Si4 H4 O20'
_cell_volume   473.56703911
_cell_formula_units_Z   4
loop_
 _symmetry_equiv_pos_site_id
 _symmetry_equiv_pos_as_xyz
  1  'x, y, z'
loop_
 _atom_site_type_symbol
 _atom_site_label
 _atom_site_symmetry_multiplicity
 _atom_site_fract_x
 _atom_site_fract_y
 _atom_site_fract_z
 _atom_site_occupancy
  Zn  Zn0  1  0.49602400  0.73734300  0.35513100  1
  Zn  Zn1  1  0.49602400  0.26265700  0.64486900  1
  Zn  Zn2  1  0.99602400  0.76265700  0.85513100  1
  Zn  Zn3  1  0.99602400  0.23734300  0.14486900  1
  Zn  Zn4  1  0.99315000  0.82756300  0.17512200  1
  Zn  Zn5  1  0.99315000  0.17243700  0.82487800  1
  Zn  Zn6  1  0.49315000  0.67243700  0.67512200  1
  Zn  Zn7  1  0.49315000  0.32756300  0.32487800  1
  Si  Si8  1  0.00389500  0.52568800  0.35496300  1
  Si  Si9  1  0.00389500  0.47431200  0.64503700  1
  Si  Si10  1  0.50389500  0.97431200  0.85496300  1
  Si  Si11  1  0.50389500  0.02568800  0.14503700  1
  H  H12  1  0.67136100  0.88481300  0.53480200  1
  H  H13  1  0.67136100  0.11518700  0.46519800  1
  H  H14  1  0.17136100  0.61518700  0.03480200  1
  H  H15  1  0.17136100  0.38481300  0.96519800  1
  O  O16  1  0.13178700  0.69517900  0.31204400  1
  O  O17  1  0.13178700  0.30482100  0.68795600  1
  O  O18  1  0.63178700  0.80482100  0.81204400  1
  O  O19  1  0.63178700  0.19517900  0.18795600  1
  O  O20  1  0.63277000  0.87769500  0.22264200  1
  O  O21  1  0.63277000  0.12230500  0.77735800  1
  O  O22  1  0.13277000  0.62230500  0.72264200  1
  O  O23  1  0.13277000  0.37769500  0.27735800  1
  O  O24  1  0.68995600  0.53053600  0.33555900  1
  O  O25  1  0.68995600  0.46946400  0.66444100  1
  O  O26  1  0.18995600  0.96946400  0.83555900  1
  O  O27  1  0.18995600  0.03053600  0.16444100  1
  O  O28  1  0.54047500  0.80141900  0.52628900  1
  O  O29  1  0.54047500  0.19858100  0.47371100  1
  O  O30  1  0.04047500  0.69858100  0.02628900  1
  O  O31  1  0.04047500  0.30141900  0.97371100  1
  O  O32  1  0.09177800  0.50000000  0.50000000  1
  O  O33  1  0.59177800  0.00000000  0.00000000  1
  O  O34  1  0.00328700  0.00000000  0.50000000  1
  O  O35  1  0.50328700  0.50000000  0.00000000  1
