# generated using pymatgen
data_InH3C2O5
_symmetry_space_group_name_H-M   'P 1'
_cell_length_a   6.32476200
_cell_length_b   9.63653514
_cell_length_c   9.63653514
_cell_angle_alpha   83.81767280
_cell_angle_beta   70.84252319
_cell_angle_gamma   70.84252319
_symmetry_Int_Tables_number   1
_chemical_formula_structural   InH3C2O5
_chemical_formula_sum   'In4 H12 C8 O20'
_cell_volume   524.08345527
_cell_formula_units_Z   4
loop_
 _symmetry_equiv_pos_site_id
 _symmetry_equiv_pos_as_xyz
  1  'x, y, z'
loop_
 _atom_site_type_symbol
 _atom_site_label
 _atom_site_symmetry_multiplicity
 _atom_site_fract_x
 _atom_site_fract_y
 _atom_site_fract_z
 _atom_site_occupancy
  In  In0  1  0.62500000  0.89680000  0.60320000  1
  In  In1  1  0.12500000  0.10320000  0.39680000  1
  In  In2  1  0.47820000  0.39680000  0.89680000  1
  In  In3  1  0.77180000  0.60320000  0.10320000  1
  H  H4  1  0.29957500  0.67666200  0.57262800  1
  H  H5  1  0.95042500  0.92737200  0.82333800  1
  H  H6  1  0.54886500  0.32333800  0.42737200  1
  H  H7  1  0.70113500  0.07262800  0.17666200  1
  H  H8  1  0.02376300  0.42737200  0.67666200  1
  H  H9  1  0.22623700  0.82333800  0.07262800  1
  H  H10  1  0.12779700  0.57262800  0.32333800  1
  H  H11  1  0.12220300  0.17666200  0.92737200  1
  H  H12  1  0.49981000  0.87519000  0.37519000  1
  H  H13  1  0.75019000  0.12481000  0.62481000  1
  H  H14  1  0.62500000  0.62481000  0.87519000  1
  H  H15  1  0.12500000  0.37519000  0.12481000  1
  C  C16  1  0.37830000  0.63446400  0.66134400  1
  C  C17  1  0.87170000  0.83865600  0.86553600  1
  C  C18  1  0.67410800  0.36553600  0.33865600  1
  C  C19  1  0.57589200  0.16134400  0.13446400  1
  C  C20  1  0.98723600  0.33865600  0.63446400  1
  C  C21  1  0.26276400  0.86553600  0.16134400  1
  C  C22  1  0.96035700  0.66134400  0.36553600  1
  C  C23  1  0.28964300  0.13446400  0.83865600  1
  O  O24  1  0.42323000  0.95177000  0.45177000  1
  O  O25  1  0.82677000  0.04823000  0.54823000  1
  O  O26  1  0.62500000  0.54823000  0.95177000  1
  O  O27  1  0.12500000  0.45177000  0.04823000  1
  O  O28  1  0.50513400  0.69740000  0.69123200  1
  O  O29  1  0.74486600  0.80876800  0.80260000  1
  O  O30  1  0.89376600  0.30260000  0.30876800  1
  O  O31  1  0.35623400  0.19123200  0.19740000  1
  O  O32  1  0.79746600  0.30876800  0.69740000  1
  O  O33  1  0.45253400  0.80260000  0.19123200  1
  O  O34  1  0.80363400  0.69123200  0.30260000  1
  O  O35  1  0.44636600  0.19740000  0.80876800  1
  O  O36  1  0.33069800  0.52144400  0.72857500  1
  O  O37  1  0.91930200  0.77142500  0.97855600  1
  O  O38  1  0.58071800  0.47855600  0.27142500  1
  O  O39  1  0.66928200  0.22857500  0.02144400  1
  O  O40  1  0.14785800  0.27142500  0.52144400  1
  O  O41  1  0.10214200  0.97855600  0.22857500  1
  O  O42  1  0.94072700  0.72857500  0.47855600  1
  O  O43  1  0.30927300  0.02144400  0.77142500  1
