# generated using pymatgen
data_Ba2V3BiO11
_symmetry_space_group_name_H-M   'P 1'
_cell_length_a   5.87761573
_cell_length_b   7.86735300
_cell_length_c   24.53300090
_cell_angle_alpha   90.00000000
_cell_angle_beta   90.92830989
_cell_angle_gamma   90.00000000
_symmetry_Int_Tables_number   1
_chemical_formula_structural   Ba2V3BiO11
_chemical_formula_sum   'Ba8 V12 Bi4 O44'
_cell_volume   1134.28841335
_cell_formula_units_Z   4
loop_
 _symmetry_equiv_pos_site_id
 _symmetry_equiv_pos_as_xyz
  1  'x, y, z'
loop_
 _atom_site_type_symbol
 _atom_site_label
 _atom_site_symmetry_multiplicity
 _atom_site_fract_x
 _atom_site_fract_y
 _atom_site_fract_z
 _atom_site_occupancy
  Ba  Ba0  1  0.75112000  0.75853800  0.52740200  1
  Ba  Ba1  1  0.74888000  0.25853800  0.97259800  1
  Ba  Ba2  1  0.24888000  0.24146200  0.47259800  1
  Ba  Ba3  1  0.25112000  0.74146200  0.02740200  1
  Ba  Ba4  1  0.25407300  0.25181000  0.13059500  1
  Ba  Ba5  1  0.24592700  0.75181000  0.36940500  1
  Ba  Ba6  1  0.74592700  0.74819000  0.86940500  1
  Ba  Ba7  1  0.75407300  0.24819000  0.63059500  1
  V  V8  1  0.74535000  0.01743000  0.40770800  1
  V  V9  1  0.75465000  0.51743000  0.09229200  1
  V  V10  1  0.25465000  0.98257000  0.59229200  1
  V  V11  1  0.24535000  0.48257000  0.90770800  1
  V  V12  1  0.25113800  0.74453600  0.20108700  1
  V  V13  1  0.24886200  0.24453600  0.29891300  1
  V  V14  1  0.74886200  0.25546400  0.79891300  1
  V  V15  1  0.75113800  0.75546400  0.70108700  1
  V  V16  1  0.74732200  0.97868300  0.09065900  1
  V  V17  1  0.75267800  0.47868300  0.40934100  1
  V  V18  1  0.25267800  0.02131700  0.90934100  1
  V  V19  1  0.24732200  0.52131700  0.59065900  1
  Bi  Bi20  1  0.74010100  0.99745600  0.24752200  1
  Bi  Bi21  1  0.75989900  0.49745600  0.25247800  1
  Bi  Bi22  1  0.25989900  0.00254400  0.75247800  1
  Bi  Bi23  1  0.24010100  0.50254400  0.74752200  1
  O  O24  1  0.74524700  0.74791800  0.08402300  1
  O  O25  1  0.75475300  0.24791800  0.41597700  1
  O  O26  1  0.25475300  0.25208200  0.91597700  1
  O  O27  1  0.24524700  0.75208200  0.58402300  1
  O  O28  1  0.23767000  0.44184200  0.65637100  1
  O  O29  1  0.26233000  0.94184200  0.84362900  1
  O  O30  1  0.76233000  0.55815800  0.34362900  1
  O  O31  1  0.73767000  0.05815800  0.15637100  1
  O  O32  1  0.51282300  0.55242700  0.43995900  1
  O  O33  1  0.98717700  0.05242700  0.06004100  1
  O  O34  1  0.48717700  0.44757300  0.56004100  1
  O  O35  1  0.01282300  0.94757300  0.93995900  1
  O  O36  1  0.02040400  0.56025800  0.94314900  1
  O  O37  1  0.47959600  0.06025800  0.55685100  1
  O  O38  1  0.97959600  0.43974200  0.05685100  1
  O  O39  1  0.52040400  0.93974200  0.44314900  1
  O  O40  1  0.98566600  0.55454000  0.44347600  1
  O  O41  1  0.51433400  0.05454000  0.05652400  1
  O  O42  1  0.01433400  0.44546000  0.55652400  1
  O  O43  1  0.48566600  0.94546000  0.94347600  1
  O  O44  1  0.50561300  0.70818000  0.24150500  1
  O  O45  1  0.99438700  0.20818000  0.25849500  1
  O  O46  1  0.49438700  0.29182000  0.75849500  1
  O  O47  1  0.00561300  0.79182000  0.74150500  1
  O  O48  1  0.76861800  0.44219900  0.15887400  1
  O  O49  1  0.73138200  0.94219900  0.34112600  1
  O  O50  1  0.23138200  0.55780100  0.84112600  1
  O  O51  1  0.26861800  0.05780100  0.65887400  1
  O  O52  1  0.00444500  0.71334000  0.24306100  1
  O  O53  1  0.49555500  0.21334000  0.25693900  1
  O  O54  1  0.99555500  0.28666000  0.75693900  1
  O  O55  1  0.50444500  0.78666000  0.74306100  1
  O  O56  1  0.75182500  0.54755000  0.68457800  1
  O  O57  1  0.74817500  0.04755000  0.81542200  1
  O  O58  1  0.24817500  0.45245000  0.31542200  1
  O  O59  1  0.25182500  0.95245000  0.18457800  1
  O  O60  1  0.74475500  0.87794100  0.64399600  1
  O  O61  1  0.75524500  0.37794100  0.85600400  1
  O  O62  1  0.25524500  0.12205900  0.35600400  1
  O  O63  1  0.24475500  0.62205900  0.14399600  1
  O  O64  1  0.51892200  0.43839200  0.05946900  1
  O  O65  1  0.98107800  0.93839200  0.44053100  1
  O  O66  1  0.48107800  0.56160800  0.94053100  1
  O  O67  1  0.01892200  0.06160800  0.55946900  1
