# generated using pymatgen
data_CaV(Si2O7)2
_symmetry_space_group_name_H-M   'P 1'
_cell_length_a   8.60752833
_cell_length_b   8.60752833
_cell_length_c   9.05750600
_cell_angle_alpha   90.00000000
_cell_angle_beta   90.00000000
_cell_angle_gamma   104.01200449
_symmetry_Int_Tables_number   1
_chemical_formula_structural   CaV(Si2O7)2
_chemical_formula_sum   'Ca2 V2 Si8 O28'
_cell_volume   651.09891757
_cell_formula_units_Z   2
loop_
 _symmetry_equiv_pos_site_id
 _symmetry_equiv_pos_as_xyz
  1  'x, y, z'
loop_
 _atom_site_type_symbol
 _atom_site_label
 _atom_site_symmetry_multiplicity
 _atom_site_fract_x
 _atom_site_fract_y
 _atom_site_fract_z
 _atom_site_occupancy
  Ca  Ca0  1  0.22227000  0.22227000  0.79389600  1
  Ca  Ca1  1  0.77773000  0.77773000  0.29389600  1
  V  V2  1  0.95194900  0.95194900  0.61481300  1
  V  V3  1  0.04805100  0.04805100  0.11481300  1
  Si  Si4  1  0.31562500  0.88468800  0.64855200  1
  Si  Si5  1  0.88468800  0.31562500  0.64855200  1
  Si  Si6  1  0.68437500  0.11531200  0.14855200  1
  Si  Si7  1  0.11531200  0.68437500  0.14855200  1
  Si  Si8  1  0.36108200  0.92714000  0.98920600  1
  Si  Si9  1  0.92714100  0.36108200  0.98920700  1
  Si  Si10  1  0.63891800  0.07286000  0.48920600  1
  Si  Si11  1  0.07286000  0.63891800  0.48920600  1
  O  O12  1  0.17778300  0.98775000  0.64500800  1
  O  O13  1  0.98775000  0.17778300  0.64500800  1
  O  O14  1  0.82221700  0.01225000  0.14500800  1
  O  O15  1  0.01225000  0.82221700  0.14500800  1
  O  O16  1  0.22989800  0.03907500  0.99559900  1
  O  O17  1  0.03907500  0.22989800  0.99559900  1
  O  O18  1  0.77010200  0.96092500  0.49559900  1
  O  O19  1  0.96092500  0.77010200  0.49559900  1
  O  O20  1  0.46630500  0.97047700  0.54591000  1
  O  O21  1  0.97047700  0.46630500  0.54591000  1
  O  O22  1  0.53369500  0.02952300  0.04591000  1
  O  O23  1  0.02952300  0.53369500  0.04591000  1
  O  O24  1  0.23374100  0.70475900  0.58844600  1
  O  O25  1  0.70475900  0.23374100  0.58844600  1
  O  O26  1  0.76625900  0.29524100  0.08844600  1
  O  O27  1  0.29524100  0.76625900  0.08844600  1
  O  O28  1  0.38005400  0.88010500  0.81702700  1
  O  O29  1  0.88010500  0.38005400  0.81702700  1
  O  O30  1  0.61994600  0.11989500  0.31702700  1
  O  O31  1  0.11989500  0.61994600  0.31702700  1
  O  O32  1  0.88205200  0.88205200  0.77286500  1
  O  O33  1  0.11794800  0.11794800  0.27286500  1
  O  O34  1  0.48718000  0.39258600  0.83727900  1
  O  O35  1  0.39258600  0.48718000  0.83727900  1
  O  O36  1  0.51282000  0.60741400  0.33727900  1
  O  O37  1  0.60741400  0.51282000  0.33727900  1
  O  O38  1  0.34466700  0.34466700  0.59276100  1
  O  O39  1  0.65533300  0.65533300  0.09276100  1
