# generated using pymatgen
data_Cs4Ge5(PbS4)4
_symmetry_space_group_name_H-M   'P 1'
_cell_length_a   20.01857062
_cell_length_b   20.01857062
_cell_length_c   19.97744200
_cell_angle_alpha   90.00000000
_cell_angle_beta   90.00000000
_cell_angle_gamma   152.74690999
_symmetry_Int_Tables_number   1
_chemical_formula_structural   Cs4Ge5(PbS4)4
_chemical_formula_sum   'Cs16 Ge20 Pb16 S64'
_cell_volume   3666.04155374
_cell_formula_units_Z   4
loop_
 _symmetry_equiv_pos_site_id
 _symmetry_equiv_pos_as_xyz
  1  'x, y, z'
loop_
 _atom_site_type_symbol
 _atom_site_label
 _atom_site_symmetry_multiplicity
 _atom_site_fract_x
 _atom_site_fract_y
 _atom_site_fract_z
 _atom_site_occupancy
  Cs  Cs0  1  0.40589100  0.02034100  0.94384800  1
  Cs  Cs1  1  0.97965900  0.59410900  0.05615200  1
  Cs  Cs2  1  0.47965900  0.09410900  0.44384800  1
  Cs  Cs3  1  0.90589100  0.52034100  0.55615200  1
  Cs  Cs4  1  0.59410900  0.97965900  0.05615200  1
  Cs  Cs5  1  0.02034100  0.40589100  0.94384800  1
  Cs  Cs6  1  0.52034100  0.90589100  0.55615200  1
  Cs  Cs7  1  0.09410900  0.47965900  0.44384800  1
  Cs  Cs8  1  0.38282600  0.18047600  0.79279800  1
  Cs  Cs9  1  0.81952400  0.61717400  0.20720200  1
  Cs  Cs10  1  0.31952400  0.11717400  0.29279800  1
  Cs  Cs11  1  0.88282600  0.68047600  0.70720200  1
  Cs  Cs12  1  0.61717400  0.81952400  0.20720200  1
  Cs  Cs13  1  0.18047600  0.38282600  0.79279800  1
  Cs  Cs14  1  0.68047600  0.88282600  0.70720200  1
  Cs  Cs15  1  0.11717400  0.31952400  0.29279800  1
  Ge  Ge16  1  0.40541700  0.03266800  0.15318300  1
  Ge  Ge17  1  0.96733200  0.59458300  0.84681700  1
  Ge  Ge18  1  0.46733200  0.09458300  0.65318300  1
  Ge  Ge19  1  0.90541700  0.53266800  0.34681700  1
  Ge  Ge20  1  0.59458300  0.96733200  0.84681700  1
  Ge  Ge21  1  0.03266800  0.40541700  0.15318300  1
  Ge  Ge22  1  0.53266800  0.90541700  0.34681700  1
  Ge  Ge23  1  0.09458300  0.46733200  0.65318300  1
  Ge  Ge24  1  0.14322100  0.14322100  0.86816500  1
  Ge  Ge25  1  0.85677900  0.85677900  0.13183500  1
  Ge  Ge26  1  0.35677900  0.35677900  0.36816500  1
  Ge  Ge27  1  0.64322100  0.64322100  0.63183500  1
  Ge  Ge28  1  0.41711900  0.18517200  0.08664800  1
  Ge  Ge29  1  0.81482800  0.58288100  0.91335200  1
  Ge  Ge30  1  0.31482800  0.08288100  0.58664800  1
  Ge  Ge31  1  0.91711900  0.68517200  0.41335200  1
  Ge  Ge32  1  0.58288100  0.81482800  0.91335200  1
  Ge  Ge33  1  0.18517200  0.41711900  0.08664800  1
  Ge  Ge34  1  0.68517200  0.91711900  0.41335200  1
  Ge  Ge35  1  0.08288100  0.31482800  0.58664800  1
  Pb  Pb36  1  0.27121300  0.27121300  0.67234800  1
  Pb  Pb37  1  0.72878700  0.72878700  0.32765200  1
  Pb  Pb38  1  0.22878700  0.22878700  0.17234800  1
  Pb  Pb39  1  0.77121300  0.77121300  0.82765200  1
  Pb  Pb40  1  0.30333900  0.80333900  0.25000000  1
  Pb  Pb41  1  0.19666100  0.69666100  0.75000000  1
  Pb  Pb42  1  0.69666100  0.19666100  0.75000000  1
  Pb  Pb43  1  0.80333900  0.30333900  0.25000000  1
  Pb  Pb44  1  0.05595800  0.94404200  0.00000000  1
  Pb  Pb45  1  0.55595800  0.44404200  0.50000000  1
  Pb  Pb46  1  0.94404200  0.05595800  0.00000000  1
  Pb  Pb47  1  0.44404200  0.55595800  0.50000000  1
  Pb  Pb48  1  0.55413600  0.44586400  0.00000000  1
  Pb  Pb49  1  0.05413600  0.94586400  0.50000000  1
  Pb  Pb50  1  0.44586400  0.55413600  0.00000000  1
  Pb  Pb51  1  0.94586400  0.05413600  0.50000000  1
  S  S52  1  0.20070200  0.20070200  0.97910200  1
  S  S53  1  0.79929800  0.79929800  0.02089800  1
  S  S54  1  0.29929800  0.29929800  0.47910200  1
  S  S55  1  0.70070200  0.70070200  0.52089800  1
  S  S56  1  0.38447500  0.18020000  0.97941800  1
  S  S57  1  0.81980000  0.61552500  0.02058200  1
  S  S58  1  0.31980000  0.11552500  0.47941800  1
  S  S59  1  0.88447500  0.68020000  0.52058200  1
  S  S60  1  0.61552500  0.81980000  0.02058200  1
  S  S61  1  0.18020000  0.38447500  0.97941800  1
  S  S62  1  0.68020000  0.88447500  0.52058200  1
  S  S63  1  0.11552500  0.31980000  0.47941800  1
  S  S64  1  0.04199400  0.76891700  0.86911000  1
  S  S65  1  0.23108300  0.95800600  0.13089000  1
  S  S66  1  0.73108300  0.45800600  0.36911000  1
  S  S67  1  0.54199400  0.26891700  0.63089000  1
  S  S68  1  0.95800600  0.23108300  0.13089000  1
  S  S69  1  0.76891700  0.04199400  0.86911000  1
  S  S70  1  0.26891700  0.54199400  0.63089000  1
  S  S71  1  0.45800600  0.73108300  0.36911000  1
  S  S72  1  0.34707700  0.88597900  0.10673800  1
  S  S73  1  0.11402100  0.65292300  0.89326200  1
  S  S74  1  0.61402100  0.15292300  0.60673800  1
  S  S75  1  0.84707700  0.38597900  0.39326200  1
  S  S76  1  0.65292300  0.11402100  0.89326200  1
  S  S77  1  0.88597900  0.34707700  0.10673800  1
  S  S78  1  0.38597900  0.84707700  0.39326200  1
  S  S79  1  0.15292300  0.61402100  0.60673800  1
  S  S80  1  0.58589200  0.25255200  0.10123700  1
  S  S81  1  0.74744800  0.41410800  0.89876300  1
  S  S82  1  0.24744800  0.91410800  0.60123700  1
  S  S83  1  0.08589200  0.75255200  0.39876300  1
  S  S84  1  0.41410800  0.74744800  0.89876300  1
  S  S85  1  0.25255200  0.58589200  0.10123700  1
  S  S86  1  0.75255200  0.08589200  0.39876300  1
  S  S87  1  0.91410800  0.24744800  0.60123700  1
  S  S88  1  0.46952600  0.32491400  0.13858700  1
  S  S89  1  0.67508600  0.53047400  0.86141300  1
  S  S90  1  0.17508600  0.03047400  0.63858700  1
  S  S91  1  0.96952600  0.82491400  0.36141300  1
  S  S92  1  0.53047400  0.67508600  0.86141300  1
  S  S93  1  0.32491400  0.46952600  0.13858700  1
  S  S94  1  0.82491400  0.96952600  0.36141300  1
  S  S95  1  0.03047400  0.17508600  0.63858700  1
  S  S96  1  0.55713700  0.94939700  0.23966500  1
  S  S97  1  0.05060300  0.44286300  0.76033500  1
  S  S98  1  0.55060300  0.94286300  0.73966500  1
  S  S99  1  0.05713700  0.44939700  0.26033500  1
  S  S100  1  0.44286300  0.05060300  0.76033500  1
  S  S101  1  0.94939700  0.55713700  0.23966500  1
  S  S102  1  0.44939700  0.05713700  0.26033500  1
  S  S103  1  0.94286300  0.55060300  0.73966500  1
  S  S104  1  0.45494600  0.54528500  0.64810400  1
  S  S105  1  0.45471500  0.54505400  0.35189600  1
  S  S106  1  0.95471500  0.04505400  0.14810400  1
  S  S107  1  0.95494600  0.04528500  0.85189600  1
  S  S108  1  0.54505400  0.45471500  0.35189600  1
  S  S109  1  0.54528500  0.45494600  0.64810400  1
  S  S110  1  0.04528500  0.95494600  0.85189600  1
  S  S111  1  0.04505400  0.95471500  0.14810400  1
  S  S112  1  0.34133200  0.34133200  0.80931100  1
  S  S113  1  0.65866800  0.65866800  0.19068900  1
  S  S114  1  0.15866800  0.15866800  0.30931100  1
  S  S115  1  0.84133200  0.84133200  0.69068900  1
