# generated using pymatgen
data_K3RhCl6O
_symmetry_space_group_name_H-M   'P 1'
_cell_length_a   12.42619000
_cell_length_b   12.60133900
_cell_length_c   15.56522900
_cell_angle_alpha   90.00000000
_cell_angle_beta   90.00000000
_cell_angle_gamma   90.00000000
_symmetry_Int_Tables_number   1
_chemical_formula_structural   K3RhCl6O
_chemical_formula_sum   'K24 Rh8 Cl48 O8'
_cell_volume   2437.30679582
_cell_formula_units_Z   8
loop_
 _symmetry_equiv_pos_site_id
 _symmetry_equiv_pos_as_xyz
  1  'x, y, z'
loop_
 _atom_site_type_symbol
 _atom_site_label
 _atom_site_symmetry_multiplicity
 _atom_site_fract_x
 _atom_site_fract_y
 _atom_site_fract_z
 _atom_site_occupancy
  K  K0  1  0.88393600  0.10894900  0.92542300  1
  K  K1  1  0.38393600  0.39105100  0.57457700  1
  K  K2  1  0.11606400  0.60894900  0.57457700  1
  K  K3  1  0.61606400  0.89105100  0.92542300  1
  K  K4  1  0.11606400  0.89105100  0.07457700  1
  K  K5  1  0.61606400  0.60894900  0.42542300  1
  K  K6  1  0.88393600  0.39105100  0.42542300  1
  K  K7  1  0.38393600  0.10894900  0.07457700  1
  K  K8  1  0.73549400  0.26537500  0.66447900  1
  K  K9  1  0.23549400  0.23462500  0.83552100  1
  K  K10  1  0.26450600  0.76537500  0.83552100  1
  K  K11  1  0.76450600  0.73462500  0.66447900  1
  K  K12  1  0.26450600  0.73462500  0.33552100  1
  K  K13  1  0.76450600  0.76537500  0.16447900  1
  K  K14  1  0.73549400  0.23462500  0.16447900  1
  K  K15  1  0.23549400  0.26537500  0.33552100  1
  K  K16  1  0.97354000  0.46606600  0.84023500  1
  K  K17  1  0.47354000  0.03393400  0.65976500  1
  K  K18  1  0.02646000  0.96606600  0.65976500  1
  K  K19  1  0.52646000  0.53393400  0.84023500  1
  K  K20  1  0.02646000  0.53393400  0.15976500  1
  K  K21  1  0.52646000  0.96606600  0.34023500  1
  K  K22  1  0.97354000  0.03393400  0.34023500  1
  K  K23  1  0.47354000  0.46606600  0.15976500  1
  Rh  Rh24  1  0.55792000  0.21535600  0.87126200  1
  Rh  Rh25  1  0.05792000  0.28464400  0.62873800  1
  Rh  Rh26  1  0.44208000  0.71535600  0.62873800  1
  Rh  Rh27  1  0.94208000  0.78464400  0.87126200  1
  Rh  Rh28  1  0.44208000  0.78464400  0.12873800  1
  Rh  Rh29  1  0.94208000  0.71535600  0.37126200  1
  Rh  Rh30  1  0.55792000  0.28464400  0.37126200  1
  Rh  Rh31  1  0.05792000  0.21535600  0.12873800  1
  Cl  Cl32  1  0.69570900  0.34539900  0.86735400  1
  Cl  Cl33  1  0.19570900  0.15460100  0.63264600  1
  Cl  Cl34  1  0.30429100  0.84539900  0.63264600  1
  Cl  Cl35  1  0.80429100  0.65460100  0.86735400  1
  Cl  Cl36  1  0.30429100  0.65460100  0.13264600  1
  Cl  Cl37  1  0.80429100  0.84539900  0.36735400  1
  Cl  Cl38  1  0.69570900  0.15460100  0.36735400  1
  Cl  Cl39  1  0.19570900  0.34539900  0.13264600  1
  Cl  Cl40  1  0.42317100  0.07906800  0.87130200  1
  Cl  Cl41  1  0.92317100  0.42093200  0.62869800  1
  Cl  Cl42  1  0.57682900  0.57906800  0.62869800  1
  Cl  Cl43  1  0.07682900  0.92093200  0.87130200  1
  Cl  Cl44  1  0.57682900  0.92093200  0.12869800  1
  Cl  Cl45  1  0.07682900  0.57906800  0.37130200  1
  Cl  Cl46  1  0.42317100  0.42093200  0.37130200  1
  Cl  Cl47  1  0.92317100  0.07906800  0.12869800  1
  Cl  Cl48  1  0.48110300  0.28593600  0.74350600  1
  Cl  Cl49  1  0.98110300  0.21406400  0.75649400  1
  Cl  Cl50  1  0.51889700  0.78593600  0.75649400  1
  Cl  Cl51  1  0.01889700  0.71406400  0.74350600  1
  Cl  Cl52  1  0.51889700  0.71406400  0.25649400  1
  Cl  Cl53  1  0.01889700  0.78593600  0.24350600  1
  Cl  Cl54  1  0.48110300  0.21406400  0.24350600  1
  Cl  Cl55  1  0.98110300  0.28593600  0.25649400  1
  Cl  Cl56  1  0.63374800  0.14137000  0.99639900  1
  Cl  Cl57  1  0.13374800  0.35863000  0.50360100  1
  Cl  Cl58  1  0.36625200  0.64137000  0.50360100  1
  Cl  Cl59  1  0.86625200  0.85863000  0.99639900  1
  Cl  Cl60  1  0.36625200  0.85863000  0.00360100  1
  Cl  Cl61  1  0.86625200  0.64137000  0.49639900  1
  Cl  Cl62  1  0.63374800  0.35863000  0.49639900  1
  Cl  Cl63  1  0.13374800  0.14137000  0.00360100  1
  Cl  Cl64  1  0.66723200  0.09765300  0.79195100  1
  Cl  Cl65  1  0.16723200  0.40234700  0.70804900  1
  Cl  Cl66  1  0.33276800  0.59765300  0.70804900  1
  Cl  Cl67  1  0.83276800  0.90234700  0.79195100  1
  Cl  Cl68  1  0.33276800  0.90234700  0.20804900  1
  Cl  Cl69  1  0.83276800  0.59765300  0.29195100  1
  Cl  Cl70  1  0.66723200  0.40234700  0.29195100  1
  Cl  Cl71  1  0.16723200  0.09765300  0.20804900  1
  Cl  Cl72  1  0.44473700  0.32541200  0.95393200  1
  Cl  Cl73  1  0.94473700  0.17458800  0.54606800  1
  Cl  Cl74  1  0.55526300  0.82541200  0.54606800  1
  Cl  Cl75  1  0.05526300  0.67458800  0.95393200  1
  Cl  Cl76  1  0.55526300  0.67458800  0.04606800  1
  Cl  Cl77  1  0.05526300  0.82541200  0.45393200  1
  Cl  Cl78  1  0.44473700  0.17458800  0.45393200  1
  Cl  Cl79  1  0.94473700  0.32541200  0.04606800  1
  O  O80  1  0.66679500  0.08575600  0.57118200  1
  O  O81  1  0.16679500  0.41424400  0.92881800  1
  O  O82  1  0.33320500  0.58575600  0.92881800  1
  O  O83  1  0.83320500  0.91424400  0.57118200  1
  O  O84  1  0.33320500  0.91424400  0.42881800  1
  O  O85  1  0.83320500  0.58575600  0.07118200  1
  O  O86  1  0.66679500  0.41424400  0.07118200  1
  O  O87  1  0.16679500  0.08575600  0.42881800  1
