# generated using pymatgen
data_ThV2SeO9
_symmetry_space_group_name_H-M   'P 1'
_cell_length_a   6.93870700
_cell_length_b   7.25145400
_cell_length_c   14.71421300
_cell_angle_alpha   90.00000000
_cell_angle_beta   90.00000000
_cell_angle_gamma   90.00000000
_symmetry_Int_Tables_number   1
_chemical_formula_structural   ThV2SeO9
_chemical_formula_sum   'Th4 V8 Se4 O36'
_cell_volume   740.35614231
_cell_formula_units_Z   4
loop_
 _symmetry_equiv_pos_site_id
 _symmetry_equiv_pos_as_xyz
  1  'x, y, z'
loop_
 _atom_site_type_symbol
 _atom_site_label
 _atom_site_symmetry_multiplicity
 _atom_site_fract_x
 _atom_site_fract_y
 _atom_site_fract_z
 _atom_site_occupancy
  Th  Th0  1  0.85464300  0.25000000  0.95407700  1
  Th  Th1  1  0.14535700  0.75000000  0.04592300  1
  Th  Th2  1  0.85464300  0.75000000  0.54592300  1
  Th  Th3  1  0.14535700  0.25000000  0.45407700  1
  V  V4  1  0.43768000  0.00000000  0.25000000  1
  V  V5  1  0.56232000  0.50000000  0.75000000  1
  V  V6  1  0.56232000  0.00000000  0.75000000  1
  V  V7  1  0.43768000  0.50000000  0.25000000  1
  V  V8  1  0.80195800  0.25000000  0.22956300  1
  V  V9  1  0.19804200  0.75000000  0.77043700  1
  V  V10  1  0.80195800  0.75000000  0.27043700  1
  V  V11  1  0.19804200  0.25000000  0.72956300  1
  Se  Se12  1  0.30793000  0.25000000  0.04352600  1
  Se  Se13  1  0.69207000  0.75000000  0.95647400  1
  Se  Se14  1  0.30793000  0.75000000  0.45647400  1
  Se  Se15  1  0.69207000  0.25000000  0.54352600  1
  O  O16  1  0.17202900  0.07471500  0.98994100  1
  O  O17  1  0.82797100  0.57471500  0.01005900  1
  O  O18  1  0.17202900  0.92528500  0.51005900  1
  O  O19  1  0.82797100  0.42528500  0.48994100  1
  O  O20  1  0.82797100  0.92528500  0.01005900  1
  O  O21  1  0.17202900  0.42528500  0.98994100  1
  O  O22  1  0.82797100  0.07471500  0.48994100  1
  O  O23  1  0.17202900  0.57471500  0.51005900  1
  O  O24  1  0.52321600  0.25000000  0.98722500  1
  O  O25  1  0.47678400  0.75000000  0.01277500  1
  O  O26  1  0.52321600  0.75000000  0.51277500  1
  O  O27  1  0.47678400  0.25000000  0.48722500  1
  O  O28  1  0.30014800  0.95061300  0.15871600  1
  O  O29  1  0.69985200  0.45061300  0.84128400  1
  O  O30  1  0.30014800  0.04938700  0.34128400  1
  O  O31  1  0.69985200  0.54938700  0.65871600  1
  O  O32  1  0.69985200  0.04938700  0.84128400  1
  O  O33  1  0.30014800  0.54938700  0.15871600  1
  O  O34  1  0.69985200  0.95061300  0.65871600  1
  O  O35  1  0.30014800  0.45061300  0.34128400  1
  O  O36  1  0.51174900  0.75000000  0.27903100  1
  O  O37  1  0.48825100  0.25000000  0.72096900  1
  O  O38  1  0.51174900  0.25000000  0.22096900  1
  O  O39  1  0.48825100  0.75000000  0.77903100  1
  O  O40  1  0.72110700  0.00000000  0.25000000  1
  O  O41  1  0.27889300  0.50000000  0.75000000  1
  O  O42  1  0.27889300  0.00000000  0.75000000  1
  O  O43  1  0.72110700  0.50000000  0.25000000  1
  O  O44  1  0.97201800  0.25000000  0.31164900  1
  O  O45  1  0.02798200  0.75000000  0.68835100  1
  O  O46  1  0.97201800  0.75000000  0.18835100  1
  O  O47  1  0.02798200  0.25000000  0.81164900  1
  O  O48  1  0.89940800  0.25000000  0.12474300  1
  O  O49  1  0.10059200  0.75000000  0.87525700  1
  O  O50  1  0.89940800  0.75000000  0.37525700  1
  O  O51  1  0.10059200  0.25000000  0.62474300  1
