# generated using pymatgen
data_BaLa2Ti3O10
_symmetry_space_group_name_H-M   'P 1'
_cell_length_a   14.49959710
_cell_length_b   14.49959710
_cell_length_c   7.74441300
_cell_angle_alpha   90.00000000
_cell_angle_beta   90.00000000
_cell_angle_gamma   164.45632388
_symmetry_Int_Tables_number   1
_chemical_formula_structural   BaLa2Ti3O10
_chemical_formula_sum   'Ba2 La4 Ti6 O20'
_cell_volume   436.30601079
_cell_formula_units_Z   2
loop_
 _symmetry_equiv_pos_site_id
 _symmetry_equiv_pos_as_xyz
  1  'x, y, z'
loop_
 _atom_site_type_symbol
 _atom_site_label
 _atom_site_symmetry_multiplicity
 _atom_site_fract_x
 _atom_site_fract_y
 _atom_site_fract_z
 _atom_site_occupancy
  Ba  Ba0  1  0.73498200  0.26501800  0.75000000  1
  Ba  Ba1  1  0.26501800  0.73498200  0.25000000  1
  La  La2  1  0.42305900  0.57694100  0.75000000  1
  La  La3  1  0.57694100  0.42305900  0.25000000  1
  La  La4  1  0.57449500  0.42550500  0.75000000  1
  La  La5  1  0.42550500  0.57449500  0.25000000  1
  Ti  Ti6  1  0.00000000  0.00000000  0.00000000  1
  Ti  Ti7  1  0.00000000  0.00000000  0.50000000  1
  Ti  Ti8  1  0.85322100  0.14677900  0.00076800  1
  Ti  Ti9  1  0.14677900  0.85322100  0.99923200  1
  Ti  Ti10  1  0.85322100  0.14677900  0.49923200  1
  Ti  Ti11  1  0.14677900  0.85322100  0.50076800  1
  O  O12  1  0.50000000  0.50000000  0.00000000  1
  O  O13  1  0.50000000  0.50000000  0.50000000  1
  O  O14  1  0.00368300  0.99631700  0.75000000  1
  O  O15  1  0.99631700  0.00368300  0.25000000  1
  O  O16  1  0.12917900  0.87082100  0.75000000  1
  O  O17  1  0.87082100  0.12917900  0.25000000  1
  O  O18  1  0.86308200  0.13691800  0.75000000  1
  O  O19  1  0.13691800  0.86308200  0.25000000  1
  O  O20  1  0.93242300  0.06757700  0.98672400  1
  O  O21  1  0.06757700  0.93242300  0.01327600  1
  O  O22  1  0.93242300  0.06757700  0.51327600  1
  O  O23  1  0.06757700  0.93242300  0.48672400  1
  O  O24  1  0.79209000  0.20791000  0.02778800  1
  O  O25  1  0.20791000  0.79209000  0.97221200  1
  O  O26  1  0.79209000  0.20791000  0.47221200  1
  O  O27  1  0.20791000  0.79209000  0.52778800  1
  O  O28  1  0.36711100  0.63288900  0.00366600  1
  O  O29  1  0.63288900  0.36711100  0.99633400  1
  O  O30  1  0.36711100  0.63288900  0.49633400  1
  O  O31  1  0.63288900  0.36711100  0.50366600  1
