# generated using pymatgen
data_Cu4As3PbO12
_symmetry_space_group_name_H-M   'P 1'
_cell_length_a   5.30281811
_cell_length_b   8.56325392
_cell_length_c   11.51994975
_cell_angle_alpha   89.52680902
_cell_angle_beta   90.10292048
_cell_angle_gamma   86.25310760
_symmetry_Int_Tables_number   1
_chemical_formula_structural   Cu4As3PbO12
_chemical_formula_sum   'Cu8 As6 Pb2 O24'
_cell_volume   521.97634786
_cell_formula_units_Z   2
loop_
 _symmetry_equiv_pos_site_id
 _symmetry_equiv_pos_as_xyz
  1  'x, y, z'
loop_
 _atom_site_type_symbol
 _atom_site_label
 _atom_site_symmetry_multiplicity
 _atom_site_fract_x
 _atom_site_fract_y
 _atom_site_fract_z
 _atom_site_occupancy
  Cu  Cu0  1  0.27230000  0.94979900  0.97672700  1
  Cu  Cu1  1  0.72770000  0.05020100  0.02327300  1
  Cu  Cu2  1  0.50000000  0.50000000  0.00000000  1
  Cu  Cu3  1  0.50000000  0.00000000  0.50000000  1
  Cu  Cu4  1  0.98337500  0.70504200  0.16870500  1
  Cu  Cu5  1  0.01662500  0.29495800  0.83129500  1
  Cu  Cu6  1  0.96574600  0.08110900  0.32045900  1
  Cu  Cu7  1  0.03425400  0.91889100  0.67954100  1
  As  As8  1  0.48157400  0.90285800  0.23193800  1
  As  As9  1  0.51842600  0.09714200  0.76806200  1
  As  As10  1  0.96071900  0.72936300  0.44920500  1
  As  As11  1  0.03928100  0.27063700  0.55079500  1
  As  As12  1  0.04136000  0.33961700  0.11059400  1
  As  As13  1  0.95864000  0.66038300  0.88940600  1
  Pb  Pb14  1  0.49749700  0.45913500  0.33114700  1
  Pb  Pb15  1  0.50250300  0.54086500  0.66885300  1
  O  O16  1  0.32477800  0.97440600  0.35566500  1
  O  O17  1  0.67522200  0.02559400  0.64433500  1
  O  O18  1  0.63287300  0.71857000  0.23701400  1
  O  O19  1  0.36712700  0.28143000  0.76298600  1
  O  O20  1  0.23549400  0.89460300  0.13290700  1
  O  O21  1  0.76450600  0.10539700  0.86709300  1
  O  O22  1  0.69712300  0.03690600  0.18649200  1
  O  O23  1  0.30287700  0.96309400  0.81350800  1
  O  O24  1  0.17514400  0.75152600  0.55889600  1
  O  O25  1  0.82485600  0.24847400  0.44110400  1
  O  O26  1  0.81143500  0.91809200  0.41727600  1
  O  O27  1  0.18856500  0.08190800  0.58272400  1
  O  O28  1  0.11821700  0.65953900  0.32549800  1
  O  O29  1  0.88178300  0.34046100  0.67450200  1
  O  O30  1  0.72589100  0.60924000  0.48585200  1
  O  O31  1  0.27410900  0.39076000  0.51414800  1
  O  O32  1  0.13419500  0.24277400  0.23585300  1
  O  O33  1  0.86580500  0.75722600  0.76414600  1
  O  O34  1  0.13594300  0.23364500  0.98862200  1
  O  O35  1  0.86405700  0.76635500  0.01137800  1
  O  O36  1  0.21608600  0.50861800  0.11175500  1
  O  O37  1  0.78391400  0.49138200  0.88824500  1
  O  O38  1  0.72141900  0.39579900  0.11847300  1
  O  O39  1  0.27858100  0.60420100  0.88152700  1
