# generated using pymatgen
data_H3Se2NO6
_symmetry_space_group_name_H-M   'P 1'
_cell_length_a   6.29353700
_cell_length_b   6.60227100
_cell_length_c   18.79274200
_cell_angle_alpha   90.00000000
_cell_angle_beta   90.00000000
_cell_angle_gamma   90.00000000
_symmetry_Int_Tables_number   1
_chemical_formula_structural   H3Se2NO6
_chemical_formula_sum   'H12 Se8 N4 O24'
_cell_volume   780.86919048
_cell_formula_units_Z   4
loop_
 _symmetry_equiv_pos_site_id
 _symmetry_equiv_pos_as_xyz
  1  'x, y, z'
loop_
 _atom_site_type_symbol
 _atom_site_label
 _atom_site_symmetry_multiplicity
 _atom_site_fract_x
 _atom_site_fract_y
 _atom_site_fract_z
 _atom_site_occupancy
  H  H0  1  0.49094500  0.25015600  0.21619800  1
  H  H1  1  0.50905500  0.75015600  0.28380200  1
  H  H2  1  0.00905500  0.74984400  0.71619800  1
  H  H3  1  0.99094500  0.24984400  0.78380200  1
  H  H4  1  0.73431200  0.19332100  0.49912000  1
  H  H5  1  0.26568800  0.69332100  0.00088000  1
  H  H6  1  0.76568800  0.80667900  0.99912000  1
  H  H7  1  0.23431200  0.30667900  0.50088000  1
  H  H8  1  0.83805700  0.01249800  0.35849900  1
  H  H9  1  0.16194300  0.51249800  0.14150100  1
  H  H10  1  0.66194300  0.98750200  0.85849900  1
  H  H11  1  0.33805700  0.48750200  0.64150100  1
  Se  Se12  1  0.97017300  0.44989900  0.65212400  1
  Se  Se13  1  0.02982700  0.94989900  0.84787600  1
  Se  Se14  1  0.52982700  0.55010100  0.15212400  1
  Se  Se15  1  0.47017300  0.05010100  0.34787600  1
  Se  Se16  1  0.98883100  0.45115600  0.99326300  1
  Se  Se17  1  0.01116900  0.95115600  0.50673700  1
  Se  Se18  1  0.51116900  0.54884400  0.49326300  1
  Se  Se19  1  0.48883100  0.04884400  0.00673700  1
  N  N20  1  0.49174500  0.97608500  0.67136900  1
  N  N21  1  0.50825500  0.47608500  0.82863100  1
  N  N22  1  0.00825500  0.02391500  0.17136900  1
  N  N23  1  0.99174500  0.52391500  0.32863100  1
  O  O24  1  0.24111700  0.42504600  0.67797800  1
  O  O25  1  0.75888400  0.92504600  0.82202200  1
  O  O26  1  0.25888300  0.57495400  0.17797800  1
  O  O27  1  0.74111600  0.07495400  0.32202200  1
  O  O28  1  0.93210800  0.71041600  0.66967200  1
  O  O29  1  0.06789200  0.21041600  0.83032800  1
  O  O30  1  0.56789200  0.28958400  0.16967200  1
  O  O31  1  0.43210800  0.78958400  0.33032800  1
  O  O32  1  0.24490800  0.54968000  0.97648600  1
  O  O33  1  0.75509200  0.04968000  0.52351400  1
  O  O34  1  0.25509200  0.45032000  0.47648600  1
  O  O35  1  0.74490800  0.95032000  0.02351400  1
  O  O36  1  0.81294200  0.62342900  0.96145000  1
  O  O37  1  0.18705800  0.12342900  0.53855000  1
  O  O38  1  0.68705800  0.37657100  0.46145000  1
  O  O39  1  0.31294200  0.87657100  0.03855000  1
  O  O40  1  0.96650900  0.44141200  0.08239300  1
  O  O41  1  0.03349100  0.94141200  0.41760700  1
  O  O42  1  0.53349100  0.55858800  0.58239300  1
  O  O43  1  0.46650900  0.05858800  0.91760700  1
  O  O44  1  0.86009200  0.31563800  0.71720900  1
  O  O45  1  0.13990800  0.81563800  0.78279100  1
  O  O46  1  0.63990800  0.68436200  0.21720900  1
  O  O47  1  0.36009200  0.18436200  0.28279100  1
