# generated using pymatgen
data_HgH4C2S2(N3Cl)2
_symmetry_space_group_name_H-M   'P 1'
_cell_length_a   8.56332000
_cell_length_b   11.26917500
_cell_length_c   20.36917900
_cell_angle_alpha   90.00000000
_cell_angle_beta   90.00000000
_cell_angle_gamma   90.00000000
_symmetry_Int_Tables_number   1
_chemical_formula_structural   HgH4C2S2(N3Cl)2
_chemical_formula_sum   'Hg4 H16 C8 S8 N24 Cl8'
_cell_volume   1965.65737956
_cell_formula_units_Z   4
loop_
 _symmetry_equiv_pos_site_id
 _symmetry_equiv_pos_as_xyz
  1  'x, y, z'
loop_
 _atom_site_type_symbol
 _atom_site_label
 _atom_site_symmetry_multiplicity
 _atom_site_fract_x
 _atom_site_fract_y
 _atom_site_fract_z
 _atom_site_occupancy
  Hg  Hg0  1  0.22403300  0.00000000  0.25000000  1
  Hg  Hg1  1  0.27596700  0.50000000  0.75000000  1
  Hg  Hg2  1  0.77596700  0.00000000  0.75000000  1
  Hg  Hg3  1  0.72403300  0.50000000  0.25000000  1
  H  H4  1  0.26518500  0.68816700  0.27377800  1
  H  H5  1  0.23481500  0.81183300  0.77377800  1
  H  H6  1  0.23481500  0.18816700  0.72622200  1
  H  H7  1  0.26518500  0.31183300  0.22622200  1
  H  H8  1  0.73481500  0.31183300  0.72622200  1
  H  H9  1  0.76518500  0.18816700  0.22622200  1
  H  H10  1  0.76518500  0.81183300  0.27377800  1
  H  H11  1  0.73481500  0.68816700  0.77377800  1
  H  H12  1  0.04047600  0.67097900  0.49755500  1
  H  H13  1  0.45952400  0.82902100  0.99755500  1
  H  H14  1  0.45952400  0.17097900  0.50244500  1
  H  H15  1  0.04047600  0.32902100  0.00244500  1
  H  H16  1  0.95952400  0.32902100  0.50244500  1
  H  H17  1  0.54047600  0.17097900  0.00244500  1
  H  H18  1  0.54047600  0.82902100  0.49755500  1
  H  H19  1  0.95952400  0.67097900  0.99755500  1
  C  C20  1  0.08423600  0.83978800  0.46479000  1
  C  C21  1  0.41576400  0.66021200  0.96479000  1
  C  C22  1  0.41576400  0.33978800  0.53521000  1
  C  C23  1  0.08423600  0.16021200  0.03521000  1
  C  C24  1  0.91576400  0.16021200  0.53521000  1
  C  C25  1  0.58423600  0.33978800  0.03521000  1
  C  C26  1  0.58423600  0.66021200  0.46479000  1
  C  C27  1  0.91576400  0.83978800  0.96479000  1
  S  S28  1  0.14304300  0.95129400  0.42554500  1
  S  S29  1  0.35695700  0.54870600  0.92554500  1
  S  S30  1  0.35695700  0.45129400  0.57445500  1
  S  S31  1  0.14304300  0.04870600  0.07445500  1
  S  S32  1  0.85695700  0.04870600  0.57445500  1
  S  S33  1  0.64304300  0.45129400  0.07445500  1
  S  S34  1  0.64304300  0.54870600  0.42554500  1
  S  S35  1  0.85695700  0.95129400  0.92554500  1
  N  N36  1  0.12379300  0.51476000  0.38804200  1
  N  N37  1  0.37620700  0.98524000  0.88804200  1
  N  N38  1  0.37620700  0.01476000  0.61195800  1
  N  N39  1  0.12379300  0.48524000  0.11195800  1
  N  N40  1  0.87620700  0.48524000  0.61195800  1
  N  N41  1  0.62379300  0.01476000  0.11195800  1
  N  N42  1  0.62379300  0.98524000  0.38804200  1
  N  N43  1  0.87620700  0.51476000  0.88804200  1
  N  N44  1  0.15875400  0.59691800  0.36145000  1
  N  N45  1  0.34124600  0.90308200  0.86145000  1
  N  N46  1  0.34124600  0.09691800  0.63855000  1
  N  N47  1  0.15875400  0.40308200  0.13855000  1
  N  N48  1  0.84124600  0.40308200  0.63855000  1
  N  N49  1  0.65875400  0.09691800  0.13855000  1
  N  N50  1  0.65875400  0.90308200  0.36145000  1
  N  N51  1  0.84124600  0.59691800  0.86145000  1
  N  N52  1  0.02964800  0.76039400  0.49739200  1
  N  N53  1  0.47035200  0.73960600  0.99739200  1
  N  N54  1  0.47035200  0.26039400  0.50260800  1
  N  N55  1  0.02964800  0.23960600  0.00260800  1
  N  N56  1  0.97035200  0.23960600  0.50260800  1
  N  N57  1  0.52964800  0.26039400  0.00260800  1
  N  N58  1  0.52964800  0.73960600  0.49739200  1
  N  N59  1  0.97035200  0.76039400  0.99739200  1
  Cl  Cl60  1  0.84821100  0.19493400  0.27890500  1
  Cl  Cl61  1  0.65178900  0.30506600  0.77890500  1
  Cl  Cl62  1  0.65178900  0.69493400  0.72109500  1
  Cl  Cl63  1  0.84821100  0.80506600  0.22109500  1
  Cl  Cl64  1  0.15178900  0.80506600  0.72109500  1
  Cl  Cl65  1  0.34821100  0.69493400  0.22109500  1
  Cl  Cl66  1  0.34821100  0.30506600  0.27890500  1
  Cl  Cl67  1  0.15178900  0.19493400  0.77890500  1
