# generated using pymatgen
data_K3HS3O5
_symmetry_space_group_name_H-M   'P 1'
_cell_length_a   9.67336100
_cell_length_b   6.18728200
_cell_length_c   31.04441743
_cell_angle_alpha   90.00000000
_cell_angle_beta   98.85919774
_cell_angle_gamma   90.00000000
_symmetry_Int_Tables_number   1
_chemical_formula_structural   K3HS3O5
_chemical_formula_sum   'K24 H8 S24 O40'
_cell_volume   1835.89754584
_cell_formula_units_Z   8
loop_
 _symmetry_equiv_pos_site_id
 _symmetry_equiv_pos_as_xyz
  1  'x, y, z'
loop_
 _atom_site_type_symbol
 _atom_site_label
 _atom_site_symmetry_multiplicity
 _atom_site_fract_x
 _atom_site_fract_y
 _atom_site_fract_z
 _atom_site_occupancy
  K  K0  1  0.91278900  0.86091300  0.09370100  1
  K  K1  1  0.08721100  0.36091300  0.40629900  1
  K  K2  1  0.08721100  0.13908700  0.90629900  1
  K  K3  1  0.91278900  0.63908700  0.59370100  1
  K  K4  1  0.75014500  0.42272400  0.27308600  1
  K  K5  1  0.24985500  0.92272400  0.22691400  1
  K  K6  1  0.24985500  0.57727600  0.72691400  1
  K  K7  1  0.75014500  0.07727600  0.77308600  1
  K  K8  1  0.98507600  0.39411800  0.17246000  1
  K  K9  1  0.01492400  0.89411800  0.32754000  1
  K  K10  1  0.01492400  0.60588200  0.82754000  1
  K  K11  1  0.98507600  0.10588200  0.67246000  1
  K  K12  1  0.81093400  0.67576900  0.96391300  1
  K  K13  1  0.18906600  0.17576900  0.53608700  1
  K  K14  1  0.18906600  0.32423100  0.03608700  1
  K  K15  1  0.81093400  0.82423100  0.46391300  1
  K  K16  1  0.55872000  0.24729900  0.15240500  1
  K  K17  1  0.44128000  0.74729900  0.34759500  1
  K  K18  1  0.44128000  0.75270100  0.84759500  1
  K  K19  1  0.55872000  0.25270100  0.65240500  1
  K  K20  1  0.49036000  0.80217300  0.05239800  1
  K  K21  1  0.50964000  0.30217300  0.44760200  1
  K  K22  1  0.50964000  0.19782700  0.94760200  1
  K  K23  1  0.49036000  0.69782700  0.55239800  1
  H  H24  1  0.43244600  0.29242000  0.26436100  1
  H  H25  1  0.56755400  0.79242000  0.23563900  1
  H  H26  1  0.56755400  0.70758000  0.73563900  1
  H  H27  1  0.43244600  0.20758000  0.76436100  1
  H  H28  1  0.39202600  0.40080300  0.21864600  1
  H  H29  1  0.60797400  0.90080300  0.28135400  1
  H  H30  1  0.60797400  0.59919700  0.78135400  1
  H  H31  1  0.39202600  0.09919700  0.71864600  1
  S  S32  1  0.26435800  0.96112800  0.12045500  1
  S  S33  1  0.73564200  0.46112800  0.37954500  1
  S  S34  1  0.73564200  0.03887200  0.87954500  1
  S  S35  1  0.26435800  0.53887200  0.62045500  1
  S  S36  1  0.83597200  0.18230600  0.00969500  1
  S  S37  1  0.16402800  0.68230600  0.49030500  1
  S  S38  1  0.16402800  0.81769400  0.99030500  1
  S  S39  1  0.83597200  0.31769400  0.50969500  1
  S  S40  1  0.67888300  0.75219400  0.16941300  1
  S  S41  1  0.32111700  0.25219400  0.33058700  1
  S  S42  1  0.32111700  0.24780600  0.83058700  1
  S  S43  1  0.67888300  0.74780600  0.66941300  1
  S  S44  1  0.25839000  0.63422400  0.12658800  1
  S  S45  1  0.74161000  0.13422400  0.37341200  1
  S  S46  1  0.74161000  0.36577600  0.87341200  1
  S  S47  1  0.25839000  0.86577600  0.62658800  1
  S  S48  1  0.71902300  0.32419100  0.05148800  1
  S  S49  1  0.28097700  0.82419100  0.44851200  1
  S  S50  1  0.28097700  0.67580900  0.94851200  1
  S  S51  1  0.71902300  0.17580900  0.55148800  1
  S  S52  1  0.84117800  0.91076500  0.20565700  1
  S  S53  1  0.15882200  0.41076500  0.29434300  1
  S  S54  1  0.15882200  0.08923500  0.79434300  1
  S  S55  1  0.84117800  0.58923500  0.70565700  1
  O  O56  1  0.28222400  0.57651300  0.17362700  1
  O  O57  1  0.71777600  0.07651300  0.32637300  1
  O  O58  1  0.71777600  0.42348700  0.82637300  1
  O  O59  1  0.28222400  0.92348700  0.67362700  1
  O  O60  1  0.11717200  0.55730300  0.10586000  1
  O  O61  1  0.88282800  0.05730300  0.39414000  1
  O  O62  1  0.88282800  0.44269700  0.89414000  1
  O  O63  1  0.11717200  0.94269700  0.60586000  1
  O  O64  1  0.36717600  0.53465200  0.10362300  1
  O  O65  1  0.63282400  0.03465200  0.39637700  1
  O  O66  1  0.63282400  0.46534800  0.89637700  1
  O  O67  1  0.36717600  0.96534800  0.60362300  1
  O  O68  1  0.77461200  0.26207300  0.09706600  1
  O  O69  1  0.22538800  0.76207300  0.40293400  1
  O  O70  1  0.22538800  0.73792700  0.90293400  1
  O  O71  1  0.77461200  0.23792700  0.59706600  1
  O  O72  1  0.72755900  0.56329400  0.04533800  1
  O  O73  1  0.27244100  0.06329400  0.45466200  1
  O  O74  1  0.27244100  0.43670600  0.95466200  1
  O  O75  1  0.72755900  0.93670600  0.54533800  1
  O  O76  1  0.57169400  0.24845000  0.03952600  1
  O  O77  1  0.42830600  0.74845000  0.46047400  1
  O  O78  1  0.42830600  0.75155000  0.96047400  1
  O  O79  1  0.57169400  0.25155000  0.53952600  1
  O  O80  1  0.87237400  0.80321100  0.24855000  1
  O  O81  1  0.12762600  0.30321100  0.25145000  1
  O  O82  1  0.12762600  0.19678900  0.75145000  1
  O  O83  1  0.87237400  0.69678900  0.74855000  1
  O  O84  1  0.96461100  0.90133800  0.18211500  1
  O  O85  1  0.03538900  0.40133800  0.31788500  1
  O  O86  1  0.03538900  0.09866200  0.81788500  1
  O  O87  1  0.96461100  0.59866200  0.68211500  1
  O  O88  1  0.79789600  0.13978100  0.20995600  1
  O  O89  1  0.20210400  0.63978100  0.29004400  1
  O  O90  1  0.20210400  0.86021900  0.79004400  1
  O  O91  1  0.79789600  0.36021900  0.70995600  1
  O  O92  1  0.45768900  0.29708200  0.23474600  1
  O  O93  1  0.54231100  0.79708200  0.26525400  1
  O  O94  1  0.54231100  0.70291800  0.76525400  1
  O  O95  1  0.45768900  0.20291800  0.73474600  1
