# generated using pymatgen
data_Th(PO3)4
_symmetry_space_group_name_H-M   'P 1'
_cell_length_a   7.06867339
_cell_length_b   7.06867339
_cell_length_c   12.73885601
_cell_angle_alpha   85.34063764
_cell_angle_beta   85.34063764
_cell_angle_gamma   70.31128970
_symmetry_Int_Tables_number   1
_chemical_formula_structural   Th(PO3)4
_chemical_formula_sum   'Th2 P8 O24'
_cell_volume   596.33381015
_cell_formula_units_Z   2
loop_
 _symmetry_equiv_pos_site_id
 _symmetry_equiv_pos_as_xyz
  1  'x, y, z'
loop_
 _atom_site_type_symbol
 _atom_site_label
 _atom_site_symmetry_multiplicity
 _atom_site_fract_x
 _atom_site_fract_y
 _atom_site_fract_z
 _atom_site_occupancy
  Th  Th0  1  0.52040800  0.47959200  0.75000000  1
  Th  Th1  1  0.47959200  0.52040800  0.25000000  1
  P  P2  1  0.37307400  0.83849100  0.98633300  1
  P  P3  1  0.16150900  0.62692600  0.51366700  1
  P  P4  1  0.62692600  0.16150900  0.01366700  1
  P  P5  1  0.83849100  0.37307400  0.48633300  1
  P  P6  1  0.96298500  0.63015600  0.80438900  1
  P  P7  1  0.36984400  0.03701500  0.69561100  1
  P  P8  1  0.03701500  0.36984400  0.19561100  1
  P  P9  1  0.63015600  0.96298500  0.30438900  1
  O  O10  1  0.28982700  0.05872000  0.96494400  1
  O  O11  1  0.94128000  0.71017300  0.53505600  1
  O  O12  1  0.71017300  0.94128000  0.03505600  1
  O  O13  1  0.05872000  0.28982700  0.46494400  1
  O  O14  1  0.87941100  0.84966600  0.80794200  1
  O  O15  1  0.15033400  0.12058900  0.69205800  1
  O  O16  1  0.12058900  0.15033400  0.19205800  1
  O  O17  1  0.84966600  0.87941100  0.30794200  1
  O  O18  1  0.43487100  0.70104400  0.89720000  1
  O  O19  1  0.29895600  0.56512900  0.60280000  1
  O  O20  1  0.56512900  0.29895600  0.10280000  1
  O  O21  1  0.70104400  0.43487100  0.39720000  1
  O  O22  1  0.61369900  0.26078700  0.90509600  1
  O  O23  1  0.73921300  0.38630100  0.59490400  1
  O  O24  1  0.38630100  0.73921300  0.09490400  1
  O  O25  1  0.26078700  0.61369900  0.40509600  1
  O  O26  1  0.18246900  0.51489300  0.81908200  1
  O  O27  1  0.48510700  0.81753100  0.68091800  1
  O  O28  1  0.81753100  0.48510700  0.18091800  1
  O  O29  1  0.51489300  0.18246900  0.31908200  1
  O  O30  1  0.83549600  0.50167800  0.79170500  1
  O  O31  1  0.49832200  0.16450400  0.70829500  1
  O  O32  1  0.16450400  0.49832200  0.20829500  1
  O  O33  1  0.50167800  0.83549600  0.29170500  1
