# generated using pymatgen
data_Fe3H28(S2O15)2
_symmetry_space_group_name_H-M   'P 1'
_cell_length_a   6.42312500
_cell_length_b   6.54052509
_cell_length_c   15.66112486
_cell_angle_alpha   94.72852231
_cell_angle_beta   89.72835015
_cell_angle_gamma   100.23748177
_symmetry_Int_Tables_number   1
_chemical_formula_structural   Fe3H28(S2O15)2
_chemical_formula_sum   'Fe3 H28 S4 O30'
_cell_volume   645.22223272
_cell_formula_units_Z   1
loop_
 _symmetry_equiv_pos_site_id
 _symmetry_equiv_pos_as_xyz
  1  'x, y, z'
loop_
 _atom_site_type_symbol
 _atom_site_label
 _atom_site_symmetry_multiplicity
 _atom_site_fract_x
 _atom_site_fract_y
 _atom_site_fract_z
 _atom_site_occupancy
  Fe  Fe0  1  0.00000000  0.00000000  0.00000000  1
  Fe  Fe1  1  0.59415500  0.33922700  0.67969500  1
  Fe  Fe2  1  0.40584500  0.66077300  0.32030500  1
  H  H3  1  0.79947600  0.34055100  0.98896200  1
  H  H4  1  0.20052400  0.65944900  0.01103800  1
  H  H5  1  0.85365100  0.26594500  0.89223500  1
  H  H6  1  0.14634900  0.73405500  0.10776500  1
  H  H7  1  0.33102400  0.26535600  0.93612500  1
  H  H8  1  0.66897600  0.73464400  0.06387500  1
  H  H9  1  0.37212800  0.03503100  0.90624600  1
  H  H10  1  0.62787200  0.96496900  0.09375400  1
  H  H11  1  0.23725000  0.18476800  0.14099000  1
  H  H12  1  0.76275000  0.81523200  0.85901000  1
  H  H13  1  0.00918300  0.24975700  0.15744600  1
  H  H14  1  0.99081700  0.75024300  0.84255400  1
  H  H15  1  0.96508900  0.37673200  0.75856600  1
  H  H16  1  0.03491100  0.62326800  0.24143400  1
  H  H17  1  0.89970900  0.13723600  0.71902200  1
  H  H18  1  0.10029100  0.86276400  0.28097800  1
  H  H19  1  0.46473200  0.95716100  0.74469200  1
  H  H20  1  0.53526800  0.04283900  0.25530800  1
  H  H21  1  0.28231500  0.00737100  0.68483900  1
  H  H22  1  0.71768500  0.99262900  0.31516100  1
  H  H23  1  0.79250300  0.28301400  0.52367600  1
  H  H24  1  0.20749700  0.71698600  0.47632400  1
  H  H25  1  0.71940800  0.06211400  0.56183900  1
  H  H26  1  0.28059200  0.93788600  0.43816100  1
  H  H27  1  0.30714700  0.30702300  0.55067800  1
  H  H28  1  0.69285300  0.69297700  0.44932200  1
  H  H29  1  0.24688600  0.48461900  0.61793200  1
  H  H30  1  0.75311400  0.51538100  0.38206800  1
  S  S31  1  0.35984900  0.59553500  0.83330400  1
  S  S32  1  0.64015100  0.40446500  0.16669600  1
  S  S33  1  0.90844000  0.76144900  0.61353000  1
  S  S34  1  0.09156000  0.23855100  0.38647000  1
  O  O35  1  0.48024700  0.43872900  0.78870900  1
  O  O36  1  0.51975300  0.56127100  0.21129100  1
  O  O37  1  0.15514500  0.58249900  0.78732500  1
  O  O38  1  0.84485500  0.41750100  0.21267500  1
  O  O39  1  0.48631700  0.81026200  0.82915400  1
  O  O40  1  0.51368300  0.18973800  0.17084600  1
  O  O41  1  0.33261200  0.54115700  0.92215300  1
  O  O42  1  0.66738800  0.45884300  0.07784700  1
  O  O43  1  0.76172000  0.61857300  0.66758500  1
  O  O44  1  0.23828000  0.38142700  0.33241500  1
  O  O45  1  0.07258000  0.65057500  0.57581900  1
  O  O46  1  0.92742000  0.34942500  0.42418100  1
  O  O47  1  0.77886300  0.82686500  0.54554800  1
  O  O48  1  0.22113700  0.17313500  0.45445200  1
  O  O49  1  0.00564100  0.94615300  0.67074000  1
  O  O50  1  0.99435900  0.05384700  0.32926000  1
  O  O51  1  0.88144400  0.25383600  0.95237400  1
  O  O52  1  0.11855600  0.74616400  0.04762600  1
  O  O53  1  0.30319700  0.11756400  0.94893100  1
  O  O54  1  0.69680300  0.88243600  0.05106900  1
  O  O55  1  0.09375100  0.17399500  0.11745100  1
  O  O56  1  0.90624900  0.82600500  0.88254900  1
  O  O57  1  0.84214900  0.25873700  0.74774200  1
  O  O58  1  0.15785100  0.74126300  0.25225800  1
  O  O59  1  0.43797100  0.03893300  0.69589900  1
  O  O60  1  0.56202900  0.96106700  0.30410100  1
  O  O61  1  0.70028400  0.21212300  0.56731100  1
  O  O62  1  0.29971600  0.78787700  0.43268900  1
  O  O63  1  0.33750100  0.37718000  0.60959200  1
  O  O64  1  0.66249900  0.62282000  0.39040800  1
