# generated using pymatgen
data_Mg9Si10Pb8(CO16)3
_symmetry_space_group_name_H-M   'P 1'
_cell_length_a   9.52830856
_cell_length_b   9.52830856
_cell_length_c   14.23264721
_cell_angle_alpha   84.32716111
_cell_angle_beta   84.32716111
_cell_angle_gamma   60.60737040
_symmetry_Int_Tables_number   1
_chemical_formula_structural   Mg9Si10Pb8(CO16)3
_chemical_formula_sum   'Mg9 Si10 Pb8 C3 O48'
_cell_volume   1118.42860523
_cell_formula_units_Z   1
loop_
 _symmetry_equiv_pos_site_id
 _symmetry_equiv_pos_as_xyz
  1  'x, y, z'
loop_
 _atom_site_type_symbol
 _atom_site_label
 _atom_site_symmetry_multiplicity
 _atom_site_fract_x
 _atom_site_fract_y
 _atom_site_fract_z
 _atom_site_occupancy
  Mg  Mg0  1  0.19439000  0.80561000  0.00000000  1
  Mg  Mg1  1  0.85570000  0.48461800  0.99047900  1
  Mg  Mg2  1  0.51538200  0.14430000  0.00952100  1
  Mg  Mg3  1  0.52598300  0.47401700  0.00000000  1
  Mg  Mg4  1  0.18791500  0.14812100  0.99196100  1
  Mg  Mg5  1  0.85187900  0.81208500  0.00803900  1
  Mg  Mg6  1  0.52784300  0.80215500  0.00208200  1
  Mg  Mg7  1  0.19784500  0.47215700  0.99791800  1
  Mg  Mg8  1  0.87471300  0.12528700  0.00000000  1
  Si  Si9  1  0.63700900  0.63271900  0.80092800  1
  Si  Si10  1  0.36728100  0.36299100  0.19907200  1
  Si  Si11  1  0.32682500  0.60554400  0.80673600  1
  Si  Si12  1  0.39445600  0.67317500  0.19326400  1
  Si  Si13  1  0.65878000  0.93945300  0.81347900  1
  Si  Si14  1  0.06054700  0.34122000  0.18652100  1
  Si  Si15  1  0.35092400  0.27115900  0.80300400  1
  Si  Si16  1  0.72884100  0.64907600  0.19699600  1
  Si  Si17  1  0.99320700  0.91782100  0.80397900  1
  Si  Si18  1  0.08217900  0.00679300  0.19602100  1
  Pb  Pb19  1  0.77465800  0.30236200  0.66678000  1
  Pb  Pb20  1  0.69763800  0.22534200  0.33322000  1
  Pb  Pb21  1  0.02649900  0.50587500  0.66741100  1
  Pb  Pb22  1  0.49412500  0.97350100  0.33258900  1
  Pb  Pb23  1  0.69391800  0.96673400  0.54966800  1
  Pb  Pb24  1  0.03326600  0.30608200  0.45033200  1
  Pb  Pb25  1  0.22710300  0.05063000  0.66579100  1
  Pb  Pb26  1  0.94937000  0.77289700  0.33420900  1
  C  C27  1  0.01369900  0.98630100  0.50000000  1
  C  C28  1  0.70363300  0.64143500  0.50145900  1
  C  C29  1  0.35856500  0.29636700  0.49854100  1
  O  O30  1  0.65417100  0.25037000  0.94294900  1
  O  O31  1  0.74963000  0.34582900  0.05705100  1
  O  O32  1  0.64749900  0.92341400  0.92756700  1
  O  O33  1  0.07658600  0.35250100  0.07243300  1
  O  O34  1  0.98214600  0.60315600  0.93845900  1
  O  O35  1  0.39684400  0.01785400  0.06154100  1
  O  O36  1  0.07051800  0.68539200  0.06324200  1
  O  O37  1  0.31460800  0.92948200  0.93675800  1
  O  O38  1  0.35154700  0.44046400  0.76435400  1
  O  O39  1  0.55953600  0.64845300  0.23564600  1
  O  O40  1  0.47859700  0.63222700  0.76359600  1
  O  O41  1  0.36777300  0.52140300  0.23640400  1
  O  O42  1  0.64060600  0.60441000  0.91608500  1
  O  O43  1  0.39559000  0.35939400  0.08391500  1
  O  O44  1  0.16062500  0.75766100  0.76731400  1
  O  O45  1  0.24233900  0.83937500  0.23268600  1
  O  O46  1  0.32140300  0.58959300  0.92188700  1
  O  O47  1  0.41040700  0.67859700  0.07811300  1
  O  O48  1  0.98662900  0.92409800  0.91812400  1
  O  O49  1  0.07590200  0.01337100  0.08187600  1
  O  O50  1  0.96467200  0.26686400  0.93484600  1
  O  O51  1  0.73313600  0.03532800  0.06515400  1
  O  O52  1  0.31873100  0.26544700  0.91797300  1
  O  O53  1  0.73455300  0.68126900  0.08202700  1
  O  O54  1  0.53081500  0.12127500  0.77131700  1
  O  O55  1  0.87872500  0.46918500  0.22868300  1
  O  O56  1  0.01526700  0.29394500  0.60631300  1
  O  O57  1  0.70605500  0.98473300  0.39368700  1
  O  O58  1  0.61842200  0.81266400  0.76704200  1
  O  O59  1  0.18733600  0.38157800  0.23295800  1
  O  O60  1  0.21549400  0.26440900  0.74551500  1
  O  O61  1  0.73559100  0.78450600  0.25448500  1
  O  O62  1  0.83998500  0.90131200  0.77037600  1
  O  O63  1  0.09868800  0.16001500  0.22962400  1
  O  O64  1  0.98987500  0.07390900  0.74338600  1
  O  O65  1  0.92609100  0.01012500  0.25661400  1
  O  O66  1  0.79534200  0.49811400  0.74375600  1
  O  O67  1  0.50188600  0.20465800  0.25624400  1
  O  O68  1  0.35981000  0.64019000  0.50000000  1
  O  O69  1  0.87648600  0.12351400  0.50000000  1
  O  O70  1  0.70990900  0.50476200  0.49585900  1
  O  O71  1  0.49523800  0.29009100  0.50414100  1
  O  O72  1  0.22540500  0.42999600  0.49541500  1
  O  O73  1  0.57000400  0.77459500  0.50458500  1
  O  O74  1  0.14686300  0.99140300  0.49337000  1
  O  O75  1  0.00859700  0.85313700  0.50663000  1
  O  O76  1  0.83884500  0.64580800  0.50388700  1
  O  O77  1  0.35419200  0.16115500  0.49611300  1
