# generated using pymatgen
data_Ca5(Si3O11)2
_symmetry_space_group_name_H-M   'P 1'
_cell_length_a   6.71846300
_cell_length_b   6.77173373
_cell_length_c   11.68782408
_cell_angle_alpha   89.27650660
_cell_angle_beta   100.76639116
_cell_angle_gamma   113.35760954
_symmetry_Int_Tables_number   1
_chemical_formula_structural   Ca5(Si3O11)2
_chemical_formula_sum   'Ca5 Si6 O22'
_cell_volume   478.46044535
_cell_formula_units_Z   1
loop_
 _symmetry_equiv_pos_site_id
 _symmetry_equiv_pos_as_xyz
  1  'x, y, z'
loop_
 _atom_site_type_symbol
 _atom_site_label
 _atom_site_symmetry_multiplicity
 _atom_site_fract_x
 _atom_site_fract_y
 _atom_site_fract_z
 _atom_site_occupancy
  Ca  Ca0  1  0.46185700  0.74249300  0.91573500  1
  Ca  Ca1  1  0.53156100  0.25367700  0.07012700  1
  Ca  Ca2  1  0.95204700  0.23657400  0.89532400  1
  Ca  Ca3  1  0.02709900  0.76629000  0.09346000  1
  Ca  Ca4  1  0.34883800  0.75224100  0.40998000  1
  Si  Si5  1  0.10062800  0.31256800  0.18785900  1
  Si  Si6  1  0.89719200  0.69300900  0.82133400  1
  Si  Si7  1  0.95162200  0.96633600  0.35650400  1
  Si  Si8  1  0.03192200  0.02162200  0.63878100  1
  Si  Si9  1  0.52457700  0.73212900  0.18277900  1
  Si  Si10  1  0.46013900  0.27227700  0.80773600  1
  O  O11  1  0.02901300  0.21353200  0.31095100  1
  O  O12  1  0.97738500  0.79413300  0.70023100  1
  O  O13  1  0.67692300  0.85589300  0.31080800  1
  O  O14  1  0.29620000  0.17208100  0.67927800  1
  O  O15  1  0.42336200  0.88229900  0.10481400  1
  O  O16  1  0.55386400  0.10845900  0.87955400  1
  O  O17  1  0.91641600  0.36877300  0.10001300  1
  O  O18  1  0.08058400  0.62134200  0.89964700  1
  O  O19  1  0.64175500  0.63451600  0.10537100  1
  O  O20  1  0.33742700  0.35655300  0.89168800  1
  O  O21  1  0.17506900  0.15748600  0.11539000  1
  O  O22  1  0.84583200  0.85556400  0.90244800  1
  O  O23  1  0.31641400  0.54796100  0.23618700  1
  O  O24  1  0.67080100  0.47612100  0.77498500  1
  O  O25  1  0.98336300  0.97990800  0.49809600  1
  O  O26  1  0.53778100  0.52342600  0.50377100  1
  O  O27  1  0.06990200  0.82848500  0.30902100  1
  O  O28  1  0.89668300  0.15266800  0.68485600  1
  O  O29  1  0.47338900  0.20152500  0.26723900  1
  O  O30  1  0.38989600  0.71130900  0.66315400  1
  O  O31  1  0.21302100  0.59186600  0.58331200  1
  O  O32  1  0.54643900  0.86948300  0.60866700  1
