# generated using pymatgen
data_Pd2(RhS)15
_symmetry_space_group_name_H-M   'P 1'
_cell_length_a   10.06942100
_cell_length_b   10.06942100
_cell_length_c   10.06942100
_cell_angle_alpha   90.00000000
_cell_angle_beta   90.00000000
_cell_angle_gamma   90.00000000
_symmetry_Int_Tables_number   1
_chemical_formula_structural   Pd2(RhS)15
_chemical_formula_sum   'Pd4 Rh30 S30'
_cell_volume   1020.97121282
_cell_formula_units_Z   2
loop_
 _symmetry_equiv_pos_site_id
 _symmetry_equiv_pos_as_xyz
  1  'x, y, z'
loop_
 _atom_site_type_symbol
 _atom_site_label
 _atom_site_symmetry_multiplicity
 _atom_site_fract_x
 _atom_site_fract_y
 _atom_site_fract_z
 _atom_site_occupancy
  Pd  Pd0  1  0.50000000  0.00000000  0.00000000  1
  Pd  Pd1  1  0.00000000  0.00000000  0.50000000  1
  Pd  Pd2  1  0.00000000  0.50000000  0.00000000  1
  Pd  Pd3  1  0.50000000  0.50000000  0.50000000  1
  Rh  Rh4  1  0.14288400  0.35623200  0.64376800  1
  Rh  Rh5  1  0.35623200  0.35623200  0.85711600  1
  Rh  Rh6  1  0.35623200  0.14288400  0.64376800  1
  Rh  Rh7  1  0.14288400  0.64376800  0.35623200  1
  Rh  Rh8  1  0.35623200  0.64376800  0.14288400  1
  Rh  Rh9  1  0.35623200  0.85711600  0.35623200  1
  Rh  Rh10  1  0.85711600  0.35623200  0.35623200  1
  Rh  Rh11  1  0.64376800  0.35623200  0.14288400  1
  Rh  Rh12  1  0.64376800  0.14288400  0.35623200  1
  Rh  Rh13  1  0.85711600  0.64376800  0.64376800  1
  Rh  Rh14  1  0.64376800  0.64376800  0.85711600  1
  Rh  Rh15  1  0.64376800  0.85711600  0.64376800  1
  Rh  Rh16  1  0.85711600  0.64376800  0.35623200  1
  Rh  Rh17  1  0.64376800  0.64376800  0.14288400  1
  Rh  Rh18  1  0.64376800  0.85711600  0.35623200  1
  Rh  Rh19  1  0.85711600  0.35623200  0.64376800  1
  Rh  Rh20  1  0.64376800  0.35623200  0.85711600  1
  Rh  Rh21  1  0.64376800  0.14288400  0.64376800  1
  Rh  Rh22  1  0.14288400  0.64376800  0.64376800  1
  Rh  Rh23  1  0.35623200  0.64376800  0.85711600  1
  Rh  Rh24  1  0.35623200  0.85711600  0.64376800  1
  Rh  Rh25  1  0.14288400  0.35623200  0.35623200  1
  Rh  Rh26  1  0.35623200  0.35623200  0.14288400  1
  Rh  Rh27  1  0.35623200  0.14288400  0.35623200  1
  Rh  Rh28  1  0.23754600  0.00000000  0.00000000  1
  Rh  Rh29  1  0.00000000  0.00000000  0.76245400  1
  Rh  Rh30  1  0.00000000  0.23754600  0.00000000  1
  Rh  Rh31  1  0.00000000  0.00000000  0.23754600  1
  Rh  Rh32  1  0.00000000  0.76245400  0.00000000  1
  Rh  Rh33  1  0.76245400  0.00000000  0.00000000  1
  S  S34  1  0.50000000  0.17310900  0.82689100  1
  S  S35  1  0.17310900  0.17310900  0.50000000  1
  S  S36  1  0.17310900  0.50000000  0.82689100  1
  S  S37  1  0.50000000  0.82689100  0.17310900  1
  S  S38  1  0.17310900  0.82689100  0.50000000  1
  S  S39  1  0.17310900  0.50000000  0.17310900  1
  S  S40  1  0.50000000  0.17310900  0.17310900  1
  S  S41  1  0.82689100  0.17310900  0.50000000  1
  S  S42  1  0.82689100  0.50000000  0.17310900  1
  S  S43  1  0.50000000  0.82689100  0.82689100  1
  S  S44  1  0.82689100  0.82689100  0.50000000  1
  S  S45  1  0.82689100  0.50000000  0.82689100  1
  S  S46  1  0.00000000  0.22936200  0.77063800  1
  S  S47  1  0.22936200  0.22936200  0.00000000  1
  S  S48  1  0.22936200  0.00000000  0.77063800  1
  S  S49  1  0.00000000  0.77063800  0.22936200  1
  S  S50  1  0.22936200  0.77063800  0.00000000  1
  S  S51  1  0.22936200  0.00000000  0.22936200  1
  S  S52  1  0.00000000  0.22936200  0.22936200  1
  S  S53  1  0.77063800  0.22936200  0.00000000  1
  S  S54  1  0.77063800  0.00000000  0.22936200  1
  S  S55  1  0.00000000  0.77063800  0.77063800  1
  S  S56  1  0.77063800  0.77063800  0.00000000  1
  S  S57  1  0.77063800  0.00000000  0.77063800  1
  S  S58  1  0.25824500  0.50000000  0.50000000  1
  S  S59  1  0.50000000  0.50000000  0.74175500  1
  S  S60  1  0.50000000  0.25824500  0.50000000  1
  S  S61  1  0.50000000  0.50000000  0.25824500  1
  S  S62  1  0.50000000  0.74175500  0.50000000  1
  S  S63  1  0.74175500  0.50000000  0.50000000  1
