# generated using pymatgen
data_CuAsH3O5
_symmetry_space_group_name_H-M   'P 1'
_cell_length_a   6.51406200
_cell_length_b   8.20453862
_cell_length_c   15.93274859
_cell_angle_alpha   86.07527694
_cell_angle_beta   84.85895385
_cell_angle_gamma   84.99088440
_symmetry_Int_Tables_number   1
_chemical_formula_structural   CuAsH3O5
_chemical_formula_sum   'Cu8 As8 H24 O40'
_cell_volume   843.28062575
_cell_formula_units_Z   8
loop_
 _symmetry_equiv_pos_site_id
 _symmetry_equiv_pos_as_xyz
  1  'x, y, z'
loop_
 _atom_site_type_symbol
 _atom_site_label
 _atom_site_symmetry_multiplicity
 _atom_site_fract_x
 _atom_site_fract_y
 _atom_site_fract_z
 _atom_site_occupancy
  Cu  Cu0  1  0.63425700  0.63738800  0.95904200  1
  Cu  Cu1  1  0.36574300  0.36261200  0.04095800  1
  Cu  Cu2  1  0.11196300  0.14349600  0.55007700  1
  Cu  Cu3  1  0.88803700  0.85650400  0.44992300  1
  Cu  Cu4  1  0.61793900  0.59033700  0.55978300  1
  Cu  Cu5  1  0.38206100  0.40966300  0.44021700  1
  Cu  Cu6  1  0.14242500  0.08584800  0.93315600  1
  Cu  Cu7  1  0.85757500  0.91415200  0.06684400  1
  As  As8  1  0.09104600  0.55568600  0.60126300  1
  As  As9  1  0.90895400  0.44431400  0.39873700  1
  As  As10  1  0.13432000  0.63522200  0.91076400  1
  As  As11  1  0.86568000  0.36477800  0.08923600  1
  As  As12  1  0.60884100  0.14362400  0.59388400  1
  As  As13  1  0.39115900  0.85637600  0.40611600  1
  As  As14  1  0.64163200  0.02719700  0.89699700  1
  As  As15  1  0.35836800  0.97280300  0.10300300  1
  H  H16  1  0.11201500  0.62446400  0.73942000  1
  H  H17  1  0.88798500  0.37553600  0.26058000  1
  H  H18  1  0.36202300  0.82459900  0.86222900  1
  H  H19  1  0.63797700  0.17540100  0.13777100  1
  H  H20  1  0.80199500  0.33990600  0.64309800  1
  H  H21  1  0.19800500  0.66009400  0.35690200  1
  H  H22  1  0.64843900  0.07508300  0.75143700  1
  H  H23  1  0.35156100  0.92491700  0.24856300  1
  H  H24  1  0.65325600  0.38917700  0.79970900  1
  H  H25  1  0.34674400  0.61082300  0.20029100  1
  H  H26  1  0.83035900  0.50015100  0.81401200  1
  H  H27  1  0.16964100  0.49984900  0.18598800  1
  H  H28  1  0.09620900  0.89869300  0.66562300  1
  H  H29  1  0.90379100  0.10130700  0.33437700  1
  H  H30  1  0.26975900  0.01363000  0.67976200  1
  H  H31  1  0.73024100  0.98637000  0.32023800  1
  H  H32  1  0.61494200  0.62325600  0.72084500  1
  H  H33  1  0.38505800  0.37674400  0.27915500  1
  H  H34  1  0.57421300  0.80592100  0.67249900  1
  H  H35  1  0.42578700  0.19407900  0.32750100  1
  H  H36  1  0.03216800  0.17063900  0.78666200  1
  H  H37  1  0.96783200  0.82936100  0.21333800  1
  H  H38  1  0.13237900  0.32074900  0.82311900  1
  H  H39  1  0.86762100  0.67925100  0.17688100  1
  O  O40  1  0.02667800  0.37079300  0.64410100  1
  O  O41  1  0.97332200  0.62920700  0.35589900  1
  O  O42  1  0.90410500  0.65695700  0.54075300  1
  O  O43  1  0.09589500  0.34304300  0.45924700  1
  O  O44  1  0.32575100  0.55168200  0.54075000  1
  O  O45  1  0.67424900  0.44831800  0.45925000  1
  O  O46  1  0.09238800  0.51957500  0.82990700  1
  O  O47  1  0.90761200  0.48042500  0.17009300  1
  O  O48  1  0.91825000  0.67618400  0.97827900  1
  O  O49  1  0.08175000  0.32381600  0.02172100  1
  O  O50  1  0.34446000  0.56781300  0.96784800  1
  O  O51  1  0.65554000  0.43218700  0.03215200  1
  O  O52  1  0.40757900  0.17967500  0.53074400  1
  O  O53  1  0.59242100  0.82032500  0.46925600  1
  O  O54  1  0.83380500  0.08294400  0.53532700  1
  O  O55  1  0.16619500  0.91705600  0.46467300  1
  O  O56  1  0.54655000  0.01121400  0.67898600  1
  O  O57  1  0.45345000  0.98878600  0.32101400  1
  O  O58  1  0.59770300  0.82923700  0.87713800  1
  O  O59  1  0.40229700  0.17076300  0.12286200  1
  O  O60  1  0.42746300  0.13935100  0.93976700  1
  O  O61  1  0.57253700  0.86064900  0.06023300  1
  O  O62  1  0.84407900  0.04896600  0.95766300  1
  O  O63  1  0.15592100  0.95103400  0.04233700  1
  O  O64  1  0.09701800  0.68877800  0.68291300  1
  O  O65  1  0.90298200  0.31122200  0.31708700  1
  O  O66  1  0.20493100  0.82440700  0.86197100  1
  O  O67  1  0.79506900  0.17559300  0.13802900  1
  O  O68  1  0.64519800  0.32924700  0.63906400  1
  O  O69  1  0.35480200  0.67075300  0.36093600  1
  O  O70  1  0.72050700  0.12368200  0.79936000  1
  O  O71  1  0.27949300  0.87631800  0.20064000  1
  O  O72  1  0.67984400  0.50275300  0.80737000  1
  O  O73  1  0.32015600  0.49724700  0.19263000  1
  O  O74  1  0.12518800  0.01603100  0.66333900  1
  O  O75  1  0.87481200  0.98396900  0.33666100  1
  O  O76  1  0.55908500  0.68566300  0.67016200  1
  O  O77  1  0.44091500  0.31433700  0.32983800  1
  O  O78  1  0.14282300  0.19780300  0.82016200  1
  O  O79  1  0.85717700  0.80219700  0.17983800  1
