# generated using pymatgen
data_Na4UC3O11
_symmetry_space_group_name_H-M   'P 1'
_cell_length_a   9.40213670
_cell_length_b   9.40213670
_cell_length_c   6.61029071
_cell_angle_alpha   89.97942252
_cell_angle_beta   89.97942252
_cell_angle_gamma   120.09593338
_symmetry_Int_Tables_number   1
_chemical_formula_structural   Na4UC3O11
_chemical_formula_sum   'Na8 U2 C6 O22'
_cell_volume   505.57263778
_cell_formula_units_Z   2
loop_
 _symmetry_equiv_pos_site_id
 _symmetry_equiv_pos_as_xyz
  1  'x, y, z'
loop_
 _atom_site_type_symbol
 _atom_site_label
 _atom_site_symmetry_multiplicity
 _atom_site_fract_x
 _atom_site_fract_y
 _atom_site_fract_z
 _atom_site_occupancy
  Na  Na0  1  0.56563800  0.56122300  0.42595300  1
  Na  Na1  1  0.56122300  0.56563800  0.92595300  1
  Na  Na2  1  0.00044300  0.69504200  0.64239000  1
  Na  Na3  1  0.69504200  0.00044300  0.14239000  1
  Na  Na4  1  0.43369400  0.87060000  0.69878300  1
  Na  Na5  1  0.87060000  0.43369400  0.19878300  1
  Na  Na6  1  0.25693400  0.12878600  0.70502600  1
  Na  Na7  1  0.12878600  0.25693400  0.20502600  1
  U  U8  1  0.23041800  0.89663400  0.17739500  1
  U  U9  1  0.89663400  0.23041800  0.67739500  1
  C  C10  1  0.23340900  0.48956000  0.65325600  1
  C  C11  1  0.48956000  0.23340900  0.15325600  1
  C  C12  1  0.63813400  0.30852400  0.66307200  1
  C  C13  1  0.30852400  0.63813400  0.16307200  1
  C  C14  1  0.82073900  0.89459500  0.70818300  1
  C  C15  1  0.89459500  0.82073900  0.20818300  1
  O  O16  1  0.18673300  0.33215600  0.63512700  1
  O  O17  1  0.33215600  0.18673300  0.13512700  1
  O  O18  1  0.79512000  0.41823900  0.63899200  1
  O  O19  1  0.41823900  0.79512000  0.13899200  1
  O  O20  1  0.38286300  0.60153200  0.65417100  1
  O  O21  1  0.60153200  0.38286300  0.15417100  1
  O  O22  1  0.52652500  0.34613100  0.65974000  1
  O  O23  1  0.34613100  0.52652500  0.15974000  1
  O  O24  1  0.71019700  0.94043800  0.73416300  1
  O  O25  1  0.94043800  0.71019700  0.23416300  1
  O  O26  1  0.11078500  0.51741000  0.67044500  1
  O  O27  1  0.51741000  0.11078500  0.17044500  1
  O  O28  1  0.97022100  0.01728600  0.67894500  1
  O  O29  1  0.01728600  0.97022100  0.17894500  1
  O  O30  1  0.78441500  0.74568900  0.71055300  1
  O  O31  1  0.74568900  0.78441500  0.21055300  1
  O  O32  1  0.60964400  0.15853200  0.69115900  1
  O  O33  1  0.15853200  0.60964400  0.19115900  1
  O  O34  1  0.21207000  0.88141700  0.89641300  1
  O  O35  1  0.88141700  0.21207000  0.39641300  1
  O  O36  1  0.24731100  0.91047200  0.45821500  1
  O  O37  1  0.91047200  0.24731100  0.95821500  1
