# generated using pymatgen
data_As2PHCl3F11
_symmetry_space_group_name_H-M   'P 1'
_cell_length_a   24.63702900
_cell_length_b   8.75719100
_cell_length_c   12.20664900
_cell_angle_alpha   90.00000000
_cell_angle_beta   90.00000000
_cell_angle_gamma   90.00000000
_symmetry_Int_Tables_number   1
_chemical_formula_structural   As2PHCl3F11
_chemical_formula_sum   'As16 P8 H8 Cl24 F88'
_cell_volume   2633.59878675
_cell_formula_units_Z   8
loop_
 _symmetry_equiv_pos_site_id
 _symmetry_equiv_pos_as_xyz
  1  'x, y, z'
loop_
 _atom_site_type_symbol
 _atom_site_label
 _atom_site_symmetry_multiplicity
 _atom_site_fract_x
 _atom_site_fract_y
 _atom_site_fract_z
 _atom_site_occupancy
  As  As0  1  0.83646900  0.25000000  0.62270000  1
  As  As1  1  0.33646900  0.25000000  0.87730000  1
  As  As2  1  0.16353100  0.75000000  0.37730000  1
  As  As3  1  0.66353100  0.75000000  0.12270000  1
  As  As4  1  0.82551300  0.25000000  0.92967900  1
  As  As5  1  0.32551300  0.25000000  0.57032100  1
  As  As6  1  0.17448700  0.75000000  0.07032100  1
  As  As7  1  0.67448700  0.75000000  0.42967900  1
  As  As8  1  0.90295600  0.75000000  0.12355000  1
  As  As9  1  0.40295600  0.75000000  0.37645000  1
  As  As10  1  0.09704400  0.25000000  0.87645000  1
  As  As11  1  0.59704400  0.25000000  0.62355000  1
  As  As12  1  0.93529200  0.75000000  0.42947700  1
  As  As13  1  0.43529200  0.75000000  0.07052300  1
  As  As14  1  0.06470800  0.25000000  0.57052300  1
  As  As15  1  0.56470800  0.25000000  0.92947700  1
  P  P16  1  0.74500400  0.25000000  0.31491200  1
  P  P17  1  0.24500400  0.25000000  0.18508800  1
  P  P18  1  0.25499600  0.75000000  0.68508800  1
  P  P19  1  0.75499600  0.75000000  0.81491200  1
  P  P20  1  0.48898100  0.25000000  0.32090200  1
  P  P21  1  0.98898100  0.25000000  0.17909800  1
  P  P22  1  0.51101900  0.75000000  0.67909800  1
  P  P23  1  0.01101900  0.75000000  0.82090200  1
  H  H24  1  0.72605000  0.25000000  0.42404500  1
  H  H25  1  0.22605000  0.25000000  0.07595500  1
  H  H26  1  0.27395000  0.75000000  0.57595500  1
  H  H27  1  0.77395000  0.75000000  0.92404500  1
  H  H28  1  0.45718900  0.25000000  0.41689500  1
  H  H29  1  0.95718900  0.25000000  0.08310500  1
  H  H30  1  0.54281100  0.75000000  0.58310500  1
  H  H31  1  0.04281100  0.75000000  0.91689500  1
  Cl  Cl32  1  0.78849100  0.06707000  0.29061000  1
  Cl  Cl33  1  0.28849100  0.43293000  0.20939000  1
  Cl  Cl34  1  0.21150900  0.56707000  0.70939000  1
  Cl  Cl35  1  0.71150900  0.93293000  0.79061000  1
  Cl  Cl36  1  0.21150900  0.93293000  0.70939000  1
  Cl  Cl37  1  0.71150900  0.56707000  0.79061000  1
  Cl  Cl38  1  0.78849100  0.43293000  0.29061000  1
  Cl  Cl39  1  0.28849100  0.06707000  0.20939000  1
  Cl  Cl40  1  0.68187300  0.25000000  0.21794600  1
  Cl  Cl41  1  0.18187300  0.25000000  0.28205400  1
  Cl  Cl42  1  0.31812700  0.75000000  0.78205400  1
  Cl  Cl43  1  0.81812700  0.75000000  0.71794600  1
  Cl  Cl44  1  0.53440000  0.06722100  0.31986300  1
  Cl  Cl45  1  0.03440000  0.43277900  0.18013700  1
  Cl  Cl46  1  0.46560000  0.56722100  0.68013700  1
  Cl  Cl47  1  0.96560000  0.93277900  0.81986300  1
  Cl  Cl48  1  0.46560000  0.93277900  0.68013700  1
  Cl  Cl49  1  0.96560000  0.56722100  0.81986300  1
  Cl  Cl50  1  0.53440000  0.43277900  0.31986300  1
  Cl  Cl51  1  0.03440000  0.06722100  0.18013700  1
  Cl  Cl52  1  0.44041900  0.25000000  0.19482500  1
  Cl  Cl53  1  0.94041900  0.25000000  0.30517500  1
  Cl  Cl54  1  0.55958100  0.75000000  0.80517500  1
  Cl  Cl55  1  0.05958100  0.75000000  0.69482500  1
  F  F56  1  0.85969300  0.25000000  0.48747400  1
  F  F57  1  0.35969300  0.25000000  0.01252600  1
  F  F58  1  0.14030700  0.75000000  0.51252600  1
  F  F59  1  0.64030700  0.75000000  0.98747400  1
  F  F60  1  0.78693800  0.10997200  0.59743500  1
  F  F61  1  0.28693800  0.39002800  0.90256500  1
  F  F62  1  0.21306200  0.60997200  0.40256500  1
  F  F63  1  0.71306200  0.89002800  0.09743500  1
  F  F64  1  0.21306200  0.89002800  0.40256500  1
  F  F65  1  0.71306200  0.60997200  0.09743500  1
  F  F66  1  0.78693800  0.39002800  0.59743500  1
  F  F67  1  0.28693800  0.10997200  0.90256500  1
  F  F68  1  0.88129100  0.10796900  0.66677900  1
  F  F69  1  0.38129100  0.39203100  0.83322100  1
  F  F70  1  0.11870900  0.60796900  0.33322100  1
  F  F71  1  0.61870900  0.89203100  0.16677900  1
  F  F72  1  0.11870900  0.89203100  0.33322100  1
  F  F73  1  0.61870900  0.60796900  0.16677900  1
  F  F74  1  0.88129100  0.39203100  0.66677900  1
  F  F75  1  0.38129100  0.10796900  0.83322100  1
  F  F76  1  0.80658200  0.25000000  0.77315500  1
  F  F77  1  0.30658200  0.25000000  0.72684500  1
  F  F78  1  0.19341800  0.75000000  0.22684500  1
  F  F79  1  0.69341800  0.75000000  0.27315500  1
  F  F80  1  0.75521500  0.25000000  0.94878400  1
  F  F81  1  0.25521500  0.25000000  0.55121600  1
  F  F82  1  0.24478500  0.75000000  0.05121600  1
  F  F83  1  0.74478500  0.75000000  0.44878400  1
  F  F84  1  0.83977700  0.25000000  0.06974900  1
  F  F85  1  0.33977700  0.25000000  0.43025100  1
  F  F86  1  0.16022300  0.75000000  0.93025100  1
  F  F87  1  0.66022300  0.75000000  0.56974900  1
  F  F88  1  0.82488100  0.05011400  0.91832200  1
  F  F89  1  0.32488100  0.44988600  0.58167800  1
  F  F90  1  0.17511900  0.55011400  0.08167800  1
  F  F91  1  0.67511900  0.94988600  0.41832200  1
  F  F92  1  0.17511900  0.94988600  0.08167800  1
  F  F93  1  0.67511900  0.55011400  0.41832200  1
  F  F94  1  0.82488100  0.44988600  0.91832200  1
  F  F95  1  0.32488100  0.05011400  0.58167800  1
  F  F96  1  0.94079500  0.75000000  0.25912000  1
  F  F97  1  0.44079500  0.75000000  0.24088000  1
  F  F98  1  0.05920500  0.25000000  0.74088000  1
  F  F99  1  0.55920500  0.25000000  0.75912000  1
  F  F100  1  0.84137500  0.75000000  0.19501000  1
  F  F101  1  0.34137500  0.75000000  0.30499000  1
  F  F102  1  0.15862500  0.25000000  0.80499000  1
  F  F103  1  0.65862500  0.25000000  0.69501000  1
  F  F104  1  0.93351500  0.75000000  0.57206600  1
  F  F105  1  0.43351500  0.75000000  0.92793400  1
  F  F106  1  0.06648500  0.25000000  0.42793400  1
  F  F107  1  0.56648500  0.25000000  0.07206600  1
  F  F108  1  0.96856100  0.75000000  0.06348300  1
  F  F109  1  0.46856100  0.75000000  0.43651700  1
  F  F110  1  0.03143900  0.25000000  0.93651700  1
  F  F111  1  0.53143900  0.25000000  0.56348300  1
  F  F112  1  0.87134900  0.75000000  0.99491100  1
  F  F113  1  0.37134900  0.75000000  0.50508900  1
  F  F114  1  0.12865100  0.25000000  0.00508900  1
  F  F115  1  0.62865100  0.25000000  0.49491100  1
  F  F116  1  0.90549800  0.95071700  0.12974300  1
  F  F117  1  0.40549800  0.54928300  0.37025700  1
  F  F118  1  0.09450200  0.45071700  0.87025700  1
  F  F119  1  0.59450200  0.04928300  0.62974300  1
  F  F120  1  0.09450200  0.04928300  0.87025700  1
  F  F121  1  0.59450200  0.45071700  0.62974300  1
  F  F122  1  0.90549800  0.54928300  0.12974300  1
  F  F123  1  0.40549800  0.95071700  0.37025700  1
  F  F124  1  0.89463300  0.25000000  0.89307400  1
  F  F125  1  0.39463300  0.25000000  0.60692600  1
  F  F126  1  0.10536700  0.75000000  0.10692600  1
  F  F127  1  0.60536700  0.75000000  0.39307400  1
  F  F128  1  0.88566400  0.89041700  0.41340400  1
  F  F129  1  0.38566400  0.60958300  0.08659600  1
  F  F130  1  0.11433600  0.39041700  0.58659600  1
  F  F131  1  0.61433600  0.10958300  0.91340400  1
  F  F132  1  0.11433600  0.10958300  0.58659600  1
  F  F133  1  0.61433600  0.39041700  0.91340400  1
  F  F134  1  0.88566400  0.60958300  0.41340400  1
  F  F135  1  0.38566400  0.89041700  0.08659600  1
  F  F136  1  0.98540600  0.89018300  0.41737000  1
  F  F137  1  0.48540600  0.60981700  0.08263000  1
  F  F138  1  0.01459400  0.39018300  0.58263000  1
  F  F139  1  0.51459400  0.10981700  0.91737000  1
  F  F140  1  0.01459400  0.10981700  0.58263000  1
  F  F141  1  0.51459400  0.39018300  0.91737000  1
  F  F142  1  0.98540600  0.60981700  0.41737000  1
  F  F143  1  0.48540600  0.89018300  0.08263000  1
