# generated using pymatgen
data_NaGdP2H2CO7
_symmetry_space_group_name_H-M   'P 1'
_cell_length_a   15.22958300
_cell_length_b   6.66984200
_cell_length_c   6.76949582
_cell_angle_alpha   88.56271839
_cell_angle_beta   90.00000000
_cell_angle_gamma   90.00000000
_symmetry_Int_Tables_number   1
_chemical_formula_structural   NaGdP2H2CO7
_chemical_formula_sum   'Na4 Gd4 P8 H8 C4 O28'
_cell_volume   687.42167766
_cell_formula_units_Z   4
loop_
 _symmetry_equiv_pos_site_id
 _symmetry_equiv_pos_as_xyz
  1  'x, y, z'
loop_
 _atom_site_type_symbol
 _atom_site_label
 _atom_site_symmetry_multiplicity
 _atom_site_fract_x
 _atom_site_fract_y
 _atom_site_fract_z
 _atom_site_occupancy
  Na  Na0  1  0.52837100  0.86044800  0.70046300  1
  Na  Na1  1  0.02837100  0.63955200  0.29953700  1
  Na  Na2  1  0.47162900  0.13955200  0.29953700  1
  Na  Na3  1  0.97162900  0.36044800  0.70046300  1
  Gd  Gd4  1  0.39724100  0.40040000  0.82509100  1
  Gd  Gd5  1  0.89724100  0.09960000  0.17490900  1
  Gd  Gd6  1  0.60275900  0.59960000  0.17490900  1
  Gd  Gd7  1  0.10275900  0.90040000  0.82509100  1
  P  P8  1  0.59331100  0.36775100  0.67970000  1
  P  P9  1  0.09331100  0.13224900  0.32030000  1
  P  P10  1  0.40668900  0.63224900  0.32030000  1
  P  P11  1  0.90668900  0.86775100  0.67970000  1
  P  P12  1  0.34000300  0.89531200  0.96934200  1
  P  P13  1  0.84000300  0.60468800  0.03065800  1
  P  P14  1  0.65999700  0.10468800  0.03065800  1
  P  P15  1  0.15999700  0.39531200  0.96934200  1
  H  H16  1  0.26117300  0.67703700  0.19289100  1
  H  H17  1  0.76117300  0.82296300  0.80710900  1
  H  H18  1  0.73882700  0.32296300  0.80710900  1
  H  H19  1  0.23882700  0.17703700  0.19289100  1
  H  H20  1  0.29804400  0.89112900  0.31875800  1
  H  H21  1  0.79804400  0.60887100  0.68124200  1
  H  H22  1  0.70195600  0.10887100  0.68124200  1
  H  H23  1  0.20195600  0.39112900  0.31875800  1
  C  C24  1  0.31756600  0.77751600  0.21179600  1
  C  C25  1  0.81756600  0.72248400  0.78820400  1
  C  C26  1  0.68243400  0.22248400  0.78820400  1
  C  C27  1  0.18243400  0.27751600  0.21179600  1
  O  O28  1  0.39769800  0.75353500  0.85164700  1
  O  O29  1  0.89769800  0.74646500  0.14835300  1
  O  O30  1  0.60230200  0.24646500  0.14835300  1
  O  O31  1  0.10230200  0.25353500  0.85164700  1
  O  O32  1  0.51583400  0.22316400  0.63723500  1
  O  O33  1  0.01583400  0.27683600  0.36276500  1
  O  O34  1  0.48416600  0.77683600  0.36276500  1
  O  O35  1  0.98416600  0.72316400  0.63723500  1
  O  O36  1  0.62960600  0.47489000  0.49337500  1
  O  O37  1  0.12960600  0.02511000  0.50662500  1
  O  O38  1  0.37039400  0.52511000  0.50662500  1
  O  O39  1  0.87039400  0.97489000  0.49337500  1
  O  O40  1  0.38764900  0.09534100  0.00546800  1
  O  O41  1  0.88764900  0.40465900  0.99453200  1
  O  O42  1  0.61235100  0.90465900  0.99453200  1
  O  O43  1  0.11235100  0.59534100  0.00546800  1
  O  O44  1  0.24898500  0.93094500  0.87567600  1
  O  O45  1  0.74898500  0.56905500  0.12432400  1
  O  O46  1  0.75101500  0.06905500  0.12432400  1
  O  O47  1  0.25101500  0.43094500  0.87567600  1
  O  O48  1  0.55902900  0.52275400  0.82899200  1
  O  O49  1  0.05902900  0.97724600  0.17100800  1
  O  O50  1  0.44097100  0.47724600  0.17100800  1
  O  O51  1  0.94097100  0.02275400  0.82899200  1
  O  O52  1  0.33773000  0.16048400  0.58636600  1
  O  O53  1  0.83773000  0.33951600  0.41363400  1
  O  O54  1  0.66227000  0.83951600  0.41363400  1
  O  O55  1  0.16227000  0.66048400  0.58636600  1
