# generated using pymatgen
data_Tb4NiB13
_symmetry_space_group_name_H-M   'P 1'
_cell_length_a   7.36204400
_cell_length_b   7.36204400
_cell_length_c   6.95828000
_cell_angle_alpha   90.00000000
_cell_angle_beta   90.00000000
_cell_angle_gamma   90.00000000
_symmetry_Int_Tables_number   1
_chemical_formula_structural   Tb4NiB13
_chemical_formula_sum   'Tb8 Ni2 B26'
_cell_volume   377.13663186
_cell_formula_units_Z   2
loop_
 _symmetry_equiv_pos_site_id
 _symmetry_equiv_pos_as_xyz
  1  'x, y, z'
loop_
 _atom_site_type_symbol
 _atom_site_label
 _atom_site_symmetry_multiplicity
 _atom_site_fract_x
 _atom_site_fract_y
 _atom_site_fract_z
 _atom_site_occupancy
  Tb  Tb0  1  0.68524700  0.18036700  0.50000000  1
  Tb  Tb1  1  0.31475300  0.81963300  0.50000000  1
  Tb  Tb2  1  0.18524700  0.31963300  0.00000000  1
  Tb  Tb3  1  0.81475300  0.68036700  0.00000000  1
  Tb  Tb4  1  0.81963300  0.68524700  0.50000000  1
  Tb  Tb5  1  0.18036700  0.31475300  0.50000000  1
  Tb  Tb6  1  0.68036700  0.18524700  0.00000000  1
  Tb  Tb7  1  0.31963300  0.81475300  0.00000000  1
  Ni  Ni8  1  0.50000000  0.50000000  0.50000000  1
  Ni  Ni9  1  0.00000000  0.00000000  0.00000000  1
  B  B10  1  0.50000000  0.50000000  0.00000000  1
  B  B11  1  0.00000000  0.00000000  0.50000000  1
  B  B12  1  0.90656100  0.40656100  0.25000000  1
  B  B13  1  0.09343900  0.59343900  0.25000000  1
  B  B14  1  0.40656100  0.09343900  0.75000000  1
  B  B15  1  0.59343900  0.90656100  0.75000000  1
  B  B16  1  0.59343900  0.90656100  0.25000000  1
  B  B17  1  0.40656100  0.09343900  0.25000000  1
  B  B18  1  0.90656100  0.40656100  0.75000000  1
  B  B19  1  0.09343900  0.59343900  0.75000000  1
  B  B20  1  0.54002000  0.66975600  0.24433700  1
  B  B21  1  0.45998000  0.33024400  0.24433700  1
  B  B22  1  0.04002000  0.83024400  0.74433700  1
  B  B23  1  0.95998000  0.16975600  0.74433700  1
  B  B24  1  0.33024400  0.54002000  0.24433700  1
  B  B25  1  0.66975600  0.45998000  0.24433700  1
  B  B26  1  0.16975600  0.04002000  0.74433700  1
  B  B27  1  0.83024400  0.95998000  0.74433700  1
  B  B28  1  0.45998000  0.33024400  0.75566300  1
  B  B29  1  0.54002000  0.66975600  0.75566300  1
  B  B30  1  0.95998000  0.16975600  0.25566300  1
  B  B31  1  0.04002000  0.83024400  0.25566300  1
  B  B32  1  0.66975600  0.45998000  0.75566300  1
  B  B33  1  0.33024400  0.54002000  0.75566300  1
  B  B34  1  0.83024400  0.95998000  0.25566300  1
  B  B35  1  0.16975600  0.04002000  0.25566300  1
