# generated using pymatgen
data_ZnS
_symmetry_space_group_name_H-M   'P 1'
_cell_length_a   3.87554662
_cell_length_b   3.87554662
_cell_length_c   56.54881048
_cell_angle_alpha   88.03624545
_cell_angle_beta   88.03624545
_cell_angle_gamma   59.99998950
_symmetry_Int_Tables_number   1
_chemical_formula_structural   ZnS
_chemical_formula_sum   'Zn18 S18'
_cell_volume   734.98714635
_cell_formula_units_Z   18
loop_
 _symmetry_equiv_pos_site_id
 _symmetry_equiv_pos_as_xyz
  1  'x, y, z'
loop_
 _atom_site_type_symbol
 _atom_site_label
 _atom_site_symmetry_multiplicity
 _atom_site_fract_x
 _atom_site_fract_y
 _atom_site_fract_z
 _atom_site_occupancy
  Zn  Zn0  1  0.99999500  0.99999500  0.00001500  1
  Zn  Zn1  1  0.94443200  0.94443200  0.16670300  1
  Zn  Zn2  1  0.87036400  0.87036400  0.38890700  1
  Zn  Zn3  1  0.81480600  0.81480600  0.55558100  1
  Zn  Zn4  1  0.75925100  0.75925100  0.72224800  1
  Zn  Zn5  1  0.68518700  0.68518700  0.94443900  1
  Zn  Zn6  1  0.62962300  0.62962300  0.11113000  1
  Zn  Zn7  1  0.57406600  0.57406600  0.27780300  1
  Zn  Zn8  1  0.51851300  0.51851300  0.44446200  1
  Zn  Zn9  1  0.44443600  0.44443600  0.66669100  1
  Zn  Zn10  1  0.38887800  0.38887800  0.83336700  1
  Zn  Zn11  1  0.31480800  0.31480800  0.05557700  1
  Zn  Zn12  1  0.25925100  0.25925100  0.22224800  1
  Zn  Zn13  1  0.22221200  0.22221200  0.33336500  1
  Zn  Zn14  1  0.16666200  0.16666200  0.50001300  1
  Zn  Zn15  1  0.12962100  0.12962100  0.61113600  1
  Zn  Zn16  1  0.07406100  0.07406100  0.77781600  1
  Zn  Zn17  1  0.03702700  0.03702700  0.88891800  1
  S  S18  1  0.98612200  0.98612200  0.04163500  1
  S  S19  1  0.93057000  0.93057000  0.20829000  1
  S  S20  1  0.85649600  0.85649600  0.43051200  1
  S  S21  1  0.80092700  0.80092700  0.59721900  1
  S  S22  1  0.74538800  0.74538800  0.76383600  1
  S  S23  1  0.67130400  0.67130400  0.98608900  1
  S  S24  1  0.61575600  0.61575600  0.15273200  1
  S  S25  1  0.56018600  0.56018600  0.31944100  1
  S  S26  1  0.50464800  0.50464800  0.48605500  1
  S  S27  1  0.43056700  0.43056700  0.70829800  1
  S  S28  1  0.37500500  0.37500500  0.87498400  1
  S  S29  1  0.30093600  0.30093600  0.09719200  1
  S  S30  1  0.24539800  0.24539800  0.26380700  1
  S  S31  1  0.20834500  0.20834500  0.37496500  1
  S  S32  1  0.15280700  0.15280700  0.54158000  1
  S  S33  1  0.11575300  0.11575300  0.65274200  1
  S  S34  1  0.06021200  0.06021200  0.81936300  1
  S  S35  1  0.02317700  0.02317700  0.93047000  1
