# generated using pymatgen
data_CuH5N2Cl3
_symmetry_space_group_name_H-M   'P 1'
_cell_length_a   14.59673900
_cell_length_b   5.67711000
_cell_length_c   7.14277300
_cell_angle_alpha   90.00000000
_cell_angle_beta   90.00000000
_cell_angle_gamma   90.00000000
_symmetry_Int_Tables_number   1
_chemical_formula_structural   CuH5N2Cl3
_chemical_formula_sum   'Cu4 H20 N8 Cl12'
_cell_volume   591.90226263
_cell_formula_units_Z   4
loop_
 _symmetry_equiv_pos_site_id
 _symmetry_equiv_pos_as_xyz
  1  'x, y, z'
loop_
 _atom_site_type_symbol
 _atom_site_label
 _atom_site_symmetry_multiplicity
 _atom_site_fract_x
 _atom_site_fract_y
 _atom_site_fract_z
 _atom_site_occupancy
  Cu  Cu0  1  0.95393700  0.25000000  0.35190600  1
  Cu  Cu1  1  0.45393700  0.25000000  0.14809400  1
  Cu  Cu2  1  0.04606300  0.75000000  0.64809400  1
  Cu  Cu3  1  0.54606300  0.75000000  0.85190600  1
  H  H4  1  0.06862100  0.10247400  0.09811100  1
  H  H5  1  0.56862100  0.39752600  0.40188900  1
  H  H6  1  0.93137900  0.60247400  0.90188900  1
  H  H7  1  0.43137900  0.89752600  0.59811100  1
  H  H8  1  0.93137900  0.89752600  0.90188900  1
  H  H9  1  0.43137900  0.60247400  0.59811100  1
  H  H10  1  0.06862100  0.39752600  0.09811100  1
  H  H11  1  0.56862100  0.10247400  0.40188900  1
  H  H12  1  0.16894400  0.40003900  0.35012700  1
  H  H13  1  0.66894400  0.09996100  0.14987300  1
  H  H14  1  0.83105600  0.90003900  0.64987300  1
  H  H15  1  0.33105600  0.59996100  0.85012700  1
  H  H16  1  0.83105600  0.59996100  0.64987300  1
  H  H17  1  0.33105600  0.90003900  0.85012700  1
  H  H18  1  0.16894400  0.09996100  0.35012700  1
  H  H19  1  0.66894400  0.40003900  0.14987300  1
  H  H20  1  0.21441600  0.25000000  0.16418000  1
  H  H21  1  0.71441600  0.25000000  0.33582000  1
  H  H22  1  0.78558400  0.75000000  0.83582000  1
  H  H23  1  0.28558400  0.75000000  0.66418000  1
  N  N24  1  0.07166600  0.25000000  0.18284100  1
  N  N25  1  0.57166600  0.25000000  0.31715900  1
  N  N26  1  0.92833400  0.75000000  0.81715900  1
  N  N27  1  0.42833400  0.75000000  0.68284100  1
  N  N28  1  0.16200700  0.25000000  0.26641100  1
  N  N29  1  0.66200700  0.25000000  0.23358900  1
  N  N30  1  0.83799300  0.75000000  0.73358900  1
  N  N31  1  0.33799300  0.75000000  0.76641100  1
  Cl  Cl32  1  0.03918600  0.25000000  0.62238200  1
  Cl  Cl33  1  0.53918600  0.25000000  0.87761800  1
  Cl  Cl34  1  0.96081400  0.75000000  0.37761800  1
  Cl  Cl35  1  0.46081400  0.75000000  0.12238200  1
  Cl  Cl36  1  0.87843600  0.25000000  0.06795900  1
  Cl  Cl37  1  0.37843600  0.25000000  0.43204100  1
  Cl  Cl38  1  0.12156400  0.75000000  0.93204100  1
  Cl  Cl39  1  0.62156400  0.75000000  0.56795900  1
  Cl  Cl40  1  0.81963500  0.25000000  0.52859900  1
  Cl  Cl41  1  0.31963500  0.25000000  0.97140100  1
  Cl  Cl42  1  0.18036500  0.75000000  0.47140100  1
  Cl  Cl43  1  0.68036500  0.75000000  0.02859900  1
