# generated using pymatgen
data_Co(CO3)2
_symmetry_space_group_name_H-M   'P 1'
_cell_length_a   8.15830900
_cell_length_b   8.64731200
_cell_length_c   9.57783357
_cell_angle_alpha   85.04626789
_cell_angle_beta   90.00000000
_cell_angle_gamma   90.00000000
_symmetry_Int_Tables_number   1
_chemical_formula_structural   Co(CO3)2
_chemical_formula_sum   'Co4 C8 O24'
_cell_volume   673.16779587
_cell_formula_units_Z   4
loop_
 _symmetry_equiv_pos_site_id
 _symmetry_equiv_pos_as_xyz
  1  'x, y, z'
loop_
 _atom_site_type_symbol
 _atom_site_label
 _atom_site_symmetry_multiplicity
 _atom_site_fract_x
 _atom_site_fract_y
 _atom_site_fract_z
 _atom_site_occupancy
  Co  Co0  1  0.00000000  0.50000000  0.50000000  1
  Co  Co1  1  0.50000000  0.50000000  0.00000000  1
  Co  Co2  1  0.50000000  0.00000000  0.50000000  1
  Co  Co3  1  0.00000000  0.00000000  0.00000000  1
  C  C4  1  0.69217700  0.39919500  0.29870500  1
  C  C5  1  0.19217700  0.60080500  0.20129500  1
  C  C6  1  0.30782300  0.60080500  0.70129500  1
  C  C7  1  0.80782300  0.39919500  0.79870500  1
  C  C8  1  0.83980600  0.82935600  0.54914500  1
  C  C9  1  0.33980600  0.17064400  0.95085500  1
  C  C10  1  0.16019400  0.17064400  0.45085500  1
  C  C11  1  0.66019400  0.82935600  0.04914500  1
  O  O12  1  0.78419300  0.40193000  0.39273600  1
  O  O13  1  0.28419300  0.59807000  0.10726400  1
  O  O14  1  0.21580700  0.59807000  0.60726400  1
  O  O15  1  0.71580700  0.40193000  0.89273600  1
  O  O16  1  0.60442500  0.40993200  0.20115100  1
  O  O17  1  0.10442500  0.59006800  0.29884900  1
  O  O18  1  0.39557500  0.59006800  0.79884900  1
  O  O19  1  0.89557500  0.40993200  0.70115100  1
  O  O20  1  0.86085600  0.70596700  0.50756200  1
  O  O21  1  0.36085600  0.29403300  0.99243800  1
  O  O22  1  0.13914400  0.29403300  0.49243800  1
  O  O23  1  0.63914400  0.70596700  0.00756200  1
  O  O24  1  0.82234200  0.95069500  0.59127000  1
  O  O25  1  0.32234200  0.04930500  0.90873000  1
  O  O26  1  0.17765800  0.04930500  0.40873000  1
  O  O27  1  0.67765800  0.95069500  0.09127000  1
  O  O28  1  0.58564800  0.10064600  0.35190400  1
  O  O29  1  0.08564800  0.89935400  0.14809600  1
  O  O30  1  0.41435200  0.89935400  0.64809600  1
  O  O31  1  0.91435200  0.10064600  0.85190400  1
  O  O32  1  0.49883700  0.80756500  0.45784100  1
  O  O33  1  0.99883700  0.19243500  0.04215900  1
  O  O34  1  0.50116300  0.19243500  0.54215900  1
  O  O35  1  0.00116300  0.80756500  0.95784100  1
