# generated using pymatgen
data_GaAsH5CNO5
_symmetry_space_group_name_H-M   'P 1'
_cell_length_a   4.72685863
_cell_length_b   6.18295100
_cell_length_c   19.29358214
_cell_angle_alpha   90.00000000
_cell_angle_beta   96.50336745
_cell_angle_gamma   90.00000000
_symmetry_Int_Tables_number   1
_chemical_formula_structural   GaAsH5CNO5
_chemical_formula_sum   'Ga4 As4 H20 C4 N4 O20'
_cell_volume   560.24457419
_cell_formula_units_Z   4
loop_
 _symmetry_equiv_pos_site_id
 _symmetry_equiv_pos_as_xyz
  1  'x, y, z'
loop_
 _atom_site_type_symbol
 _atom_site_label
 _atom_site_symmetry_multiplicity
 _atom_site_fract_x
 _atom_site_fract_y
 _atom_site_fract_z
 _atom_site_occupancy
  Ga  Ga0  1  0.99269500  0.86557600  0.74616600  1
  Ga  Ga1  1  0.00730500  0.36557600  0.75383400  1
  Ga  Ga2  1  0.00730500  0.13442400  0.25383400  1
  Ga  Ga3  1  0.99269500  0.63442400  0.24616600  1
  As  As4  1  0.51151700  0.10750100  0.84563200  1
  As  As5  1  0.48848300  0.60750100  0.65436800  1
  As  As6  1  0.48848300  0.89249900  0.15436800  1
  As  As7  1  0.51151700  0.39249900  0.34563200  1
  H  H8  1  0.09545900  0.11593800  0.06594200  1
  H  H9  1  0.90454100  0.61593800  0.43405800  1
  H  H10  1  0.90454100  0.88406200  0.93405800  1
  H  H11  1  0.09545900  0.38406200  0.56594200  1
  H  H12  1  0.85687800  0.29402700  0.09243500  1
  H  H13  1  0.14312200  0.79402700  0.40756500  1
  H  H14  1  0.14312200  0.70597300  0.90756500  1
  H  H15  1  0.85687800  0.20597300  0.59243500  1
  H  H16  1  0.79390400  0.17595100  0.01173400  1
  H  H17  1  0.20609600  0.67595100  0.48826600  1
  H  H18  1  0.20609600  0.82404900  0.98826600  1
  H  H19  1  0.79390400  0.32404900  0.51173400  1
  H  H20  1  0.26516700  0.48218700  0.05465600  1
  H  H21  1  0.73483300  0.98218700  0.44534400  1
  H  H22  1  0.73483300  0.51781300  0.94534400  1
  H  H23  1  0.26516700  0.01781300  0.55465600  1
  H  H24  1  0.20950000  0.33548500  0.97415800  1
  H  H25  1  0.79050000  0.83548500  0.52584200  1
  H  H26  1  0.79050000  0.66451500  0.02584200  1
  H  H27  1  0.20950000  0.16451500  0.47415800  1
  C  C28  1  0.10313600  0.41350500  0.01535500  1
  C  C29  1  0.89686400  0.91350500  0.48464500  1
  C  C30  1  0.89686400  0.58649500  0.98464500  1
  C  C31  1  0.10313600  0.08649500  0.51535500  1
  N  N32  1  0.94844600  0.24155400  0.04915000  1
  N  N33  1  0.05155400  0.74155400  0.45085000  1
  N  N34  1  0.05155400  0.75844600  0.95085000  1
  N  N35  1  0.94844600  0.25844600  0.54915000  1
  O  O36  1  0.65328500  0.07846000  0.92974800  1
  O  O37  1  0.34671500  0.57846000  0.57025200  1
  O  O38  1  0.34671500  0.92154000  0.07025200  1
  O  O39  1  0.65328500  0.42154000  0.42974800  1
  O  O40  1  0.31030100  0.88014400  0.82271300  1
  O  O41  1  0.68969900  0.38014400  0.67728700  1
  O  O42  1  0.68969900  0.11985600  0.17728700  1
  O  O43  1  0.31030100  0.61985600  0.32271300  1
  O  O44  1  0.31716500  0.34233200  0.83168400  1
  O  O45  1  0.68283500  0.84233200  0.66831600  1
  O  O46  1  0.68283500  0.65766800  0.16831600  1
  O  O47  1  0.31716500  0.15766800  0.33168400  1
  O  O48  1  0.79082700  0.11245900  0.79310800  1
  O  O49  1  0.20917300  0.61245900  0.70689200  1
  O  O50  1  0.20917300  0.88754100  0.20689200  1
  O  O51  1  0.79082700  0.38754100  0.29310800  1
  O  O52  1  0.13203500  0.11937600  0.69829800  1
  O  O53  1  0.86796500  0.61937600  0.80170200  1
  O  O54  1  0.86796500  0.88062400  0.30170200  1
  O  O55  1  0.13203500  0.38062400  0.19829800  1
