# generated using pymatgen
data_YMg30NiO32
_symmetry_space_group_name_H-M   'P 1'
_cell_length_a   8.60215300
_cell_length_b   8.60215300
_cell_length_c   8.54995600
_cell_angle_alpha   90.00000000
_cell_angle_beta   90.00000000
_cell_angle_gamma   90.00000000
_symmetry_Int_Tables_number   1
_chemical_formula_structural   YMg30NiO32
_chemical_formula_sum   'Y1 Mg30 Ni1 O32'
_cell_volume   632.67140394
_cell_formula_units_Z   1
loop_
 _symmetry_equiv_pos_site_id
 _symmetry_equiv_pos_as_xyz
  1  'x, y, z'
loop_
 _atom_site_type_symbol
 _atom_site_label
 _atom_site_symmetry_multiplicity
 _atom_site_fract_x
 _atom_site_fract_y
 _atom_site_fract_z
 _atom_site_occupancy
  Y  Y0  1  0.00000000  0.00000000  0.00000000  1
  Mg  Mg1  1  0.50000000  0.00000000  0.00000000  1
  Mg  Mg2  1  0.00000000  0.50000000  0.00000000  1
  Mg  Mg3  1  0.00000000  0.00000000  0.50000000  1
  Mg  Mg4  1  0.50000000  0.00000000  0.50000000  1
  Mg  Mg5  1  0.00000000  0.50000000  0.50000000  1
  Mg  Mg6  1  0.50000000  0.50000000  0.50000000  1
  Mg  Mg7  1  0.25990900  0.25990900  0.00000000  1
  Mg  Mg8  1  0.74009100  0.25990900  0.00000000  1
  Mg  Mg9  1  0.25990900  0.74009100  0.00000000  1
  Mg  Mg10  1  0.74009100  0.74009100  0.00000000  1
  Mg  Mg11  1  0.25182000  0.25182000  0.50000000  1
  Mg  Mg12  1  0.74818000  0.25182000  0.50000000  1
  Mg  Mg13  1  0.25182000  0.74818000  0.50000000  1
  Mg  Mg14  1  0.74818000  0.74818000  0.50000000  1
  Mg  Mg15  1  0.25757300  0.00000000  0.25553200  1
  Mg  Mg16  1  0.74242700  0.00000000  0.25553200  1
  Mg  Mg17  1  0.25305400  0.50000000  0.24802400  1
  Mg  Mg18  1  0.74694600  0.50000000  0.24802400  1
  Mg  Mg19  1  0.25757300  0.00000000  0.74446800  1
  Mg  Mg20  1  0.74242700  0.00000000  0.74446800  1
  Mg  Mg21  1  0.25305400  0.50000000  0.75197600  1
  Mg  Mg22  1  0.74694600  0.50000000  0.75197600  1
  Mg  Mg23  1  0.00000000  0.25757300  0.25553200  1
  Mg  Mg24  1  0.50000000  0.25305400  0.24802400  1
  Mg  Mg25  1  0.00000000  0.74242700  0.25553200  1
  Mg  Mg26  1  0.50000000  0.74694600  0.24802400  1
  Mg  Mg27  1  0.00000000  0.25757300  0.74446800  1
  Mg  Mg28  1  0.50000000  0.25305400  0.75197600  1
  Mg  Mg29  1  0.00000000  0.74242700  0.74446800  1
  Mg  Mg30  1  0.50000000  0.74694600  0.75197600  1
  Ni  Ni31  1  0.50000000  0.50000000  0.00000000  1
  O  O32  1  0.00000000  0.00000000  0.25970900  1
  O  O33  1  0.50000000  0.00000000  0.25387500  1
  O  O34  1  0.00000000  0.50000000  0.25387500  1
  O  O35  1  0.50000000  0.50000000  0.25788800  1
  O  O36  1  0.00000000  0.00000000  0.74029100  1
  O  O37  1  0.50000000  0.00000000  0.74612500  1
  O  O38  1  0.00000000  0.50000000  0.74612500  1
  O  O39  1  0.50000000  0.50000000  0.74211200  1
  O  O40  1  0.24962000  0.24962000  0.24968200  1
  O  O41  1  0.75038000  0.24962000  0.24968200  1
  O  O42  1  0.24962000  0.75038000  0.24968200  1
  O  O43  1  0.75038000  0.75038000  0.24968200  1
  O  O44  1  0.24962000  0.24962000  0.75031800  1
  O  O45  1  0.75038000  0.24962000  0.75031800  1
  O  O46  1  0.24962000  0.75038000  0.75031800  1
  O  O47  1  0.75038000  0.75038000  0.75031800  1
  O  O48  1  0.25774900  0.00000000  0.00000000  1
  O  O49  1  0.74225100  0.00000000  0.00000000  1
  O  O50  1  0.23567700  0.50000000  0.00000000  1
  O  O51  1  0.76432300  0.50000000  0.00000000  1
  O  O52  1  0.25045400  0.00000000  0.50000000  1
  O  O53  1  0.74954600  0.00000000  0.50000000  1
  O  O54  1  0.24892800  0.50000000  0.50000000  1
  O  O55  1  0.75107200  0.50000000  0.50000000  1
  O  O56  1  0.00000000  0.25774900  0.00000000  1
  O  O57  1  0.50000000  0.23567700  0.00000000  1
  O  O58  1  0.00000000  0.74225100  0.00000000  1
  O  O59  1  0.50000000  0.76432300  0.00000000  1
  O  O60  1  0.00000000  0.25045400  0.50000000  1
  O  O61  1  0.50000000  0.24892800  0.50000000  1
  O  O62  1  0.00000000  0.74954600  0.50000000  1
  O  O63  1  0.50000000  0.75107200  0.50000000  1
