# generated using pymatgen
data_U3H2OF12
_symmetry_space_group_name_H-M   'P 1'
_cell_length_a   8.54712228
_cell_length_b   8.54712228
_cell_length_c   8.62333605
_cell_angle_alpha   63.25457760
_cell_angle_beta   63.25457760
_cell_angle_gamma   88.39241910
_symmetry_Int_Tables_number   1
_chemical_formula_structural   U3H2OF12
_chemical_formula_sum   'U6 H4 O2 F24'
_cell_volume   490.20986414
_cell_formula_units_Z   2
loop_
 _symmetry_equiv_pos_site_id
 _symmetry_equiv_pos_as_xyz
  1  'x, y, z'
loop_
 _atom_site_type_symbol
 _atom_site_label
 _atom_site_symmetry_multiplicity
 _atom_site_fract_x
 _atom_site_fract_y
 _atom_site_fract_z
 _atom_site_occupancy
  U  U0  1  0.20503900  0.82934800  0.92824900  1
  U  U1  1  0.82934800  0.20503900  0.92824900  1
  U  U2  1  0.32046600  0.97911300  0.32154400  1
  U  U3  1  0.97911300  0.32046600  0.32154400  1
  U  U4  1  0.41107500  0.41107500  0.44116200  1
  U  U5  1  0.78256100  0.78256100  0.76829800  1
  H  H6  1  0.46785700  0.33614700  0.79675900  1
  H  H7  1  0.33614700  0.46785700  0.79675900  1
  H  H8  1  0.78672200  0.65409200  0.47534700  1
  H  H9  1  0.65409200  0.78672200  0.47534700  1
  O  O10  1  0.42963100  0.42963100  0.71050300  1
  O  O11  1  0.73431900  0.73431900  0.52722500  1
  F  F12  1  0.38417800  0.68692300  0.39624700  1
  F  F13  1  0.68692300  0.38417800  0.39624700  1
  F  F14  1  0.28280700  0.89584700  0.11281200  1
  F  F15  1  0.89584700  0.28280700  0.11281200  1
  F  F16  1  0.32239300  0.85830000  0.61264200  1
  F  F17  1  0.85830000  0.32239300  0.61264200  1
  F  F18  1  0.49245500  0.78459900  0.84217300  1
  F  F19  1  0.78459900  0.49245500  0.84217300  1
  F  F20  1  0.34994100  0.11874500  0.69806100  1
  F  F21  1  0.11874500  0.34994100  0.69806100  1
  F  F22  1  0.62791700  0.98524900  0.24017100  1
  F  F23  1  0.98524900  0.62791700  0.24017100  1
  F  F24  1  0.44548500  0.22196200  0.31503700  1
  F  F25  1  0.22196200  0.44548500  0.31503700  1
  F  F26  1  0.53450500  0.19117400  0.98751400  1
  F  F27  1  0.19117400  0.53450500  0.98751400  1
  F  F28  1  0.97730000  0.74932000  0.88454500  1
  F  F29  1  0.74932000  0.97730000  0.88454500  1
  F  F30  1  0.05169700  0.78724100  0.51843400  1
  F  F31  1  0.78724100  0.05169700  0.51843400  1
  F  F32  1  0.99974500  0.99974500  0.99790900  1
  F  F33  1  0.08201400  0.08201400  0.52975500  1
  F  F34  1  0.18045200  0.18045200  0.17407000  1
  F  F35  1  0.60243000  0.60243000  0.11080000  1
