# generated using pymatgen
data_Sr3Ta7Si(BiO4)9
_symmetry_space_group_name_H-M   'P 1'
_cell_length_a   5.55841400
_cell_length_b   5.53253781
_cell_length_c   25.31513979
_cell_angle_alpha   90.49934158
_cell_angle_beta   88.78924118
_cell_angle_gamma   89.76514248
_symmetry_Int_Tables_number   1
_chemical_formula_structural   Sr3Ta7Si(BiO4)9
_chemical_formula_sum   'Sr3 Ta7 Si1 Bi9 O36'
_cell_volume   778.28410007
_cell_formula_units_Z   1
loop_
 _symmetry_equiv_pos_site_id
 _symmetry_equiv_pos_as_xyz
  1  'x, y, z'
loop_
 _atom_site_type_symbol
 _atom_site_label
 _atom_site_symmetry_multiplicity
 _atom_site_fract_x
 _atom_site_fract_y
 _atom_site_fract_z
 _atom_site_occupancy
  Sr  Sr0  1  0.00691700  0.24872200  0.00052100  1
  Sr  Sr1  1  0.01182000  0.74369100  0.49626700  1
  Sr  Sr2  1  0.50586000  0.75204600  0.00049100  1
  Ta  Ta3  1  0.52394100  0.24971400  0.91711700  1
  Ta  Ta4  1  0.01667700  0.25073700  0.58436700  1
  Ta  Ta5  1  0.01366100  0.75532900  0.08595700  1
  Ta  Ta6  1  0.01243400  0.24218300  0.41500000  1
  Ta  Ta7  1  0.02482100  0.74942400  0.91625400  1
  Ta  Ta8  1  0.51881200  0.74109100  0.58415200  1
  Ta  Ta9  1  0.51425400  0.24725600  0.08665800  1
  Si  Si10  1  0.52264400  0.73447100  0.41995800  1
  Bi  Bi11  1  0.47405700  0.21855000  0.48864100  1
  Bi  Bi12  1  0.47621200  0.77305400  0.20589700  1
  Bi  Bi13  1  0.47477500  0.27977400  0.70180800  1
  Bi  Bi14  1  0.94666800  0.22204200  0.80246000  1
  Bi  Bi15  1  0.92858800  0.73034300  0.30950400  1
  Bi  Bi16  1  0.98034700  0.22037900  0.20595600  1
  Bi  Bi17  1  0.97912300  0.72516200  0.70211300  1
  Bi  Bi18  1  0.45121200  0.78637300  0.80187300  1
  Bi  Bi19  1  0.44926900  0.28832900  0.30525100  1
  O  O20  1  0.52952900  0.30004300  0.99772600  1
  O  O21  1  0.53504400  0.79822800  0.49109300  1
  O  O22  1  0.03793600  0.70327400  0.99794900  1
  O  O23  1  0.06302600  0.20660500  0.49789700  1
  O  O24  1  0.55581400  0.69140400  0.35278800  1
  O  O25  1  0.55394700  0.17546900  0.84201700  1
  O  O26  1  0.02431000  0.31662400  0.65649200  1
  O  O27  1  0.00613900  0.82530700  0.15824700  1
  O  O28  1  0.04163700  0.30937000  0.34226100  1
  O  O29  1  0.04602800  0.82730900  0.84193200  1
  O  O30  1  0.51400100  0.68788400  0.65598400  1
  O  O31  1  0.51907400  0.18723000  0.15857500  1
  O  O32  1  0.73269100  0.99767800  0.25622400  1
  O  O33  1  0.73326000  0.49679100  0.75124000  1
  O  O34  1  0.23616000  0.01078500  0.74795700  1
  O  O35  1  0.23538300  0.51140700  0.25168400  1
  O  O36  1  0.23788500  0.01234000  0.25440900  1
  O  O37  1  0.23388100  0.51191500  0.75152600  1
  O  O38  1  0.73540100  0.99647800  0.74791700  1
  O  O39  1  0.73000200  0.50285600  0.25376700  1
  O  O40  1  0.75448000  0.98455700  0.06658600  1
  O  O41  1  0.75820400  0.47864700  0.56526000  1
  O  O42  1  0.26407700  0.02281500  0.93057000  1
  O  O43  1  0.29547800  0.50956200  0.43095100  1
  O  O44  1  0.25445100  0.02020400  0.06826400  1
  O  O45  1  0.25506200  0.52509100  0.56648800  1
  O  O46  1  0.76401100  0.97746100  0.93195700  1
  O  O47  1  0.76977600  0.48850900  0.43146200  1
  O  O48  1  0.80520700  0.97061300  0.58231200  1
  O  O49  1  0.79257900  0.47921900  0.08363000  1
  O  O50  1  0.31777000  0.00238600  0.41742300  1
  O  O51  1  0.31901000  0.53375300  0.91116300  1
  O  O52  1  0.30974100  0.03081800  0.58035100  1
  O  O53  1  0.29247800  0.52595700  0.08554000  1
  O  O54  1  0.79656400  0.97579500  0.41585800  1
  O  O55  1  0.81897200  0.46644400  0.91228200  1
