# generated using pymatgen
data_Ca7(Si2O5)8
_symmetry_space_group_name_H-M   'P 1'
_cell_length_a   9.82961800
_cell_length_b   9.84387103
_cell_length_c   12.55231293
_cell_angle_alpha   108.56142079
_cell_angle_beta   83.91564380
_cell_angle_gamma   119.92392516
_symmetry_Int_Tables_number   1
_chemical_formula_structural   Ca7(Si2O5)8
_chemical_formula_sum   'Ca7 Si16 O40'
_cell_volume   995.84367957
_cell_formula_units_Z   1
loop_
 _symmetry_equiv_pos_site_id
 _symmetry_equiv_pos_as_xyz
  1  'x, y, z'
loop_
 _atom_site_type_symbol
 _atom_site_label
 _atom_site_symmetry_multiplicity
 _atom_site_fract_x
 _atom_site_fract_y
 _atom_site_fract_z
 _atom_site_occupancy
  Ca  Ca0  1  0.29094600  0.43999000  0.51803400  1
  Ca  Ca1  1  0.70905400  0.56001000  0.48196600  1
  Ca  Ca2  1  0.85840200  0.28450200  0.50232300  1
  Ca  Ca3  1  0.14159800  0.71549800  0.49767700  1
  Ca  Ca4  1  0.43476500  0.14587900  0.50058900  1
  Ca  Ca5  1  0.56523500  0.85412100  0.49941100  1
  Ca  Ca6  1  0.00000000  0.00000000  0.50000000  1
  Si  Si7  1  0.65765500  0.00473900  0.26874400  1
  Si  Si8  1  0.34234500  0.99526100  0.73125600  1
  Si  Si9  1  0.15767100  0.90105400  0.27080600  1
  Si  Si10  1  0.84232900  0.09894600  0.72919400  1
  Si  Si11  1  0.27127600  0.50972200  0.27691400  1
  Si  Si12  1  0.72872400  0.49027800  0.72308600  1
  Si  Si13  1  0.90615600  0.37521100  0.26738000  1
  Si  Si14  1  0.09384400  0.62478900  0.73262000  1
  Si  Si15  1  0.78189000  0.76370500  0.26648400  1
  Si  Si16  1  0.21811000  0.23629500  0.73351600  1
  Si  Si17  1  0.39768100  0.26495800  0.27313400  1
  Si  Si18  1  0.60231900  0.73504200  0.72686600  1
  Si  Si19  1  0.68371200  0.40137900  0.13167000  1
  Si  Si20  1  0.31628800  0.59862100  0.86833000  1
  Si  Si21  1  0.35003400  0.74679300  0.13871000  1
  Si  Si22  1  0.64996600  0.25320700  0.86129000  1
  O  O23  1  0.79803000  0.17912100  0.25449300  1
  O  O24  1  0.20197000  0.82087900  0.74550700  1
  O  O25  1  0.97242300  0.84632500  0.25684100  1
  O  O26  1  0.02757700  0.15367500  0.74315900  1
  O  O27  1  0.32767800  0.37405100  0.25216100  1
  O  O28  1  0.67232200  0.62594900  0.74783900  1
  O  O29  1  0.72703200  0.87759100  0.23494300  1
  O  O30  1  0.27296800  0.12240900  0.76505700  1
  O  O31  1  0.08448900  0.41155900  0.23923300  1
  O  O32  1  0.91551100  0.58844100  0.76076700  1
  O  O33  1  0.25873400  0.07415900  0.24186900  1
  O  O34  1  0.74126600  0.92584100  0.75813100  1
  O  O35  1  0.84461000  0.42084200  0.17532700  1
  O  O36  1  0.15539000  0.57915800  0.82467300  1
  O  O37  1  0.69304200  0.58061700  0.17524400  1
  O  O38  1  0.30695800  0.41938300  0.82475600  1
  O  O39  1  0.53678800  0.27557000  0.18701700  1
  O  O40  1  0.46321200  0.72443000  0.81298300  1
  O  O41  1  0.90227300  0.47923800  0.39688300  1
  O  O42  1  0.09772700  0.52076200  0.60311700  1
  O  O43  1  0.74555900  0.76290100  0.39647500  1
  O  O44  1  0.25444100  0.23709900  0.60352500  1
  O  O45  1  0.46140100  0.33304500  0.40478400  1
  O  O46  1  0.53859900  0.66695500  0.59521600  1
  O  O47  1  0.61140500  0.04027400  0.39995600  1
  O  O48  1  0.38859500  0.95972600  0.60004400  1
  O  O49  1  0.19420100  0.92183200  0.40072500  1
  O  O50  1  0.80579900  0.07816800  0.59927500  1
  O  O51  1  0.31139800  0.61797600  0.40984000  1
  O  O52  1  0.68860200  0.38202400  0.59016000  1
  O  O53  1  0.50866700  0.92735300  0.17896900  1
  O  O54  1  0.49133300  0.07264700  0.82103100  1
  O  O55  1  0.19494400  0.76523400  0.17880600  1
  O  O56  1  0.80505600  0.23476600  0.82119400  1
  O  O57  1  0.36342700  0.62841600  0.19797300  1
  O  O58  1  0.63657300  0.37158400  0.80202700  1
  O  O59  1  0.33632600  0.66734300  0.00379800  1
  O  O60  1  0.66367400  0.33265700  0.99620200  1
  O  O61  1  0.05089600  0.21571600  0.43652100  1
  O  O62  1  0.94910400  0.78428400  0.56347900  1
