# generated using pymatgen
data_EuH3CSO7
_symmetry_space_group_name_H-M   'P 1'
_cell_length_a   7.08669900
_cell_length_b   7.08669900
_cell_length_c   12.04861000
_cell_angle_alpha   90.00000000
_cell_angle_beta   90.00000000
_cell_angle_gamma   90.00000000
_symmetry_Int_Tables_number   1
_chemical_formula_structural   EuH3CSO7
_chemical_formula_sum   'Eu4 H12 C4 S4 O28'
_cell_volume   605.09689012
_cell_formula_units_Z   4
loop_
 _symmetry_equiv_pos_site_id
 _symmetry_equiv_pos_as_xyz
  1  'x, y, z'
loop_
 _atom_site_type_symbol
 _atom_site_label
 _atom_site_symmetry_multiplicity
 _atom_site_fract_x
 _atom_site_fract_y
 _atom_site_fract_z
 _atom_site_occupancy
  Eu  Eu0  1  0.87122500  0.61500700  0.91608100  1
  Eu  Eu1  1  0.12877500  0.38499300  0.41608100  1
  Eu  Eu2  1  0.61500700  0.12877500  0.66608100  1
  Eu  Eu3  1  0.38499300  0.87122500  0.16608100  1
  H  H4  1  0.08762300  0.67320900  0.70043300  1
  H  H5  1  0.91237700  0.32679100  0.20043300  1
  H  H6  1  0.67320900  0.91237700  0.45043300  1
  H  H7  1  0.32679100  0.08762300  0.95043300  1
  H  H8  1  0.03189100  0.88270900  0.73163000  1
  H  H9  1  0.96810900  0.11729100  0.23163000  1
  H  H10  1  0.88270900  0.96810900  0.48163000  1
  H  H11  1  0.11729100  0.03189100  0.98163000  1
  H  H12  1  0.36865200  0.58653800  0.86424400  1
  H  H13  1  0.63134800  0.41346200  0.36424400  1
  H  H14  1  0.58653800  0.63134800  0.61424400  1
  H  H15  1  0.41346200  0.36865200  0.11424400  1
  C  C16  1  0.37119100  0.63730400  0.95051400  1
  C  C17  1  0.62880900  0.36269600  0.45051400  1
  C  C18  1  0.63730400  0.62880900  0.70051400  1
  C  C19  1  0.36269600  0.37119100  0.20051400  1
  S  S20  1  0.72507000  0.10953000  0.96854200  1
  S  S21  1  0.27493000  0.89047000  0.46854200  1
  S  S22  1  0.10953000  0.27493000  0.71854200  1
  S  S23  1  0.89047000  0.72507000  0.21854200  1
  O  O24  1  0.60109200  0.11779100  0.86960900  1
  O  O25  1  0.39890800  0.88220900  0.36960900  1
  O  O26  1  0.11779100  0.39890800  0.61960900  1
  O  O27  1  0.88220900  0.60109200  0.11960900  1
  O  O28  1  0.82012900  0.29271700  0.98597200  1
  O  O29  1  0.17987100  0.70728300  0.48597200  1
  O  O30  1  0.29271700  0.17987100  0.73597200  1
  O  O31  1  0.70728300  0.82012900  0.23597200  1
  O  O32  1  0.87019100  0.95752800  0.95495600  1
  O  O33  1  0.12980900  0.04247200  0.45495600  1
  O  O34  1  0.95752800  0.12980900  0.70495600  1
  O  O35  1  0.04247200  0.87019100  0.20495600  1
  O  O36  1  0.60940200  0.06963600  0.06802500  1
  O  O37  1  0.39059800  0.93036400  0.56802500  1
  O  O38  1  0.06963600  0.39059800  0.81802500  1
  O  O39  1  0.93036400  0.60940200  0.31802500  1
  O  O40  1  0.21629400  0.66317200  0.00094600  1
  O  O41  1  0.78370600  0.33682800  0.50094600  1
  O  O42  1  0.66317200  0.78370600  0.75094600  1
  O  O43  1  0.33682800  0.21629400  0.25094600  1
  O  O44  1  0.53047000  0.67029500  0.99680600  1
  O  O45  1  0.46953000  0.32970500  0.49680600  1
  O  O46  1  0.67029500  0.46953000  0.74680600  1
  O  O47  1  0.32970500  0.53047000  0.24680600  1
  O  O48  1  0.06364700  0.75821300  0.76289100  1
  O  O49  1  0.93635300  0.24178700  0.26289100  1
  O  O50  1  0.75821300  0.93635300  0.51289100  1
  O  O51  1  0.24178700  0.06364700  0.01289100  1
