# generated using pymatgen
data_YZn5
_symmetry_space_group_name_H-M   'P 1'
_cell_length_a   8.93396556
_cell_length_b   8.93396556
_cell_length_c   9.03325400
_cell_angle_alpha   90.00000000
_cell_angle_beta   90.00000000
_cell_angle_gamma   119.99999671
_symmetry_Int_Tables_number   1
_chemical_formula_structural   YZn5
_chemical_formula_sum   'Y6 Zn30'
_cell_volume   624.40074944
_cell_formula_units_Z   6
loop_
 _symmetry_equiv_pos_site_id
 _symmetry_equiv_pos_as_xyz
  1  'x, y, z'
loop_
 _atom_site_type_symbol
 _atom_site_label
 _atom_site_symmetry_multiplicity
 _atom_site_fract_x
 _atom_site_fract_y
 _atom_site_fract_z
 _atom_site_occupancy
  Y  Y0  1  0.19083500  0.80916500  0.25000000  1
  Y  Y1  1  0.19083500  0.38167000  0.25000000  1
  Y  Y2  1  0.61833000  0.80916500  0.25000000  1
  Y  Y3  1  0.80916500  0.19083500  0.75000000  1
  Y  Y4  1  0.80916500  0.61833000  0.75000000  1
  Y  Y5  1  0.38167000  0.19083500  0.75000000  1
  Zn  Zn6  1  0.00000000  0.00000000  0.50000000  1
  Zn  Zn7  1  0.00000000  0.00000000  0.00000000  1
  Zn  Zn8  1  0.33333300  0.66666700  0.48567900  1
  Zn  Zn9  1  0.66666700  0.33333300  0.51432100  1
  Zn  Zn10  1  0.66666700  0.33333300  0.98567900  1
  Zn  Zn11  1  0.33333300  0.66666700  0.01432100  1
  Zn  Zn12  1  0.50000000  0.50000000  0.50000000  1
  Zn  Zn13  1  0.50000000  0.00000000  0.50000000  1
  Zn  Zn14  1  0.00000000  0.50000000  0.50000000  1
  Zn  Zn15  1  0.50000000  0.50000000  0.00000000  1
  Zn  Zn16  1  0.50000000  0.00000000  0.00000000  1
  Zn  Zn17  1  0.00000000  0.50000000  0.00000000  1
  Zn  Zn18  1  0.56827200  0.43172800  0.25000000  1
  Zn  Zn19  1  0.56827200  0.13654300  0.25000000  1
  Zn  Zn20  1  0.86345700  0.43172800  0.25000000  1
  Zn  Zn21  1  0.43172800  0.56827200  0.75000000  1
  Zn  Zn22  1  0.43172800  0.86345700  0.75000000  1
  Zn  Zn23  1  0.13654300  0.56827200  0.75000000  1
  Zn  Zn24  1  0.83988800  0.16011200  0.40896200  1
  Zn  Zn25  1  0.83988800  0.67977600  0.40896200  1
  Zn  Zn26  1  0.32022400  0.16011200  0.40896200  1
  Zn  Zn27  1  0.16011200  0.83988800  0.59103800  1
  Zn  Zn28  1  0.16011200  0.32022400  0.59103800  1
  Zn  Zn29  1  0.67977600  0.83988800  0.59103800  1
  Zn  Zn30  1  0.16011200  0.83988800  0.90896200  1
  Zn  Zn31  1  0.16011200  0.32022400  0.90896200  1
  Zn  Zn32  1  0.67977600  0.83988800  0.90896200  1
  Zn  Zn33  1  0.83988800  0.16011200  0.09103800  1
  Zn  Zn34  1  0.83988800  0.67977600  0.09103800  1
  Zn  Zn35  1  0.32022400  0.16011200  0.09103800  1
