# generated using pymatgen
data_K2Cr2AsHO10
_symmetry_space_group_name_H-M   'P 1'
_cell_length_a   7.92336443
_cell_length_b   7.92336443
_cell_length_c   14.78183100
_cell_angle_alpha   90.00000000
_cell_angle_beta   90.00000000
_cell_angle_gamma   120.00000356
_symmetry_Int_Tables_number   1
_chemical_formula_structural   K2Cr2AsHO10
_chemical_formula_sum   'K6 Cr6 As3 H3 O30'
_cell_volume   803.67065589
_cell_formula_units_Z   3
loop_
 _symmetry_equiv_pos_site_id
 _symmetry_equiv_pos_as_xyz
  1  'x, y, z'
loop_
 _atom_site_type_symbol
 _atom_site_label
 _atom_site_symmetry_multiplicity
 _atom_site_fract_x
 _atom_site_fract_y
 _atom_site_fract_z
 _atom_site_occupancy
  K  K0  1  0.55292200  0.00000000  0.66666700  1
  K  K1  1  0.00000000  0.55292200  0.33333300  1
  K  K2  1  0.44707800  0.44707800  0.00000000  1
  K  K3  1  0.38382700  0.38382700  0.50000000  1
  K  K4  1  0.61617300  0.00000000  0.16666700  1
  K  K5  1  0.00000000  0.61617300  0.83333300  1
  Cr  Cr6  1  0.57407900  0.99161900  0.41227100  1
  Cr  Cr7  1  0.00838100  0.58245900  0.07893700  1
  Cr  Cr8  1  0.41754100  0.42592100  0.74560400  1
  Cr  Cr9  1  0.99161900  0.57407900  0.58772900  1
  Cr  Cr10  1  0.58245900  0.00838100  0.92106300  1
  Cr  Cr11  1  0.42592100  0.41754100  0.25439600  1
  As  As12  1  0.87912000  0.87912000  0.50000000  1
  As  As13  1  0.12088000  0.00000000  0.16666700  1
  As  As14  1  0.00000000  0.12088000  0.83333300  1
  H  H15  1  0.95183800  0.00000000  0.66666700  1
  H  H16  1  0.00000000  0.95183800  0.33333300  1
  H  H17  1  0.04816200  0.04816200  0.00000000  1
  O  O18  1  0.39263200  0.85387200  0.34601700  1
  O  O19  1  0.14612800  0.53876000  0.01268300  1
  O  O20  1  0.46124000  0.60736800  0.67935000  1
  O  O21  1  0.85387200  0.39263200  0.65398300  1
  O  O22  1  0.53876000  0.14612800  0.98731700  1
  O  O23  1  0.60736800  0.46124000  0.32065000  1
  O  O24  1  0.51294300  0.10307200  0.48630200  1
  O  O25  1  0.89692800  0.40987100  0.15296800  1
  O  O26  1  0.59012900  0.48705700  0.81963500  1
  O  O27  1  0.10307200  0.51294300  0.51369800  1
  O  O28  1  0.40987100  0.89692800  0.84703200  1
  O  O29  1  0.48705700  0.59012900  0.18036500  1
  O  O30  1  0.75511800  0.14846800  0.35101100  1
  O  O31  1  0.85153200  0.60665000  0.01767800  1
  O  O32  1  0.39335000  0.24488200  0.68434500  1
  O  O33  1  0.14846800  0.75511800  0.64898900  1
  O  O34  1  0.60665000  0.85153200  0.98232200  1
  O  O35  1  0.24488200  0.39335000  0.31565500  1
  O  O36  1  0.64315300  0.83001500  0.47327400  1
  O  O37  1  0.16998500  0.81313800  0.13994000  1
  O  O38  1  0.18686200  0.35684700  0.80660700  1
  O  O39  1  0.83001500  0.64315300  0.52672600  1
  O  O40  1  0.81313800  0.16998500  0.86006000  1
  O  O41  1  0.35684700  0.18686200  0.19339300  1
  O  O42  1  0.04012600  0.96717300  0.41293900  1
  O  O43  1  0.03282700  0.07295200  0.07960600  1
  O  O44  1  0.92704800  0.95987400  0.74627300  1
  O  O45  1  0.96717300  0.04012600  0.58706100  1
  O  O46  1  0.07295200  0.03282700  0.92039400  1
  O  O47  1  0.95987400  0.92704800  0.25372700  1
