# generated using pymatgen
data_Si2H36C12N6O7
_symmetry_space_group_name_H-M   'P 1'
_cell_length_a   9.80326400
_cell_length_b   10.22890959
_cell_length_c   13.72520464
_cell_angle_alpha   79.15173470
_cell_angle_beta   87.89069462
_cell_angle_gamma   86.46479631
_symmetry_Int_Tables_number   1
_chemical_formula_structural   Si2H36C12N6O7
_chemical_formula_sum   'Si4 H72 C24 N12 O14'
_cell_volume   1348.70403548
_cell_formula_units_Z   2
loop_
 _symmetry_equiv_pos_site_id
 _symmetry_equiv_pos_as_xyz
  1  'x, y, z'
loop_
 _atom_site_type_symbol
 _atom_site_label
 _atom_site_symmetry_multiplicity
 _atom_site_fract_x
 _atom_site_fract_y
 _atom_site_fract_z
 _atom_site_occupancy
  Si  Si0  1  0.09790300  0.10777200  0.93455200  1
  Si  Si1  1  0.90209700  0.89222800  0.06544800  1
  Si  Si2  1  0.50496700  0.61976900  0.56226300  1
  Si  Si3  1  0.49503300  0.38023100  0.43773700  1
  H  H4  1  0.26639500  0.89534000  0.11880700  1
  H  H5  1  0.73360500  0.10466000  0.88119300  1
  H  H6  1  0.43370200  0.95966800  0.09157900  1
  H  H7  1  0.56629800  0.04033200  0.90842100  1
  H  H8  1  0.34362500  0.97877800  0.20473500  1
  H  H9  1  0.65637500  0.02122200  0.79526500  1
  H  H10  1  0.30501600  0.30540000  0.04302600  1
  H  H11  1  0.69498400  0.69460000  0.95697400  1
  H  H12  1  0.36475200  0.21919100  0.16096200  1
  H  H13  1  0.63524800  0.78080900  0.83903800  1
  H  H14  1  0.45595200  0.19455300  0.04951600  1
  H  H15  1  0.54404800  0.80544700  0.95048400  1
  H  H16  1  0.82424900  0.25503100  0.04567000  1
  H  H17  1  0.17575100  0.74496900  0.95433000  1
  H  H18  1  0.87000300  0.42554200  0.00549400  1
  H  H19  1  0.12999700  0.57445800  0.99450600  1
  H  H20  1  0.72125200  0.36771400  0.95797100  1
  H  H21  1  0.27874800  0.63228600  0.04202900  1
  H  H22  1  0.81342500  0.43889000  0.78907200  1
  H  H23  1  0.18657500  0.56111000  0.21092800  1
  H  H24  1  0.95694000  0.49700300  0.84321900  1
  H  H25  1  0.04306000  0.50299700  0.15678100  1
  H  H26  1  0.98363700  0.38025300  0.76029100  1
  H  H27  1  0.01636300  0.61974700  0.23970900  1
  H  H28  1  0.09410900  0.81557300  0.72893300  1
  H  H29  1  0.90589100  0.18442700  0.27106700  1
  H  H30  1  0.96172100  0.90672400  0.78630000  1
  H  H31  1  0.03827900  0.09327600  0.21370000  1
  H  H32  1  0.04334400  0.98285500  0.67108000  1
  H  H33  1  0.95665600  0.01714500  0.32892000  1
  H  H34  1  0.32536400  0.88367900  0.72448700  1
  H  H35  1  0.67463600  0.11632100  0.27551300  1
  H  H36  1  0.27157700  0.05197800  0.67202100  1
  H  H37  1  0.72842300  0.94802200  0.32797900  1
  H  H38  1  0.36368400  0.01716400  0.78566500  1
  H  H39  1  0.63631600  0.98283600  0.21433500  1
  H  H40  1  0.18891900  0.78555200  0.34324800  1
  H  H41  1  0.81108100  0.21444800  0.65675200  1
  H  H42  1  0.22307600  0.62829400  0.42355200  1
  H  H43  1  0.77692400  0.37170600  0.57644800  1
  H  H44  1  0.12705700  0.76131900  0.46962200  1
  H  H45  1  0.87294300  0.23868100  0.53037800  1
  H  H46  1  0.29966600  0.97931900  0.37080400  1
  H  H47  1  0.70033400  0.02068100  0.62919600  1
  H  H48  1  0.23968400  0.94952400  0.49774400  1
  H  H49  1  0.76031600  0.05047600  0.50225600  1
  H  H50  1  0.41863100  0.96296400  0.46854900  1
  H  H51  1  0.58136900  0.03703600  0.53145100  1
  H  H52  1  0.52400400  0.30401800  0.70387100  1
  H  H53  1  0.47599600  0.69598200  0.29612900  1
  H  H54  1  0.54362600  0.35175100  0.82247200  1
  H  H55  1  0.45637400  0.64824900  0.17752800  1
  H  H56  1  0.38935100  0.28107800  0.79642000  1
  H  H57  1  0.61064900  0.71892200  0.20358000  1
  H  H58  1  0.26215800  0.47094300  0.83840400  1
  H  H59  1  0.73784200  0.52905700  0.16159600  1
  H  H60  1  0.41902600  0.54131100  0.86116200  1
  H  H61  1  0.58097400  0.45868900  0.13883800  1
  H  H62  1  0.29940400  0.63522900  0.77506800  1
  H  H63  1  0.70059600  0.36477100  0.22493200  1
  H  H64  1  0.94791300  0.64207100  0.61206900  1
  H  H65  1  0.05208700  0.35792900  0.38793100  1
  H  H66  1  0.86936300  0.80302700  0.56283500  1
  H  H67  1  0.13063700  0.19697300  0.43716500  1
  H  H68  1  0.79647100  0.70120900  0.67117000  1
  H  H69  1  0.20352900  0.29879100  0.32883000  1
  H  H70  1  0.92626500  0.58330700  0.44734500  1
  H  H71  1  0.07373500  0.41669300  0.55265500  1
  H  H72  1  0.76067900  0.59899700  0.39376300  1
  H  H73  1  0.23932100  0.40100300  0.60623700  1
  H  H74  1  0.84753500  0.74571000  0.40425200  1
  H  H75  1  0.15246500  0.25429000  0.59574800  1
  C  C76  1  0.33156300  0.97611100  0.12573400  1
  C  C77  1  0.66843700  0.02388900  0.87426600  1
  C  C78  1  0.35330700  0.21210800  0.08279500  1
  C  C79  1  0.64669300  0.78789200  0.91720500  1
  C  C80  1  0.82596100  0.33908400  0.98280600  1
  C  C81  1  0.17403900  0.66091600  0.01719400  1
  C  C82  1  0.91577900  0.41052600  0.81844900  1
  C  C83  1  0.08422100  0.58947400  0.18155100  1
  C  C84  1  0.05823900  0.91437100  0.74318800  1
  C  C85  1  0.94176100  0.08562900  0.25681200  1
  C  C86  1  0.28805900  0.98007100  0.74221800  1
  C  C87  1  0.71194100  0.01992900  0.25778200  1
  C  C88  1  0.21205700  0.73677100  0.41954000  1
  C  C89  1  0.78794300  0.26322900  0.58046000  1
  C  C90  1  0.32381400  0.92718100  0.44631000  1
  C  C91  1  0.67618600  0.07281900  0.55369000  1
  C  C92  1  0.47095200  0.34588600  0.76366600  1
  C  C93  1  0.52904800  0.65411400  0.23633400  1
  C  C94  1  0.34338000  0.53520400  0.80429600  1
  C  C95  1  0.65662000  0.46479600  0.19570400  1
  C  C96  1  0.84962000  0.69970000  0.59977400  1
  C  C97  1  0.15038000  0.30030000  0.40022600  1
  C  C98  1  0.82806200  0.64199400  0.43987300  1
  C  C99  1  0.17193800  0.35800600  0.56012700  1
  N  N100  1  0.26493500  0.10318300  0.08007900  1
  N  N101  1  0.73506500  0.89681700  0.91992100  1
  N  N102  1  0.90368300  0.29741800  0.90008800  1
  N  N103  1  0.09631700  0.70258200  0.09991200  1
  N  N104  1  0.16171000  0.95909900  0.80124800  1
  N  N105  1  0.83829000  0.04090100  0.19875200  1
  N  N106  1  0.34071600  0.78503100  0.44469500  1
  N  N107  1  0.65928400  0.21496900  0.55530500  1
  N  N108  1  0.40626700  0.47628600  0.72359000  1
  N  N109  1  0.59373300  0.52371400  0.27641000  1
  N  N110  1  0.76745200  0.63343400  0.53940900  1
  N  N111  1  0.23254800  0.36656600  0.46059100  1
  O  O112  1  0.00000000  0.00000000  0.00000000  1
  O  O113  1  0.50000000  0.50000000  0.50000000  1
  O  O114  1  0.25735400  0.09563000  0.97364600  1
  O  O115  1  0.74264600  0.90437000  0.02635400  1
  O  O116  1  0.04447100  0.26467900  0.93592300  1
  O  O117  1  0.95552900  0.73532100  0.06407700  1
  O  O118  1  0.11053500  0.09373400  0.81589800  1
  O  O119  1  0.88946500  0.90626600  0.18410200  1
  O  O120  1  0.36530900  0.72151000  0.54939500  1
  O  O121  1  0.63469100  0.27849000  0.45060500  1
  O  O122  1  0.51866200  0.56342500  0.68350000  1
  O  O123  1  0.48133800  0.43657500  0.31650000  1
  O  O124  1  0.63647600  0.71466500  0.52756500  1
  O  O125  1  0.36352400  0.28533500  0.47243500  1
