# generated using pymatgen
data_Zn2H18Cl4O9
_symmetry_space_group_name_H-M   'P 1'
_cell_length_a   7.15575400
_cell_length_b   12.96675600
_cell_length_c   18.49028600
_cell_angle_alpha   90.00000000
_cell_angle_beta   90.00000000
_cell_angle_gamma   90.00000000
_symmetry_Int_Tables_number   1
_chemical_formula_structural   Zn2H18Cl4O9
_chemical_formula_sum   'Zn8 H72 Cl16 O36'
_cell_volume   1715.65661601
_cell_formula_units_Z   4
loop_
 _symmetry_equiv_pos_site_id
 _symmetry_equiv_pos_as_xyz
  1  'x, y, z'
loop_
 _atom_site_type_symbol
 _atom_site_label
 _atom_site_symmetry_multiplicity
 _atom_site_fract_x
 _atom_site_fract_y
 _atom_site_fract_z
 _atom_site_occupancy
  Zn  Zn0  1  0.22969100  0.50758600  0.93756600  1
  Zn  Zn1  1  0.27030900  0.49241400  0.43756600  1
  Zn  Zn2  1  0.72969100  0.99241400  0.06243400  1
  Zn  Zn3  1  0.77030900  0.00758600  0.56243400  1
  Zn  Zn4  1  0.68297900  0.53527700  0.18256200  1
  Zn  Zn5  1  0.81702100  0.46472300  0.68256200  1
  Zn  Zn6  1  0.18297900  0.96472300  0.81743800  1
  Zn  Zn7  1  0.31702100  0.03527700  0.31743800  1
  H  H8  1  0.89228100  0.49431300  0.87414100  1
  H  H9  1  0.60771900  0.50568700  0.37414100  1
  H  H10  1  0.39228100  0.00568700  0.12585900  1
  H  H11  1  0.10771900  0.99431300  0.62585900  1
  H  H12  1  0.25393300  0.25977600  0.11081100  1
  H  H13  1  0.24606700  0.74022400  0.61081100  1
  H  H14  1  0.75393300  0.24022400  0.88918900  1
  H  H15  1  0.74606700  0.75977600  0.38918900  1
  H  H16  1  0.31954000  0.31306900  0.98649300  1
  H  H17  1  0.18046000  0.68693100  0.48649300  1
  H  H18  1  0.81954000  0.18693100  0.01350700  1
  H  H19  1  0.68046000  0.81306900  0.51350700  1
  H  H20  1  0.17644600  0.70260500  0.98224500  1
  H  H21  1  0.32355400  0.29739500  0.48224500  1
  H  H22  1  0.67644600  0.79739500  0.01775500  1
  H  H23  1  0.82355400  0.20260500  0.51775500  1
  H  H24  1  0.22721000  0.52189900  0.08817200  1
  H  H25  1  0.27279000  0.47810100  0.58817200  1
  H  H26  1  0.72721000  0.97810100  0.91182800  1
  H  H27  1  0.77279000  0.02189900  0.41182800  1
  H  H28  1  0.23694900  0.48924700  0.78982000  1
  H  H29  1  0.26305100  0.51075300  0.28982000  1
  H  H30  1  0.73694900  0.01075300  0.21018000  1
  H  H31  1  0.76305100  0.98924700  0.71018000  1
  H  H32  1  0.43245500  0.53327800  0.81640000  1
  H  H33  1  0.06754500  0.46672200  0.31640000  1
  H  H34  1  0.93245500  0.96672200  0.18360000  1
  H  H35  1  0.56754500  0.03327800  0.68360000  1
  H  H36  1  0.57122600  0.50970200  0.99783100  1
  H  H37  1  0.92877400  0.49029800  0.49783100  1
  H  H38  1  0.07122600  0.99029800  0.00216900  1
  H  H39  1  0.42877400  0.00970200  0.50216900  1
  H  H40  1  0.19110000  0.70644100  0.89752200  1
  H  H41  1  0.30890000  0.29355900  0.39752200  1
  H  H42  1  0.69110000  0.79355900  0.10247800  1
  H  H43  1  0.80890000  0.20644100  0.60247800  1
  H  H44  1  0.57482500  0.61390700  0.95215000  1
  H  H45  1  0.92517500  0.38609300  0.45215000  1
  H  H46  1  0.07482500  0.88609300  0.04785000  1
  H  H47  1  0.42517500  0.11390700  0.54785000  1
  H  H48  1  0.93085800  0.38852900  0.91591600  1
  H  H49  1  0.56914200  0.61147100  0.41591600  1
  H  H50  1  0.43085800  0.11147100  0.08408400  1
  H  H51  1  0.06914200  0.88852900  0.58408400  1
  H  H52  1  0.02700300  0.48469600  0.05970300  1
  H  H53  1  0.47299700  0.51530400  0.55970300  1
  H  H54  1  0.52700300  0.01530400  0.94029700  1
  H  H55  1  0.97299700  0.98469600  0.44029700  1
  H  H56  1  0.38145700  0.31829900  0.90283400  1
  H  H57  1  0.11854300  0.68170100  0.40283400  1
  H  H58  1  0.88145700  0.18170100  0.09716600  1
  H  H59  1  0.61854300  0.81829900  0.59716600  1
  H  H60  1  0.21205200  0.73711900  0.10383200  1
  H  H61  1  0.28794800  0.26288100  0.60383200  1
  H  H62  1  0.71205200  0.76288100  0.89616800  1
  H  H63  1  0.78794800  0.23711900  0.39616800  1
  H  H64  1  0.94894500  0.72335000  0.28675300  1
  H  H65  1  0.55105500  0.27665000  0.78675300  1
  H  H66  1  0.44894500  0.77665000  0.71324700  1
  H  H67  1  0.05105500  0.22335000  0.21324700  1
  H  H68  1  0.46127300  0.29320800  0.09438500  1
  H  H69  1  0.03872700  0.70679200  0.59438500  1
  H  H70  1  0.96127300  0.20679200  0.90561500  1
  H  H71  1  0.53872700  0.79320800  0.40561500  1
  H  H72  1  0.36606900  0.79628500  0.06119300  1
  H  H73  1  0.13393100  0.20371500  0.56119300  1
  H  H74  1  0.86606900  0.70371500  0.93880700  1
  H  H75  1  0.63393100  0.29628500  0.43880700  1
  H  H76  1  0.04673400  0.81405600  0.32615700  1
  H  H77  1  0.45326600  0.18594400  0.82615700  1
  H  H78  1  0.54673400  0.68594400  0.67384300  1
  H  H79  1  0.95326600  0.31405600  0.17384300  1
  Cl  Cl80  1  0.72239200  0.42479700  0.08587900  1
  Cl  Cl81  1  0.77760800  0.57520300  0.58587900  1
  Cl  Cl82  1  0.22239200  0.07520300  0.91412100  1
  Cl  Cl83  1  0.27760800  0.92479700  0.41412100  1
  Cl  Cl84  1  0.77367100  0.44225400  0.28219800  1
  Cl  Cl85  1  0.72632900  0.55774600  0.78219800  1
  Cl  Cl86  1  0.27367100  0.05774600  0.71780200  1
  Cl  Cl87  1  0.22632900  0.94225400  0.21780200  1
  Cl  Cl88  1  0.37726400  0.58351200  0.18913500  1
  Cl  Cl89  1  0.12273600  0.41648800  0.68913500  1
  Cl  Cl90  1  0.87726400  0.91648800  0.81086500  1
  Cl  Cl91  1  0.62273600  0.08351200  0.31086500  1
  Cl  Cl92  1  0.86962800  0.67641600  0.16735700  1
  Cl  Cl93  1  0.63037200  0.32358400  0.66735700  1
  Cl  Cl94  1  0.36962800  0.82358400  0.83264300  1
  Cl  Cl95  1  0.13037200  0.17641600  0.33264300  1
  O  O96  1  0.29997800  0.52548200  0.82980300  1
  O  O97  1  0.20002200  0.47451800  0.32980300  1
  O  O98  1  0.79997800  0.97451800  0.17019700  1
  O  O99  1  0.70002200  0.02548200  0.67019700  1
  O  O100  1  0.95709400  0.46354700  0.91596500  1
  O  O101  1  0.54290600  0.53645300  0.41596500  1
  O  O102  1  0.45709400  0.03645300  0.08403500  1
  O  O103  1  0.04290600  0.96354700  0.58403500  1
  O  O104  1  0.30810700  0.35240000  0.94103500  1
  O  O105  1  0.19189300  0.64760000  0.44103500  1
  O  O106  1  0.80810700  0.14760000  0.05896500  1
  O  O107  1  0.69189300  0.85240000  0.55896500  1
  O  O108  1  0.13077500  0.66794500  0.93730200  1
  O  O109  1  0.36922500  0.33205500  0.43730200  1
  O  O110  1  0.63077500  0.83205500  0.06269800  1
  O  O111  1  0.86922500  0.16794500  0.56269800  1
  O  O112  1  0.23306600  0.77577700  0.05912300  1
  O  O113  1  0.26693400  0.22422300  0.55912300  1
  O  O114  1  0.73306600  0.72422300  0.94087700  1
  O  O115  1  0.76693400  0.27577700  0.44087700  1
  O  O116  1  0.97277300  0.75198700  0.33529900  1
  O  O117  1  0.52722700  0.24801300  0.83529900  1
  O  O118  1  0.47277300  0.74801300  0.66470100  1
  O  O119  1  0.02722700  0.25198700  0.16470100  1
  O  O120  1  0.36040100  0.24757000  0.07789000  1
  O  O121  1  0.13959900  0.75243000  0.57789000  1
  O  O122  1  0.86040100  0.25243000  0.92211000  1
  O  O123  1  0.63959900  0.74757000  0.42211000  1
  O  O124  1  0.49469500  0.55620000  0.96813300  1
  O  O125  1  0.00530500  0.44380000  0.46813300  1
  O  O126  1  0.99469500  0.94380000  0.03186700  1
  O  O127  1  0.50530500  0.05620000  0.53186700  1
  O  O128  1  0.15901700  0.49268500  0.04687900  1
  O  O129  1  0.34098300  0.50731500  0.54687900  1
  O  O130  1  0.65901700  0.00731500  0.95312100  1
  O  O131  1  0.84098300  0.99268500  0.45312100  1
