# generated using pymatgen
data_K4Cd(P3O10)2
_symmetry_space_group_name_H-M   'P 1'
_cell_length_a   7.17402600
_cell_length_b   7.79212842
_cell_length_c   9.19021391
_cell_angle_alpha   102.00313237
_cell_angle_beta   103.54418743
_cell_angle_gamma   95.06038228
_symmetry_Int_Tables_number   1
_chemical_formula_structural   K4Cd(P3O10)2
_chemical_formula_sum   'K4 Cd1 P6 O20'
_cell_volume   483.44438615
_cell_formula_units_Z   1
loop_
 _symmetry_equiv_pos_site_id
 _symmetry_equiv_pos_as_xyz
  1  'x, y, z'
loop_
 _atom_site_type_symbol
 _atom_site_label
 _atom_site_symmetry_multiplicity
 _atom_site_fract_x
 _atom_site_fract_y
 _atom_site_fract_z
 _atom_site_occupancy
  K  K0  1  0.26390000  0.25340400  0.52860500  1
  K  K1  1  0.73610000  0.74659600  0.47139500  1
  K  K2  1  0.28575100  0.49722000  0.11588500  1
  K  K3  1  0.71424900  0.50278000  0.88411500  1
  Cd  Cd4  1  0.00000000  0.00000000  0.00000000  1
  P  P5  1  0.48058200  0.02913400  0.22691100  1
  P  P6  1  0.51941800  0.97086600  0.77308900  1
  P  P7  1  0.77416500  0.26353800  0.50662400  1
  P  P8  1  0.22583500  0.73646200  0.49337600  1
  P  P9  1  0.77051800  0.30350600  0.19469300  1
  P  P10  1  0.22948200  0.69649400  0.80530700  1
  O  O11  1  0.28363100  0.08848100  0.18859300  1
  O  O12  1  0.71636900  0.91151900  0.81140700  1
  O  O13  1  0.49873200  0.83617200  0.20434600  1
  O  O14  1  0.50126800  0.16382800  0.79565400  1
  O  O15  1  0.90617000  0.15908800  0.59448800  1
  O  O16  1  0.09383000  0.84091200  0.40551200  1
  O  O17  1  0.71354600  0.42963700  0.58417200  1
  O  O18  1  0.28645400  0.57036300  0.41582800  1
  O  O19  1  0.91901200  0.27790600  0.10247300  1
  O  O20  1  0.08098800  0.72209400  0.89752700  1
  O  O21  1  0.66586400  0.46068500  0.19177900  1
  O  O22  1  0.33413600  0.53931500  0.80822100  1
  O  O23  1  0.57626400  0.12923100  0.40690600  1
  O  O24  1  0.42373600  0.87076900  0.59309400  1
  O  O25  1  0.87551400  0.29983700  0.37111100  1
  O  O26  1  0.12448600  0.70016300  0.62888900  1
  O  O27  1  0.62108000  0.11942100  0.14084800  1
  O  O28  1  0.37892000  0.88057900  0.85915200  1
  O  O29  1  0.12775600  0.18321600  0.86667500  1
  O  O30  1  0.87224400  0.81678400  0.13332500  1
