# generated using pymatgen
data_Lu2Zn17
_symmetry_space_group_name_H-M   'P 1'
_cell_length_a   8.64994400
_cell_length_b   8.95491100
_cell_length_c   8.98986725
_cell_angle_alpha   60.12854059
_cell_angle_beta   90.00000000
_cell_angle_gamma   90.00000000
_symmetry_Int_Tables_number   1
_chemical_formula_structural   Lu2Zn17
_chemical_formula_sum   'Lu4 Zn34'
_cell_volume   603.83676028
_cell_formula_units_Z   2
loop_
 _symmetry_equiv_pos_site_id
 _symmetry_equiv_pos_as_xyz
  1  'x, y, z'
loop_
 _atom_site_type_symbol
 _atom_site_label
 _atom_site_symmetry_multiplicity
 _atom_site_fract_x
 _atom_site_fract_y
 _atom_site_fract_z
 _atom_site_occupancy
  Lu  Lu0  1  0.25000000  0.99943100  0.00113800  1
  Lu  Lu1  1  0.75000000  0.00056900  0.99886200  1
  Lu  Lu2  1  0.75000000  0.66619300  0.66761400  1
  Lu  Lu3  1  0.25000000  0.33380700  0.33238600  1
  Zn  Zn4  1  0.40264500  0.66679400  0.66641200  1
  Zn  Zn5  1  0.59735500  0.33320600  0.33358800  1
  Zn  Zn6  1  0.90264500  0.33320600  0.33358800  1
  Zn  Zn7  1  0.09735500  0.66679400  0.66641200  1
  Zn  Zn8  1  0.50000000  0.00000000  0.50000000  1
  Zn  Zn9  1  0.50000000  0.50000000  0.00000000  1
  Zn  Zn10  1  0.50000000  0.50000000  0.50000000  1
  Zn  Zn11  1  0.00000000  0.00000000  0.50000000  1
  Zn  Zn12  1  0.00000000  0.50000000  0.00000000  1
  Zn  Zn13  1  0.00000000  0.50000000  0.50000000  1
  Zn  Zn14  1  0.25000000  0.97126300  0.35937300  1
  Zn  Zn15  1  0.25000000  0.66977800  0.97110900  1
  Zn  Zn16  1  0.25000000  0.35858100  0.66961600  1
  Zn  Zn17  1  0.25000000  0.97180300  0.66961600  1
  Zn  Zn18  1  0.25000000  0.66936400  0.35937300  1
  Zn  Zn19  1  0.25000000  0.35911300  0.97110900  1
  Zn  Zn20  1  0.75000000  0.02873700  0.64062700  1
  Zn  Zn21  1  0.75000000  0.33022200  0.02889100  1
  Zn  Zn22  1  0.75000000  0.64141900  0.33038400  1
  Zn  Zn23  1  0.75000000  0.02819700  0.33038400  1
  Zn  Zn24  1  0.75000000  0.33063600  0.64062700  1
  Zn  Zn25  1  0.75000000  0.64088700  0.02889100  1
  Zn  Zn26  1  0.51557300  0.32365400  0.83812800  1
  Zn  Zn27  1  0.51574500  0.83801200  0.32397600  1
  Zn  Zn28  1  0.51557300  0.83821700  0.83812800  1
  Zn  Zn29  1  0.48442700  0.67634600  0.16187200  1
  Zn  Zn30  1  0.48425500  0.16198800  0.67602400  1
  Zn  Zn31  1  0.48442700  0.16178300  0.16187200  1
  Zn  Zn32  1  0.01557300  0.67634600  0.16187200  1
  Zn  Zn33  1  0.01574500  0.16198800  0.67602400  1
  Zn  Zn34  1  0.01557300  0.16178300  0.16187200  1
  Zn  Zn35  1  0.98442700  0.32365400  0.83812800  1
  Zn  Zn36  1  0.98425500  0.83801200  0.32397600  1
  Zn  Zn37  1  0.98442700  0.83821700  0.83812800  1
