# generated using pymatgen
data_AgH8C2S2N4Cl
_symmetry_space_group_name_H-M   'P 1'
_cell_length_a   6.12921700
_cell_length_b   8.55598800
_cell_length_c   37.24421240
_cell_angle_alpha   90.00000000
_cell_angle_beta   93.07454470
_cell_angle_gamma   90.00000000
_symmetry_Int_Tables_number   1
_chemical_formula_structural   AgH8C2S2N4Cl
_chemical_formula_sum   'Ag8 H64 C16 S16 N32 Cl8'
_cell_volume   1950.33127133
_cell_formula_units_Z   8
loop_
 _symmetry_equiv_pos_site_id
 _symmetry_equiv_pos_as_xyz
  1  'x, y, z'
loop_
 _atom_site_type_symbol
 _atom_site_label
 _atom_site_symmetry_multiplicity
 _atom_site_fract_x
 _atom_site_fract_y
 _atom_site_fract_z
 _atom_site_occupancy
  Ag  Ag0  1  0.71676100  0.81176300  0.59138000  1
  Ag  Ag1  1  0.28323900  0.31176300  0.90862000  1
  Ag  Ag2  1  0.28323900  0.18823700  0.40862000  1
  Ag  Ag3  1  0.71676100  0.68823700  0.09138000  1
  Ag  Ag4  1  0.39910200  0.75290900  0.65785600  1
  Ag  Ag5  1  0.60089800  0.25290900  0.84214400  1
  Ag  Ag6  1  0.60089800  0.24709100  0.34214400  1
  Ag  Ag7  1  0.39910200  0.74709100  0.15785600  1
  H  H8  1  0.32665900  0.96312900  0.79407300  1
  H  H9  1  0.67334100  0.46312900  0.70592700  1
  H  H10  1  0.67334100  0.03687100  0.20592700  1
  H  H11  1  0.32665900  0.53687100  0.29407300  1
  H  H12  1  0.60013800  0.96815100  0.78272300  1
  H  H13  1  0.39986200  0.46815100  0.71727700  1
  H  H14  1  0.39986200  0.03184900  0.21727700  1
  H  H15  1  0.60013800  0.53184900  0.28272300  1
  H  H16  1  0.06095000  0.87144400  0.75500500  1
  H  H17  1  0.93905000  0.37144400  0.74499500  1
  H  H18  1  0.93905000  0.12855600  0.24499500  1
  H  H19  1  0.06095000  0.62855600  0.25500500  1
  H  H20  1  0.12012300  0.80132000  0.71251900  1
  H  H21  1  0.87987700  0.30132000  0.78748100  1
  H  H22  1  0.87987700  0.19868000  0.28748100  1
  H  H23  1  0.12012300  0.69868000  0.21251900  1
  H  H24  1  0.01729300  0.47252200  0.57905100  1
  H  H25  1  0.98270700  0.97252200  0.92094900  1
  H  H26  1  0.98270700  0.52747800  0.42094900  1
  H  H27  1  0.01729300  0.02747800  0.07905100  1
  H  H28  1  0.11455100  0.49868500  0.62382400  1
  H  H29  1  0.88544900  0.99868500  0.87617600  1
  H  H30  1  0.88544900  0.50131500  0.37617600  1
  H  H31  1  0.11455100  0.00131500  0.12382400  1
  H  H32  1  0.26492200  0.46116900  0.53215400  1
  H  H33  1  0.73507800  0.96116900  0.96784600  1
  H  H34  1  0.73507800  0.53883100  0.46784600  1
  H  H35  1  0.26492200  0.03883100  0.03215400  1
  H  H36  1  0.53372500  0.52437900  0.54229700  1
  H  H37  1  0.46627500  0.02437900  0.95770300  1
  H  H38  1  0.46627500  0.47562100  0.45770300  1
  H  H39  1  0.53372500  0.97562100  0.04229700  1
  H  H40  1  0.86972700  0.27656500  0.65115300  1
  H  H41  1  0.13027300  0.77656500  0.84884700  1
  H  H42  1  0.13027300  0.72343500  0.34884700  1
  H  H43  1  0.86972700  0.22343500  0.15115300  1
  H  H44  1  0.75532600  0.13010200  0.62235300  1
  H  H45  1  0.24467400  0.63010200  0.87764700  1
  H  H46  1  0.24467400  0.86989800  0.37764700  1
  H  H47  1  0.75532600  0.36989800  0.12235300  1
  H  H48  1  0.20046400  0.24967400  0.67835200  1
  H  H49  1  0.79953600  0.74967400  0.82164800  1
  H  H50  1  0.79953600  0.75032600  0.32164800  1
  H  H51  1  0.20046400  0.25032600  0.17835200  1
  H  H52  1  0.35116000  0.07314500  0.67528200  1
  H  H53  1  0.64884000  0.57314500  0.82471800  1
  H  H54  1  0.64884000  0.92685500  0.32471800  1
  H  H55  1  0.35116000  0.42685500  0.17528200  1
  H  H56  1  0.77749600  0.24375300  0.49090200  1
  H  H57  1  0.22250400  0.74375300  0.00909800  1
  H  H58  1  0.22250400  0.75624700  0.50909800  1
  H  H59  1  0.77749600  0.25624700  0.99090200  1
  H  H60  1  0.50389900  0.20961200  0.50028200  1
  H  H61  1  0.49610100  0.70961200  0.99971800  1
  H  H62  1  0.49610100  0.79038800  0.49971800  1
  H  H63  1  0.50389900  0.29038800  0.00028200  1
  H  H64  1  0.05443200  0.15440400  0.52724900  1
  H  H65  1  0.94556800  0.65440400  0.97275100  1
  H  H66  1  0.94556800  0.84559600  0.47275100  1
  H  H67  1  0.05443200  0.34559600  0.02724900  1
  H  H68  1  0.00873400  0.05195400  0.56690000  1
  H  H69  1  0.99126600  0.55195400  0.93310000  1
  H  H70  1  0.99126600  0.94804600  0.43310000  1
  H  H71  1  0.00873400  0.44804600  0.06690000  1
  C  C72  1  0.38370400  0.88347100  0.74345400  1
  C  C73  1  0.61629600  0.38347100  0.75654600  1
  C  C74  1  0.61629600  0.11652900  0.25654600  1
  C  C75  1  0.38370400  0.61652900  0.24345400  1
  C  C76  1  0.34495900  0.51374900  0.58560300  1
  C  C77  1  0.65504100  0.01374900  0.91439700  1
  C  C78  1  0.65504100  0.48625100  0.41439700  1
  C  C79  1  0.34495900  0.98625100  0.08560300  1
  C  C80  1  0.05510900  0.07959700  0.64688900  1
  C  C81  1  0.94489100  0.57959600  0.85311100  1
  C  C82  1  0.94489100  0.92040400  0.35311100  1
  C  C83  1  0.05510900  0.42040300  0.14688900  1
  C  C84  1  0.73199500  0.12709400  0.53808000  1
  C  C85  1  0.26800500  0.62709400  0.96192000  1
  C  C86  1  0.26800500  0.87290600  0.46192000  1
  C  C87  1  0.73199500  0.37290600  0.03808000  1
  S  S88  1  0.58015100  0.86344600  0.71254300  1
  S  S89  1  0.41984900  0.36344600  0.78745700  1
  S  S90  1  0.41984900  0.13655400  0.28745700  1
  S  S91  1  0.58015100  0.63655400  0.21254300  1
  S  S92  1  0.56089400  0.55992400  0.61609600  1
  S  S93  1  0.43910600  0.05992400  0.88390400  1
  S  S94  1  0.43910600  0.44007600  0.38390400  1
  S  S95  1  0.56089400  0.94007600  0.11609600  1
  S  S96  1  0.07790700  0.89756700  0.62713300  1
  S  S97  1  0.92209300  0.39756700  0.87286700  1
  S  S98  1  0.92209300  0.10243300  0.37286700  1
  S  S99  1  0.07790700  0.60243300  0.12713300  1
  S  S100  1  0.54089300  0.05723900  0.56628700  1
  S  S101  1  0.45910700  0.55723900  0.93371300  1
  S  S102  1  0.45910700  0.94276100  0.43371300  1
  S  S103  1  0.54089300  0.44276100  0.06628700  1
  N  N104  1  0.44309300  0.93370600  0.77660100  1
  N  N105  1  0.55690700  0.43370600  0.72339900  1
  N  N106  1  0.55690700  0.06629400  0.22339900  1
  N  N107  1  0.44309300  0.56629400  0.27660100  1
  N  N108  1  0.17217100  0.85181600  0.73610300  1
  N  N109  1  0.82782900  0.35181600  0.76389700  1
  N  N110  1  0.82782900  0.14818400  0.26389700  1
  N  N111  1  0.17217100  0.64818400  0.23610300  1
  N  N112  1  0.14578300  0.48758500  0.59710800  1
  N  N113  1  0.85421700  0.98758500  0.90289200  1
  N  N114  1  0.85421700  0.51241500  0.40289200  1
  N  N115  1  0.14578300  0.01241500  0.09710800  1
  N  N116  1  0.38189200  0.49814900  0.55093700  1
  N  N117  1  0.61810800  0.99814900  0.94906300  1
  N  N118  1  0.61810800  0.50185100  0.44906300  1
  N  N119  1  0.38189200  0.00185100  0.05093700  1
  N  N120  1  0.87422700  0.16552900  0.64093800  1
  N  N121  1  0.12577300  0.66552900  0.85906200  1
  N  N122  1  0.12577300  0.83447100  0.35906200  1
  N  N123  1  0.87422700  0.33447100  0.14093800  1
  N  N124  1  0.21767300  0.13929100  0.66788800  1
  N  N125  1  0.78232700  0.63929100  0.83211200  1
  N  N126  1  0.78232700  0.86070900  0.33211200  1
  N  N127  1  0.21767300  0.36070900  0.16788800  1
  N  N128  1  0.66586300  0.20177500  0.50792900  1
  N  N129  1  0.33413700  0.70177500  0.99207100  1
  N  N130  1  0.33413700  0.79822500  0.49207100  1
  N  N131  1  0.66586300  0.29822500  0.00792900  1
  N  N132  1  0.94814200  0.11417100  0.54532100  1
  N  N133  1  0.05185800  0.61417100  0.95467900  1
  N  N134  1  0.05185800  0.88582900  0.45467900  1
  N  N135  1  0.94814200  0.38582900  0.04532100  1
  Cl  Cl136  1  0.84180100  0.67177900  0.52536200  1
  Cl  Cl137  1  0.15819900  0.17177900  0.97463800  1
  Cl  Cl138  1  0.15819900  0.32822100  0.47463800  1
  Cl  Cl139  1  0.84180100  0.82822100  0.02536200  1
  Cl  Cl140  1  0.05196100  0.49134700  0.68439400  1
  Cl  Cl141  1  0.94803900  0.99134700  0.81560600  1
  Cl  Cl142  1  0.94803900  0.50865300  0.31560600  1
  Cl  Cl143  1  0.05196100  0.00865300  0.18439400  1
