# generated using pymatgen
data_TiO
_symmetry_space_group_name_H-M   'P 1'
_cell_length_a   5.11554513
_cell_length_b   5.11554513
_cell_length_c   5.84589509
_cell_angle_alpha   74.23685065
_cell_angle_beta   74.23685065
_cell_angle_gamma   48.15161486
_symmetry_Int_Tables_number   1
_chemical_formula_structural   TiO
_chemical_formula_sum   'Ti5 O5'
_cell_volume   108.79543501
_cell_formula_units_Z   5
loop_
 _symmetry_equiv_pos_site_id
 _symmetry_equiv_pos_as_xyz
  1  'x, y, z'
loop_
 _atom_site_type_symbol
 _atom_site_label
 _atom_site_symmetry_multiplicity
 _atom_site_fract_x
 _atom_site_fract_y
 _atom_site_fract_z
 _atom_site_occupancy
  Ti  Ti0  1  0.35046900  0.35046900  0.32552000  1
  Ti  Ti1  1  0.64953100  0.64953100  0.67448000  1
  Ti  Ti2  1  0.33741600  0.33741600  0.82763400  1
  Ti  Ti3  1  0.66258400  0.66258400  0.17236600  1
  Ti  Ti4  1  0.00000000  0.00000000  0.50000000  1
  O  O5  1  0.50000000  0.50000000  0.00000000  1
  O  O6  1  0.17180100  0.17180100  0.16862600  1
  O  O7  1  0.82819900  0.82819900  0.83137400  1
  O  O8  1  0.17101900  0.17101900  0.65657500  1
  O  O9  1  0.82898100  0.82898100  0.34342500  1
