# generated using pymatgen
data_NaYb(BH4)4
_symmetry_space_group_name_H-M   'P 1'
_cell_length_a   7.58148212
_cell_length_b   7.58148212
_cell_length_c   9.31984700
_cell_angle_alpha   90.00000000
_cell_angle_beta   90.00000000
_cell_angle_gamma   107.38637115
_symmetry_Int_Tables_number   1
_chemical_formula_structural   NaYb(BH4)4
_chemical_formula_sum   'Na2 Yb2 B8 H32'
_cell_volume   511.21918063
_cell_formula_units_Z   2
loop_
 _symmetry_equiv_pos_site_id
 _symmetry_equiv_pos_as_xyz
  1  'x, y, z'
loop_
 _atom_site_type_symbol
 _atom_site_label
 _atom_site_symmetry_multiplicity
 _atom_site_fract_x
 _atom_site_fract_y
 _atom_site_fract_z
 _atom_site_occupancy
  Na  Na0  1  0.00000000  0.00000000  0.50000000  1
  Na  Na1  1  0.00000000  0.00000000  0.00000000  1
  Yb  Yb2  1  0.36344900  0.63655100  0.25000000  1
  Yb  Yb3  1  0.63655100  0.36344900  0.75000000  1
  B  B4  1  0.23552700  0.76447300  0.03339000  1
  B  B5  1  0.76447300  0.23552700  0.96661000  1
  B  B6  1  0.23552700  0.76447300  0.46661000  1
  B  B7  1  0.76447300  0.23552700  0.53339000  1
  B  B8  1  0.21386300  0.28999400  0.25000000  1
  B  B9  1  0.28999400  0.21386300  0.75000000  1
  B  B10  1  0.78613700  0.71000600  0.75000000  1
  B  B11  1  0.71000600  0.78613700  0.25000000  1
  H  H12  1  0.17720700  0.82279300  0.92845200  1
  H  H13  1  0.82279300  0.17720700  0.07154800  1
  H  H14  1  0.17720700  0.82279300  0.57154800  1
  H  H15  1  0.82279300  0.17720700  0.42845200  1
  H  H16  1  0.33129900  0.66870100  0.99877400  1
  H  H17  1  0.66870100  0.33129900  0.00122600  1
  H  H18  1  0.33129900  0.66870100  0.50122600  1
  H  H19  1  0.66870100  0.33129900  0.49877400  1
  H  H20  1  0.10961100  0.67815000  0.11786200  1
  H  H21  1  0.67815000  0.10961100  0.88213800  1
  H  H22  1  0.10961100  0.67815000  0.38213800  1
  H  H23  1  0.67815000  0.10961100  0.61786200  1
  H  H24  1  0.89038900  0.32185000  0.88213800  1
  H  H25  1  0.32185000  0.89038900  0.11786200  1
  H  H26  1  0.89038900  0.32185000  0.61786200  1
  H  H27  1  0.32185000  0.89038900  0.38213800  1
  H  H28  1  0.12965000  0.12625600  0.25000000  1
  H  H29  1  0.12625600  0.12965000  0.75000000  1
  H  H30  1  0.87035000  0.87374400  0.75000000  1
  H  H31  1  0.87374400  0.87035000  0.25000000  1
  H  H32  1  0.09916000  0.38048600  0.25000000  1
  H  H33  1  0.38048600  0.09916000  0.75000000  1
  H  H34  1  0.90084000  0.61951400  0.75000000  1
  H  H35  1  0.61951400  0.90084000  0.25000000  1
  H  H36  1  0.30971100  0.34043000  0.14181400  1
  H  H37  1  0.34043000  0.30971100  0.85818600  1
  H  H38  1  0.30971100  0.34043000  0.35818600  1
  H  H39  1  0.34043000  0.30971100  0.64181400  1
  H  H40  1  0.69028900  0.65957000  0.85818600  1
  H  H41  1  0.65957000  0.69028900  0.14181400  1
  H  H42  1  0.69028900  0.65957000  0.64181400  1
  H  H43  1  0.65957000  0.69028900  0.35818600  1
