# generated using pymatgen
data_Sb2IrC3O3F13
_symmetry_space_group_name_H-M   'P 1'
_cell_length_a   8.66146100
_cell_length_b   8.93403418
_cell_length_c   10.91336768
_cell_angle_alpha   110.64528979
_cell_angle_beta   102.88582663
_cell_angle_gamma   88.46591310
_symmetry_Int_Tables_number   1
_chemical_formula_structural   Sb2IrC3O3F13
_chemical_formula_sum   'Sb4 Ir2 C6 O6 F26'
_cell_volume   769.11587882
_cell_formula_units_Z   2
loop_
 _symmetry_equiv_pos_site_id
 _symmetry_equiv_pos_as_xyz
  1  'x, y, z'
loop_
 _atom_site_type_symbol
 _atom_site_label
 _atom_site_symmetry_multiplicity
 _atom_site_fract_x
 _atom_site_fract_y
 _atom_site_fract_z
 _atom_site_occupancy
  Sb  Sb0  1  0.32139900  0.24830800  0.63924300  1
  Sb  Sb1  1  0.67860100  0.75169200  0.36075700  1
  Sb  Sb2  1  0.68033000  0.79443400  0.83875600  1
  Sb  Sb3  1  0.31967000  0.20556600  0.16124400  1
  Ir  Ir4  1  0.21865600  0.69782900  0.70350600  1
  Ir  Ir5  1  0.78134400  0.30217100  0.29649400  1
  C  C6  1  0.11748100  0.89172400  0.75145900  1
  C  C7  1  0.88251900  0.10827600  0.24854100  1
  C  C8  1  0.19858300  0.70140600  0.51818000  1
  C  C9  1  0.80141700  0.29859400  0.48182000  1
  C  C10  1  0.23379600  0.68532200  0.88452100  1
  C  C11  1  0.76620400  0.31467800  0.11547900  1
  O  O12  1  0.05296000  0.00800000  0.77898200  1
  O  O13  1  0.94704000  0.99200000  0.22101800  1
  O  O14  1  0.19005700  0.70588600  0.41416700  1
  O  O15  1  0.80994300  0.29411400  0.58583300  1
  O  O16  1  0.23790600  0.67412900  0.98559400  1
  O  O17  1  0.76209400  0.32587100  0.01440600  1
  F  F18  1  0.01927100  0.56993800  0.64523000  1
  F  F19  1  0.98072900  0.43006200  0.35477000  1
  F  F20  1  0.33322900  0.48366900  0.64473300  1
  F  F21  1  0.66677100  0.51633100  0.35526700  1
  F  F22  1  0.13630300  0.21310200  0.49721800  1
  F  F23  1  0.86369700  0.78689800  0.50278200  1
  F  F24  1  0.45459900  0.20128900  0.51575500  1
  F  F25  1  0.54540100  0.79871100  0.48424500  1
  F  F26  1  0.19184300  0.33000000  0.76592100  1
  F  F27  1  0.80815700  0.67000000  0.23407900  1
  F  F28  1  0.29795000  0.03369800  0.63231100  1
  F  F29  1  0.70205000  0.96630200  0.36768900  1
  F  F30  1  0.50392800  0.30255400  0.78271400  1
  F  F31  1  0.49607200  0.69744600  0.21728600  1
  F  F32  1  0.44255300  0.81894200  0.76179000  1
  F  F33  1  0.55744700  0.18105800  0.23821000  1
  F  F34  1  0.67199800  0.97667300  0.99595300  1
  F  F35  1  0.32800200  0.02332700  0.00404700  1
  F  F36  1  0.66889200  0.61562400  0.67723500  1
  F  F37  1  0.33110800  0.38437600  0.32276500  1
  F  F38  1  0.59887300  0.66408900  0.91741500  1
  F  F39  1  0.40112700  0.33591100  0.08258500  1
  F  F40  1  0.72693300  0.93954800  0.75867900  1
  F  F41  1  0.27306700  0.06045200  0.24132100  1
  F  F42  1  0.89910000  0.77309200  0.90737000  1
  F  F43  1  0.10090000  0.22690800  0.09263000  1
