# generated using pymatgen
data_LaSe2O9
_symmetry_space_group_name_H-M   'P 1'
_cell_length_a   9.39330800
_cell_length_b   7.44122300
_cell_length_c   13.43555800
_cell_angle_alpha   63.43546947
_cell_angle_beta   90.00000000
_cell_angle_gamma   90.00000000
_symmetry_Int_Tables_number   1
_chemical_formula_structural   LaSe2O9
_chemical_formula_sum   'La4 Se8 O36'
_cell_volume   839.97344660
_cell_formula_units_Z   4
loop_
 _symmetry_equiv_pos_site_id
 _symmetry_equiv_pos_as_xyz
  1  'x, y, z'
loop_
 _atom_site_type_symbol
 _atom_site_label
 _atom_site_symmetry_multiplicity
 _atom_site_fract_x
 _atom_site_fract_y
 _atom_site_fract_z
 _atom_site_occupancy
  La  La0  1  0.09963500  0.69225600  0.06380200  1
  La  La1  1  0.40036500  0.69225600  0.56380200  1
  La  La2  1  0.90036500  0.30774400  0.93619800  1
  La  La3  1  0.59963500  0.30774400  0.43619800  1
  Se  Se4  1  0.88693300  0.91084900  0.82225700  1
  Se  Se5  1  0.61306700  0.91084900  0.32225700  1
  Se  Se6  1  0.11306700  0.08915100  0.17774300  1
  Se  Se7  1  0.38693300  0.08915100  0.67774300  1
  Se  Se8  1  0.28847900  0.48067100  0.88259200  1
  Se  Se9  1  0.21152100  0.48067100  0.38259200  1
  Se  Se10  1  0.71152100  0.51932900  0.11740800  1
  Se  Se11  1  0.78847900  0.51932900  0.61740800  1
  O  O12  1  0.97249000  0.99742000  0.70132800  1
  O  O13  1  0.52751000  0.99742000  0.20132800  1
  O  O14  1  0.02751000  0.00258000  0.29867200  1
  O  O15  1  0.47249000  0.00258000  0.79867200  1
  O  O16  1  0.93026400  0.66047600  0.90318400  1
  O  O17  1  0.56973600  0.66047600  0.40318400  1
  O  O18  1  0.06973600  0.33952400  0.09681600  1
  O  O19  1  0.43026400  0.33952400  0.59681600  1
  O  O20  1  0.96277200  0.00250400  0.90714300  1
  O  O21  1  0.53722800  0.00250400  0.40714300  1
  O  O22  1  0.03722800  0.99749600  0.09285700  1
  O  O23  1  0.46277200  0.99749600  0.59285700  1
  O  O24  1  0.24740100  0.66712600  0.91686200  1
  O  O25  1  0.25259900  0.66712600  0.41686200  1
  O  O26  1  0.75259900  0.33287400  0.08313800  1
  O  O27  1  0.74740100  0.33287400  0.58313800  1
  O  O28  1  0.13766600  0.38101100  0.86164900  1
  O  O29  1  0.36233400  0.38101100  0.36164900  1
  O  O30  1  0.86233400  0.61898900  0.13835100  1
  O  O31  1  0.63766600  0.61898900  0.63835100  1
  O  O32  1  0.37063400  0.58677500  0.75853500  1
  O  O33  1  0.12936600  0.58677500  0.25853500  1
  O  O34  1  0.62936600  0.41322500  0.24146500  1
  O  O35  1  0.87063400  0.41322500  0.74146500  1
  O  O36  1  0.38638000  0.30363900  0.98115400  1
  O  O37  1  0.11362000  0.30363900  0.48115400  1
  O  O38  1  0.61362000  0.69636100  0.01884600  1
  O  O39  1  0.88638000  0.69636100  0.51884600  1
  O  O40  1  0.31486100  0.44825200  0.14384800  1
  O  O41  1  0.18513900  0.44825200  0.64384800  1
  O  O42  1  0.68513900  0.55174800  0.85615200  1
  O  O43  1  0.81486100  0.55174800  0.35615200  1
  O  O44  1  0.34479900  0.88706100  0.04046400  1
  O  O45  1  0.15520100  0.88706100  0.54046400  1
  O  O46  1  0.65520100  0.11293900  0.95953600  1
  O  O47  1  0.84479900  0.11293900  0.45953600  1
