# generated using pymatgen
data_YCdBiO4
_symmetry_space_group_name_H-M   'P 1'
_cell_length_a   11.27471786
_cell_length_b   11.27471786
_cell_length_c   11.27471786
_cell_angle_alpha   100.10212177
_cell_angle_beta   100.10212177
_cell_angle_gamma   130.48083275
_symmetry_Int_Tables_number   1
_chemical_formula_structural   YCdBiO4
_chemical_formula_sum   'Y8 Cd8 Bi8 O32'
_cell_volume   989.93672098
_cell_formula_units_Z   8
loop_
 _symmetry_equiv_pos_site_id
 _symmetry_equiv_pos_as_xyz
  1  'x, y, z'
loop_
 _atom_site_type_symbol
 _atom_site_label
 _atom_site_symmetry_multiplicity
 _atom_site_fract_x
 _atom_site_fract_y
 _atom_site_fract_z
 _atom_site_occupancy
  Y  Y0  1  0.83555500  0.16444500  0.00000000  1
  Y  Y1  1  0.83555500  0.83555500  0.67110900  1
  Y  Y2  1  0.41444500  0.58555500  0.50000000  1
  Y  Y3  1  0.41444500  0.91444500  0.82889100  1
  Y  Y4  1  0.16444500  0.16444500  0.32889100  1
  Y  Y5  1  0.16444500  0.83555500  0.00000000  1
  Y  Y6  1  0.08555500  0.58555500  0.17110900  1
  Y  Y7  1  0.08555500  0.91444500  0.50000000  1
  Cd  Cd8  1  0.62500000  0.26669600  0.14169600  1
  Cd  Cd9  1  0.62500000  0.48330400  0.35830400  1
  Cd  Cd10  1  0.51669600  0.37500000  0.64169600  1
  Cd  Cd11  1  0.51669600  0.87500000  0.14169600  1
  Cd  Cd12  1  0.12500000  0.26669600  0.64169600  1
  Cd  Cd13  1  0.12500000  0.48330400  0.85830400  1
  Cd  Cd14  1  0.73330400  0.37500000  0.85830400  1
  Cd  Cd15  1  0.73330400  0.87500000  0.35830400  1
  Bi  Bi16  1  0.52100700  0.66040400  0.86060300  1
  Bi  Bi17  1  0.91040400  0.27100700  0.36060300  1
  Bi  Bi18  1  0.91040400  0.54980000  0.63939700  1
  Bi  Bi19  1  0.79980000  0.66040400  0.13939700  1
  Bi  Bi20  1  0.72899300  0.08959600  0.63939700  1
  Bi  Bi21  1  0.33959600  0.47899300  0.13939700  1
  Bi  Bi22  1  0.33959600  0.20020000  0.86060300  1
  Bi  Bi23  1  0.45020000  0.08959600  0.36060300  1
  O  O24  1  0.31560100  0.59340600  0.72219500  1
  O  O25  1  0.84340600  0.06560100  0.22219500  1
  O  O26  1  0.84340600  0.62121100  0.77780500  1
  O  O27  1  0.87121100  0.59340600  0.27780500  1
  O  O28  1  0.93439900  0.15659400  0.77780500  1
  O  O29  1  0.40659400  0.68439900  0.27780500  1
  O  O30  1  0.40659400  0.12878900  0.72219500  1
  O  O31  1  0.37878900  0.15659400  0.22219500  1
  O  O32  1  0.57711300  0.91699500  0.96206700  1
  O  O33  1  0.57711300  0.61504600  0.66011800  1
  O  O34  1  0.16699500  0.32711300  0.46206700  1
  O  O35  1  0.16699500  0.70492800  0.83988200  1
  O  O36  1  0.95492800  0.91699500  0.33988200  1
  O  O37  1  0.95492800  0.61504600  0.03793300  1
  O  O38  1  0.86504600  0.32711300  0.16011800  1
  O  O39  1  0.86504600  0.70492800  0.53793300  1
  O  O40  1  0.67288700  0.83300500  0.53793300  1
  O  O41  1  0.67288700  0.13495400  0.83988200  1
  O  O42  1  0.08300500  0.42288700  0.03793300  1
  O  O43  1  0.08300500  0.04507200  0.66011800  1
  O  O44  1  0.29507200  0.83300500  0.16011800  1
  O  O45  1  0.29507200  0.13495400  0.46206700  1
  O  O46  1  0.38495400  0.42288700  0.33988200  1
  O  O47  1  0.38495400  0.04507200  0.96206700  1
  O  O48  1  0.64231700  0.14231700  0.28463500  1
  O  O49  1  0.64231700  0.35768300  0.50000000  1
  O  O50  1  0.39231700  0.39231700  0.78463500  1
  O  O51  1  0.39231700  0.60768300  0.00000000  1
  O  O52  1  0.85768300  0.14231700  0.50000000  1
  O  O53  1  0.85768300  0.35768300  0.71536500  1
  O  O54  1  0.60768300  0.39231700  0.00000000  1
  O  O55  1  0.60768300  0.60768300  0.21536500  1
