# generated using pymatgen
data_SnH12C4(SCl2)2
_symmetry_space_group_name_H-M   'P 1'
_cell_length_a   12.76572100
_cell_length_b   7.25030800
_cell_length_c   9.52888538
_cell_angle_alpha   59.04172737
_cell_angle_beta   90.00000000
_cell_angle_gamma   90.00000000
_symmetry_Int_Tables_number   1
_chemical_formula_structural   SnH12C4(SCl2)2
_chemical_formula_sum   'Sn2 H24 C8 S4 Cl8'
_cell_volume   756.30921352
_cell_formula_units_Z   2
loop_
 _symmetry_equiv_pos_site_id
 _symmetry_equiv_pos_as_xyz
  1  'x, y, z'
loop_
 _atom_site_type_symbol
 _atom_site_label
 _atom_site_symmetry_multiplicity
 _atom_site_fract_x
 _atom_site_fract_y
 _atom_site_fract_z
 _atom_site_occupancy
  Sn  Sn0  1  0.00000000  0.00000000  0.00000000  1
  Sn  Sn1  1  0.50000000  0.00000000  0.50000000  1
  H  H2  1  0.79199600  0.46703000  0.40069800  1
  H  H3  1  0.70800400  0.46703000  0.90069800  1
  H  H4  1  0.20800400  0.53297000  0.59930200  1
  H  H5  1  0.29199600  0.53297000  0.09930200  1
  H  H6  1  0.92559300  0.43703300  0.35649900  1
  H  H7  1  0.57440700  0.43703300  0.85649900  1
  H  H8  1  0.07440700  0.56296700  0.64350100  1
  H  H9  1  0.42559300  0.56296700  0.14350100  1
  H  H10  1  0.89073900  0.65328000  0.38821600  1
  H  H11  1  0.60926100  0.65328000  0.88821600  1
  H  H12  1  0.10926100  0.34672000  0.61178400  1
  H  H13  1  0.39073900  0.34672000  0.11178400  1
  H  H14  1  0.74921700  0.97155800  0.16861600  1
  H  H15  1  0.75078300  0.97155800  0.66861600  1
  H  H16  1  0.25078300  0.02844200  0.83138400  1
  H  H17  1  0.24921700  0.02844200  0.33138400  1
  H  H18  1  0.70331200  0.96351700  0.99335800  1
  H  H19  1  0.79668800  0.96351700  0.49335800  1
  H  H20  1  0.29668800  0.03648300  0.00664200  1
  H  H21  1  0.20331200  0.03648300  0.50664200  1
  H  H22  1  0.66739800  0.75268000  0.19644400  1
  H  H23  1  0.83260200  0.75268000  0.69644400  1
  H  H24  1  0.33260200  0.24732000  0.80355600  1
  H  H25  1  0.16739800  0.24732000  0.30355600  1
  C  C26  1  0.86469500  0.55238700  0.34050600  1
  C  C27  1  0.63530500  0.55238700  0.84050600  1
  C  C28  1  0.13530500  0.44761300  0.65949400  1
  C  C29  1  0.36469500  0.44761300  0.15949400  1
  C  C30  1  0.72870200  0.86714100  0.12151200  1
  C  C31  1  0.77129800  0.86714100  0.62151200  1
  C  C32  1  0.27129800  0.13285900  0.87848800  1
  C  C33  1  0.22870200  0.13285900  0.37848800  1
  S  S34  1  0.83973300  0.71227200  0.12395300  1
  S  S35  1  0.66026700  0.71227200  0.62395300  1
  S  S36  1  0.16026700  0.28772800  0.87604700  1
  S  S37  1  0.33973300  0.28772800  0.37604700  1
  Cl  Cl38  1  0.04359800  0.86956900  0.81654100  1
  Cl  Cl39  1  0.45640200  0.86956900  0.31654100  1
  Cl  Cl40  1  0.95640200  0.13043100  0.18345900  1
  Cl  Cl41  1  0.54359800  0.13043100  0.68345900  1
  Cl  Cl42  1  0.11973800  0.73588400  0.20816300  1
  Cl  Cl43  1  0.38026200  0.73588400  0.70816300  1
  Cl  Cl44  1  0.88026200  0.26411600  0.79183700  1
  Cl  Cl45  1  0.61973800  0.26411600  0.29183700  1
