# generated using pymatgen
data_CuH10C2(NCl2)2
_symmetry_space_group_name_H-M   'P 1'
_cell_length_a   7.45351600
_cell_length_b   7.22143500
_cell_length_c   8.25591301
_cell_angle_alpha   89.66750422
_cell_angle_beta   90.00000000
_cell_angle_gamma   90.00000000
_symmetry_Int_Tables_number   1
_chemical_formula_structural   CuH10C2(NCl2)2
_chemical_formula_sum   'Cu2 H20 C4 N4 Cl8'
_cell_volume   444.36770687
_cell_formula_units_Z   2
loop_
 _symmetry_equiv_pos_site_id
 _symmetry_equiv_pos_as_xyz
  1  'x, y, z'
loop_
 _atom_site_type_symbol
 _atom_site_label
 _atom_site_symmetry_multiplicity
 _atom_site_fract_x
 _atom_site_fract_y
 _atom_site_fract_z
 _atom_site_occupancy
  Cu  Cu0  1  0.50000000  0.00000000  0.50000000  1
  Cu  Cu1  1  0.00000000  0.50000000  0.50000000  1
  H  H2  1  0.05180200  0.07064300  0.68125900  1
  H  H3  1  0.55180200  0.42935700  0.31874100  1
  H  H4  1  0.94819800  0.92935700  0.31874100  1
  H  H5  1  0.44819800  0.57064400  0.68125900  1
  H  H6  1  0.98578100  0.85908700  0.75097200  1
  H  H7  1  0.48578100  0.64091300  0.24902800  1
  H  H8  1  0.01421900  0.14091300  0.24902800  1
  H  H9  1  0.51421900  0.35908700  0.75097200  1
  H  H10  1  0.84398700  0.03871700  0.76084100  1
  H  H11  1  0.34398700  0.46128300  0.23915900  1
  H  H12  1  0.15601300  0.96128300  0.23915900  1
  H  H13  1  0.65601300  0.53871700  0.76084100  1
  H  H14  1  0.04348600  0.20087700  0.94505400  1
  H  H15  1  0.54348600  0.29912300  0.05494600  1
  H  H16  1  0.95651400  0.79912300  0.05494600  1
  H  H17  1  0.45651400  0.70087700  0.94505400  1
  H  H18  1  0.19502900  0.01034300  0.93478000  1
  H  H19  1  0.69502900  0.48965700  0.06522000  1
  H  H20  1  0.80497100  0.98965700  0.06522000  1
  H  H21  1  0.30497100  0.51034300  0.93478000  1
  C  C22  1  0.05261200  0.04932000  0.93347600  1
  C  C23  1  0.55261200  0.45068000  0.06652400  1
  C  C24  1  0.94738800  0.95068000  0.06652400  1
  C  C25  1  0.44738800  0.54932000  0.93347600  1
  N  N26  1  0.97869700  0.00128900  0.77163000  1
  N  N27  1  0.47869700  0.49871100  0.22837000  1
  N  N28  1  0.02130300  0.99871100  0.22837000  1
  N  N29  1  0.52130300  0.50128900  0.77163000  1
  Cl  Cl30  1  0.54195600  0.03048200  0.77892400  1
  Cl  Cl31  1  0.04195600  0.46951800  0.22107600  1
  Cl  Cl32  1  0.45804400  0.96951800  0.22107600  1
  Cl  Cl33  1  0.95804400  0.53048200  0.77892400  1
  Cl  Cl34  1  0.79427300  0.73238000  0.45996600  1
  Cl  Cl35  1  0.29427300  0.76762000  0.54003400  1
  Cl  Cl36  1  0.20572700  0.26762000  0.54003400  1
  Cl  Cl37  1  0.70572700  0.23238000  0.45996600  1
