# generated using pymatgen
data_SrPH7CO6
_symmetry_space_group_name_H-M   'P 1'
_cell_length_a   8.22151600
_cell_length_b   9.35857000
_cell_length_c   20.57443800
_cell_angle_alpha   90.00000000
_cell_angle_beta   90.00000000
_cell_angle_gamma   90.00000000
_symmetry_Int_Tables_number   1
_chemical_formula_structural   SrPH7CO6
_chemical_formula_sum   'Sr8 P8 H56 C8 O48'
_cell_volume   1583.03085762
_cell_formula_units_Z   8
loop_
 _symmetry_equiv_pos_site_id
 _symmetry_equiv_pos_as_xyz
  1  'x, y, z'
loop_
 _atom_site_type_symbol
 _atom_site_label
 _atom_site_symmetry_multiplicity
 _atom_site_fract_x
 _atom_site_fract_y
 _atom_site_fract_z
 _atom_site_occupancy
  Sr  Sr0  1  0.23943400  0.33790800  0.23344100  1
  Sr  Sr1  1  0.73943400  0.16209200  0.76655900  1
  Sr  Sr2  1  0.76056600  0.83790800  0.26655900  1
  Sr  Sr3  1  0.26056600  0.66209200  0.73344100  1
  Sr  Sr4  1  0.76056600  0.66209200  0.76655900  1
  Sr  Sr5  1  0.26056600  0.83790800  0.23344100  1
  Sr  Sr6  1  0.23943400  0.16209200  0.73344100  1
  Sr  Sr7  1  0.73943400  0.33790800  0.26655900  1
  P  P8  1  0.09376400  0.57790100  0.32949300  1
  P  P9  1  0.59376400  0.92209900  0.67050700  1
  P  P10  1  0.90623600  0.07790100  0.17050700  1
  P  P11  1  0.40623600  0.42209900  0.82949300  1
  P  P12  1  0.90623600  0.42209900  0.67050700  1
  P  P13  1  0.40623600  0.07790100  0.32949300  1
  P  P14  1  0.09376400  0.92209900  0.82949300  1
  P  P15  1  0.59376400  0.57790100  0.17050700  1
  H  H16  1  0.54206500  0.30357700  0.40834100  1
  H  H17  1  0.04206500  0.19642300  0.59165900  1
  H  H18  1  0.45793500  0.80357700  0.09165900  1
  H  H19  1  0.95793500  0.69642300  0.90834100  1
  H  H20  1  0.45793500  0.69642300  0.59165900  1
  H  H21  1  0.95793500  0.80357700  0.40834100  1
  H  H22  1  0.54206500  0.19642300  0.90834100  1
  H  H23  1  0.04206500  0.30357700  0.09165900  1
  H  H24  1  0.95667700  0.15519500  0.48782200  1
  H  H25  1  0.45667700  0.34480500  0.51217800  1
  H  H26  1  0.04332300  0.65519500  0.01217800  1
  H  H27  1  0.54332300  0.84480500  0.98782200  1
  H  H28  1  0.04332300  0.84480500  0.51217800  1
  H  H29  1  0.54332300  0.65519500  0.48782200  1
  H  H30  1  0.95667700  0.34480500  0.98782200  1
  H  H31  1  0.45667700  0.15519500  0.01217800  1
  H  H32  1  0.89099100  0.19262300  0.41641400  1
  H  H33  1  0.39099100  0.30737700  0.58358600  1
  H  H34  1  0.10900900  0.69262300  0.08358600  1
  H  H35  1  0.60900900  0.80737700  0.91641400  1
  H  H36  1  0.10900900  0.80737700  0.58358600  1
  H  H37  1  0.60900900  0.69262300  0.41641400  1
  H  H38  1  0.89099100  0.30737700  0.91641400  1
  H  H39  1  0.39099100  0.19262300  0.08358600  1
  H  H40  1  0.59563400  0.44777400  0.44390600  1
  H  H41  1  0.09563400  0.05222600  0.55609400  1
  H  H42  1  0.40436600  0.94777400  0.05609400  1
  H  H43  1  0.90436600  0.55222600  0.94390600  1
  H  H44  1  0.40436600  0.55222600  0.55609400  1
  H  H45  1  0.90436600  0.94777400  0.44390600  1
  H  H46  1  0.59563400  0.05222600  0.94390600  1
  H  H47  1  0.09563400  0.44777400  0.05609400  1
  H  H48  1  0.22886000  0.44813300  0.41458600  1
  H  H49  1  0.72886000  0.05186700  0.58541400  1
  H  H50  1  0.77114000  0.94813300  0.08541400  1
  H  H51  1  0.27114000  0.55186700  0.91458600  1
  H  H52  1  0.77114000  0.55186700  0.58541400  1
  H  H53  1  0.27114000  0.94813300  0.41458600  1
  H  H54  1  0.22886000  0.05186700  0.91458600  1
  H  H55  1  0.72886000  0.44813300  0.08541400  1
  H  H56  1  0.22202900  0.63396900  0.43388300  1
  H  H57  1  0.72202900  0.86603100  0.56611700  1
  H  H58  1  0.77797100  0.13396900  0.06611700  1
  H  H59  1  0.27797100  0.36603100  0.93388300  1
  H  H60  1  0.77797100  0.36603100  0.56611700  1
  H  H61  1  0.27797100  0.13396900  0.43388300  1
  H  H62  1  0.22202900  0.86603100  0.93388300  1
  H  H63  1  0.72202900  0.63396900  0.06611700  1
  H  H64  1  0.04189300  0.52770800  0.44021400  1
  H  H65  1  0.54189300  0.97229200  0.55978600  1
  H  H66  1  0.95810700  0.02770800  0.05978600  1
  H  H67  1  0.45810700  0.47229200  0.94021400  1
  H  H68  1  0.95810700  0.47229200  0.55978600  1
  H  H69  1  0.45810700  0.02770800  0.44021400  1
  H  H70  1  0.04189300  0.97229200  0.94021400  1
  H  H71  1  0.54189300  0.52770800  0.05978600  1
  C  C72  1  0.15400900  0.54503900  0.41233700  1
  C  C73  1  0.65400900  0.95496100  0.58766300  1
  C  C74  1  0.84599100  0.04503900  0.08766300  1
  C  C75  1  0.34599100  0.45496100  0.91233700  1
  C  C76  1  0.84599100  0.45496100  0.58766300  1
  C  C77  1  0.34599100  0.04503900  0.41233700  1
  C  C78  1  0.15400900  0.95496100  0.91233700  1
  C  C79  1  0.65400900  0.54503900  0.08766300  1
  O  O80  1  0.35184400  0.09049900  0.18824000  1
  O  O81  1  0.85184400  0.40950100  0.81176000  1
  O  O82  1  0.64815600  0.59049900  0.31176000  1
  O  O83  1  0.14815600  0.90950100  0.68824000  1
  O  O84  1  0.64815600  0.90950100  0.81176000  1
  O  O85  1  0.14815600  0.59049900  0.18824000  1
  O  O86  1  0.35184400  0.40950100  0.68824000  1
  O  O87  1  0.85184400  0.09049900  0.31176000  1
  O  O88  1  0.00500500  0.44278400  0.30511500  1
  O  O89  1  0.50500500  0.05721600  0.69488500  1
  O  O90  1  0.99499500  0.94278400  0.19488500  1
  O  O91  1  0.49499500  0.55721600  0.80511500  1
  O  O92  1  0.99499500  0.55721600  0.69488500  1
  O  O93  1  0.49499500  0.94278400  0.30511500  1
  O  O94  1  0.00500500  0.05721600  0.80511500  1
  O  O95  1  0.50500500  0.44278400  0.19488500  1
  O  O96  1  0.99949500  0.71979900  0.32447500  1
  O  O97  1  0.49949500  0.78020100  0.67552500  1
  O  O98  1  0.00050500  0.21979900  0.17552500  1
  O  O99  1  0.50050500  0.28020100  0.82447500  1
  O  O100  1  0.00050500  0.28020100  0.67552500  1
  O  O101  1  0.50050500  0.21979900  0.32447500  1
  O  O102  1  0.99949500  0.78020100  0.82447500  1
  O  O103  1  0.49949500  0.71979900  0.17552500  1
  O  O104  1  0.25784800  0.59162100  0.28966500  1
  O  O105  1  0.75784800  0.90837900  0.71033500  1
  O  O106  1  0.74215200  0.09162100  0.21033500  1
  O  O107  1  0.24215200  0.40837900  0.78966500  1
  O  O108  1  0.74215200  0.40837900  0.71033500  1
  O  O109  1  0.24215200  0.09162100  0.28966500  1
  O  O110  1  0.25784800  0.90837900  0.78966500  1
  O  O111  1  0.75784800  0.59162100  0.21033500  1
  O  O112  1  0.58409500  0.34174700  0.44942500  1
  O  O113  1  0.08409500  0.15825300  0.55057500  1
  O  O114  1  0.41590500  0.84174700  0.05057500  1
  O  O115  1  0.91590500  0.65825300  0.94942500  1
  O  O116  1  0.41590500  0.65825300  0.55057500  1
  O  O117  1  0.91590500  0.84174700  0.44942500  1
  O  O118  1  0.58409500  0.15825300  0.94942500  1
  O  O119  1  0.08409500  0.34174700  0.05057500  1
  O  O120  1  0.88113800  0.12477900  0.45186400  1
  O  O121  1  0.38113800  0.37522100  0.54813600  1
  O  O122  1  0.11886200  0.62477900  0.04813600  1
  O  O123  1  0.61886200  0.87522100  0.95186400  1
  O  O124  1  0.11886200  0.87522100  0.54813600  1
  O  O125  1  0.61886200  0.62477900  0.45186400  1
  O  O126  1  0.88113800  0.37522100  0.95186400  1
  O  O127  1  0.38113800  0.12477900  0.04813600  1
