# generated using pymatgen
data_H18WC6
_symmetry_space_group_name_H-M   'P 1'
_cell_length_a   6.48368949
_cell_length_b   13.54790553
_cell_length_c   21.65654949
_cell_angle_alpha   90.00000000
_cell_angle_beta   90.00000000
_cell_angle_gamma   90.00000000
_symmetry_Int_Tables_number   1
_chemical_formula_structural   H18WC6
_chemical_formula_sum   'H144 W8 C48'
_cell_volume   1902.32024478
_cell_formula_units_Z   8
loop_
 _symmetry_equiv_pos_site_id
 _symmetry_equiv_pos_as_xyz
  1  'x, y, z'
loop_
 _atom_site_type_symbol
 _atom_site_label
 _atom_site_symmetry_multiplicity
 _atom_site_fract_x
 _atom_site_fract_y
 _atom_site_fract_z
 _atom_site_occupancy
  H  H0  1  0.84953582  0.95204370  0.24125066  1
  H  H1  1  0.15046418  0.04795630  0.74125066  1
  H  H2  1  0.84953582  0.54795630  0.74125066  1
  H  H3  1  0.15046418  0.45204370  0.24125066  1
  H  H4  1  0.97232212  0.85329133  0.28114978  1
  H  H5  1  0.02767788  0.14670867  0.78114978  1
  H  H6  1  0.97232212  0.64670867  0.78114978  1
  H  H7  1  0.02767788  0.35329133  0.28114978  1
  H  H8  1  0.94383708  0.84815982  0.19961547  1
  H  H9  1  0.05616292  0.15184018  0.69961547  1
  H  H10  1  0.94383708  0.65184018  0.69961547  1
  H  H11  1  0.05616292  0.34815982  0.19961547  1
  H  H12  1  0.58847746  0.96867637  0.18483906  1
  H  H13  1  0.41152254  0.03132363  0.68483906  1
  H  H14  1  0.58847746  0.53132363  0.68483906  1
  H  H15  1  0.41152254  0.46867637  0.18483906  1
  H  H16  1  0.56861137  0.86548058  0.13405707  1
  H  H17  1  0.43138863  0.13451942  0.63405707  1
  H  H18  1  0.56861137  0.63451942  0.63405707  1
  H  H19  1  0.43138863  0.36548058  0.13405707  1
  H  H20  1  0.34852335  0.90556786  0.17623624  1
  H  H21  1  0.65147665  0.09443214  0.67623624  1
  H  H22  1  0.34852335  0.59443214  0.67623624  1
  H  H23  1  0.65147665  0.40556786  0.17623624  1
  H  H24  1  0.57932807  0.99353033  0.27598068  1
  H  H25  1  0.42067193  0.00646967  0.77598068  1
  H  H26  1  0.57932807  0.50646967  0.77598068  1
  H  H27  1  0.42067193  0.49353033  0.27598068  1
  H  H28  1  0.35639464  0.93643605  0.30904821  1
  H  H29  1  0.64360536  0.06356395  0.80904821  1
  H  H30  1  0.35639464  0.56356395  0.80904821  1
  H  H31  1  0.64360536  0.43643605  0.30904821  1
  H  H32  1  0.60108313  0.92385434  0.34540740  1
  H  H33  1  0.39891687  0.07614566  0.84540740  1
  H  H34  1  0.60108313  0.57614566  0.84540740  1
  H  H35  1  0.39891687  0.42385434  0.34540740  1
  H  H36  1  0.72045572  0.60897792  0.26907084  1
  H  H37  1  0.27954428  0.39102208  0.76907084  1
  H  H38  1  0.72045572  0.89102208  0.76907084  1
  H  H39  1  0.27954428  0.10897792  0.26907084  1
  H  H40  1  0.91451131  0.66949836  0.22413117  1
  H  H41  1  0.08548869  0.33050164  0.72413117  1
  H  H42  1  0.91451131  0.83050164  0.72413117  1
  H  H43  1  0.08548869  0.16949836  0.22413117  1
  H  H44  1  0.90242040  0.68817626  0.30595845  1
  H  H45  1  0.09757960  0.31182374  0.80595845  1
  H  H46  1  0.90242040  0.81182374  0.80595845  1
  H  H47  1  0.09757960  0.18817626  0.30595845  1
  H  H48  1  0.37182511  0.63561480  0.20558876  1
  H  H49  1  0.62817489  0.36438520  0.70558876  1
  H  H50  1  0.37182511  0.86438520  0.70558876  1
  H  H51  1  0.62817489  0.13561480  0.20558876  1
  H  H52  1  0.25598984  0.74367074  0.17314124  1
  H  H53  1  0.74401016  0.25632926  0.67314124  1
  H  H54  1  0.25598984  0.75632926  0.67314124  1
  H  H55  1  0.74401016  0.24367074  0.17314124  1
  H  H56  1  0.49453150  0.69847662  0.14295925  1
  H  H57  1  0.50546850  0.30152338  0.64295925  1
  H  H58  1  0.49453150  0.80152338  0.64295925  1
  H  H59  1  0.50546850  0.19847662  0.14295925  1
  H  H60  1  0.39752570  0.66581894  0.33083678  1
  H  H61  1  0.60247430  0.33418106  0.83083678  1
  H  H62  1  0.39752570  0.83418106  0.83083678  1
  H  H63  1  0.60247430  0.16581894  0.33083678  1
  H  H64  1  0.50943930  0.76451417  0.37415610  1
  H  H65  1  0.49056070  0.23548583  0.87415610  1
  H  H66  1  0.50943930  0.73548583  0.87415610  1
  H  H67  1  0.49056070  0.26451417  0.37415610  1
  H  H68  1  0.26321315  0.78118543  0.33837280  1
  H  H69  1  0.73678685  0.21881457  0.83837280  1
  H  H70  1  0.26321315  0.71881457  0.83837280  1
  H  H71  1  0.73678685  0.28118543  0.33837280  1
  H  H72  1  0.83507372  0.70467365  0.06902419  1
  H  H73  1  0.16492628  0.29532635  0.56902419  1
  H  H74  1  0.83507372  0.79532635  0.56902419  1
  H  H75  1  0.16492628  0.20467365  0.06902419  1
  H  H76  1  0.81791896  0.59533079  0.11476758  1
  H  H77  1  0.18208104  0.40466921  0.61476758  1
  H  H78  1  0.81791896  0.90466921  0.61476758  1
  H  H79  1  0.18208104  0.09533079  0.11476758  1
  H  H80  1  0.05953523  0.63111225  0.08340173  1
  H  H81  1  0.94046477  0.36888775  0.58340173  1
  H  H82  1  0.05953523  0.86888775  0.58340173  1
  H  H83  1  0.94046477  0.13111225  0.08340173  1
  H  H84  1  0.83556465  0.73440441  0.97092052  1
  H  H85  1  0.16443535  0.26559559  0.47092052  1
  H  H86  1  0.83556465  0.76559559  0.47092052  1
  H  H87  1  0.16443535  0.23440441  0.97092052  1
  H  H88  1  0.07405793  0.67468853  0.95153284  1
  H  H89  1  0.92594207  0.32531147  0.45153284  1
  H  H90  1  0.07405793  0.82531147  0.45153284  1
  H  H91  1  0.92594207  0.17468853  0.95153284  1
  H  H92  1  0.85637908  0.66136101  0.90249926  1
  H  H93  1  0.14362092  0.33863899  0.40249926  1
  H  H94  1  0.85637908  0.83863899  0.40249926  1
  H  H95  1  0.14362092  0.16136101  0.90249926  1
  H  H96  1  0.56196428  0.69073994  0.01261806  1
  H  H97  1  0.43803572  0.30926006  0.51261806  1
  H  H98  1  0.56196428  0.80926006  0.51261806  1
  H  H99  1  0.43803572  0.19073994  0.01261806  1
  H  H100  1  0.45111398  0.59632182  0.96580069  1
  H  H101  1  0.54888602  0.40367818  0.46580069  1
  H  H102  1  0.45111398  0.90367818  0.46580069  1
  H  H103  1  0.54888602  0.09632182  0.96580069  1
  H  H104  1  0.46561650  0.58004272  0.04689881  1
  H  H105  1  0.53438350  0.41995728  0.54689881  1
  H  H106  1  0.46561650  0.91995728  0.54689881  1
  H  H107  1  0.53438350  0.08004272  0.04689881  1
  H  H108  1  0.01315112  0.36782276  0.04126773  1
  H  H109  1  0.98684888  0.63217724  0.54126773  1
  H  H110  1  0.01315112  0.13217724  0.54126773  1
  H  H111  1  0.98684888  0.86782276  0.04126773  1
  H  H112  1  0.16042499  0.46837317  0.07246578  1
  H  H113  1  0.83957501  0.53162683  0.57246578  1
  H  H114  1  0.16042499  0.03162683  0.57246578  1
  H  H115  1  0.83957501  0.96837317  0.07246578  1
  H  H116  1  0.91783196  0.43619634  0.10596877  1
  H  H117  1  0.08216804  0.56380366  0.60596877  1
  H  H118  1  0.91783196  0.06380366  0.60596877  1
  H  H119  1  0.08216804  0.93619634  0.10596877  1
  H  H120  1  0.02110031  0.40681511  0.91692720  1
  H  H121  1  0.97889969  0.59318489  0.41692720  1
  H  H122  1  0.02110031  0.09318489  0.41692720  1
  H  H123  1  0.97889969  0.90681511  0.91692720  1
  H  H124  1  0.91983514  0.50919465  0.87461619  1
  H  H125  1  0.08016486  0.49080535  0.37461619  1
  H  H126  1  0.91983514  0.99080535  0.37461619  1
  H  H127  1  0.08016486  0.00919465  0.87461619  1
  H  H128  1  0.16076795  0.52111124  0.91374909  1
  H  H129  1  0.83923205  0.47888876  0.41374909  1
  H  H130  1  0.16076795  0.97888876  0.41374909  1
  H  H131  1  0.83923205  0.02111124  0.91374909  1
  H  H132  1  0.67719694  0.34983501  0.97467032  1
  H  H133  1  0.32280306  0.65016499  0.47467032  1
  H  H134  1  0.67719694  0.15016499  0.47467032  1
  H  H135  1  0.32280306  0.84983501  0.97467032  1
  H  H136  1  0.48997930  0.41530110  0.01996490  1
  H  H137  1  0.51002070  0.58469890  0.51996490  1
  H  H138  1  0.48997930  0.08469890  0.51996490  1
  H  H139  1  0.51002070  0.91530110  0.01996490  1
  H  H140  1  0.51444484  0.44012768  0.93905333  1
  H  H141  1  0.48555516  0.55987232  0.43905333  1
  H  H142  1  0.51444484  0.05987232  0.43905333  1
  H  H143  1  0.48555516  0.94012768  0.93905333  1
  W  W144  1  0.57930459  0.78762563  0.25215863  1
  W  W145  1  0.42069541  0.21237437  0.75215863  1
  W  W146  1  0.57930459  0.71237437  0.75215863  1
  W  W147  1  0.42069541  0.28762563  0.25215863  1
  W  W148  1  0.83635319  0.52677183  0.99695882  1
  W  W149  1  0.16364681  0.47322817  0.49695882  1
  W  W150  1  0.83635319  0.97322817  0.49695882  1
  W  W151  1  0.16364681  0.02677183  0.99695882  1
  C  C152  1  0.86826515  0.87152610  0.24270649  1
  C  C153  1  0.13173485  0.12847390  0.74270649  1
  C  C154  1  0.86826515  0.62847390  0.74270649  1
  C  C155  1  0.13173485  0.37152610  0.24270649  1
  C  C156  1  0.51691720  0.89607045  0.17847852  1
  C  C157  1  0.48308280  0.10392955  0.67847852  1
  C  C158  1  0.51691720  0.60392955  0.67847852  1
  C  C159  1  0.48308280  0.39607045  0.17847852  1
  C  C160  1  0.52255853  0.92801218  0.30039254  1
  C  C161  1  0.47744147  0.07198782  0.80039254  1
  C  C162  1  0.52255853  0.57198782  0.80039254  1
  C  C163  1  0.47744147  0.42801218  0.30039254  1
  C  C164  1  0.81045981  0.67785014  0.26378710  1
  C  C165  1  0.18954019  0.32214986  0.76378710  1
  C  C166  1  0.81045981  0.82214986  0.76378710  1
  C  C167  1  0.18954019  0.17785014  0.26378710  1
  C  C168  1  0.40321927  0.70884728  0.18526049  1
  C  C169  1  0.59678073  0.29115272  0.68526049  1
  C  C170  1  0.40321927  0.79115272  0.68526049  1
  C  C171  1  0.59678073  0.20884728  0.18526049  1
  C  C172  1  0.41565972  0.74687648  0.33328120  1
  C  C173  1  0.58434028  0.25312352  0.83328120  1
  C  C174  1  0.41565972  0.75312352  0.83328120  1
  C  C175  1  0.58434028  0.24687648  0.33328120  1
  C  C176  1  0.89260802  0.62908590  0.07421208  1
  C  C177  1  0.10739198  0.37091410  0.57421208  1
  C  C178  1  0.89260802  0.87091410  0.57421208  1
  C  C179  1  0.10739198  0.12908590  0.07421208  1
  C  C180  1  0.90486709  0.66778808  0.95106699  1
  C  C181  1  0.09513291  0.33221192  0.45106699  1
  C  C182  1  0.90486709  0.83221192  0.45106699  1
  C  C183  1  0.09513291  0.16778808  0.95106699  1
  C  C184  1  0.54753157  0.61066877  0.00664015  1
  C  C185  1  0.45246843  0.38933123  0.50664015  1
  C  C186  1  0.54753157  0.88933123  0.50664015  1
  C  C187  1  0.45246843  0.11066877  0.00664015  1
  C  C188  1  0.00401161  0.44195446  0.06237528  1
  C  C189  1  0.99598839  0.55804554  0.56237528  1
  C  C190  1  0.00401161  0.05804554  0.56237528  1
  C  C191  1  0.99598839  0.94195446  0.06237528  1
  C  C192  1  0.00644507  0.48801238  0.91620056  1
  C  C193  1  0.99355493  0.51198762  0.41620056  1
  C  C194  1  0.00644507  0.01198762  0.41620056  1
  C  C195  1  0.99355493  0.98801238  0.91620056  1
  C  C196  1  0.59918958  0.42149582  0.98143421  1
  C  C197  1  0.40081042  0.57850418  0.48143421  1
  C  C198  1  0.59918958  0.07850418  0.48143421  1
  C  C199  1  0.40081042  0.92149582  0.98143421  1
