# generated using pymatgen
data_Pd(NO4)2
_symmetry_space_group_name_H-M   'P 1'
_cell_length_a   5.19207700
_cell_length_b   10.35553000
_cell_length_c   11.68028900
_cell_angle_alpha   90.00000000
_cell_angle_beta   90.00000000
_cell_angle_gamma   90.00000000
_symmetry_Int_Tables_number   1
_chemical_formula_structural   Pd(NO4)2
_chemical_formula_sum   'Pd4 N8 O32'
_cell_volume   628.01070129
_cell_formula_units_Z   4
loop_
 _symmetry_equiv_pos_site_id
 _symmetry_equiv_pos_as_xyz
  1  'x, y, z'
loop_
 _atom_site_type_symbol
 _atom_site_label
 _atom_site_symmetry_multiplicity
 _atom_site_fract_x
 _atom_site_fract_y
 _atom_site_fract_z
 _atom_site_occupancy
  Pd  Pd0  1  0.50000000  0.00000000  0.50000000  1
  Pd  Pd1  1  0.00000000  0.50000000  0.50000000  1
  Pd  Pd2  1  0.50000000  0.50000000  0.00000000  1
  Pd  Pd3  1  0.00000000  0.00000000  0.00000000  1
  N  N4  1  0.64049000  0.32886200  0.61677600  1
  N  N5  1  0.14049000  0.17113800  0.38322400  1
  N  N6  1  0.35951000  0.82886200  0.88322400  1
  N  N7  1  0.85951000  0.67113800  0.11677600  1
  N  N8  1  0.35951000  0.67113800  0.38322400  1
  N  N9  1  0.85951000  0.82886200  0.61677600  1
  N  N10  1  0.64049000  0.17113800  0.11677600  1
  N  N11  1  0.14049000  0.32886200  0.88322400  1
  O  O12  1  0.83528500  0.45711000  0.37357700  1
  O  O13  1  0.33528500  0.04289000  0.62642300  1
  O  O14  1  0.16471500  0.95711000  0.12642300  1
  O  O15  1  0.66471500  0.54289000  0.87357700  1
  O  O16  1  0.16471500  0.54289000  0.62642300  1
  O  O17  1  0.66471500  0.95711000  0.37357700  1
  O  O18  1  0.83528500  0.04289000  0.87357700  1
  O  O19  1  0.33528500  0.45711000  0.12642300  1
  O  O20  1  0.83106700  0.54505300  0.09980800  1
  O  O21  1  0.33106700  0.95494700  0.90019200  1
  O  O22  1  0.16893300  0.04505300  0.40019200  1
  O  O23  1  0.66893300  0.45494700  0.59980800  1
  O  O24  1  0.16893300  0.45494700  0.90019200  1
  O  O25  1  0.66893300  0.04505300  0.09980800  1
  O  O26  1  0.83106700  0.95494700  0.59980800  1
  O  O27  1  0.33106700  0.54505300  0.40019200  1
  O  O28  1  0.55698900  0.70439400  0.33134200  1
  O  O29  1  0.05698900  0.79560600  0.66865800  1
  O  O30  1  0.44301100  0.20439400  0.16865800  1
  O  O31  1  0.94301100  0.29560600  0.83134200  1
  O  O32  1  0.44301100  0.29560600  0.66865800  1
  O  O33  1  0.94301100  0.20439400  0.33134200  1
  O  O34  1  0.55698900  0.79560600  0.83134200  1
  O  O35  1  0.05698900  0.70439400  0.16865800  1
  O  O36  1  0.19335200  0.74626000  0.41951000  1
  O  O37  1  0.69335200  0.75374000  0.58049000  1
  O  O38  1  0.80664800  0.24626000  0.08049000  1
  O  O39  1  0.30664800  0.25374000  0.91951000  1
  O  O40  1  0.80664800  0.25374000  0.58049000  1
  O  O41  1  0.30664800  0.24626000  0.41951000  1
  O  O42  1  0.19335200  0.75374000  0.91951000  1
  O  O43  1  0.69335200  0.74626000  0.08049000  1
