# generated using pymatgen
data_Ca2AsH4F13
_symmetry_space_group_name_H-M   'P 1'
_cell_length_a   7.31208100
_cell_length_b   7.31208100
_cell_length_c   17.78044700
_cell_angle_alpha   90.00000000
_cell_angle_beta   90.00000000
_cell_angle_gamma   90.00000000
_symmetry_Int_Tables_number   1
_chemical_formula_structural   Ca2AsH4F13
_chemical_formula_sum   'Ca8 As4 H16 F52'
_cell_volume   950.65877717
_cell_formula_units_Z   4
loop_
 _symmetry_equiv_pos_site_id
 _symmetry_equiv_pos_as_xyz
  1  'x, y, z'
loop_
 _atom_site_type_symbol
 _atom_site_label
 _atom_site_symmetry_multiplicity
 _atom_site_fract_x
 _atom_site_fract_y
 _atom_site_fract_z
 _atom_site_occupancy
  Ca  Ca0  1  0.27865100  0.25590900  0.78531100  1
  Ca  Ca1  1  0.72134900  0.74409100  0.28531100  1
  Ca  Ca2  1  0.74409100  0.27865100  0.53531100  1
  Ca  Ca3  1  0.25590900  0.72134900  0.03531100  1
  Ca  Ca4  1  0.72134900  0.25590900  0.21468900  1
  Ca  Ca5  1  0.27865100  0.74409100  0.71468900  1
  Ca  Ca6  1  0.25590900  0.27865100  0.46468900  1
  Ca  Ca7  1  0.74409100  0.72134900  0.96468900  1
  As  As8  1  0.78316400  0.00000000  0.75000000  1
  As  As9  1  0.21683600  0.00000000  0.25000000  1
  As  As10  1  0.00000000  0.78316400  0.50000000  1
  As  As11  1  0.00000000  0.21683600  0.00000000  1
  H  H12  1  0.46530900  0.38368200  0.93938900  1
  H  H13  1  0.53469100  0.61631800  0.43938900  1
  H  H14  1  0.61631800  0.46530900  0.68938900  1
  H  H15  1  0.38368200  0.53469100  0.18938900  1
  H  H16  1  0.53469100  0.38368200  0.06061100  1
  H  H17  1  0.46530900  0.61631800  0.56061100  1
  H  H18  1  0.38368200  0.46530900  0.31061100  1
  H  H19  1  0.61631800  0.53469100  0.81061100  1
  H  H20  1  0.11331800  0.62765800  0.87174700  1
  H  H21  1  0.88668200  0.37234200  0.37174700  1
  H  H22  1  0.37234200  0.11331800  0.62174700  1
  H  H23  1  0.62765800  0.88668200  0.12174700  1
  H  H24  1  0.88668200  0.62765800  0.12825300  1
  H  H25  1  0.11331800  0.37234200  0.62825300  1
  H  H26  1  0.62765800  0.11331800  0.37825300  1
  H  H27  1  0.37234200  0.88668200  0.87825300  1
  F  F28  1  0.61381100  0.16692300  0.76682100  1
  F  F29  1  0.38618900  0.83307700  0.26682100  1
  F  F30  1  0.83307700  0.61381100  0.51682100  1
  F  F31  1  0.16692300  0.38618900  0.01682100  1
  F  F32  1  0.38618900  0.16692300  0.23317900  1
  F  F33  1  0.61381100  0.83307700  0.73317900  1
  F  F34  1  0.16692300  0.61381100  0.48317900  1
  F  F35  1  0.83307700  0.38618900  0.98317900  1
  F  F36  1  0.78196700  0.94545000  0.84640100  1
  F  F37  1  0.21803300  0.05455000  0.34640100  1
  F  F38  1  0.05455000  0.78196700  0.59640100  1
  F  F39  1  0.94545000  0.21803300  0.09640100  1
  F  F40  1  0.21803300  0.94545000  0.15359900  1
  F  F41  1  0.78196700  0.05455000  0.65359900  1
  F  F42  1  0.94545000  0.78196700  0.40359900  1
  F  F43  1  0.05455000  0.21803300  0.90359900  1
  F  F44  1  0.95591300  0.16741000  0.76413900  1
  F  F45  1  0.04408700  0.83259000  0.26413900  1
  F  F46  1  0.83259000  0.95591300  0.51413900  1
  F  F47  1  0.16741000  0.04408700  0.01413900  1
  F  F48  1  0.04408700  0.16741000  0.23586100  1
  F  F49  1  0.95591300  0.83259000  0.73586100  1
  F  F50  1  0.16741000  0.95591300  0.48586100  1
  F  F51  1  0.83259000  0.04408700  0.98586100  1
  F  F52  1  0.43801500  0.29510600  0.89817700  1
  F  F53  1  0.56198500  0.70489400  0.39817700  1
  F  F54  1  0.70489400  0.43801500  0.64817700  1
  F  F55  1  0.29510600  0.56198500  0.14817700  1
  F  F56  1  0.56198500  0.29510600  0.10182300  1
  F  F57  1  0.43801500  0.70489400  0.60182300  1
  F  F58  1  0.29510600  0.43801500  0.35182300  1
  F  F59  1  0.70489400  0.56198500  0.85182300  1
  F  F60  1  0.49352400  0.50000000  0.75000000  1
  F  F61  1  0.50647600  0.50000000  0.25000000  1
  F  F62  1  0.50000000  0.49352400  0.50000000  1
  F  F63  1  0.50000000  0.50647600  0.00000000  1
  F  F64  1  0.17135300  0.56376600  0.82025400  1
  F  F65  1  0.82864700  0.43623400  0.32025400  1
  F  F66  1  0.43623400  0.17135300  0.57025400  1
  F  F67  1  0.56376600  0.82864700  0.07025400  1
  F  F68  1  0.82864700  0.56376600  0.17974600  1
  F  F69  1  0.17135300  0.43623400  0.67974600  1
  F  F70  1  0.56376600  0.17135300  0.42974600  1
  F  F71  1  0.43623400  0.82864700  0.92974600  1
  F  F72  1  0.30297300  0.94221300  0.82153200  1
  F  F73  1  0.69702700  0.05778700  0.32153200  1
  F  F74  1  0.05778700  0.30297300  0.57153200  1
  F  F75  1  0.94221300  0.69702700  0.07153200  1
  F  F76  1  0.69702700  0.94221300  0.17846800  1
  F  F77  1  0.30297300  0.05778700  0.67846800  1
  F  F78  1  0.94221300  0.30297300  0.42846800  1
  F  F79  1  0.05778700  0.69702700  0.92846800  1
