# generated using pymatgen
data_NaB6H8S3O7
_symmetry_space_group_name_H-M   'P 1'
_cell_length_a   8.65193600
_cell_length_b   9.04013242
_cell_length_c   9.10592127
_cell_angle_alpha   95.08152223
_cell_angle_beta   104.95377535
_cell_angle_gamma   94.37181395
_symmetry_Int_Tables_number   1
_chemical_formula_structural   NaB6H8S3O7
_chemical_formula_sum   'Na2 B12 H16 S6 O14'
_cell_volume   681.74964434
_cell_formula_units_Z   2
loop_
 _symmetry_equiv_pos_site_id
 _symmetry_equiv_pos_as_xyz
  1  'x, y, z'
loop_
 _atom_site_type_symbol
 _atom_site_label
 _atom_site_symmetry_multiplicity
 _atom_site_fract_x
 _atom_site_fract_y
 _atom_site_fract_z
 _atom_site_occupancy
  Na  Na0  1  0.11645200  0.05365600  0.36208400  1
  Na  Na1  1  0.88354800  0.94634400  0.63791600  1
  B  B2  1  0.43360600  0.49611100  0.15905800  1
  B  B3  1  0.56639400  0.50388900  0.84094200  1
  B  B4  1  0.53836400  0.65993300  0.12205900  1
  B  B5  1  0.46163600  0.34006700  0.87794100  1
  B  B6  1  0.34145300  0.59560400  0.00555000  1
  B  B7  1  0.65854700  0.40439600  0.99445000  1
  B  B8  1  0.32223200  0.39644800  0.98070100  1
  B  B9  1  0.67776800  0.60355200  0.01929900  1
  B  B10  1  0.50843200  0.33855100  0.08052000  1
  B  B11  1  0.49156800  0.66144900  0.91948000  1
  B  B12  1  0.64206100  0.50053500  0.16787500  1
  B  B13  1  0.35793900  0.49946500  0.83212500  1
  H  H14  1  0.01860100  0.24360000  0.59314100  1
  H  H15  1  0.98139900  0.75640000  0.40685900  1
  H  H16  1  0.16636800  0.17265500  0.68301000  1
  H  H17  1  0.83363200  0.82734500  0.31699000  1
  H  H18  1  0.38772100  0.49258500  0.27359400  1
  H  H19  1  0.61227900  0.50741500  0.72640600  1
  H  H20  1  0.56477700  0.77276500  0.20945100  1
  H  H21  1  0.43522300  0.22723500  0.79054900  1
  H  H22  1  0.22729600  0.66362900  0.00948200  1
  H  H23  1  0.77270400  0.33637100  0.99051800  1
  H  H24  1  0.19665000  0.32287200  0.96769300  1
  H  H25  1  0.80335000  0.67712800  0.03230700  1
  H  H26  1  0.51621600  0.22287000  0.13832900  1
  H  H27  1  0.48378400  0.77713000  0.86167100  1
  H  H28  1  0.74206400  0.50149300  0.28690600  1
  H  H29  1  0.25793600  0.49850700  0.71309400  1
  S  S30  1  0.06397900  0.44477300  0.23646400  1
  S  S31  1  0.93602100  0.55522700  0.76353600  1
  S  S32  1  0.27739700  0.96243000  0.01617900  1
  S  S33  1  0.72260300  0.03757000  0.98382100  1
  S  S34  1  0.56271100  0.24721200  0.46465200  1
  S  S35  1  0.43728900  0.75278800  0.53534800  1
  O  O36  1  0.06528200  0.29512500  0.28294500  1
  O  O37  1  0.93471800  0.70487500  0.71705500  1
  O  O38  1  0.08228200  0.56608800  0.35697700  1
  O  O39  1  0.91771800  0.43391200  0.64302300  1
  O  O40  1  0.17799100  0.97184700  0.86326100  1
  O  O41  1  0.82200900  0.02815300  0.13673900  1
  O  O42  1  0.20194400  0.98430900  0.14058900  1
  O  O43  1  0.79805600  0.01569100  0.85941100  1
  O  O44  1  0.39577000  0.18957700  0.43893400  1
  O  O45  1  0.60423000  0.81042300  0.56106600  1
  O  O46  1  0.68246000  0.14247500  0.50113300  1
  O  O47  1  0.31754000  0.85752500  0.49886700  1
  O  O48  1  0.06794200  0.14963500  0.59976900  1
  O  O49  1  0.93205800  0.85036500  0.40023100  1
