# generated using pymatgen
data_Cs2Sb2C4O9F4
_symmetry_space_group_name_H-M   'P 1'
_cell_length_a   8.78397926
_cell_length_b   8.70548338
_cell_length_c   11.58415132
_cell_angle_alpha   102.30838497
_cell_angle_beta   102.48540690
_cell_angle_gamma   64.87997300
_symmetry_Int_Tables_number   1
_chemical_formula_structural   Cs2Sb2C4O9F4
_chemical_formula_sum   'Cs4 Sb4 C8 O18 F8'
_cell_volume   775.65860282
_cell_formula_units_Z   2
loop_
 _symmetry_equiv_pos_site_id
 _symmetry_equiv_pos_as_xyz
  1  'x, y, z'
loop_
 _atom_site_type_symbol
 _atom_site_label
 _atom_site_symmetry_multiplicity
 _atom_site_fract_x
 _atom_site_fract_y
 _atom_site_fract_z
 _atom_site_occupancy
  Cs  Cs0  1  0.33078600  0.89172900  0.12233900  1
  Cs  Cs1  1  0.66921400  0.10827100  0.87766100  1
  Cs  Cs2  1  0.90008700  0.89924100  0.30843200  1
  Cs  Cs3  1  0.09991300  0.10075900  0.69156800  1
  Sb  Sb4  1  0.84846700  0.40299000  0.19382200  1
  Sb  Sb5  1  0.15153300  0.59701000  0.80617800  1
  Sb  Sb6  1  0.60965100  0.66321100  0.69796800  1
  Sb  Sb7  1  0.39034900  0.33678900  0.30203200  1
  C  C8  1  0.77023900  0.43777100  0.45410100  1
  C  C9  1  0.22976200  0.56222900  0.54589900  1
  C  C10  1  0.65387100  0.62271200  0.42211300  1
  C  C11  1  0.34612900  0.37728800  0.57788700  1
  C  C12  1  0.71788300  0.65147300  0.97434500  1
  C  C13  1  0.28211700  0.34852700  0.02565500  1
  C  C14  1  0.81651600  0.46383500  0.92056000  1
  C  C15  1  0.18348400  0.53616500  0.07944000  1
  O  O16  1  0.65831100  0.65333000  0.32189500  1
  O  O17  1  0.34168900  0.34667000  0.67810500  1
  O  O18  1  0.56219200  0.72598000  0.49973100  1
  O  O19  1  0.43780800  0.27402000  0.50026900  1
  O  O20  1  0.83383800  0.32412000  0.36781600  1
  O  O21  1  0.16616200  0.67588000  0.63218400  1
  O  O22  1  0.79231400  0.41142000  0.55976700  1
  O  O23  1  0.20768600  0.58858000  0.44023300  1
  O  O24  1  0.63778300  0.75858700  0.89934200  1
  O  O25  1  0.36221700  0.24141400  0.10065800  1
  O  O26  1  0.72188900  0.68653600  0.08521200  1
  O  O27  1  0.27811100  0.31346400  0.91478800  1
  O  O28  1  0.81935500  0.43408700  0.80909400  1
  O  O29  1  0.18064500  0.56591300  0.19090600  1
  O  O30  1  0.88871800  0.35007900  0.98991900  1
  O  O31  1  0.11128200  0.64992100  0.01008100  1
  O  O32  1  0.74797100  0.02766500  0.57873000  1
  O  O33  1  0.25202900  0.97233500  0.42127000  1
  F  F34  1  0.92523700  0.14686000  0.15365400  1
  F  F35  1  0.07476300  0.85314000  0.84634600  1
  F  F36  1  0.62045000  0.40818300  0.12690500  1
  F  F37  1  0.37955000  0.59181700  0.87309500  1
  F  F38  1  0.46179400  0.91478500  0.71252300  1
  F  F39  1  0.53820600  0.08521500  0.28747700  1
  F  F40  1  0.80152900  0.72797900  0.70844700  1
  F  F41  1  0.19847100  0.27202100  0.29155300  1
