# generated using pymatgen
data_La(IO3)4
_symmetry_space_group_name_H-M   'P 1'
_cell_length_a   7.74499300
_cell_length_b   10.75713600
_cell_length_c   14.53664760
_cell_angle_alpha   69.66478880
_cell_angle_beta   90.00000000
_cell_angle_gamma   90.00000000
_symmetry_Int_Tables_number   1
_chemical_formula_structural   La(IO3)4
_chemical_formula_sum   'La4 I16 O48'
_cell_volume   1135.62394725
_cell_formula_units_Z   4
loop_
 _symmetry_equiv_pos_site_id
 _symmetry_equiv_pos_as_xyz
  1  'x, y, z'
loop_
 _atom_site_type_symbol
 _atom_site_label
 _atom_site_symmetry_multiplicity
 _atom_site_fract_x
 _atom_site_fract_y
 _atom_site_fract_z
 _atom_site_occupancy
  La  La0  1  0.26176600  0.68119900  0.35993700  1
  La  La1  1  0.76176600  0.31880100  0.14006300  1
  La  La2  1  0.73823400  0.31880100  0.64006300  1
  La  La3  1  0.23823400  0.68119900  0.85993700  1
  I  I4  1  0.13711100  0.05203800  0.22987100  1
  I  I5  1  0.63711100  0.94796200  0.27012900  1
  I  I6  1  0.86288900  0.94796200  0.77012900  1
  I  I7  1  0.36288900  0.05203800  0.72987100  1
  I  I8  1  0.33451100  0.85151600  0.06206300  1
  I  I9  1  0.83451100  0.14848400  0.43793700  1
  I  I10  1  0.66548900  0.14848400  0.93793700  1
  I  I11  1  0.16548900  0.85151600  0.56206300  1
  I  I12  1  0.76637900  0.53491100  0.36110900  1
  I  I13  1  0.26637900  0.46508900  0.13889100  1
  I  I14  1  0.23362100  0.46508900  0.63889100  1
  I  I15  1  0.73362100  0.53491100  0.86110900  1
  I  I16  1  0.32649300  0.29661100  0.44200900  1
  I  I17  1  0.82649300  0.70338900  0.05799100  1
  I  I18  1  0.67350700  0.70338900  0.55799100  1
  I  I19  1  0.17350700  0.29661100  0.94200900  1
  O  O20  1  0.07268700  0.87947000  0.29005600  1
  O  O21  1  0.57268700  0.12053000  0.20994400  1
  O  O22  1  0.92731300  0.12053000  0.70994400  1
  O  O23  1  0.42731300  0.87947000  0.79005600  1
  O  O24  1  0.91220200  0.10403200  0.19271500  1
  O  O25  1  0.41220200  0.89596800  0.30728500  1
  O  O26  1  0.08779800  0.89596800  0.80728500  1
  O  O27  1  0.58779800  0.10403200  0.69271500  1
  O  O28  1  0.21395400  0.05644200  0.10902100  1
  O  O29  1  0.71395400  0.94355800  0.39097900  1
  O  O30  1  0.78604600  0.94355800  0.89097900  1
  O  O31  1  0.28604600  0.05644200  0.60902100  1
  O  O32  1  0.27443000  0.73029400  0.18168000  1
  O  O33  1  0.77443000  0.26970600  0.31832000  1
  O  O34  1  0.72557000  0.26970600  0.81832000  1
  O  O35  1  0.22557000  0.73029400  0.68168000  1
  O  O36  1  0.39708600  0.72856600  0.00493000  1
  O  O37  1  0.89708600  0.27143400  0.49507000  1
  O  O38  1  0.60291400  0.27143400  0.99507000  1
  O  O39  1  0.10291400  0.72856600  0.50493000  1
  O  O40  1  0.55007000  0.89330700  0.09291600  1
  O  O41  1  0.05007000  0.10669300  0.40708400  1
  O  O42  1  0.44993000  0.10669300  0.90708400  1
  O  O43  1  0.94993000  0.89330700  0.59291600  1
  O  O44  1  0.96535400  0.62547400  0.32135300  1
  O  O45  1  0.46535400  0.37452600  0.17864700  1
  O  O46  1  0.03464600  0.37452600  0.67864700  1
  O  O47  1  0.53464600  0.62547400  0.82135300  1
  O  O48  1  0.60203900  0.66578800  0.32044500  1
  O  O49  1  0.10203900  0.33421200  0.17955500  1
  O  O50  1  0.39796100  0.33421200  0.67955500  1
  O  O51  1  0.89796100  0.66578800  0.82044500  1
  O  O52  1  0.77947500  0.52798200  0.49082300  1
  O  O53  1  0.27947500  0.47201800  0.00917700  1
  O  O54  1  0.22052500  0.47201800  0.50917700  1
  O  O55  1  0.72052500  0.52798200  0.99082300  1
  O  O56  1  0.29284300  0.45032300  0.33516900  1
  O  O57  1  0.79284300  0.54967700  0.16483100  1
  O  O58  1  0.70715700  0.54967700  0.66483100  1
  O  O59  1  0.20715700  0.45032300  0.83516900  1
  O  O60  1  0.53723000  0.32910900  0.48557400  1
  O  O61  1  0.03723000  0.67089100  0.01442600  1
  O  O62  1  0.46277000  0.67089100  0.51442600  1
  O  O63  1  0.96277000  0.32910900  0.98557400  1
  O  O64  1  0.39561300  0.18192000  0.38121400  1
  O  O65  1  0.89561300  0.81808000  0.11878600  1
  O  O66  1  0.60438700  0.81808000  0.61878600  1
  O  O67  1  0.10438700  0.18192000  0.88121400  1
