# generated using pymatgen
data_CN
_symmetry_space_group_name_H-M   'P 1'
_cell_length_a   4.42982500
_cell_length_b   9.56206600
_cell_length_c   18.58444721
_cell_angle_alpha   75.86542616
_cell_angle_beta   90.00000000
_cell_angle_gamma   90.00000000
_symmetry_Int_Tables_number   1
_chemical_formula_structural   CN
_chemical_formula_sum   'C16 N16'
_cell_volume   763.37243281
_cell_formula_units_Z   16
loop_
 _symmetry_equiv_pos_site_id
 _symmetry_equiv_pos_as_xyz
  1  'x, y, z'
loop_
 _atom_site_type_symbol
 _atom_site_label
 _atom_site_symmetry_multiplicity
 _atom_site_fract_x
 _atom_site_fract_y
 _atom_site_fract_z
 _atom_site_occupancy
  C  C0  1  0.13737200  0.70365400  0.35847800  1
  C  C1  1  0.63737200  0.29634600  0.14152200  1
  C  C2  1  0.86262800  0.29634600  0.64152200  1
  C  C3  1  0.36262800  0.70365400  0.85847800  1
  C  C4  1  0.31363400  0.74982500  0.29386100  1
  C  C5  1  0.81363400  0.25017500  0.20613900  1
  C  C6  1  0.68636600  0.25017500  0.70613900  1
  C  C7  1  0.18636600  0.74982500  0.79386100  1
  C  C8  1  0.04151800  0.80230200  0.39896500  1
  C  C9  1  0.54151800  0.19769800  0.10103500  1
  C  C10  1  0.95848200  0.19769800  0.60103500  1
  C  C11  1  0.45848200  0.80230200  0.89896500  1
  C  C12  1  0.03682700  0.55945600  0.38107500  1
  C  C13  1  0.53682700  0.44054400  0.11892500  1
  C  C14  1  0.96317300  0.44054400  0.61892500  1
  C  C15  1  0.46317300  0.55945600  0.88107500  1
  N  N16  1  0.54069200  0.82833800  0.59442300  1
  N  N17  1  0.04069200  0.17166200  0.90557700  1
  N  N18  1  0.45930800  0.17166200  0.40557700  1
  N  N19  1  0.95930800  0.82833800  0.09442300  1
  N  N20  1  0.45901300  0.78842700  0.23989600  1
  N  N21  1  0.95901300  0.21157300  0.26010400  1
  N  N22  1  0.54098700  0.21157300  0.76010400  1
  N  N23  1  0.04098700  0.78842700  0.73989600  1
  N  N24  1  0.94993400  0.88235200  0.43275200  1
  N  N25  1  0.44993400  0.11764800  0.06724800  1
  N  N26  1  0.05006600  0.11764800  0.56724800  1
  N  N27  1  0.55006600  0.88235200  0.93275200  1
  N  N28  1  0.94184300  0.44184000  0.40050200  1
  N  N29  1  0.44184300  0.55816000  0.09949800  1
  N  N30  1  0.05815700  0.55816000  0.59949800  1
  N  N31  1  0.55815700  0.44184000  0.90050200  1
