# generated using pymatgen
data_GaB2(PO6)2
_symmetry_space_group_name_H-M   'P 1'
_cell_length_a   9.35858883
_cell_length_b   9.35858883
_cell_length_c   7.05448788
_cell_angle_alpha   71.42051149
_cell_angle_beta   71.42051149
_cell_angle_gamma   43.74018096
_symmetry_Int_Tables_number   1
_chemical_formula_structural   GaB2(PO6)2
_chemical_formula_sum   'Ga2 B4 P4 O24'
_cell_volume   401.21202872
_cell_formula_units_Z   2
loop_
 _symmetry_equiv_pos_site_id
 _symmetry_equiv_pos_as_xyz
  1  'x, y, z'
loop_
 _atom_site_type_symbol
 _atom_site_label
 _atom_site_symmetry_multiplicity
 _atom_site_fract_x
 _atom_site_fract_y
 _atom_site_fract_z
 _atom_site_occupancy
  Ga  Ga0  1  0.00000000  0.50000000  0.50000000  1
  Ga  Ga1  1  0.50000000  0.00000000  0.00000000  1
  B  B2  1  0.18201600  0.62738500  0.10204300  1
  B  B3  1  0.37261500  0.81798400  0.39795800  1
  B  B4  1  0.81798400  0.37261500  0.89795800  1
  B  B5  1  0.62738500  0.18201600  0.60204300  1
  P  P6  1  0.52496600  0.77539500  0.70808600  1
  P  P7  1  0.22460500  0.47503400  0.79191400  1
  P  P8  1  0.47503400  0.22460500  0.29191400  1
  P  P9  1  0.77539500  0.52496600  0.20808600  1
  O  O10  1  0.94331000  0.40878100  0.34185200  1
  O  O11  1  0.59121900  0.05669000  0.15814800  1
  O  O12  1  0.05669000  0.59121900  0.65814800  1
  O  O13  1  0.40878100  0.94331000  0.84185200  1
  O  O14  1  0.74245200  0.70094700  0.05426400  1
  O  O15  1  0.29905300  0.25754800  0.44573600  1
  O  O16  1  0.25754800  0.29905300  0.94573600  1
  O  O17  1  0.70094700  0.74245200  0.55426400  1
  O  O18  1  0.39468200  0.43142900  0.14823700  1
  O  O19  1  0.56857100  0.60531800  0.35176300  1
  O  O20  1  0.60531800  0.56857100  0.85176300  1
  O  O21  1  0.43142900  0.39468200  0.64823700  1
  O  O22  1  0.64329800  0.15163300  0.40183600  1
  O  O23  1  0.84836700  0.35670200  0.09816400  1
  O  O24  1  0.35670200  0.84836700  0.59816400  1
  O  O25  1  0.15163300  0.64329800  0.90183600  1
  O  O26  1  0.81124400  0.14186200  0.60608600  1
  O  O27  1  0.85813800  0.18875600  0.89391400  1
  O  O28  1  0.18875600  0.85813800  0.39391400  1
  O  O29  1  0.14186200  0.81124400  0.10608600  1
  O  O30  1  0.67389400  0.01744900  0.75790400  1
  O  O31  1  0.98255100  0.32610600  0.74209600  1
  O  O32  1  0.32610600  0.98255100  0.24209600  1
  O  O33  1  0.01744900  0.67389400  0.25790400  1
