# generated using pymatgen
data_U5(PbO11)2
_symmetry_space_group_name_H-M   'P 1'
_cell_length_a   6.83835700
_cell_length_b   11.53442000
_cell_length_c   14.93649663
_cell_angle_alpha   58.17858775
_cell_angle_beta   90.00000000
_cell_angle_gamma   90.00000000
_symmetry_Int_Tables_number   1
_chemical_formula_structural   U5(PbO11)2
_chemical_formula_sum   'U10 Pb4 O44'
_cell_volume   1001.05905394
_cell_formula_units_Z   2
loop_
 _symmetry_equiv_pos_site_id
 _symmetry_equiv_pos_as_xyz
  1  'x, y, z'
loop_
 _atom_site_type_symbol
 _atom_site_label
 _atom_site_symmetry_multiplicity
 _atom_site_fract_x
 _atom_site_fract_y
 _atom_site_fract_z
 _atom_site_occupancy
  U  U0  1  0.53504800  0.80713900  0.10675500  1
  U  U1  1  0.03504800  0.19286100  0.39324500  1
  U  U2  1  0.46495200  0.19286100  0.89324500  1
  U  U3  1  0.96495200  0.80713900  0.60675500  1
  U  U4  1  0.50654700  0.59463000  0.71003000  1
  U  U5  1  0.00654700  0.40537000  0.78997000  1
  U  U6  1  0.49345300  0.40537000  0.28997000  1
  U  U7  1  0.99345300  0.59463000  0.21003000  1
  U  U8  1  0.50000000  0.00000000  0.50000000  1
  U  U9  1  0.00000000  0.00000000  0.00000000  1
  Pb  Pb10  1  0.60298800  0.74648900  0.40100400  1
  Pb  Pb11  1  0.10298800  0.25351100  0.09899600  1
  Pb  Pb12  1  0.39701200  0.25351100  0.59899600  1
  Pb  Pb13  1  0.89701200  0.74648900  0.90100400  1
  O  O14  1  0.53742600  0.83996900  0.21855300  1
  O  O15  1  0.03742600  0.16003100  0.28144700  1
  O  O16  1  0.46257400  0.16003100  0.78144700  1
  O  O17  1  0.96257400  0.83996900  0.71855300  1
  O  O18  1  0.57834400  0.77439800  0.99818600  1
  O  O19  1  0.07834400  0.22560200  0.50181400  1
  O  O20  1  0.42165600  0.22560200  0.00181400  1
  O  O21  1  0.92165600  0.77439800  0.49818600  1
  O  O22  1  0.51469100  0.59276100  0.83726000  1
  O  O23  1  0.01469100  0.40723900  0.66274000  1
  O  O24  1  0.48530900  0.40723900  0.16274000  1
  O  O25  1  0.98530900  0.59276100  0.33726000  1
  O  O26  1  0.52691500  0.60574900  0.57702600  1
  O  O27  1  0.02691500  0.39425100  0.92297400  1
  O  O28  1  0.47308500  0.39425100  0.42297400  1
  O  O29  1  0.97308500  0.60574900  0.07702600  1
  O  O30  1  0.52077400  0.92298800  0.40831600  1
  O  O31  1  0.02077400  0.07701200  0.09168400  1
  O  O32  1  0.47922600  0.07701200  0.59168400  1
  O  O33  1  0.97922600  0.92298800  0.90831600  1
  O  O34  1  0.60547500  0.80766300  0.62223400  1
  O  O35  1  0.10547500  0.19233700  0.87776600  1
  O  O36  1  0.39452500  0.19233700  0.37776600  1
  O  O37  1  0.89452500  0.80766300  0.12223400  1
  O  O38  1  0.83480800  0.59539100  0.71470300  1
  O  O39  1  0.33480800  0.40460900  0.78529700  1
  O  O40  1  0.16519200  0.40460900  0.28529700  1
  O  O41  1  0.66519200  0.59539100  0.21470300  1
  O  O42  1  0.71314200  0.32681900  0.82743000  1
  O  O43  1  0.21314200  0.67318100  0.67257000  1
  O  O44  1  0.28685800  0.67318100  0.17257000  1
  O  O45  1  0.78685800  0.32681900  0.32743000  1
  O  O46  1  0.68971400  0.02890700  0.98739800  1
  O  O47  1  0.18971400  0.97109300  0.51260200  1
  O  O48  1  0.31028600  0.97109300  0.01260200  1
  O  O49  1  0.81028600  0.02890700  0.48739800  1
  O  O50  1  0.89799400  0.76197500  0.34921300  1
  O  O51  1  0.39799400  0.23802500  0.15078700  1
  O  O52  1  0.10200600  0.23802500  0.65078700  1
  O  O53  1  0.60200600  0.76197500  0.84921300  1
  O  O54  1  0.83642600  0.34536000  0.09164600  1
  O  O55  1  0.33642600  0.65464000  0.40835400  1
  O  O56  1  0.16357400  0.65464000  0.90835400  1
  O  O57  1  0.66357400  0.34536000  0.59164600  1
