# generated using pymatgen
data_VS4N3
_symmetry_space_group_name_H-M   'P 1'
_cell_length_a   9.64421900
_cell_length_b   9.65456100
_cell_length_c   11.08824800
_cell_angle_alpha   90.00000000
_cell_angle_beta   90.00000000
_cell_angle_gamma   90.00000000
_symmetry_Int_Tables_number   1
_chemical_formula_structural   VS4N3
_chemical_formula_sum   'V4 S16 N12'
_cell_volume   1032.43454007
_cell_formula_units_Z   4
loop_
 _symmetry_equiv_pos_site_id
 _symmetry_equiv_pos_as_xyz
  1  'x, y, z'
loop_
 _atom_site_type_symbol
 _atom_site_label
 _atom_site_symmetry_multiplicity
 _atom_site_fract_x
 _atom_site_fract_y
 _atom_site_fract_z
 _atom_site_occupancy
  V  V0  1  0.78081400  0.48265500  0.75000000  1
  V  V1  1  0.28081400  0.01734500  0.75000000  1
  V  V2  1  0.21918600  0.51734500  0.25000000  1
  V  V3  1  0.71918600  0.98265500  0.25000000  1
  S  S4  1  0.79547000  0.26227100  0.75000000  1
  S  S5  1  0.29547000  0.23772900  0.75000000  1
  S  S6  1  0.20453000  0.73772900  0.25000000  1
  S  S7  1  0.70453000  0.76227100  0.25000000  1
  S  S8  1  0.98346900  0.56640900  0.75000000  1
  S  S9  1  0.48346900  0.93359100  0.75000000  1
  S  S10  1  0.01653100  0.43359100  0.25000000  1
  S  S11  1  0.51653100  0.06640900  0.25000000  1
  S  S12  1  0.67257000  0.54654100  0.59371700  1
  S  S13  1  0.17257000  0.95345900  0.90628300  1
  S  S14  1  0.32743000  0.45345900  0.09371700  1
  S  S15  1  0.82743000  0.04654100  0.40628300  1
  S  S16  1  0.32743000  0.45345900  0.40628300  1
  S  S17  1  0.82743000  0.04654100  0.09371700  1
  S  S18  1  0.67257000  0.54654100  0.90628300  1
  S  S19  1  0.17257000  0.95345900  0.59371700  1
  N  N20  1  0.85474300  0.91544000  0.75000000  1
  N  N21  1  0.35474300  0.58456000  0.75000000  1
  N  N22  1  0.14525700  0.08456000  0.25000000  1
  N  N23  1  0.64525700  0.41544000  0.25000000  1
  N  N24  1  0.05843300  0.29963500  0.53905700  1
  N  N25  1  0.55843300  0.20036500  0.96094300  1
  N  N26  1  0.94156700  0.70036500  0.03905700  1
  N  N27  1  0.44156700  0.79963500  0.46094300  1
  N  N28  1  0.94156700  0.70036500  0.46094300  1
  N  N29  1  0.44156700  0.79963500  0.03905700  1
  N  N30  1  0.05843300  0.29963500  0.96094300  1
  N  N31  1  0.55843300  0.20036500  0.53905700  1
