# generated using pymatgen
data_KGaH9C3F
_symmetry_space_group_name_H-M   'P 1'
_cell_length_a   12.85190051
_cell_length_b   12.85190051
_cell_length_c   12.85190051
_cell_angle_alpha   60.00000000
_cell_angle_beta   60.00000000
_cell_angle_gamma   60.00000000
_symmetry_Int_Tables_number   1
_chemical_formula_structural   KGaH9C3F
_chemical_formula_sum   'K8 Ga8 H72 C24 F8'
_cell_volume   1501.02203117
_cell_formula_units_Z   8
loop_
 _symmetry_equiv_pos_site_id
 _symmetry_equiv_pos_as_xyz
  1  'x, y, z'
loop_
 _atom_site_type_symbol
 _atom_site_label
 _atom_site_symmetry_multiplicity
 _atom_site_fract_x
 _atom_site_fract_y
 _atom_site_fract_z
 _atom_site_occupancy
  K  K0  1  0.92056500  0.92056500  0.23830600  1
  K  K1  1  0.23830600  0.92056500  0.92056500  1
  K  K2  1  0.92056500  0.92056500  0.92056500  1
  K  K3  1  0.92056500  0.23830600  0.92056500  1
  K  K4  1  0.42056500  0.73830600  0.42056500  1
  K  K5  1  0.73830600  0.42056500  0.42056500  1
  K  K6  1  0.42056500  0.42056500  0.42056500  1
  K  K7  1  0.42056500  0.42056500  0.73830600  1
  Ga  Ga8  1  0.13272700  0.60181800  0.13272700  1
  Ga  Ga9  1  0.60181800  0.13272700  0.13272700  1
  Ga  Ga10  1  0.13272700  0.13272700  0.60181800  1
  Ga  Ga11  1  0.13272700  0.13272700  0.13272700  1
  Ga  Ga12  1  0.63272700  0.63272700  0.10181800  1
  Ga  Ga13  1  0.10181800  0.63272700  0.63272700  1
  Ga  Ga14  1  0.63272700  0.10181800  0.63272700  1
  Ga  Ga15  1  0.63272700  0.63272700  0.63272700  1
  H  H16  1  0.23758500  0.61767000  0.89410200  1
  H  H17  1  0.89410200  0.61767000  0.25064400  1
  H  H18  1  0.25064400  0.61767000  0.23758500  1
  H  H19  1  0.61767000  0.23758500  0.25064400  1
  H  H20  1  0.61767000  0.89410200  0.23758500  1
  H  H21  1  0.61767000  0.25064400  0.89410200  1
  H  H22  1  0.25064400  0.89410200  0.61767000  1
  H  H23  1  0.23758500  0.25064400  0.61767000  1
  H  H24  1  0.89410200  0.23758500  0.61767000  1
  H  H25  1  0.89410200  0.25064400  0.23758500  1
  H  H26  1  0.25064400  0.23758500  0.89410200  1
  H  H27  1  0.23758500  0.89410200  0.25064400  1
  H  H28  1  0.73758500  0.39410200  0.11767000  1
  H  H29  1  0.39410200  0.75064400  0.11767000  1
  H  H30  1  0.75064400  0.73758500  0.11767000  1
  H  H31  1  0.11767000  0.75064400  0.73758500  1
  H  H32  1  0.11767000  0.73758500  0.39410200  1
  H  H33  1  0.11767000  0.39410200  0.75064400  1
  H  H34  1  0.75064400  0.11767000  0.39410200  1
  H  H35  1  0.73758500  0.11767000  0.75064400  1
  H  H36  1  0.39410200  0.11767000  0.73758500  1
  H  H37  1  0.39410200  0.73758500  0.75064400  1
  H  H38  1  0.75064400  0.39410200  0.73758500  1
  H  H39  1  0.73758500  0.75064400  0.39410200  1
  H  H40  1  0.23989000  0.45870900  0.99636900  1
  H  H41  1  0.99636900  0.45870900  0.30503200  1
  H  H42  1  0.30503200  0.45870900  0.23989000  1
  H  H43  1  0.45870900  0.23989000  0.30503200  1
  H  H44  1  0.45870900  0.99636900  0.23989000  1
  H  H45  1  0.45870900  0.30503200  0.99636900  1
  H  H46  1  0.30503200  0.99636900  0.45870900  1
  H  H47  1  0.23989000  0.30503200  0.45870900  1
  H  H48  1  0.99636900  0.23989000  0.45870900  1
  H  H49  1  0.99636900  0.30503200  0.23989000  1
  H  H50  1  0.30503200  0.23989000  0.99636900  1
  H  H51  1  0.23989000  0.99636900  0.30503200  1
  H  H52  1  0.73989000  0.49636900  0.95870900  1
  H  H53  1  0.49636900  0.80503200  0.95870900  1
  H  H54  1  0.80503200  0.73989000  0.95870900  1
  H  H55  1  0.95870900  0.80503200  0.73989000  1
  H  H56  1  0.95870900  0.73989000  0.49636900  1
  H  H57  1  0.95870900  0.49636900  0.80503200  1
  H  H58  1  0.80503200  0.95870900  0.49636900  1
  H  H59  1  0.73989000  0.95870900  0.80503200  1
  H  H60  1  0.49636900  0.95870900  0.73989000  1
  H  H61  1  0.49636900  0.73989000  0.80503200  1
  H  H62  1  0.80503200  0.49636900  0.73989000  1
  H  H63  1  0.73989000  0.80503200  0.49636900  1
  H  H64  1  0.09717000  0.57604900  0.96553000  1
  H  H65  1  0.96553000  0.57604900  0.36125100  1
  H  H66  1  0.36125100  0.57604900  0.09717000  1
  H  H67  1  0.57604900  0.09717000  0.36125100  1
  H  H68  1  0.57604900  0.96553000  0.09717000  1
  H  H69  1  0.57604900  0.36125100  0.96553000  1
  H  H70  1  0.36125100  0.96553000  0.57604900  1
  H  H71  1  0.09717000  0.36125100  0.57604900  1
  H  H72  1  0.96553000  0.09717000  0.57604900  1
  H  H73  1  0.96553000  0.36125100  0.09717000  1
  H  H74  1  0.36125100  0.09717000  0.96553000  1
  H  H75  1  0.09717000  0.96553000  0.36125100  1
  H  H76  1  0.59717000  0.46553000  0.07604900  1
  H  H77  1  0.46553000  0.86125100  0.07604900  1
  H  H78  1  0.86125100  0.59717000  0.07604900  1
  H  H79  1  0.07604900  0.86125100  0.59717000  1
  H  H80  1  0.07604900  0.59717000  0.46553000  1
  H  H81  1  0.07604900  0.46553000  0.86125100  1
  H  H82  1  0.86125100  0.07604900  0.46553000  1
  H  H83  1  0.59717000  0.07604900  0.86125100  1
  H  H84  1  0.46553000  0.07604900  0.59717000  1
  H  H85  1  0.46553000  0.59717000  0.86125100  1
  H  H86  1  0.86125100  0.46553000  0.59717000  1
  H  H87  1  0.59717000  0.86125100  0.46553000  1
  C  C88  1  0.18140000  0.56038400  0.98040100  1
  C  C89  1  0.98040100  0.56038400  0.27781600  1
  C  C90  1  0.27781600  0.56038400  0.18140000  1
  C  C91  1  0.56038400  0.18140000  0.27781600  1
  C  C92  1  0.56038400  0.98040100  0.18140000  1
  C  C93  1  0.56038400  0.27781600  0.98040100  1
  C  C94  1  0.27781600  0.98040100  0.56038400  1
  C  C95  1  0.18140000  0.27781600  0.56038400  1
  C  C96  1  0.98040100  0.18140000  0.56038400  1
  C  C97  1  0.98040100  0.27781600  0.18140000  1
  C  C98  1  0.27781600  0.18140000  0.98040100  1
  C  C99  1  0.18140000  0.98040100  0.27781600  1
  C  C100  1  0.68140000  0.48040100  0.06038400  1
  C  C101  1  0.48040100  0.77781600  0.06038400  1
  C  C102  1  0.77781600  0.68140000  0.06038400  1
  C  C103  1  0.06038400  0.77781600  0.68140000  1
  C  C104  1  0.06038400  0.68140000  0.48040100  1
  C  C105  1  0.06038400  0.48040100  0.77781600  1
  C  C106  1  0.77781600  0.06038400  0.48040100  1
  C  C107  1  0.68140000  0.06038400  0.77781600  1
  C  C108  1  0.48040100  0.06038400  0.68140000  1
  C  C109  1  0.48040100  0.68140000  0.77781600  1
  C  C110  1  0.77781600  0.48040100  0.68140000  1
  C  C111  1  0.68140000  0.77781600  0.48040100  1
  F  F112  1  0.06836000  0.79492000  0.06836000  1
  F  F113  1  0.79492000  0.06836000  0.06836000  1
  F  F114  1  0.06836000  0.06836000  0.79492000  1
  F  F115  1  0.06836000  0.06836000  0.06836000  1
  F  F116  1  0.56836000  0.56836000  0.29492000  1
  F  F117  1  0.29492000  0.56836000  0.56836000  1
  F  F118  1  0.56836000  0.29492000  0.56836000  1
  F  F119  1  0.56836000  0.56836000  0.56836000  1
