# generated using pymatgen
data_K3Bi3(PS4)4
_symmetry_space_group_name_H-M   'P 1'
_cell_length_a   13.75683231
_cell_length_b   21.09175672
_cell_length_c   21.09175672
_cell_angle_alpha   90.00000000
_cell_angle_beta   90.00000000
_cell_angle_gamma   90.00000000
_symmetry_Int_Tables_number   1
_chemical_formula_structural   K3Bi3(PS4)4
_chemical_formula_sum   'K24 Bi24 P32 S128'
_cell_volume   6119.89470758
_cell_formula_units_Z   8
loop_
 _symmetry_equiv_pos_site_id
 _symmetry_equiv_pos_as_xyz
  1  'x, y, z'
loop_
 _atom_site_type_symbol
 _atom_site_label
 _atom_site_symmetry_multiplicity
 _atom_site_fract_x
 _atom_site_fract_y
 _atom_site_fract_z
 _atom_site_occupancy
  K  K0  1  0.42303193  0.74240364  0.97244964  1
  K  K1  1  0.92303193  0.75759636  0.97244964  1
  K  K2  1  0.92303193  0.74240364  0.52755036  1
  K  K3  1  0.42303193  0.75759636  0.52755036  1
  K  K4  1  0.92303193  0.97244964  0.74240364  1
  K  K5  1  0.42303193  0.52755036  0.74240364  1
  K  K6  1  0.42303193  0.97244964  0.75759636  1
  K  K7  1  0.92303193  0.52755036  0.75759636  1
  K  K8  1  0.57696807  0.25759636  0.02755036  1
  K  K9  1  0.07696807  0.24240364  0.02755036  1
  K  K10  1  0.07696807  0.25759636  0.47244964  1
  K  K11  1  0.57696807  0.24240364  0.47244964  1
  K  K12  1  0.07696807  0.02755036  0.25759636  1
  K  K13  1  0.57696807  0.47244964  0.25759636  1
  K  K14  1  0.57696807  0.02755036  0.24240364  1
  K  K15  1  0.07696807  0.47244964  0.24240364  1
  K  K16  1  0.75000000  0.25000000  0.75000000  1
  K  K17  1  0.25000000  0.25000000  0.75000000  1
  K  K18  1  0.25000000  0.75000000  0.25000000  1
  K  K19  1  0.75000000  0.75000000  0.25000000  1
  K  K20  1  0.96943300  0.75000000  0.75000000  1
  K  K21  1  0.46943300  0.75000000  0.75000000  1
  K  K22  1  0.03056700  0.25000000  0.25000000  1
  K  K23  1  0.53056700  0.25000000  0.25000000  1
  Bi  Bi24  1  0.13875808  0.60105087  0.99397240  1
  Bi  Bi25  1  0.63875808  0.89894913  0.99397240  1
  Bi  Bi26  1  0.63875808  0.60105087  0.50602760  1
  Bi  Bi27  1  0.13875808  0.89894913  0.50602760  1
  Bi  Bi28  1  0.63875808  0.99397240  0.60105087  1
  Bi  Bi29  1  0.13875808  0.50602760  0.60105087  1
  Bi  Bi30  1  0.13875808  0.99397240  0.89894913  1
  Bi  Bi31  1  0.63875808  0.50602760  0.89894913  1
  Bi  Bi32  1  0.86124192  0.39894913  0.00602760  1
  Bi  Bi33  1  0.36124192  0.10105087  0.00602760  1
  Bi  Bi34  1  0.36124192  0.39894913  0.49397240  1
  Bi  Bi35  1  0.86124192  0.10105087  0.49397240  1
  Bi  Bi36  1  0.36124192  0.00602760  0.39894913  1
  Bi  Bi37  1  0.86124192  0.49397240  0.39894913  1
  Bi  Bi38  1  0.86124192  0.00602760  0.10105087  1
  Bi  Bi39  1  0.36124192  0.49397240  0.10105087  1
  Bi  Bi40  1  0.25000000  0.39996498  0.89996498  1
  Bi  Bi41  1  0.75000000  0.10003502  0.89996498  1
  Bi  Bi42  1  0.75000000  0.39996498  0.60003502  1
  Bi  Bi43  1  0.25000000  0.10003502  0.60003502  1
  Bi  Bi44  1  0.75000000  0.89996498  0.39996498  1
  Bi  Bi45  1  0.25000000  0.60003502  0.39996498  1
  Bi  Bi46  1  0.25000000  0.89996498  0.10003502  1
  Bi  Bi47  1  0.75000000  0.60003502  0.10003502  1
  P  P48  1  0.37056140  0.56483520  0.92165009  1
  P  P49  1  0.87056140  0.93516480  0.92165009  1
  P  P50  1  0.87056140  0.56483520  0.57834991  1
  P  P51  1  0.37056140  0.93516480  0.57834991  1
  P  P52  1  0.87056140  0.92165009  0.56483520  1
  P  P53  1  0.37056140  0.57834991  0.56483520  1
  P  P54  1  0.37056140  0.92165009  0.93516480  1
  P  P55  1  0.87056140  0.57834991  0.93516480  1
  P  P56  1  0.62943860  0.43516480  0.07834991  1
  P  P57  1  0.12943860  0.06483520  0.07834991  1
  P  P58  1  0.12943860  0.43516480  0.42165009  1
  P  P59  1  0.62943860  0.06483520  0.42165009  1
  P  P60  1  0.12943860  0.07834991  0.43516480  1
  P  P61  1  0.62943860  0.42165009  0.43516480  1
  P  P62  1  0.62943860  0.07834991  0.06483520  1
  P  P63  1  0.12943860  0.42165009  0.06483520  1
  P  P64  1  0.16828517  0.74796698  0.06292600  1
  P  P65  1  0.66828517  0.75203302  0.06292600  1
  P  P66  1  0.66828517  0.74796698  0.43707400  1
  P  P67  1  0.16828517  0.75203302  0.43707400  1
  P  P68  1  0.66828517  0.06292600  0.74796698  1
  P  P69  1  0.16828517  0.43707400  0.74796698  1
  P  P70  1  0.16828517  0.06292600  0.75203302  1
  P  P71  1  0.66828517  0.43707400  0.75203302  1
  P  P72  1  0.83171483  0.25203302  0.93707400  1
  P  P73  1  0.33171483  0.24796698  0.93707400  1
  P  P74  1  0.33171483  0.25203302  0.56292600  1
  P  P75  1  0.83171483  0.24796698  0.56292600  1
  P  P76  1  0.33171483  0.93707400  0.25203302  1
  P  P77  1  0.83171483  0.56292600  0.25203302  1
  P  P78  1  0.83171483  0.93707400  0.24796698  1
  P  P79  1  0.33171483  0.56292600  0.24796698  1
  S  S80  1  0.23905527  0.55895322  0.87716565  1
  S  S81  1  0.73905527  0.94104678  0.87716565  1
  S  S82  1  0.73905527  0.55895322  0.62283435  1
  S  S83  1  0.23905527  0.94104678  0.62283435  1
  S  S84  1  0.73905527  0.87716565  0.55895322  1
  S  S85  1  0.23905527  0.62283435  0.55895322  1
  S  S86  1  0.23905527  0.87716565  0.94104678  1
  S  S87  1  0.73905527  0.62283435  0.94104678  1
  S  S88  1  0.76094473  0.44104678  0.12283435  1
  S  S89  1  0.26094473  0.05895322  0.12283435  1
  S  S90  1  0.26094473  0.44104678  0.37716565  1
  S  S91  1  0.76094473  0.05895322  0.37716565  1
  S  S92  1  0.26094473  0.12283435  0.44104678  1
  S  S93  1  0.76094473  0.37716565  0.44104678  1
  S  S94  1  0.76094473  0.12283435  0.05895322  1
  S  S95  1  0.26094473  0.37716565  0.05895322  1
  S  S96  1  0.34073091  0.60351401  0.01160744  1
  S  S97  1  0.84073091  0.89648599  0.01160744  1
  S  S98  1  0.84073091  0.60351401  0.48839256  1
  S  S99  1  0.34073091  0.89648599  0.48839256  1
  S  S100  1  0.84073091  0.01160744  0.60351401  1
  S  S101  1  0.34073091  0.48839256  0.60351401  1
  S  S102  1  0.34073091  0.01160744  0.89648599  1
  S  S103  1  0.84073091  0.48839256  0.89648599  1
  S  S104  1  0.65926909  0.39648599  0.98839256  1
  S  S105  1  0.15926909  0.10351401  0.98839256  1
  S  S106  1  0.15926909  0.39648599  0.51160744  1
  S  S107  1  0.65926909  0.10351401  0.51160744  1
  S  S108  1  0.15926909  0.98839256  0.39648599  1
  S  S109  1  0.65926909  0.51160744  0.39648599  1
  S  S110  1  0.65926909  0.98839256  0.10351401  1
  S  S111  1  0.15926909  0.51160744  0.10351401  1
  S  S112  1  0.97163404  0.62531241  0.88159899  1
  S  S113  1  0.47163404  0.87468759  0.88159899  1
  S  S114  1  0.47163404  0.62531241  0.61840101  1
  S  S115  1  0.97163404  0.87468759  0.61840101  1
  S  S116  1  0.47163404  0.88159899  0.62531241  1
  S  S117  1  0.97163404  0.61840101  0.62531241  1
  S  S118  1  0.97163404  0.88159899  0.87468759  1
  S  S119  1  0.47163404  0.61840101  0.87468759  1
  S  S120  1  0.02836596  0.37468759  0.11840101  1
  S  S121  1  0.52836596  0.12531241  0.11840101  1
  S  S122  1  0.52836596  0.37468759  0.38159899  1
  S  S123  1  0.02836596  0.12531241  0.38159899  1
  S  S124  1  0.52836596  0.11840101  0.37468759  1
  S  S125  1  0.02836596  0.38159899  0.37468759  1
  S  S126  1  0.02836596  0.11840101  0.12531241  1
  S  S127  1  0.52836596  0.38159899  0.12531241  1
  S  S128  1  0.42641689  0.47542526  0.93478242  1
  S  S129  1  0.92641689  0.02457474  0.93478242  1
  S  S130  1  0.92641689  0.47542526  0.56521758  1
  S  S131  1  0.42641689  0.02457474  0.56521758  1
  S  S132  1  0.92641689  0.93478242  0.47542526  1
  S  S133  1  0.42641689  0.56521758  0.47542526  1
  S  S134  1  0.42641689  0.93478242  0.02457474  1
  S  S135  1  0.92641689  0.56521758  0.02457474  1
  S  S136  1  0.57358311  0.52457474  0.06521758  1
  S  S137  1  0.07358311  0.97542526  0.06521758  1
  S  S138  1  0.07358311  0.52457474  0.43478242  1
  S  S139  1  0.57358311  0.97542526  0.43478242  1
  S  S140  1  0.07358311  0.06521758  0.52457474  1
  S  S141  1  0.57358311  0.43478242  0.52457474  1
  S  S142  1  0.57358311  0.06521758  0.97542526  1
  S  S143  1  0.07358311  0.43478242  0.97542526  1
  S  S144  1  0.16524102  0.72659283  0.96571068  1
  S  S145  1  0.66524102  0.77340717  0.96571068  1
  S  S146  1  0.66524102  0.72659283  0.53428932  1
  S  S147  1  0.16524102  0.77340717  0.53428932  1
  S  S148  1  0.66524102  0.96571068  0.72659283  1
  S  S149  1  0.16524102  0.53428932  0.72659283  1
  S  S150  1  0.16524102  0.96571068  0.77340717  1
  S  S151  1  0.66524102  0.53428932  0.77340717  1
  S  S152  1  0.83475898  0.27340717  0.03428932  1
  S  S153  1  0.33475898  0.22659283  0.03428932  1
  S  S154  1  0.33475898  0.27340717  0.46571068  1
  S  S155  1  0.83475898  0.22659283  0.46571068  1
  S  S156  1  0.33475898  0.03428932  0.27340717  1
  S  S157  1  0.83475898  0.46571068  0.27340717  1
  S  S158  1  0.83475898  0.03428932  0.22659283  1
  S  S159  1  0.33475898  0.46571068  0.22659283  1
  S  S160  1  0.30537761  0.40397002  0.77392229  1
  S  S161  1  0.80537761  0.09602998  0.77392229  1
  S  S162  1  0.80537761  0.40397002  0.72607771  1
  S  S163  1  0.30537761  0.09602998  0.72607771  1
  S  S164  1  0.80537761  0.77392229  0.40397002  1
  S  S165  1  0.30537761  0.72607771  0.40397002  1
  S  S166  1  0.30537761  0.77392229  0.09602998  1
  S  S167  1  0.80537761  0.72607771  0.09602998  1
  S  S168  1  0.69462239  0.59602998  0.22607771  1
  S  S169  1  0.19462239  0.90397002  0.22607771  1
  S  S170  1  0.19462239  0.59602998  0.27392229  1
  S  S171  1  0.69462239  0.90397002  0.27392229  1
  S  S172  1  0.19462239  0.22607771  0.59602998  1
  S  S173  1  0.69462239  0.27392229  0.59602998  1
  S  S174  1  0.69462239  0.22607771  0.90397002  1
  S  S175  1  0.19462239  0.27392229  0.90397002  1
  S  S176  1  0.08030875  0.41528317  0.82204624  1
  S  S177  1  0.58030875  0.08471683  0.82204624  1
  S  S178  1  0.58030875  0.41528317  0.67795376  1
  S  S179  1  0.08030875  0.08471683  0.67795376  1
  S  S180  1  0.58030875  0.82204624  0.41528317  1
  S  S181  1  0.08030875  0.67795376  0.41528317  1
  S  S182  1  0.08030875  0.82204624  0.08471683  1
  S  S183  1  0.58030875  0.67795376  0.08471683  1
  S  S184  1  0.91969125  0.58471683  0.17795376  1
  S  S185  1  0.41969125  0.91528317  0.17795376  1
  S  S186  1  0.41969125  0.58471683  0.32204624  1
  S  S187  1  0.91969125  0.91528317  0.32204624  1
  S  S188  1  0.41969125  0.17795376  0.58471683  1
  S  S189  1  0.91969125  0.32204624  0.58471683  1
  S  S190  1  0.91969125  0.17795376  0.91528317  1
  S  S191  1  0.41969125  0.32204624  0.91528317  1
  S  S192  1  0.12351100  0.66658921  0.10651985  1
  S  S193  1  0.62351100  0.83341079  0.10651985  1
  S  S194  1  0.62351100  0.66658921  0.39348015  1
  S  S195  1  0.12351100  0.83341079  0.39348015  1
  S  S196  1  0.62351100  0.10651985  0.66658921  1
  S  S197  1  0.12351100  0.39348015  0.66658921  1
  S  S198  1  0.12351100  0.10651985  0.83341079  1
  S  S199  1  0.62351100  0.39348015  0.83341079  1
  S  S200  1  0.87648900  0.33341079  0.89348015  1
  S  S201  1  0.37648900  0.16658921  0.89348015  1
  S  S202  1  0.37648900  0.33341079  0.60651985  1
  S  S203  1  0.87648900  0.16658921  0.60651985  1
  S  S204  1  0.37648900  0.89348015  0.33341079  1
  S  S205  1  0.87648900  0.60651985  0.33341079  1
  S  S206  1  0.87648900  0.89348015  0.16658921  1
  S  S207  1  0.37648900  0.60651985  0.16658921  1
