# generated using pymatgen
data_LiZnAsO5
_symmetry_space_group_name_H-M   'P 1'
_cell_length_a   5.25726500
_cell_length_b   8.36800400
_cell_length_c   11.00457000
_cell_angle_alpha   90.00000000
_cell_angle_beta   90.00000000
_cell_angle_gamma   90.00000000
_symmetry_Int_Tables_number   1
_chemical_formula_structural   LiZnAsO5
_chemical_formula_sum   'Li4 Zn4 As4 O20'
_cell_volume   484.12200720
_cell_formula_units_Z   4
loop_
 _symmetry_equiv_pos_site_id
 _symmetry_equiv_pos_as_xyz
  1  'x, y, z'
loop_
 _atom_site_type_symbol
 _atom_site_label
 _atom_site_symmetry_multiplicity
 _atom_site_fract_x
 _atom_site_fract_y
 _atom_site_fract_z
 _atom_site_occupancy
  Li  Li0  1  0.23716300  0.67307500  0.17625000  1
  Li  Li1  1  0.73716300  0.32692500  0.82375000  1
  Li  Li2  1  0.73716300  0.17307500  0.32375000  1
  Li  Li3  1  0.23716300  0.82692500  0.67625000  1
  Zn  Zn4  1  0.74067900  0.87051400  0.12243600  1
  Zn  Zn5  1  0.24067900  0.12948600  0.87756400  1
  Zn  Zn6  1  0.24067900  0.37051400  0.37756400  1
  Zn  Zn7  1  0.74067900  0.62948600  0.62243600  1
  As  As8  1  0.74298600  0.57813000  0.32621900  1
  As  As9  1  0.24298600  0.42187000  0.67378100  1
  As  As10  1  0.24298600  0.07813000  0.17378100  1
  As  As11  1  0.74298600  0.92187000  0.82621900  1
  O  O12  1  0.81696000  0.68545600  0.45455900  1
  O  O13  1  0.31696000  0.31454400  0.54544100  1
  O  O14  1  0.31696000  0.18545600  0.04544100  1
  O  O15  1  0.81696000  0.81454400  0.95455900  1
  O  O16  1  0.87289200  0.67602200  0.20340700  1
  O  O17  1  0.37289200  0.32397800  0.79659300  1
  O  O18  1  0.37289200  0.17602200  0.29659300  1
  O  O19  1  0.87289200  0.82397800  0.70340700  1
  O  O20  1  0.41901400  0.55690300  0.30490200  1
  O  O21  1  0.91901400  0.44309700  0.69509800  1
  O  O22  1  0.91901400  0.05690300  0.19509800  1
  O  O23  1  0.41901400  0.94309700  0.80490200  1
  O  O24  1  0.87652300  0.39031100  0.33562900  1
  O  O25  1  0.37652300  0.60968900  0.66437100  1
  O  O26  1  0.37652300  0.89031100  0.16437100  1
  O  O27  1  0.87652300  0.10968900  0.83562900  1
  O  O28  1  0.31498300  0.58954000  0.00237100  1
  O  O29  1  0.81498300  0.41046000  0.99762900  1
  O  O30  1  0.81498300  0.08954000  0.49762900  1
  O  O31  1  0.31498300  0.91046000  0.50237100  1
