# generated using pymatgen
data_HgH16(Br3N2)2
_symmetry_space_group_name_H-M   'P 1'
_cell_length_a   9.43880700
_cell_length_b   9.43880700
_cell_length_c   9.09755000
_cell_angle_alpha   90.00000000
_cell_angle_beta   90.00000000
_cell_angle_gamma   90.00000000
_symmetry_Int_Tables_number   1
_chemical_formula_structural   HgH16(Br3N2)2
_chemical_formula_sum   'Hg2 H32 Br12 N8'
_cell_volume   810.51053287
_cell_formula_units_Z   2
loop_
 _symmetry_equiv_pos_site_id
 _symmetry_equiv_pos_as_xyz
  1  'x, y, z'
loop_
 _atom_site_type_symbol
 _atom_site_label
 _atom_site_symmetry_multiplicity
 _atom_site_fract_x
 _atom_site_fract_y
 _atom_site_fract_z
 _atom_site_occupancy
  Hg  Hg0  1  0.00000000  0.00000000  0.00000000  1
  Hg  Hg1  1  0.50000000  0.50000000  0.50000000  1
  H  H2  1  0.73690400  0.14585000  0.68802000  1
  H  H3  1  0.26309600  0.85415000  0.68802000  1
  H  H4  1  0.23690400  0.35415000  0.18802000  1
  H  H5  1  0.76309600  0.64585000  0.18802000  1
  H  H6  1  0.85415000  0.73690400  0.68802000  1
  H  H7  1  0.14585000  0.26309600  0.68802000  1
  H  H8  1  0.64585000  0.23690400  0.18802000  1
  H  H9  1  0.35415000  0.76309600  0.18802000  1
  H  H10  1  0.26309600  0.85415000  0.31198000  1
  H  H11  1  0.73690400  0.14585000  0.31198000  1
  H  H12  1  0.76309600  0.64585000  0.81198000  1
  H  H13  1  0.23690400  0.35415000  0.81198000  1
  H  H14  1  0.14585000  0.26309600  0.31198000  1
  H  H15  1  0.85415000  0.73690400  0.31198000  1
  H  H16  1  0.35415000  0.76309600  0.81198000  1
  H  H17  1  0.64585000  0.23690400  0.81198000  1
  H  H18  1  0.64670200  0.05796600  0.81954000  1
  H  H19  1  0.35329800  0.94203400  0.81954000  1
  H  H20  1  0.14670200  0.44203400  0.31954000  1
  H  H21  1  0.85329800  0.55796600  0.31954000  1
  H  H22  1  0.94203400  0.64670200  0.81954000  1
  H  H23  1  0.05796600  0.35329800  0.81954000  1
  H  H24  1  0.55796600  0.14670200  0.31954000  1
  H  H25  1  0.44203400  0.85329800  0.31954000  1
  H  H26  1  0.35329800  0.94203400  0.18046000  1
  H  H27  1  0.64670200  0.05796600  0.18046000  1
  H  H28  1  0.85329800  0.55796600  0.68046000  1
  H  H29  1  0.14670200  0.44203400  0.68046000  1
  H  H30  1  0.05796600  0.35329800  0.18046000  1
  H  H31  1  0.94203400  0.64670200  0.18046000  1
  H  H32  1  0.44203400  0.85329800  0.68046000  1
  H  H33  1  0.55796600  0.14670200  0.68046000  1
  Br  Br34  1  0.00000000  0.00000000  0.71986200  1
  Br  Br35  1  0.50000000  0.50000000  0.21986200  1
  Br  Br36  1  0.00000000  0.00000000  0.28013800  1
  Br  Br37  1  0.50000000  0.50000000  0.78013800  1
  Br  Br38  1  0.67823700  0.88078600  0.00000000  1
  Br  Br39  1  0.32176300  0.11921400  0.00000000  1
  Br  Br40  1  0.17823700  0.61921400  0.50000000  1
  Br  Br41  1  0.82176300  0.38078600  0.50000000  1
  Br  Br42  1  0.11921400  0.67823700  0.00000000  1
  Br  Br43  1  0.88078600  0.32176300  0.00000000  1
  Br  Br44  1  0.38078600  0.17823700  0.50000000  1
  Br  Br45  1  0.61921400  0.82176300  0.50000000  1
  N  N46  1  0.64604900  0.14604900  0.75000000  1
  N  N47  1  0.35395100  0.85395100  0.75000000  1
  N  N48  1  0.14604900  0.35395100  0.25000000  1
  N  N49  1  0.85395100  0.64604900  0.25000000  1
  N  N50  1  0.85395100  0.64604900  0.75000000  1
  N  N51  1  0.14604900  0.35395100  0.75000000  1
  N  N52  1  0.64604900  0.14604900  0.25000000  1
  N  N53  1  0.35395100  0.85395100  0.25000000  1
