# generated using pymatgen
data_Ho5(CoSn3)6
_symmetry_space_group_name_H-M   'P 1'
_cell_length_a   13.70209193
_cell_length_b   13.70209193
_cell_length_c   16.68521689
_cell_angle_alpha   114.24289443
_cell_angle_beta   114.24289443
_cell_angle_gamma   90.00000000
_symmetry_Int_Tables_number   1
_chemical_formula_structural   Ho5(CoSn3)6
_chemical_formula_sum   'Ho20 Co24 Sn72'
_cell_volume   2550.34396599
_cell_formula_units_Z   4
loop_
 _symmetry_equiv_pos_site_id
 _symmetry_equiv_pos_as_xyz
  1  'x, y, z'
loop_
 _atom_site_type_symbol
 _atom_site_label
 _atom_site_symmetry_multiplicity
 _atom_site_fract_x
 _atom_site_fract_y
 _atom_site_fract_z
 _atom_site_occupancy
  Ho  Ho0  1  0.62500000  0.87500000  0.25000000  1
  Ho  Ho1  1  0.12500000  0.37500000  0.25000000  1
  Ho  Ho2  1  0.37500000  0.12500000  0.75000000  1
  Ho  Ho3  1  0.87500000  0.62500000  0.75000000  1
  Ho  Ho4  1  0.06075073  0.80629700  0.38578190  1
  Ho  Ho5  1  0.82503117  0.30629700  0.38578190  1
  Ho  Ho6  1  0.30629700  0.56075073  0.88578190  1
  Ho  Ho7  1  0.07948491  0.06075073  0.88578190  1
  Ho  Ho8  1  0.93924927  0.19370300  0.61421810  1
  Ho  Ho9  1  0.17496883  0.69370300  0.61421810  1
  Ho  Ho10  1  0.69370300  0.43924927  0.11421810  1
  Ho  Ho11  1  0.92051509  0.93924927  0.11421810  1
  Ho  Ho12  1  0.56075073  0.57948491  0.38578190  1
  Ho  Ho13  1  0.32503117  0.07948491  0.38578190  1
  Ho  Ho14  1  0.80629700  0.32503117  0.88578190  1
  Ho  Ho15  1  0.57948491  0.82503117  0.88578190  1
  Ho  Ho16  1  0.43924927  0.42051509  0.61421810  1
  Ho  Ho17  1  0.67496883  0.92051509  0.61421810  1
  Ho  Ho18  1  0.19370300  0.67496883  0.11421810  1
  Ho  Ho19  1  0.42051509  0.17496883  0.11421810  1
  Co  Co20  1  0.37114531  0.87581334  0.25017468  1
  Co  Co21  1  0.37902938  0.37581334  0.25017468  1
  Co  Co22  1  0.37581334  0.87114531  0.75017468  1
  Co  Co23  1  0.87436134  0.37114531  0.75017468  1
  Co  Co24  1  0.62885469  0.12418666  0.74982532  1
  Co  Co25  1  0.62097062  0.62418666  0.74982532  1
  Co  Co26  1  0.62418666  0.12885469  0.24982532  1
  Co  Co27  1  0.12563866  0.62885469  0.24982532  1
  Co  Co28  1  0.87114531  0.37436134  0.25017468  1
  Co  Co29  1  0.87902938  0.87436134  0.25017468  1
  Co  Co30  1  0.87581334  0.87902938  0.75017468  1
  Co  Co31  1  0.37436134  0.37902938  0.75017468  1
  Co  Co32  1  0.12885469  0.62563866  0.74982532  1
  Co  Co33  1  0.12097062  0.12563866  0.74982532  1
  Co  Co34  1  0.12418666  0.12097062  0.24982532  1
  Co  Co35  1  0.62563866  0.62097062  0.24982532  1
  Co  Co36  1  0.24836144  0.99836144  0.49672288  1
  Co  Co37  1  0.74836144  0.49836144  0.49672288  1
  Co  Co38  1  0.49836144  0.74836144  0.99672288  1
  Co  Co39  1  0.99836144  0.24836144  0.99672288  1
  Co  Co40  1  0.75163856  0.00163856  0.50327712  1
  Co  Co41  1  0.25163856  0.50163856  0.50327712  1
  Co  Co42  1  0.50163856  0.25163856  0.00327712  1
  Co  Co43  1  0.00163856  0.75163856  0.00327712  1
  Sn  Sn44  1  0.29903968  0.54903968  0.25000000  1
  Sn  Sn45  1  0.45096032  0.04903968  0.25000000  1
  Sn  Sn46  1  0.04903968  0.79903968  0.75000000  1
  Sn  Sn47  1  0.20096032  0.29903968  0.75000000  1
  Sn  Sn48  1  0.70096032  0.45096032  0.75000000  1
  Sn  Sn49  1  0.54903968  0.95096032  0.75000000  1
  Sn  Sn50  1  0.95096032  0.20096032  0.25000000  1
  Sn  Sn51  1  0.79903968  0.70096032  0.25000000  1
  Sn  Sn52  1  0.36728909  0.79744765  0.07829661  1
  Sn  Sn53  1  0.21100752  0.29744765  0.07829661  1
  Sn  Sn54  1  0.29744765  0.86728909  0.57829661  1
  Sn  Sn55  1  0.78084896  0.36728909  0.57829661  1
  Sn  Sn56  1  0.63271091  0.20255235  0.92170339  1
  Sn  Sn57  1  0.78899248  0.70255235  0.92170339  1
  Sn  Sn58  1  0.70255235  0.13271091  0.42170339  1
  Sn  Sn59  1  0.21915104  0.63271091  0.42170339  1
  Sn  Sn60  1  0.86728909  0.28084896  0.07829661  1
  Sn  Sn61  1  0.71100752  0.78084896  0.07829661  1
  Sn  Sn62  1  0.79744765  0.71100752  0.57829661  1
  Sn  Sn63  1  0.28084896  0.21100752  0.57829661  1
  Sn  Sn64  1  0.13271091  0.71915104  0.92170339  1
  Sn  Sn65  1  0.28899248  0.21915104  0.92170339  1
  Sn  Sn66  1  0.20255235  0.28899248  0.42170339  1
  Sn  Sn67  1  0.71915104  0.78899248  0.42170339  1
  Sn  Sn68  1  0.53734060  0.95595661  0.42120833  1
  Sn  Sn69  1  0.38386773  0.45595661  0.42120833  1
  Sn  Sn70  1  0.45595661  0.03734060  0.92120833  1
  Sn  Sn71  1  0.96525171  0.53734060  0.92120833  1
  Sn  Sn72  1  0.46265940  0.04404339  0.57879167  1
  Sn  Sn73  1  0.61613227  0.54404339  0.57879167  1
  Sn  Sn74  1  0.54404339  0.96265940  0.07879167  1
  Sn  Sn75  1  0.03474829  0.46265940  0.07879167  1
  Sn  Sn76  1  0.03734060  0.46525171  0.42120833  1
  Sn  Sn77  1  0.88386773  0.96525171  0.42120833  1
  Sn  Sn78  1  0.95595661  0.88386773  0.92120833  1
  Sn  Sn79  1  0.46525171  0.38386773  0.92120833  1
  Sn  Sn80  1  0.96265940  0.53474829  0.57879167  1
  Sn  Sn81  1  0.11613227  0.03474829  0.57879167  1
  Sn  Sn82  1  0.04404339  0.11613227  0.07879167  1
  Sn  Sn83  1  0.53474829  0.61613227  0.07879167  1
  Sn  Sn84  1  0.45263064  0.70263064  0.25000000  1
  Sn  Sn85  1  0.29736936  0.20263064  0.25000000  1
  Sn  Sn86  1  0.20263064  0.95263064  0.75000000  1
  Sn  Sn87  1  0.04736936  0.45263064  0.75000000  1
  Sn  Sn88  1  0.54736936  0.29736936  0.75000000  1
  Sn  Sn89  1  0.70263064  0.79736936  0.75000000  1
  Sn  Sn90  1  0.79736936  0.04736936  0.25000000  1
  Sn  Sn91  1  0.95263064  0.54736936  0.25000000  1
  Sn  Sn92  1  0.25905169  0.83108989  0.33896087  1
  Sn  Sn93  1  0.57990918  0.33108989  0.33896087  1
  Sn  Sn94  1  0.33108989  0.75905169  0.83896087  1
  Sn  Sn95  1  0.00787098  0.25905169  0.83896087  1
  Sn  Sn96  1  0.74094831  0.16891011  0.66103913  1
  Sn  Sn97  1  0.42009082  0.66891011  0.66103913  1
  Sn  Sn98  1  0.66891011  0.24094831  0.16103913  1
  Sn  Sn99  1  0.99212902  0.74094831  0.16103913  1
  Sn  Sn100  1  0.75905169  0.50787098  0.33896087  1
  Sn  Sn101  1  0.07990918  0.00787098  0.33896087  1
  Sn  Sn102  1  0.83108989  0.07990918  0.83896087  1
  Sn  Sn103  1  0.50787098  0.57990918  0.83896087  1
  Sn  Sn104  1  0.24094831  0.49212902  0.66103913  1
  Sn  Sn105  1  0.92009082  0.99212902  0.66103913  1
  Sn  Sn106  1  0.16891011  0.92009082  0.16103913  1
  Sn  Sn107  1  0.49212902  0.42009082  0.16103913  1
  Sn  Sn108  1  0.25000000  0.95972488  1.00000000  1
  Sn  Sn109  1  0.25000000  0.45972488  1.00000000  1
  Sn  Sn110  1  0.45972488  0.75000000  0.50000000  1
  Sn  Sn111  1  0.54027512  0.25000000  0.50000000  1
  Sn  Sn112  1  0.75000000  0.04027512  0.00000000  1
  Sn  Sn113  1  0.75000000  0.54027512  0.00000000  1
  Sn  Sn114  1  0.95972488  0.75000000  0.50000000  1
  Sn  Sn115  1  0.04027512  0.25000000  0.50000000  1
