# generated using pymatgen
data_CoBi(CO)3
_symmetry_space_group_name_H-M   'P 1'
_cell_length_a   11.79336454
_cell_length_b   11.79336454
_cell_length_c   11.79336454
_cell_angle_alpha   101.81793729
_cell_angle_beta   101.81793729
_cell_angle_gamma   126.18504494
_symmetry_Int_Tables_number   1
_chemical_formula_structural   CoBi(CO)3
_chemical_formula_sum   'Co8 Bi8 C24 O24'
_cell_volume   1180.55382691
_cell_formula_units_Z   8
loop_
 _symmetry_equiv_pos_site_id
 _symmetry_equiv_pos_as_xyz
  1  'x, y, z'
loop_
 _atom_site_type_symbol
 _atom_site_label
 _atom_site_symmetry_multiplicity
 _atom_site_fract_x
 _atom_site_fract_y
 _atom_site_fract_z
 _atom_site_occupancy
  Co  Co0  1  0.85372000  0.00209400  0.14837400  1
  Co  Co1  1  0.85372000  0.70534600  0.85162600  1
  Co  Co2  1  0.25209400  0.60372000  0.64837400  1
  Co  Co3  1  0.95534600  0.60372000  0.35162600  1
  Co  Co4  1  0.39628000  0.74790600  0.35162600  1
  Co  Co5  1  0.39628000  0.04465400  0.64837400  1
  Co  Co6  1  0.99790600  0.14628000  0.85162600  1
  Co  Co7  1  0.29465400  0.14628000  0.14837400  1
  Bi  Bi8  1  0.00071300  0.88924000  0.11147400  1
  Bi  Bi9  1  0.13924000  0.75071300  0.61147400  1
  Bi  Bi10  1  0.13924000  0.52776600  0.38852600  1
  Bi  Bi11  1  0.77776600  0.88924000  0.88852600  1
  Bi  Bi12  1  0.24928700  0.86076000  0.38852600  1
  Bi  Bi13  1  0.11076000  0.99928700  0.88852600  1
  Bi  Bi14  1  0.11076000  0.22223400  0.11147400  1
  Bi  Bi15  1  0.47223400  0.86076000  0.61147400  1
  C  C16  1  0.69096300  0.81926700  0.12830400  1
  C  C17  1  0.69096300  0.56265900  0.87169600  1
  C  C18  1  0.06926700  0.44096300  0.62830400  1
  C  C19  1  0.81265900  0.44096300  0.37169600  1
  C  C20  1  0.55903700  0.93073300  0.37169600  1
  C  C21  1  0.55903700  0.18734100  0.62830400  1
  C  C22  1  0.18073300  0.30903700  0.87169600  1
  C  C23  1  0.43734100  0.30903700  0.12830400  1
  C  C24  1  0.96941600  0.09678000  0.31253300  1
  C  C25  1  0.96941600  0.65688300  0.87263700  1
  C  C26  1  0.34678000  0.71941600  0.81253300  1
  C  C27  1  0.34678000  0.53424700  0.62736300  1
  C  C28  1  0.78424700  0.09678000  0.12736300  1
  C  C29  1  0.78424700  0.65688300  0.68746700  1
  C  C30  1  0.90688300  0.71941600  0.37263700  1
  C  C31  1  0.90688300  0.53424700  0.18746700  1
  C  C32  1  0.28058400  0.65322000  0.18746700  1
  C  C33  1  0.28058400  0.09311700  0.62736300  1
  C  C34  1  0.90322000  0.03058400  0.68746700  1
  C  C35  1  0.90322000  0.21575300  0.87263700  1
  C  C36  1  0.46575300  0.65322000  0.37263700  1
  C  C37  1  0.46575300  0.09311700  0.81253300  1
  C  C38  1  0.34311700  0.03058400  0.12736300  1
  C  C39  1  0.34311700  0.21575300  0.31253300  1
  O  O40  1  0.58234600  0.70436000  0.12201400  1
  O  O41  1  0.58234600  0.46033300  0.87798600  1
  O  O42  1  0.95436000  0.33234600  0.62201400  1
  O  O43  1  0.71033300  0.33234600  0.37798600  1
  O  O44  1  0.66765400  0.04564000  0.37798600  1
  O  O45  1  0.66765400  0.28966700  0.62201400  1
  O  O46  1  0.29564000  0.41765400  0.87798600  1
  O  O47  1  0.53966700  0.41765400  0.12201400  1
  O  O48  1  0.03955100  0.16069800  0.42234000  1
  O  O49  1  0.03955100  0.61721000  0.87885200  1
  O  O50  1  0.41069800  0.78955100  0.92234000  1
  O  O51  1  0.41069800  0.48835800  0.62114800  1
  O  O52  1  0.73835800  0.16069800  0.12114800  1
  O  O53  1  0.73835800  0.61721000  0.57766000  1
  O  O54  1  0.86721000  0.78955100  0.37885200  1
  O  O55  1  0.86721000  0.48835800  0.07766000  1
  O  O56  1  0.21044900  0.58930200  0.07766000  1
  O  O57  1  0.21044900  0.13279000  0.62114800  1
  O  O58  1  0.83930200  0.96044900  0.57766000  1
  O  O59  1  0.83930200  0.26164200  0.87885200  1
  O  O60  1  0.51164200  0.58930200  0.37885200  1
  O  O61  1  0.51164200  0.13279000  0.92234000  1
  O  O62  1  0.38279000  0.96044900  0.12114800  1
  O  O63  1  0.38279000  0.26164200  0.42234000  1
