# generated using pymatgen
data_RbAlV(PO5)2
_symmetry_space_group_name_H-M   'P 1'
_cell_length_a   7.91712000
_cell_length_b   8.29404800
_cell_length_c   14.35862334
_cell_angle_alpha   90.00000000
_cell_angle_beta   107.41929075
_cell_angle_gamma   90.00000000
_symmetry_Int_Tables_number   1
_chemical_formula_structural   RbAlV(PO5)2
_chemical_formula_sum   'Rb4 Al4 V4 P8 O40'
_cell_volume   899.61873635
_cell_formula_units_Z   4
loop_
 _symmetry_equiv_pos_site_id
 _symmetry_equiv_pos_as_xyz
  1  'x, y, z'
loop_
 _atom_site_type_symbol
 _atom_site_label
 _atom_site_symmetry_multiplicity
 _atom_site_fract_x
 _atom_site_fract_y
 _atom_site_fract_z
 _atom_site_occupancy
  Rb  Rb0  1  0.31554500  0.47105600  0.19860000  1
  Rb  Rb1  1  0.31554500  0.02894400  0.69860000  1
  Rb  Rb2  1  0.68445500  0.52894400  0.80140000  1
  Rb  Rb3  1  0.68445500  0.97105600  0.30140000  1
  Al  Al4  1  0.71491200  0.53745500  0.46501500  1
  Al  Al5  1  0.71491200  0.96254500  0.96501500  1
  Al  Al6  1  0.28508800  0.46254500  0.53498500  1
  Al  Al7  1  0.28508800  0.03745500  0.03498500  1
  V  V8  1  0.79997200  0.45130400  0.13611500  1
  V  V9  1  0.79997200  0.04869600  0.63611500  1
  V  V10  1  0.20002800  0.54869600  0.86388500  1
  V  V11  1  0.20002800  0.95130400  0.36388500  1
  P  P12  1  0.49310200  0.27330400  0.95869100  1
  P  P13  1  0.49310200  0.22669600  0.45869100  1
  P  P14  1  0.50689800  0.72669600  0.04130900  1
  P  P15  1  0.50689800  0.77330400  0.54130900  1
  P  P16  1  0.99599100  0.60394000  0.35149600  1
  P  P17  1  0.99599100  0.89606000  0.85149600  1
  P  P18  1  0.00400900  0.39606000  0.64850400  1
  P  P19  1  0.00400900  0.10394000  0.14850400  1
  O  O20  1  0.70466500  0.33138900  0.19867500  1
  O  O21  1  0.70466500  0.16861100  0.69867500  1
  O  O22  1  0.29533500  0.66861100  0.80132500  1
  O  O23  1  0.29533500  0.83138900  0.30132500  1
  O  O24  1  0.65364900  0.38328600  0.00641900  1
  O  O25  1  0.65364900  0.11671400  0.50641900  1
  O  O26  1  0.34635100  0.61671400  0.99358100  1
  O  O27  1  0.34635100  0.88328600  0.49358100  1
  O  O28  1  0.55699400  0.11687300  0.91941300  1
  O  O29  1  0.55699400  0.38312700  0.41941300  1
  O  O30  1  0.44300600  0.88312700  0.08058700  1
  O  O31  1  0.44300600  0.61687300  0.58058700  1
  O  O32  1  0.37020700  0.36264100  0.87002500  1
  O  O33  1  0.37020700  0.13735900  0.37002500  1
  O  O34  1  0.62979300  0.63735900  0.12997500  1
  O  O35  1  0.62979300  0.86264100  0.62997500  1
  O  O36  1  0.39693200  0.22139500  0.03351400  1
  O  O37  1  0.39693200  0.27860500  0.53351400  1
  O  O38  1  0.60306800  0.77860500  0.96648600  1
  O  O39  1  0.60306800  0.72139500  0.46648600  1
  O  O40  1  0.92919000  0.57463900  0.06389800  1
  O  O41  1  0.92919000  0.92536100  0.56389800  1
  O  O42  1  0.07081000  0.42536100  0.93610200  1
  O  O43  1  0.07081000  0.07463900  0.43610200  1
  O  O44  1  0.97230800  0.55637000  0.24442600  1
  O  O45  1  0.97230800  0.94363000  0.74442600  1
  O  O46  1  0.02769200  0.44363000  0.75557400  1
  O  O47  1  0.02769200  0.05637000  0.25557400  1
  O  O48  1  0.15899900  0.51305300  0.41627600  1
  O  O49  1  0.15899900  0.98694700  0.91627600  1
  O  O50  1  0.84100100  0.48694700  0.58372400  1
  O  O51  1  0.84100100  0.01305300  0.08372400  1
  O  O52  1  0.01751300  0.78713000  0.36396100  1
  O  O53  1  0.01751300  0.71287000  0.86396100  1
  O  O54  1  0.98248700  0.21287000  0.63603900  1
  O  O55  1  0.98248700  0.28713000  0.13603900  1
  O  O56  1  0.83031500  0.55505700  0.37996300  1
  O  O57  1  0.83031500  0.94494300  0.87996300  1
  O  O58  1  0.16968500  0.44494300  0.62003700  1
  O  O59  1  0.16968500  0.05505700  0.12003700  1
