# generated using pymatgen
data_Ho(BO2)6
_symmetry_space_group_name_H-M   'P 1'
_cell_length_a   8.49919555
_cell_length_b   8.49919555
_cell_length_c   8.49919624
_cell_angle_alpha   59.90925600
_cell_angle_beta   59.90925600
_cell_angle_gamma   59.90926045
_symmetry_Int_Tables_number   1
_chemical_formula_structural   Ho(BO2)6
_chemical_formula_sum   'Ho2 B12 O24'
_cell_volume   433.23503705
_cell_formula_units_Z   2
loop_
 _symmetry_equiv_pos_site_id
 _symmetry_equiv_pos_as_xyz
  1  'x, y, z'
loop_
 _atom_site_type_symbol
 _atom_site_label
 _atom_site_symmetry_multiplicity
 _atom_site_fract_x
 _atom_site_fract_y
 _atom_site_fract_z
 _atom_site_occupancy
  Ho  Ho0  1  0.49993700  0.49993700  0.49993700  1
  Ho  Ho1  1  0.99993700  0.99993700  0.99993700  1
  B  B2  1  0.78612400  0.08860700  0.37194800  1
  B  B3  1  0.37194800  0.78612400  0.08860700  1
  B  B4  1  0.08860700  0.37194800  0.78612400  1
  B  B5  1  0.87194800  0.58860700  0.28612400  1
  B  B6  1  0.28612400  0.87194800  0.58860700  1
  B  B7  1  0.58860700  0.28612400  0.87194800  1
  B  B8  1  0.88384200  0.39386000  0.61577600  1
  B  B9  1  0.61577600  0.88384200  0.39386000  1
  B  B10  1  0.39386000  0.61577600  0.88384200  1
  B  B11  1  0.11577600  0.89386000  0.38384200  1
  B  B12  1  0.38384200  0.11577600  0.89386000  1
  B  B13  1  0.89386000  0.38384200  0.11577600  1
  O  O14  1  0.18965300  0.49181500  0.60755300  1
  O  O15  1  0.60755300  0.18965300  0.49181500  1
  O  O16  1  0.49181500  0.60755300  0.18965300  1
  O  O17  1  0.10755300  0.99181500  0.68965300  1
  O  O18  1  0.68965300  0.10755300  0.99181500  1
  O  O19  1  0.99181500  0.68965300  0.10755300  1
  O  O20  1  0.76142900  0.95356800  0.32918400  1
  O  O21  1  0.32918400  0.76142900  0.95356800  1
  O  O22  1  0.95356800  0.32918400  0.76142900  1
  O  O23  1  0.82918400  0.45356800  0.26142900  1
  O  O24  1  0.26142900  0.82918400  0.45356800  1
  O  O25  1  0.45356800  0.26142900  0.82918400  1
  O  O26  1  0.66847000  0.71875700  0.35755600  1
  O  O27  1  0.35755600  0.66847000  0.71875700  1
  O  O28  1  0.71875700  0.35755600  0.66847000  1
  O  O29  1  0.85755600  0.21875700  0.16847000  1
  O  O30  1  0.16847000  0.85755600  0.21875700  1
  O  O31  1  0.21875700  0.16847000  0.85755600  1
  O  O32  1  0.92878000  0.99189000  0.46565100  1
  O  O33  1  0.46565100  0.92878000  0.99189000  1
  O  O34  1  0.99189000  0.46565100  0.92878000  1
  O  O35  1  0.96565100  0.49189000  0.42878000  1
  O  O36  1  0.42878000  0.96565100  0.49189000  1
  O  O37  1  0.49189000  0.42878000  0.96565100  1
