# generated using pymatgen
data_CeSO6
_symmetry_space_group_name_H-M   'P 1'
_cell_length_a   4.32445900
_cell_length_b   8.75061400
_cell_length_c   11.89628900
_cell_angle_alpha   90.00000000
_cell_angle_beta   90.00000000
_cell_angle_gamma   90.00000000
_symmetry_Int_Tables_number   1
_chemical_formula_structural   CeSO6
_chemical_formula_sum   'Ce4 S4 O24'
_cell_volume   450.17546002
_cell_formula_units_Z   4
loop_
 _symmetry_equiv_pos_site_id
 _symmetry_equiv_pos_as_xyz
  1  'x, y, z'
loop_
 _atom_site_type_symbol
 _atom_site_label
 _atom_site_symmetry_multiplicity
 _atom_site_fract_x
 _atom_site_fract_y
 _atom_site_fract_z
 _atom_site_occupancy
  Ce  Ce0  1  0.40426600  0.11774000  0.92630000  1
  Ce  Ce1  1  0.90426600  0.38226000  0.07370000  1
  Ce  Ce2  1  0.09573400  0.88226000  0.42630000  1
  Ce  Ce3  1  0.59573400  0.61774000  0.57370000  1
  S  S4  1  0.59990100  0.04830200  0.22161600  1
  S  S5  1  0.09990100  0.45169800  0.77838400  1
  S  S6  1  0.90009900  0.95169800  0.72161600  1
  S  S7  1  0.40009900  0.54830200  0.27838400  1
  O  O8  1  0.76385100  0.19620700  0.20990900  1
  O  O9  1  0.26385100  0.30379300  0.79009100  1
  O  O10  1  0.73614900  0.80379300  0.70990900  1
  O  O11  1  0.23614900  0.69620700  0.29009100  1
  O  O12  1  0.43663000  0.01078200  0.11378200  1
  O  O13  1  0.93663000  0.48921800  0.88621800  1
  O  O14  1  0.06337000  0.98921800  0.61378200  1
  O  O15  1  0.56337000  0.51078200  0.38621800  1
  O  O16  1  0.13040200  0.93620100  0.81355000  1
  O  O17  1  0.63040200  0.56379900  0.18645000  1
  O  O18  1  0.36959800  0.06379900  0.31355000  1
  O  O19  1  0.86959800  0.43620100  0.68645000  1
  O  O20  1  0.68275100  0.07561300  0.74932100  1
  O  O21  1  0.18275100  0.42438700  0.25067900  1
  O  O22  1  0.81724900  0.92438700  0.24932100  1
  O  O23  1  0.31724900  0.57561300  0.75067900  1
  O  O24  1  0.55899300  0.82193200  0.97566500  1
  O  O25  1  0.05899300  0.67806800  0.02433500  1
  O  O26  1  0.94100700  0.17806800  0.47566500  1
  O  O27  1  0.44100700  0.32193200  0.52433500  1
  O  O28  1  0.90543300  0.16943500  0.97202700  1
  O  O29  1  0.40543300  0.33056500  0.02797300  1
  O  O30  1  0.59456700  0.83056500  0.47202700  1
  O  O31  1  0.09456700  0.66943500  0.52797300  1
