# generated using pymatgen
data_Sb3O14
_symmetry_space_group_name_H-M   'P 1'
_cell_length_a   14.98145400
_cell_length_b   5.71053000
_cell_length_c   5.75846128
_cell_angle_alpha   73.43327741
_cell_angle_beta   90.00000000
_cell_angle_gamma   90.00000000
_symmetry_Int_Tables_number   1
_chemical_formula_structural   Sb3O14
_chemical_formula_sum   'Sb6 O28'
_cell_volume   472.19748337
_cell_formula_units_Z   2
loop_
 _symmetry_equiv_pos_site_id
 _symmetry_equiv_pos_as_xyz
  1  'x, y, z'
loop_
 _atom_site_type_symbol
 _atom_site_label
 _atom_site_symmetry_multiplicity
 _atom_site_fract_x
 _atom_site_fract_y
 _atom_site_fract_z
 _atom_site_occupancy
  Sb  Sb0  1  0.50000000  0.00000000  0.00000000  1
  Sb  Sb1  1  0.00000000  0.00000000  0.00000000  1
  Sb  Sb2  1  0.41922100  0.40077500  0.36334300  1
  Sb  Sb3  1  0.91922100  0.59922500  0.63665700  1
  Sb  Sb4  1  0.58077900  0.59922500  0.63665700  1
  Sb  Sb5  1  0.08077900  0.40077500  0.36334300  1
  O  O6  1  0.25000000  0.88723600  0.84194900  1
  O  O7  1  0.75000000  0.11276400  0.15805100  1
  O  O8  1  0.25000000  0.15081000  0.31472800  1
  O  O9  1  0.75000000  0.84919000  0.68527200  1
  O  O10  1  0.49933600  0.77827300  0.78472600  1
  O  O11  1  0.99933600  0.22172700  0.21527400  1
  O  O12  1  0.50066400  0.22172700  0.21527400  1
  O  O13  1  0.00066400  0.77827300  0.78472600  1
  O  O14  1  0.65137700  0.40906100  0.91812300  1
  O  O15  1  0.15137700  0.59093900  0.08187700  1
  O  O16  1  0.34862300  0.59093900  0.08187700  1
  O  O17  1  0.84862300  0.40906100  0.91812300  1
  O  O18  1  0.67517800  0.91055500  0.54348900  1
  O  O19  1  0.17517800  0.08944500  0.45651100  1
  O  O20  1  0.32482200  0.08944500  0.45651100  1
  O  O21  1  0.82482200  0.91055500  0.54348900  1
  O  O22  1  0.49236200  0.30763200  0.68205900  1
  O  O23  1  0.99236200  0.69236800  0.31794100  1
  O  O24  1  0.50763800  0.69236800  0.31794100  1
  O  O25  1  0.00763800  0.30763200  0.68205900  1
  O  O26  1  0.63072000  0.02861800  0.97477000  1
  O  O27  1  0.13072000  0.97138200  0.02523000  1
  O  O28  1  0.36928000  0.97138200  0.02523000  1
  O  O29  1  0.86928000  0.02861800  0.97477000  1
  O  O30  1  0.32598400  0.54635700  0.52203500  1
  O  O31  1  0.82598400  0.45364300  0.47796500  1
  O  O32  1  0.67401600  0.45364300  0.47796500  1
  O  O33  1  0.17401600  0.54635700  0.52203500  1
