# generated using pymatgen
data_Si8C3Cl20
_symmetry_space_group_name_H-M   'P 1'
_cell_length_a   17.12882313
_cell_length_b   17.12882313
_cell_length_c   20.79712907
_cell_angle_alpha   65.15310799
_cell_angle_beta   65.15310799
_cell_angle_gamma   38.46380047
_symmetry_Int_Tables_number   1
_chemical_formula_structural   Si8C3Cl20
_chemical_formula_sum   'Si32 C12 Cl80'
_cell_volume   3398.88017995
_cell_formula_units_Z   4
loop_
 _symmetry_equiv_pos_site_id
 _symmetry_equiv_pos_as_xyz
  1  'x, y, z'
loop_
 _atom_site_type_symbol
 _atom_site_label
 _atom_site_symmetry_multiplicity
 _atom_site_fract_x
 _atom_site_fract_y
 _atom_site_fract_z
 _atom_site_occupancy
  Si  Si0  1  0.01309500  0.83856900  0.70077900  1
  Si  Si1  1  0.16143100  0.98690500  0.79922100  1
  Si  Si2  1  0.98690500  0.16143100  0.29922100  1
  Si  Si3  1  0.83856900  0.01309500  0.20077900  1
  Si  Si4  1  0.09723800  0.61398200  0.66266500  1
  Si  Si5  1  0.38601800  0.90276200  0.83733500  1
  Si  Si6  1  0.90276200  0.38601800  0.33733500  1
  Si  Si7  1  0.61398200  0.09723800  0.16266500  1
  Si  Si8  1  0.31512100  0.44036600  0.54002500  1
  Si  Si9  1  0.55963400  0.68487900  0.95997500  1
  Si  Si10  1  0.68487900  0.55963400  0.45997500  1
  Si  Si11  1  0.44036600  0.31512100  0.04002500  1
  Si  Si12  1  0.36806400  0.25846500  0.47629500  1
  Si  Si13  1  0.74153500  0.63193600  0.02370500  1
  Si  Si14  1  0.63193600  0.74153500  0.52370500  1
  Si  Si15  1  0.25846500  0.36806400  0.97629500  1
  Si  Si16  1  0.31360000  0.48884500  0.37442500  1
  Si  Si17  1  0.51115500  0.68640000  0.12557500  1
  Si  Si18  1  0.68640000  0.51115500  0.62557500  1
  Si  Si19  1  0.48884500  0.31360000  0.87442500  1
  Si  Si20  1  0.10367500  0.56221300  0.51478200  1
  Si  Si21  1  0.43778700  0.89632500  0.98521800  1
  Si  Si22  1  0.89632500  0.43778700  0.48521800  1
  Si  Si23  1  0.56221300  0.10367500  0.01478200  1
  Si  Si24  1  0.07652100  0.76269000  0.54568100  1
  Si  Si25  1  0.23731000  0.92347900  0.95431900  1
  Si  Si26  1  0.92347900  0.23731000  0.45431900  1
  Si  Si27  1  0.76269000  0.07652100  0.04568100  1
  Si  Si28  1  0.81726700  0.89659400  0.65596800  1
  Si  Si29  1  0.10340600  0.18273300  0.84403200  1
  Si  Si30  1  0.18273300  0.10340600  0.34403200  1
  Si  Si31  1  0.89659400  0.81726700  0.15596800  1
  C  C32  1  0.99294900  0.79215400  0.64441900  1
  C  C33  1  0.20784600  0.00705100  0.85558100  1
  C  C34  1  0.00705100  0.20784600  0.35558100  1
  C  C35  1  0.79215400  0.99294900  0.14441900  1
  C  C36  1  0.14401900  0.59900100  0.56383200  1
  C  C37  1  0.40099900  0.85598100  0.93616800  1
  C  C38  1  0.85598100  0.40099900  0.43616800  1
  C  C39  1  0.59900100  0.14401900  0.06383200  1
  C  C40  1  0.27951900  0.42758300  0.47100100  1
  C  C41  1  0.57241700  0.72048100  0.02899900  1
  C  C42  1  0.72048100  0.57241700  0.52899900  1
  C  C43  1  0.42758300  0.27951900  0.97100100  1
  Cl  Cl44  1  0.87090000  0.03095600  0.69861400  1
  Cl  Cl45  1  0.96904400  0.12910000  0.80138600  1
  Cl  Cl46  1  0.12910000  0.96904400  0.30138600  1
  Cl  Cl47  1  0.03095600  0.87090000  0.19861400  1
  Cl  Cl48  1  0.17718400  0.78706500  0.67205900  1
  Cl  Cl49  1  0.21293500  0.82281600  0.82794100  1
  Cl  Cl50  1  0.82281600  0.21293500  0.32794100  1
  Cl  Cl51  1  0.78706500  0.17718400  0.17205900  1
  Cl  Cl52  1  0.00760900  0.75769300  0.80624700  1
  Cl  Cl53  1  0.24230700  0.99239100  0.69375300  1
  Cl  Cl54  1  0.99239100  0.24230700  0.19375300  1
  Cl  Cl55  1  0.75769300  0.00760900  0.30624700  1
  Cl  Cl56  1  0.02056800  0.55548900  0.73696200  1
  Cl  Cl57  1  0.44451100  0.97943200  0.76303800  1
  Cl  Cl58  1  0.97943200  0.44451100  0.26303800  1
  Cl  Cl59  1  0.55548900  0.02056800  0.23696200  1
  Cl  Cl60  1  0.25539900  0.51745100  0.69740900  1
  Cl  Cl61  1  0.48254900  0.74460100  0.80259100  1
  Cl  Cl62  1  0.74460100  0.48254900  0.30259100  1
  Cl  Cl63  1  0.51745100  0.25539900  0.19740900  1
  Cl  Cl64  1  0.45964800  0.42024000  0.50787300  1
  Cl  Cl65  1  0.57976000  0.54035200  0.99212700  1
  Cl  Cl66  1  0.54035200  0.57976000  0.49212700  1
  Cl  Cl67  1  0.42024000  0.45964800  0.00787300  1
  Cl  Cl68  1  0.35924100  0.30120900  0.62740900  1
  Cl  Cl69  1  0.69879100  0.64075900  0.87259100  1
  Cl  Cl70  1  0.64075900  0.69879100  0.37259100  1
  Cl  Cl71  1  0.30120900  0.35924100  0.12740900  1
  Cl  Cl72  1  0.36451900  0.23749300  0.38806800  1
  Cl  Cl73  1  0.76250700  0.63548100  0.11193200  1
  Cl  Cl74  1  0.63548100  0.76250700  0.61193200  1
  Cl  Cl75  1  0.23749300  0.36451900  0.88806800  1
  Cl  Cl76  1  0.30406000  0.19391900  0.56168100  1
  Cl  Cl77  1  0.80608100  0.69594000  0.93831900  1
  Cl  Cl78  1  0.69594000  0.80608100  0.43831900  1
  Cl  Cl79  1  0.19391900  0.30406000  0.06168100  1
  Cl  Cl80  1  0.55573700  0.13067500  0.48124700  1
  Cl  Cl81  1  0.86932500  0.44426300  0.01875300  1
  Cl  Cl82  1  0.44426300  0.86932500  0.51875300  1
  Cl  Cl83  1  0.13067500  0.55573700  0.98124700  1
  Cl  Cl84  1  0.25397800  0.65145000  0.37004800  1
  Cl  Cl85  1  0.34855000  0.74602200  0.12995200  1
  Cl  Cl86  1  0.74602200  0.34855000  0.62995200  1
  Cl  Cl87  1  0.65145000  0.25397800  0.87004800  1
  Cl  Cl88  1  0.22602500  0.53334600  0.30305300  1
  Cl  Cl89  1  0.46665400  0.77397500  0.19694700  1
  Cl  Cl90  1  0.77397500  0.46665400  0.69694700  1
  Cl  Cl91  1  0.53334600  0.22602500  0.80305300  1
  Cl  Cl92  1  0.50354000  0.36100400  0.33400900  1
  Cl  Cl93  1  0.63899600  0.49646000  0.16599100  1
  Cl  Cl94  1  0.49646000  0.63899600  0.66599100  1
  Cl  Cl95  1  0.36100400  0.50354000  0.83400900  1
  Cl  Cl96  1  0.98363900  0.70387700  0.44152000  1
  Cl  Cl97  1  0.29612300  0.01636100  0.05848000  1
  Cl  Cl98  1  0.01636100  0.29612300  0.55848000  1
  Cl  Cl99  1  0.70387700  0.98363900  0.94152000  1
  Cl  Cl100  1  0.02588200  0.50213000  0.58353000  1
  Cl  Cl101  1  0.49787000  0.97411800  0.91647000  1
  Cl  Cl102  1  0.97411800  0.49787000  0.41647000  1
  Cl  Cl103  1  0.50213000  0.02588200  0.08353000  1
  Cl  Cl104  1  0.95455800  0.90385200  0.47310300  1
  Cl  Cl105  1  0.09614800  0.04544200  0.02689700  1
  Cl  Cl106  1  0.04544200  0.09614800  0.52689700  1
  Cl  Cl107  1  0.90385200  0.95455800  0.97310300  1
  Cl  Cl108  1  0.21460400  0.75242300  0.51204000  1
  Cl  Cl109  1  0.24757700  0.78539600  0.98796000  1
  Cl  Cl110  1  0.78539600  0.24757700  0.48796000  1
  Cl  Cl111  1  0.75242300  0.21460400  0.01204000  1
  Cl  Cl112  1  0.73629200  0.90047400  0.76177500  1
  Cl  Cl113  1  0.09952600  0.26370800  0.73822500  1
  Cl  Cl114  1  0.26370800  0.09952600  0.23822500  1
  Cl  Cl115  1  0.90047400  0.73629200  0.26177500  1
  Cl  Cl116  1  0.70663300  0.08166700  0.60771600  1
  Cl  Cl117  1  0.91833300  0.29336700  0.89228400  1
  Cl  Cl118  1  0.29336700  0.91833300  0.39228400  1
  Cl  Cl119  1  0.08166700  0.70663300  0.10771600  1
  Cl  Cl120  1  0.79634800  0.82567800  0.61392600  1
  Cl  Cl121  1  0.17432200  0.20365200  0.88607400  1
  Cl  Cl122  1  0.20365200  0.17432200  0.38607400  1
  Cl  Cl123  1  0.82567800  0.79634800  0.11392600  1
