# generated using pymatgen
data_KH(CO2)2
_symmetry_space_group_name_H-M   'P 1'
_cell_length_a   4.48989100
_cell_length_b   12.92375700
_cell_length_c   7.99029138
_cell_angle_alpha   90.00000000
_cell_angle_beta   105.45827711
_cell_angle_gamma   90.00000000
_symmetry_Int_Tables_number   1
_chemical_formula_structural   KH(CO2)2
_chemical_formula_sum   'K4 H4 C8 O16'
_cell_volume   446.87421444
_cell_formula_units_Z   4
loop_
 _symmetry_equiv_pos_site_id
 _symmetry_equiv_pos_as_xyz
  1  'x, y, z'
loop_
 _atom_site_type_symbol
 _atom_site_label
 _atom_site_symmetry_multiplicity
 _atom_site_fract_x
 _atom_site_fract_y
 _atom_site_fract_z
 _atom_site_occupancy
  K  K0  1  0.31380000  0.93271400  0.22722900  1
  K  K1  1  0.68620000  0.43271400  0.27277100  1
  K  K2  1  0.68620000  0.06728600  0.77277100  1
  K  K3  1  0.31380000  0.56728600  0.72722900  1
  H  H4  1  0.64030900  0.77530000  0.98228000  1
  H  H5  1  0.35969100  0.27530000  0.51772000  1
  H  H6  1  0.35969100  0.22470000  0.01772000  1
  H  H7  1  0.64030900  0.72470000  0.48228000  1
  C  C8  1  0.18579500  0.65241700  0.28887800  1
  C  C9  1  0.81420500  0.15241700  0.21112200  1
  C  C10  1  0.81420500  0.34758300  0.71112200  1
  C  C11  1  0.18579500  0.84758300  0.78887800  1
  C  C12  1  0.90250600  0.67207800  0.12921800  1
  C  C13  1  0.09749400  0.17207800  0.37078200  1
  C  C14  1  0.09749400  0.32792200  0.87078200  1
  C  C15  1  0.90250600  0.82792200  0.62921800  1
  O  O16  1  0.20893300  0.56384700  0.35541100  1
  O  O17  1  0.79106700  0.06384700  0.14458900  1
  O  O18  1  0.79106700  0.43615300  0.64458900  1
  O  O19  1  0.20893300  0.93615300  0.85541100  1
  O  O20  1  0.36833200  0.72887100  0.33643300  1
  O  O21  1  0.63166800  0.22887100  0.16356700  1
  O  O22  1  0.63166800  0.27112900  0.66356700  1
  O  O23  1  0.36833200  0.77112900  0.83643300  1
  O  O24  1  0.74861700  0.59907700  0.05223800  1
  O  O25  1  0.25138300  0.09907700  0.44776200  1
  O  O26  1  0.25138300  0.40092300  0.94776200  1
  O  O27  1  0.74861700  0.90092300  0.55223800  1
  O  O28  1  0.84490700  0.77060400  0.08801300  1
  O  O29  1  0.15509300  0.27060400  0.41198700  1
  O  O30  1  0.15509300  0.22939600  0.91198700  1
  O  O31  1  0.84490700  0.72939600  0.58801300  1
