# generated using pymatgen
data_YbHSO5
_symmetry_space_group_name_H-M   'P 1'
_cell_length_a   8.07154600
_cell_length_b   11.25710900
_cell_length_c   11.22715288
_cell_angle_alpha   90.00000000
_cell_angle_beta   132.51785715
_cell_angle_gamma   90.00000000
_symmetry_Int_Tables_number   1
_chemical_formula_structural   YbHSO5
_chemical_formula_sum   'Yb8 H8 S8 O40'
_cell_volume   751.89993890
_cell_formula_units_Z   8
loop_
 _symmetry_equiv_pos_site_id
 _symmetry_equiv_pos_as_xyz
  1  'x, y, z'
loop_
 _atom_site_type_symbol
 _atom_site_label
 _atom_site_symmetry_multiplicity
 _atom_site_fract_x
 _atom_site_fract_y
 _atom_site_fract_z
 _atom_site_occupancy
  Yb  Yb0  1  0.21442700  0.06146600  0.37112000  1
  Yb  Yb1  1  0.21442700  0.43853400  0.87112000  1
  Yb  Yb2  1  0.78557300  0.93853400  0.62888000  1
  Yb  Yb3  1  0.78557300  0.56146600  0.12888000  1
  Yb  Yb4  1  0.73001500  0.07266900  0.91353900  1
  Yb  Yb5  1  0.73001500  0.42733100  0.41353900  1
  Yb  Yb6  1  0.26998500  0.92733100  0.08646100  1
  Yb  Yb7  1  0.26998500  0.57266900  0.58646100  1
  H  H8  1  0.97289000  0.87688200  0.13187200  1
  H  H9  1  0.97289000  0.62311800  0.63187200  1
  H  H10  1  0.02711000  0.12311800  0.86812800  1
  H  H11  1  0.02711000  0.37688200  0.36812800  1
  H  H12  1  0.54138200  0.09100800  0.35318800  1
  H  H13  1  0.54138200  0.40899200  0.85318800  1
  H  H14  1  0.45861800  0.90899200  0.64681200  1
  H  H15  1  0.45861800  0.59100800  0.14681200  1
  S  S16  1  0.59042100  0.30676100  0.63295600  1
  S  S17  1  0.59042100  0.19323900  0.13295600  1
  S  S18  1  0.40957900  0.69323900  0.36704400  1
  S  S19  1  0.40957900  0.80676100  0.86704400  1
  S  S20  1  0.13385300  0.17193600  0.63409500  1
  S  S21  1  0.13385300  0.32806400  0.13409500  1
  S  S22  1  0.86614700  0.82806400  0.36590500  1
  S  S23  1  0.86614700  0.67193600  0.86590500  1
  O  O24  1  0.95862900  0.09392800  0.60184700  1
  O  O25  1  0.95862900  0.40607200  0.10184700  1
  O  O26  1  0.04137100  0.90607200  0.39815300  1
  O  O27  1  0.04137100  0.59392800  0.89815300  1
  O  O28  1  0.35398300  0.12606000  0.78088800  1
  O  O29  1  0.35398300  0.37394000  0.28088800  1
  O  O30  1  0.64601700  0.87394000  0.21911200  1
  O  O31  1  0.64601700  0.62606000  0.71911200  1
  O  O32  1  0.12281000  0.16883200  0.49748400  1
  O  O33  1  0.12281000  0.33116800  0.99748400  1
  O  O34  1  0.87719000  0.83116800  0.50251600  1
  O  O35  1  0.87719000  0.66883200  0.00251600  1
  O  O36  1  0.09651200  0.29630500  0.65889000  1
  O  O37  1  0.09651200  0.20369500  0.15889000  1
  O  O38  1  0.90348800  0.70369500  0.34111000  1
  O  O39  1  0.90348800  0.79630500  0.84111000  1
  O  O40  1  0.41158000  0.39542100  0.57403200  1
  O  O41  1  0.41158000  0.10457900  0.07403200  1
  O  O42  1  0.58842000  0.60457900  0.42596800  1
  O  O43  1  0.58842000  0.89542100  0.92596800  1
  O  O44  1  0.76451700  0.37091900  0.64700300  1
  O  O45  1  0.76451700  0.12908100  0.14700300  1
  O  O46  1  0.23548300  0.62908100  0.35299700  1
  O  O47  1  0.23548300  0.87091900  0.85299700  1
  O  O48  1  0.50051800  0.20766300  0.51793400  1
  O  O49  1  0.50051800  0.29233700  0.01793400  1
  O  O50  1  0.49948200  0.79233700  0.48206600  1
  O  O51  1  0.49948200  0.70766300  0.98206600  1
  O  O52  1  0.67977400  0.26204600  0.79118800  1
  O  O53  1  0.67977400  0.23795400  0.29118800  1
  O  O54  1  0.32022600  0.73795400  0.20881200  1
  O  O55  1  0.32022600  0.76204600  0.70881200  1
  O  O56  1  0.03091800  0.95361600  0.13253600  1
  O  O57  1  0.03091800  0.54638400  0.63253600  1
  O  O58  1  0.96908200  0.04638400  0.86746400  1
  O  O59  1  0.96908200  0.45361600  0.36746400  1
  O  O60  1  0.48387100  0.01445500  0.35413300  1
  O  O61  1  0.48387100  0.48554500  0.85413300  1
  O  O62  1  0.51612900  0.98554500  0.64586700  1
  O  O63  1  0.51612900  0.51445500  0.14586700  1
