# generated using pymatgen
data_PuH24C8N2(Cl2O)2
_symmetry_space_group_name_H-M   'P 1'
_cell_length_a   9.62034700
_cell_length_b   9.62034700
_cell_length_c   12.29437300
_cell_angle_alpha   90.00000000
_cell_angle_beta   90.00000000
_cell_angle_gamma   90.00000000
_symmetry_Int_Tables_number   1
_chemical_formula_structural   PuH24C8N2(Cl2O)2
_chemical_formula_sum   'Pu2 H48 C16 N4 Cl8 O4'
_cell_volume   1137.85745482
_cell_formula_units_Z   2
loop_
 _symmetry_equiv_pos_site_id
 _symmetry_equiv_pos_as_xyz
  1  'x, y, z'
loop_
 _atom_site_type_symbol
 _atom_site_label
 _atom_site_symmetry_multiplicity
 _atom_site_fract_x
 _atom_site_fract_y
 _atom_site_fract_z
 _atom_site_occupancy
  Pu  Pu0  1  0.50000000  0.50000000  0.50000000  1
  Pu  Pu1  1  0.00000000  0.00000000  0.00000000  1
  H  H2  1  0.47512800  0.15320600  0.12867100  1
  H  H3  1  0.52487200  0.84679400  0.12867100  1
  H  H4  1  0.02487200  0.65320600  0.62867100  1
  H  H5  1  0.97512800  0.34679400  0.62867100  1
  H  H6  1  0.52487200  0.84679400  0.87132900  1
  H  H7  1  0.47512800  0.15320600  0.87132900  1
  H  H8  1  0.97512800  0.34679400  0.37132900  1
  H  H9  1  0.02487200  0.65320600  0.37132900  1
  H  H10  1  0.15320600  0.47512800  0.12867100  1
  H  H11  1  0.84679400  0.52487200  0.12867100  1
  H  H12  1  0.65320600  0.02487200  0.62867100  1
  H  H13  1  0.34679400  0.97512800  0.62867100  1
  H  H14  1  0.84679400  0.52487200  0.87132900  1
  H  H15  1  0.15320600  0.47512800  0.87132900  1
  H  H16  1  0.34679400  0.97512800  0.37132900  1
  H  H17  1  0.65320600  0.02487200  0.37132900  1
  H  H18  1  0.60008000  0.19410500  0.23251200  1
  H  H19  1  0.39992000  0.80589500  0.23251200  1
  H  H20  1  0.89992000  0.69410500  0.73251200  1
  H  H21  1  0.10008000  0.30589500  0.73251200  1
  H  H22  1  0.39992000  0.80589500  0.76748800  1
  H  H23  1  0.60008000  0.19410500  0.76748800  1
  H  H24  1  0.10008000  0.30589500  0.26748800  1
  H  H25  1  0.89992000  0.69410500  0.26748800  1
  H  H26  1  0.19410500  0.60008000  0.23251200  1
  H  H27  1  0.80589500  0.39992000  0.23251200  1
  H  H28  1  0.69410500  0.89992000  0.73251200  1
  H  H29  1  0.30589500  0.10008000  0.73251200  1
  H  H30  1  0.80589500  0.39992000  0.76748800  1
  H  H31  1  0.19410500  0.60008000  0.76748800  1
  H  H32  1  0.30589500  0.10008000  0.26748800  1
  H  H33  1  0.69410500  0.89992000  0.26748800  1
  H  H34  1  0.64225100  0.06782900  0.12935500  1
  H  H35  1  0.35774900  0.93217100  0.12935500  1
  H  H36  1  0.85774900  0.56782900  0.62935500  1
  H  H37  1  0.14225100  0.43217100  0.62935500  1
  H  H38  1  0.35774900  0.93217100  0.87064500  1
  H  H39  1  0.64225100  0.06782900  0.87064500  1
  H  H40  1  0.14225100  0.43217100  0.37064500  1
  H  H41  1  0.85774900  0.56782900  0.37064500  1
  H  H42  1  0.06782900  0.64225100  0.12935500  1
  H  H43  1  0.93217100  0.35774900  0.12935500  1
  H  H44  1  0.56782900  0.85774900  0.62935500  1
  H  H45  1  0.43217100  0.14225100  0.62935500  1
  H  H46  1  0.93217100  0.35774900  0.87064500  1
  H  H47  1  0.06782900  0.64225100  0.87064500  1
  H  H48  1  0.43217100  0.14225100  0.37064500  1
  H  H49  1  0.56782900  0.85774900  0.37064500  1
  C  C50  1  0.55942500  0.11267400  0.17929000  1
  C  C51  1  0.44057500  0.88732600  0.17929000  1
  C  C52  1  0.94057500  0.61267400  0.67929000  1
  C  C53  1  0.05942500  0.38732600  0.67929000  1
  C  C54  1  0.44057500  0.88732600  0.82071000  1
  C  C55  1  0.55942500  0.11267400  0.82071000  1
  C  C56  1  0.05942500  0.38732600  0.32071000  1
  C  C57  1  0.94057500  0.61267400  0.32071000  1
  C  C58  1  0.11267400  0.55942500  0.17929000  1
  C  C59  1  0.88732600  0.44057500  0.17929000  1
  C  C60  1  0.61267400  0.94057500  0.67929000  1
  C  C61  1  0.38732600  0.05942500  0.67929000  1
  C  C62  1  0.88732600  0.44057500  0.82071000  1
  C  C63  1  0.11267400  0.55942500  0.82071000  1
  C  C64  1  0.38732600  0.05942500  0.32071000  1
  C  C65  1  0.61267400  0.94057500  0.32071000  1
  N  N66  1  0.50000000  0.00000000  0.25000000  1
  N  N67  1  0.00000000  0.50000000  0.75000000  1
  N  N68  1  0.50000000  0.00000000  0.75000000  1
  N  N69  1  0.00000000  0.50000000  0.25000000  1
  Cl  Cl70  1  0.50000000  0.50000000  0.28526200  1
  Cl  Cl71  1  0.00000000  0.00000000  0.78526200  1
  Cl  Cl72  1  0.50000000  0.50000000  0.71473800  1
  Cl  Cl73  1  0.00000000  0.00000000  0.21473800  1
  Cl  Cl74  1  0.69650400  0.30349500  0.50000000  1
  Cl  Cl75  1  0.30349500  0.69650400  0.50000000  1
  Cl  Cl76  1  0.80349600  0.80349600  0.00000000  1
  Cl  Cl77  1  0.19650400  0.19650400  0.00000000  1
  O  O78  1  0.36814200  0.36814200  0.50000000  1
  O  O79  1  0.63185800  0.63185800  0.50000000  1
  O  O80  1  0.13185800  0.86814200  0.00000000  1
  O  O81  1  0.86814200  0.13185800  0.00000000  1
