# generated using pymatgen
data_Ca(GaS2)2
_symmetry_space_group_name_H-M   'P 1'
_cell_length_a   27.40971500
_cell_length_b   6.92810200
_cell_length_c   7.32255816
_cell_angle_alpha   70.65262853
_cell_angle_beta   90.00000000
_cell_angle_gamma   90.00000000
_symmetry_Int_Tables_number   1
_chemical_formula_structural   Ca(GaS2)2
_chemical_formula_sum   'Ca8 Ga16 S32'
_cell_volume   1312.00691127
_cell_formula_units_Z   8
loop_
 _symmetry_equiv_pos_site_id
 _symmetry_equiv_pos_as_xyz
  1  'x, y, z'
loop_
 _atom_site_type_symbol
 _atom_site_label
 _atom_site_symmetry_multiplicity
 _atom_site_fract_x
 _atom_site_fract_y
 _atom_site_fract_z
 _atom_site_occupancy
  Ca  Ca0  1  0.42920500  0.05777300  0.32678500  1
  Ca  Ca1  1  0.92920500  0.44222700  0.67321500  1
  Ca  Ca2  1  0.57079500  0.94222700  0.67321500  1
  Ca  Ca3  1  0.07079500  0.55777300  0.32678500  1
  Ca  Ca4  1  0.30686400  0.59706000  0.95616000  1
  Ca  Ca5  1  0.80686400  0.90294000  0.04384000  1
  Ca  Ca6  1  0.69313600  0.40294000  0.04384000  1
  Ca  Ca7  1  0.19313600  0.09706000  0.95616000  1
  Ga  Ga8  1  0.26573700  0.91760400  0.45022300  1
  Ga  Ga9  1  0.76573700  0.58239600  0.54977700  1
  Ga  Ga10  1  0.73426300  0.08239600  0.54977700  1
  Ga  Ga11  1  0.23426300  0.41760400  0.45022300  1
  Ga  Ga12  1  0.34985700  0.13166200  0.70961200  1
  Ga  Ga13  1  0.84985700  0.36833800  0.29038800  1
  Ga  Ga14  1  0.65014300  0.86833800  0.29038800  1
  Ga  Ga15  1  0.15014300  0.63166200  0.70961200  1
  Ga  Ga16  1  0.44777200  0.44735300  0.72919200  1
  Ga  Ga17  1  0.94777200  0.05264700  0.27080800  1
  Ga  Ga18  1  0.55222800  0.55264700  0.27080800  1
  Ga  Ga19  1  0.05222800  0.94735300  0.72919200  1
  Ga  Ga20  1  0.43575200  0.73332600  0.98484000  1
  Ga  Ga21  1  0.93575200  0.76667400  0.01516000  1
  Ga  Ga22  1  0.56424800  0.26667400  0.01516000  1
  Ga  Ga23  1  0.06424800  0.23332600  0.98484000  1
  S  S24  1  0.40284300  0.41529000  0.01043300  1
  S  S25  1  0.90284300  0.08471000  0.98956700  1
  S  S26  1  0.59715700  0.58471000  0.98956700  1
  S  S27  1  0.09715700  0.91529000  0.01043300  1
  S  S28  1  0.40099400  0.36414900  0.50902700  1
  S  S29  1  0.90099400  0.13585100  0.49097300  1
  S  S30  1  0.59900600  0.63585100  0.49097300  1
  S  S31  1  0.09900600  0.86414900  0.50902700  1
  S  S32  1  0.24688400  0.74475700  0.24297500  1
  S  S33  1  0.74688400  0.75524300  0.75702500  1
  S  S34  1  0.75311600  0.25524300  0.75702500  1
  S  S35  1  0.25311600  0.24475700  0.24297500  1
  S  S36  1  0.34275300  0.87274600  0.57235900  1
  S  S37  1  0.84275300  0.62725400  0.42764100  1
  S  S38  1  0.65724700  0.12725400  0.42764100  1
  S  S39  1  0.15724700  0.37274600  0.57235900  1
  S  S40  1  0.47069900  0.78307600  0.68604300  1
  S  S41  1  0.97069900  0.71692400  0.31395700  1
  S  S42  1  0.52930100  0.21692400  0.31395700  1
  S  S43  1  0.02930100  0.28307600  0.68604300  1
  S  S44  1  0.22100800  0.80634800  0.73820700  1
  S  S45  1  0.72100800  0.69365200  0.26179300  1
  S  S46  1  0.77899200  0.19365200  0.26179300  1
  S  S47  1  0.27899200  0.30634800  0.73820700  1
  S  S48  1  0.51382600  0.23577800  0.78381500  1
  S  S49  1  0.01382600  0.26422200  0.21618500  1
  S  S50  1  0.48617400  0.76422200  0.21618500  1
  S  S51  1  0.98617400  0.73577800  0.78381500  1
  S  S52  1  0.37006300  0.92837300  0.02078100  1
  S  S53  1  0.87006300  0.57162700  0.97921900  1
  S  S54  1  0.62993700  0.07162700  0.97921900  1
  S  S55  1  0.12993700  0.42837300  0.02078100  1
