# generated using pymatgen
data_H12C2N14O
_symmetry_space_group_name_H-M   'P 1'
_cell_length_a   9.07812100
_cell_length_b   3.82205100
_cell_length_c   16.06799259
_cell_angle_alpha   90.00000000
_cell_angle_beta   96.58186454
_cell_angle_gamma   90.00000000
_symmetry_Int_Tables_number   1
_chemical_formula_structural   H12C2N14O
_chemical_formula_sum   'H24 C4 N28 O2'
_cell_volume   553.83729830
_cell_formula_units_Z   2
loop_
 _symmetry_equiv_pos_site_id
 _symmetry_equiv_pos_as_xyz
  1  'x, y, z'
loop_
 _atom_site_type_symbol
 _atom_site_label
 _atom_site_symmetry_multiplicity
 _atom_site_fract_x
 _atom_site_fract_y
 _atom_site_fract_z
 _atom_site_occupancy
  H  H0  1  0.45024100  0.31414700  0.37145000  1
  H  H1  1  0.54975900  0.31414700  0.12855000  1
  H  H2  1  0.54975900  0.68585300  0.62855000  1
  H  H3  1  0.45024100  0.68585300  0.87145000  1
  H  H4  1  0.14304600  0.45954800  0.32749300  1
  H  H5  1  0.85695400  0.45954800  0.17250700  1
  H  H6  1  0.85695400  0.54045200  0.67250700  1
  H  H7  1  0.14304600  0.54045200  0.82749300  1
  H  H8  1  0.23429100  0.45723800  0.42812800  1
  H  H9  1  0.76570900  0.45723800  0.07187200  1
  H  H10  1  0.76570900  0.54276200  0.57187200  1
  H  H11  1  0.23429100  0.54276200  0.92812800  1
  H  H12  1  0.27939200  0.76862200  0.35585000  1
  H  H13  1  0.72060800  0.76862200  0.14415000  1
  H  H14  1  0.72060800  0.23137800  0.64415000  1
  H  H15  1  0.27939200  0.23137800  0.85585000  1
  H  H16  1  0.06179700  0.90046000  0.71840800  1
  H  H17  1  0.93820300  0.90046000  0.78159200  1
  H  H18  1  0.93820300  0.09954000  0.28159200  1
  H  H19  1  0.06179700  0.09954000  0.21840800  1
  H  H20  1  0.35706900  0.29867700  0.27698800  1
  H  H21  1  0.64293100  0.29867700  0.22301200  1
  H  H22  1  0.64293100  0.70132300  0.72301200  1
  H  H23  1  0.35706900  0.70132300  0.77698800  1
  C  C24  1  0.14321000  0.15213200  0.57261500  1
  C  C25  1  0.85679000  0.15213200  0.92738500  1
  C  C26  1  0.85679000  0.84786800  0.42738500  1
  C  C27  1  0.14321000  0.84786800  0.07261500  1
  N  N28  1  0.35258300  0.40755500  0.59382400  1
  N  N29  1  0.64741700  0.40755500  0.90617600  1
  N  N30  1  0.64741700  0.59244500  0.40617600  1
  N  N31  1  0.35258300  0.59244500  0.09382400  1
  N  N32  1  0.00985400  0.00515700  0.54002900  1
  N  N33  1  0.99014600  0.00515700  0.95997100  1
  N  N34  1  0.99014600  0.99484300  0.45997100  1
  N  N35  1  0.00985400  0.99484300  0.04002900  1
  N  N36  1  0.18157900  0.14942400  0.65635300  1
  N  N37  1  0.81842100  0.14942400  0.84364700  1
  N  N38  1  0.81842100  0.85057600  0.34364700  1
  N  N39  1  0.18157900  0.85057600  0.15635300  1
  N  N40  1  0.24833000  0.31207700  0.53294600  1
  N  N41  1  0.75167000  0.31207700  0.96705400  1
  N  N42  1  0.75167000  0.68792300  0.46705400  1
  N  N43  1  0.24833000  0.68792300  0.03294600  1
  N  N44  1  0.31296400  0.30835000  0.66822200  1
  N  N45  1  0.68703600  0.30835000  0.83177800  1
  N  N46  1  0.68703600  0.69165000  0.33177800  1
  N  N47  1  0.31296400  0.69165000  0.16822200  1
  N  N48  1  0.24450800  0.50836100  0.36386800  1
  N  N49  1  0.75549200  0.50836100  0.13613200  1
  N  N50  1  0.75549200  0.49163900  0.63613200  1
  N  N51  1  0.24450800  0.49163900  0.86386800  1
  N  N52  1  0.34850600  0.24969900  0.33928600  1
  N  N53  1  0.65149400  0.24969900  0.16071400  1
  N  N54  1  0.65149400  0.75030100  0.66071400  1
  N  N55  1  0.34850600  0.75030100  0.83928600  1
  O  O56  1  0.00000000  0.74281700  0.75000000  1
  O  O57  1  0.00000000  0.25718300  0.25000000  1
