# generated using pymatgen
data_Na2CoH4(CO2)4
_symmetry_space_group_name_H-M   'P 1'
_cell_length_a   9.23774087
_cell_length_b   9.23774087
_cell_length_c   6.88911344
_cell_angle_alpha   74.36323531
_cell_angle_beta   74.36323531
_cell_angle_gamma   58.10004770
_symmetry_Int_Tables_number   1
_chemical_formula_structural   Na2CoH4(CO2)4
_chemical_formula_sum   'Na4 Co2 H8 C8 O16'
_cell_volume   474.78496917
_cell_formula_units_Z   2
loop_
 _symmetry_equiv_pos_site_id
 _symmetry_equiv_pos_as_xyz
  1  'x, y, z'
loop_
 _atom_site_type_symbol
 _atom_site_label
 _atom_site_symmetry_multiplicity
 _atom_site_fract_x
 _atom_site_fract_y
 _atom_site_fract_z
 _atom_site_occupancy
  Na  Na0  1  0.70164000  0.50675200  0.81621600  1
  Na  Na1  1  0.49324800  0.29836000  0.68378400  1
  Na  Na2  1  0.29836000  0.49324800  0.18378400  1
  Na  Na3  1  0.50675200  0.70164000  0.31621600  1
  Co  Co4  1  0.00000000  0.50000000  0.00000000  1
  Co  Co5  1  0.50000000  0.00000000  0.50000000  1
  H  H6  1  0.08579800  0.77044400  0.62605800  1
  H  H7  1  0.22955600  0.91420200  0.87394200  1
  H  H8  1  0.91420200  0.22955600  0.37394200  1
  H  H9  1  0.77044400  0.08579800  0.12605800  1
  H  H10  1  0.79997500  0.90154400  0.90762800  1
  H  H11  1  0.09845600  0.20002500  0.59237200  1
  H  H12  1  0.20002500  0.09845600  0.09237200  1
  H  H13  1  0.90154400  0.79997500  0.40762800  1
  C  C14  1  0.74694200  0.86345200  0.81612700  1
  C  C15  1  0.13654800  0.25305800  0.68387300  1
  C  C16  1  0.25305800  0.13654800  0.18387300  1
  C  C17  1  0.86345200  0.74694200  0.31612700  1
  C  C18  1  0.19615000  0.63621300  0.64170700  1
  C  C19  1  0.36378700  0.80385000  0.85829300  1
  C  C20  1  0.80385000  0.36378700  0.35829300  1
  C  C21  1  0.63621300  0.19615000  0.14170700  1
  O  O22  1  0.20053300  0.54411500  0.81812900  1
  O  O23  1  0.45588500  0.79946700  0.68187100  1
  O  O24  1  0.79946700  0.45588500  0.18187100  1
  O  O25  1  0.54411500  0.20053300  0.31812900  1
  O  O26  1  0.80040000  0.70417100  0.82896700  1
  O  O27  1  0.29582900  0.19960000  0.67103300  1
  O  O28  1  0.19960000  0.29582900  0.17103300  1
  O  O29  1  0.70417100  0.80040000  0.32896700  1
  O  O30  1  0.63825400  0.98716000  0.70682400  1
  O  O31  1  0.01284000  0.36174600  0.79317600  1
  O  O32  1  0.36174600  0.01284000  0.29317600  1
  O  O33  1  0.98716000  0.63825400  0.20682400  1
  O  O34  1  0.30808300  0.58673700  0.48666400  1
  O  O35  1  0.41326300  0.69191700  0.01333600  1
  O  O36  1  0.69191700  0.41326300  0.51333600  1
  O  O37  1  0.58673700  0.30808300  0.98666400  1
