# generated using pymatgen
data_Rb2U2Cl4O7
_symmetry_space_group_name_H-M   'P 1'
_cell_length_a   8.65589000
_cell_length_b   8.73417600
_cell_length_c   21.58183493
_cell_angle_alpha   69.29294373
_cell_angle_beta   90.00000000
_cell_angle_gamma   90.00000000
_symmetry_Int_Tables_number   1
_chemical_formula_structural   Rb2U2Cl4O7
_chemical_formula_sum   'Rb8 U8 Cl16 O28'
_cell_volume   1526.22874217
_cell_formula_units_Z   4
loop_
 _symmetry_equiv_pos_site_id
 _symmetry_equiv_pos_as_xyz
  1  'x, y, z'
loop_
 _atom_site_type_symbol
 _atom_site_label
 _atom_site_symmetry_multiplicity
 _atom_site_fract_x
 _atom_site_fract_y
 _atom_site_fract_z
 _atom_site_occupancy
  Rb  Rb0  1  0.24186300  0.42761700  0.43753000  1
  Rb  Rb1  1  0.74186300  0.57238300  0.06247000  1
  Rb  Rb2  1  0.75813700  0.57238300  0.56247000  1
  Rb  Rb3  1  0.25813700  0.42761700  0.93753000  1
  Rb  Rb4  1  0.44914000  0.19951900  0.24566800  1
  Rb  Rb5  1  0.94914000  0.80048100  0.25433200  1
  Rb  Rb6  1  0.55086000  0.80048100  0.75433200  1
  Rb  Rb7  1  0.05086000  0.19951900  0.74566800  1
  U  U8  1  0.11492800  0.93628400  0.43865900  1
  U  U9  1  0.61492800  0.06371600  0.06134100  1
  U  U10  1  0.88507200  0.06371600  0.56134100  1
  U  U11  1  0.38507200  0.93628400  0.93865900  1
  U  U12  1  0.29826900  0.71584500  0.12929300  1
  U  U13  1  0.79826900  0.28415500  0.37070700  1
  U  U14  1  0.70173100  0.28415500  0.87070700  1
  U  U15  1  0.20173100  0.71584500  0.62929300  1
  Cl  Cl16  1  0.26881600  0.84364800  0.34696100  1
  Cl  Cl17  1  0.76881600  0.15635200  0.15303900  1
  Cl  Cl18  1  0.73118400  0.15635200  0.65303900  1
  Cl  Cl19  1  0.23118400  0.84364800  0.84696100  1
  Cl  Cl20  1  0.23692300  0.51918500  0.25427400  1
  Cl  Cl21  1  0.73692300  0.48081500  0.24572600  1
  Cl  Cl22  1  0.76307700  0.48081500  0.74572600  1
  Cl  Cl23  1  0.26307700  0.51918500  0.75427400  1
  Cl  Cl24  1  0.15502200  0.70253800  0.01454000  1
  Cl  Cl25  1  0.65502200  0.29746200  0.48546000  1
  Cl  Cl26  1  0.84497800  0.29746200  0.98546000  1
  Cl  Cl27  1  0.34497800  0.70253800  0.51454000  1
  Cl  Cl28  1  0.48779800  0.87515900  0.18786000  1
  Cl  Cl29  1  0.98779800  0.12484100  0.31214000  1
  Cl  Cl30  1  0.51220200  0.12484100  0.81214000  1
  Cl  Cl31  1  0.01220200  0.87515900  0.68786000  1
  O  O32  1  0.24991800  0.10344900  0.42707100  1
  O  O33  1  0.74991800  0.89655100  0.07292900  1
  O  O34  1  0.75008200  0.89655100  0.57292900  1
  O  O35  1  0.25008200  0.10344900  0.92707100  1
  O  O36  1  0.48299800  0.23408900  0.05055400  1
  O  O37  1  0.98299800  0.76591100  0.44944600  1
  O  O38  1  0.51700200  0.76591100  0.94944600  1
  O  O39  1  0.01700200  0.23408900  0.55055400  1
  O  O40  1  0.13816100  0.84265800  0.13681000  1
  O  O41  1  0.63816100  0.15734200  0.36319000  1
  O  O42  1  0.86183900  0.15734200  0.86319000  1
  O  O43  1  0.36183900  0.84265800  0.63681000  1
  O  O44  1  0.44090700  0.56452200  0.12620400  1
  O  O45  1  0.94090700  0.43547800  0.37379600  1
  O  O46  1  0.55909300  0.43547800  0.87379600  1
  O  O47  1  0.05909300  0.56452200  0.62620400  1
  O  O48  1  0.41282800  0.90229000  0.04802400  1
  O  O49  1  0.91282800  0.09771000  0.45197600  1
  O  O50  1  0.58717200  0.09771000  0.95197600  1
  O  O51  1  0.08717200  0.90229000  0.54802400  1
  O  O52  1  0.08274900  0.42476700  0.14108200  1
  O  O53  1  0.58274900  0.57523300  0.35891800  1
  O  O54  1  0.91725100  0.57523300  0.85891800  1
  O  O55  1  0.41725100  0.42476700  0.64108200  1
  O  O56  1  0.13689000  0.30036900  0.13494800  1
  O  O57  1  0.63689000  0.69963100  0.36505200  1
  O  O58  1  0.86311000  0.69963100  0.86505200  1
  O  O59  1  0.36311000  0.30036900  0.63494800  1
