# generated using pymatgen
data_Co3Ag(AsO4)3
_symmetry_space_group_name_H-M   'P 1'
_cell_length_a   8.74162344
_cell_length_b   8.74162344
_cell_length_c   6.79058404
_cell_angle_alpha   74.37680346
_cell_angle_beta   74.37680346
_cell_angle_gamma   93.87137966
_symmetry_Int_Tables_number   1
_chemical_formula_structural   Co3Ag(AsO4)3
_chemical_formula_sum   'Co6 Ag2 As6 O24'
_cell_volume   475.75572212
_cell_formula_units_Z   2
loop_
 _symmetry_equiv_pos_site_id
 _symmetry_equiv_pos_as_xyz
  1  'x, y, z'
loop_
 _atom_site_type_symbol
 _atom_site_label
 _atom_site_symmetry_multiplicity
 _atom_site_fract_x
 _atom_site_fract_y
 _atom_site_fract_z
 _atom_site_occupancy
  Co  Co0  1  0.72406600  0.27593400  0.75000000  1
  Co  Co1  1  0.27593400  0.72406600  0.25000000  1
  Co  Co2  1  0.05389500  0.37604300  0.87492400  1
  Co  Co3  1  0.62395700  0.94610500  0.62507600  1
  Co  Co4  1  0.94610500  0.62395700  0.12507600  1
  Co  Co5  1  0.37604300  0.05389500  0.37492400  1
  Ag  Ag6  1  0.01271500  0.98728500  0.75000000  1
  Ag  Ag7  1  0.98728500  0.01271500  0.25000000  1
  As  As8  1  0.30485600  0.69514400  0.75000000  1
  As  As9  1  0.69514400  0.30485600  0.25000000  1
  As  As10  1  0.87843300  0.65358100  0.61809800  1
  As  As11  1  0.34641900  0.12156700  0.88190200  1
  As  As12  1  0.12156700  0.34641900  0.38190200  1
  As  As13  1  0.65358100  0.87843300  0.11809800  1
  O  O14  1  0.15081100  0.16406400  0.90022000  1
  O  O15  1  0.83593600  0.84918900  0.59978000  1
  O  O16  1  0.84918900  0.83593600  0.09978000  1
  O  O17  1  0.16406400  0.15081100  0.40022000  1
  O  O18  1  0.71995100  0.51620800  0.66511000  1
  O  O19  1  0.48379200  0.28004900  0.83489000  1
  O  O20  1  0.28004900  0.48379200  0.33489000  1
  O  O21  1  0.51620800  0.71995100  0.16511000  1
  O  O22  1  0.26169800  0.49524800  0.76698000  1
  O  O23  1  0.50475200  0.73830200  0.73302000  1
  O  O24  1  0.73830200  0.50475200  0.23302000  1
  O  O25  1  0.49524800  0.26169800  0.26698000  1
  O  O26  1  0.98145800  0.32561700  0.63088900  1
  O  O27  1  0.67438300  0.01854200  0.86911100  1
  O  O28  1  0.01854200  0.67438300  0.36911100  1
  O  O29  1  0.32561700  0.98145800  0.13088900  1
  O  O30  1  0.97486800  0.60213500  0.81839900  1
  O  O31  1  0.39786500  0.02513200  0.68160100  1
  O  O32  1  0.02513200  0.39786500  0.18160100  1
  O  O33  1  0.60213500  0.97486800  0.31839900  1
  O  O34  1  0.18566800  0.72709900  0.98158900  1
  O  O35  1  0.27290100  0.81433200  0.51841100  1
  O  O36  1  0.81433200  0.27290100  0.01841100  1
  O  O37  1  0.72709900  0.18566800  0.48158900  1
