# generated using pymatgen
data_Nd3Ge13Os4
_symmetry_space_group_name_H-M   'P 1'
_cell_length_a   9.19155100
_cell_length_b   9.19155100
_cell_length_c   9.19155100
_cell_angle_alpha   90.00000000
_cell_angle_beta   90.00000000
_cell_angle_gamma   90.00000000
_symmetry_Int_Tables_number   1
_chemical_formula_structural   Nd3Ge13Os4
_chemical_formula_sum   'Nd6 Ge26 Os8'
_cell_volume   776.54459956
_cell_formula_units_Z   2
loop_
 _symmetry_equiv_pos_site_id
 _symmetry_equiv_pos_as_xyz
  1  'x, y, z'
loop_
 _atom_site_type_symbol
 _atom_site_label
 _atom_site_symmetry_multiplicity
 _atom_site_fract_x
 _atom_site_fract_y
 _atom_site_fract_z
 _atom_site_occupancy
  Nd  Nd0  1  0.00000000  0.50000000  0.75000000  1
  Nd  Nd1  1  0.50000000  0.25000000  0.00000000  1
  Nd  Nd2  1  0.75000000  0.00000000  0.50000000  1
  Nd  Nd3  1  0.00000000  0.50000000  0.25000000  1
  Nd  Nd4  1  0.50000000  0.75000000  0.00000000  1
  Nd  Nd5  1  0.25000000  0.00000000  0.50000000  1
  Ge  Ge6  1  0.50000000  0.50000000  0.50000000  1
  Ge  Ge7  1  0.00000000  0.00000000  0.00000000  1
  Ge  Ge8  1  0.79845700  0.35331000  0.50000000  1
  Ge  Ge9  1  0.64669000  0.50000000  0.79845700  1
  Ge  Ge10  1  0.50000000  0.20154300  0.64669000  1
  Ge  Ge11  1  0.20154300  0.64669000  0.50000000  1
  Ge  Ge12  1  0.35331000  0.50000000  0.20154300  1
  Ge  Ge13  1  0.50000000  0.79845700  0.35331000  1
  Ge  Ge14  1  0.79845700  0.64669000  0.50000000  1
  Ge  Ge15  1  0.64669000  0.50000000  0.20154300  1
  Ge  Ge16  1  0.20154300  0.35331000  0.50000000  1
  Ge  Ge17  1  0.35331000  0.50000000  0.79845700  1
  Ge  Ge18  1  0.50000000  0.79845700  0.64669000  1
  Ge  Ge19  1  0.50000000  0.20154300  0.35331000  1
  Ge  Ge20  1  0.29845700  0.00000000  0.85331000  1
  Ge  Ge21  1  0.14669000  0.29845700  0.00000000  1
  Ge  Ge22  1  0.00000000  0.14669000  0.70154300  1
  Ge  Ge23  1  0.70154300  0.00000000  0.14669000  1
  Ge  Ge24  1  0.85331000  0.70154300  0.00000000  1
  Ge  Ge25  1  0.00000000  0.85331000  0.29845700  1
  Ge  Ge26  1  0.29845700  0.00000000  0.14669000  1
  Ge  Ge27  1  0.14669000  0.70154300  0.00000000  1
  Ge  Ge28  1  0.70154300  0.00000000  0.85331000  1
  Ge  Ge29  1  0.85331000  0.29845700  0.00000000  1
  Ge  Ge30  1  0.00000000  0.14669000  0.29845700  1
  Ge  Ge31  1  0.00000000  0.85331000  0.70154300  1
  Os  Os32  1  0.75000000  0.25000000  0.75000000  1
  Os  Os33  1  0.25000000  0.75000000  0.25000000  1
  Os  Os34  1  0.75000000  0.75000000  0.25000000  1
  Os  Os35  1  0.25000000  0.25000000  0.75000000  1
  Os  Os36  1  0.25000000  0.75000000  0.75000000  1
  Os  Os37  1  0.75000000  0.25000000  0.25000000  1
  Os  Os38  1  0.25000000  0.25000000  0.25000000  1
  Os  Os39  1  0.75000000  0.75000000  0.75000000  1
