# generated using pymatgen
data_Rb2EuGa(SiO3)4
_symmetry_space_group_name_H-M   'P 1'
_cell_length_a   14.23888909
_cell_length_b   14.23888909
_cell_length_c   15.15549086
_cell_angle_alpha   57.88562377
_cell_angle_beta   57.88562377
_cell_angle_gamma   30.39210557
_symmetry_Int_Tables_number   1
_chemical_formula_structural   Rb2EuGa(SiO3)4
_chemical_formula_sum   'Rb8 Eu4 Ga4 Si16 O48'
_cell_volume   1297.39594886
_cell_formula_units_Z   4
loop_
 _symmetry_equiv_pos_site_id
 _symmetry_equiv_pos_as_xyz
  1  'x, y, z'
loop_
 _atom_site_type_symbol
 _atom_site_label
 _atom_site_symmetry_multiplicity
 _atom_site_fract_x
 _atom_site_fract_y
 _atom_site_fract_z
 _atom_site_occupancy
  Rb  Rb0  1  0.19384000  0.18977200  0.03486300  1
  Rb  Rb1  1  0.81022800  0.80616000  0.46513700  1
  Rb  Rb2  1  0.80616000  0.81022800  0.96513700  1
  Rb  Rb3  1  0.18977200  0.19384000  0.53486300  1
  Rb  Rb4  1  0.72528400  0.20397300  0.45545100  1
  Rb  Rb5  1  0.79602700  0.27471600  0.04454900  1
  Rb  Rb6  1  0.27471600  0.79602700  0.54454900  1
  Rb  Rb7  1  0.20397300  0.72528400  0.95545100  1
  Eu  Eu8  1  0.01423000  0.44805000  0.74993700  1
  Eu  Eu9  1  0.55195000  0.98577000  0.75006300  1
  Eu  Eu10  1  0.98577000  0.55195000  0.25006300  1
  Eu  Eu11  1  0.44805000  0.01423000  0.24993700  1
  Ga  Ga12  1  0.26725800  0.87316300  0.27236100  1
  Ga  Ga13  1  0.12683700  0.73274200  0.22763900  1
  Ga  Ga14  1  0.73274200  0.12683700  0.72763900  1
  Ga  Ga15  1  0.87316300  0.26725800  0.77236100  1
  Si  Si16  1  0.69338100  0.64013300  0.99262100  1
  Si  Si17  1  0.35986700  0.30661900  0.50737900  1
  Si  Si18  1  0.30661900  0.35986700  0.00737900  1
  Si  Si19  1  0.64013300  0.69338100  0.49262100  1
  Si  Si20  1  0.20669400  0.66937700  0.42278800  1
  Si  Si21  1  0.33062300  0.79330600  0.07721200  1
  Si  Si22  1  0.79330600  0.33062300  0.57721200  1
  Si  Si23  1  0.66937700  0.20669400  0.92278800  1
  Si  Si24  1  0.02357200  0.73841100  0.66132000  1
  Si  Si25  1  0.26158900  0.97642800  0.83868000  1
  Si  Si26  1  0.97642800  0.26158900  0.33868000  1
  Si  Si27  1  0.73841100  0.02357200  0.16132000  1
  Si  Si28  1  0.31619200  0.36081900  0.79475600  1
  Si  Si29  1  0.63918100  0.68380800  0.70524400  1
  Si  Si30  1  0.68380800  0.63918100  0.20524400  1
  Si  Si31  1  0.36081900  0.31619200  0.29475600  1
  O  O32  1  0.87564800  0.46917100  0.92568500  1
  O  O33  1  0.53082900  0.12435200  0.57431500  1
  O  O34  1  0.12435200  0.53082900  0.07431500  1
  O  O35  1  0.46917100  0.87564800  0.42568500  1
  O  O36  1  0.76592300  0.58234100  0.09058400  1
  O  O37  1  0.41765900  0.23407700  0.40941600  1
  O  O38  1  0.23407700  0.41765900  0.90941600  1
  O  O39  1  0.58234100  0.76592300  0.59058400  1
  O  O40  1  0.06958300  0.79229800  0.34436800  1
  O  O41  1  0.20770200  0.93041700  0.15563200  1
  O  O42  1  0.93041700  0.20770200  0.65563200  1
  O  O43  1  0.79229800  0.06958300  0.84436800  1
  O  O44  1  0.32856900  0.68290700  0.37588500  1
  O  O45  1  0.31709300  0.67143100  0.12411500  1
  O  O46  1  0.67143100  0.31709300  0.62411500  1
  O  O47  1  0.68290700  0.32856900  0.87588500  1
  O  O48  1  0.06479700  0.75659300  0.53228800  1
  O  O49  1  0.24340700  0.93520300  0.96771200  1
  O  O50  1  0.93520300  0.24340700  0.46771200  1
  O  O51  1  0.75659300  0.06479700  0.03228800  1
  O  O52  1  0.23151100  0.54294400  0.70079700  1
  O  O53  1  0.45705600  0.76848900  0.79920300  1
  O  O54  1  0.76848900  0.45705600  0.29920300  1
  O  O55  1  0.54294400  0.23151100  0.20079700  1
  O  O56  1  0.89252100  0.73553500  0.72401700  1
  O  O57  1  0.26446500  0.10747900  0.77598300  1
  O  O58  1  0.10747900  0.26446500  0.27598300  1
  O  O59  1  0.73553500  0.89252100  0.22401700  1
  O  O60  1  0.93961800  0.91272500  0.66970800  1
  O  O61  1  0.08727500  0.06038200  0.83029200  1
  O  O62  1  0.06038200  0.08727500  0.33029200  1
  O  O63  1  0.91272500  0.93961800  0.16970800  1
  O  O64  1  0.57821200  0.84611500  0.92661900  1
  O  O65  1  0.15388500  0.42178800  0.57338100  1
  O  O66  1  0.42178800  0.15388500  0.07338100  1
  O  O67  1  0.84611500  0.57821200  0.42661900  1
  O  O68  1  0.55487100  0.64053200  0.05475400  1
  O  O69  1  0.35946800  0.44512900  0.44524600  1
  O  O70  1  0.44512900  0.35946800  0.94524600  1
  O  O71  1  0.64053200  0.55487100  0.55475400  1
  O  O72  1  0.54755000  0.17346800  0.76977700  1
  O  O73  1  0.82653200  0.45245000  0.73022300  1
  O  O74  1  0.45245000  0.82653200  0.23022300  1
  O  O75  1  0.17346800  0.54755000  0.26977700  1
  O  O76  1  0.25893800  0.29784700  0.79927300  1
  O  O77  1  0.70215300  0.74106200  0.70072700  1
  O  O78  1  0.74106200  0.70215300  0.20072700  1
  O  O79  1  0.29784700  0.25893800  0.29927300  1
