# generated using pymatgen
data_KNdH2S2O9
_symmetry_space_group_name_H-M   'P 1'
_cell_length_a   8.64321000
_cell_length_b   10.10993958
_cell_length_c   10.61681415
_cell_angle_alpha   117.39695971
_cell_angle_beta   90.00000000
_cell_angle_gamma   90.00000000
_symmetry_Int_Tables_number   1
_chemical_formula_structural   KNdH2S2O9
_chemical_formula_sum   'K4 Nd4 H8 S8 O36'
_cell_volume   823.66848834
_cell_formula_units_Z   4
loop_
 _symmetry_equiv_pos_site_id
 _symmetry_equiv_pos_as_xyz
  1  'x, y, z'
loop_
 _atom_site_type_symbol
 _atom_site_label
 _atom_site_symmetry_multiplicity
 _atom_site_fract_x
 _atom_site_fract_y
 _atom_site_fract_z
 _atom_site_occupancy
  K  K0  1  0.68973000  0.22653500  0.70174800  1
  K  K1  1  0.18973000  0.77346500  0.79825200  1
  K  K2  1  0.31027000  0.77346500  0.29825200  1
  K  K3  1  0.81027000  0.22653500  0.20174800  1
  Nd  Nd4  1  0.84394700  0.73806300  0.47189100  1
  Nd  Nd5  1  0.34394700  0.26193700  0.02810900  1
  Nd  Nd6  1  0.15605300  0.26193700  0.52810900  1
  Nd  Nd7  1  0.65605300  0.73806300  0.97189100  1
  H  H8  1  0.51268200  0.61051200  0.45233000  1
  H  H9  1  0.01268200  0.38948800  0.04767000  1
  H  H10  1  0.48731800  0.38948800  0.54767000  1
  H  H11  1  0.98731800  0.61051200  0.95233000  1
  H  H12  1  0.52301400  0.77250100  0.57383800  1
  H  H13  1  0.02301400  0.22749900  0.92616200  1
  H  H14  1  0.47698600  0.22749900  0.42616200  1
  H  H15  1  0.97698600  0.77250100  0.07383800  1
  S  S16  1  0.18198600  0.47574100  0.38282900  1
  S  S17  1  0.68198600  0.52425900  0.11717100  1
  S  S18  1  0.81801400  0.52425900  0.61717100  1
  S  S19  1  0.31801400  0.47574100  0.88282900  1
  S  S20  1  0.86914900  0.95272000  0.32688900  1
  S  S21  1  0.36914900  0.04728000  0.17311100  1
  S  S22  1  0.13085100  0.04728000  0.67311100  1
  S  S23  1  0.63085100  0.95272000  0.82688900  1
  O  O24  1  0.30509900  0.45355800  0.27668100  1
  O  O25  1  0.80509900  0.54644200  0.22331900  1
  O  O26  1  0.69490100  0.54644200  0.72331900  1
  O  O27  1  0.19490100  0.45355800  0.77668100  1
  O  O28  1  0.07935500  0.59618500  0.38983100  1
  O  O29  1  0.57935500  0.40381500  0.11016900  1
  O  O30  1  0.92064500  0.40381500  0.61016900  1
  O  O31  1  0.42064500  0.59618500  0.88983100  1
  O  O32  1  0.09458500  0.33348700  0.33984700  1
  O  O33  1  0.59458500  0.66651300  0.16015300  1
  O  O34  1  0.90541500  0.66651300  0.66015300  1
  O  O35  1  0.40541500  0.33348700  0.83984700  1
  O  O36  1  0.25180300  0.51405500  0.52414500  1
  O  O37  1  0.75180300  0.48594500  0.97585500  1
  O  O38  1  0.74819700  0.48594500  0.47585500  1
  O  O39  1  0.24819700  0.51405500  0.02414500  1
  O  O40  1  0.79204200  0.93232300  0.19400100  1
  O  O41  1  0.29204200  0.06767700  0.30599900  1
  O  O42  1  0.20795800  0.06767700  0.80599900  1
  O  O43  1  0.70795800  0.93232300  0.69400100  1
  O  O44  1  0.94958400  0.09901100  0.38710100  1
  O  O45  1  0.44958400  0.90098900  0.11289900  1
  O  O46  1  0.05041600  0.90098900  0.61289900  1
  O  O47  1  0.55041600  0.09901100  0.88710100  1
  O  O48  1  0.75446400  0.95020200  0.43166900  1
  O  O49  1  0.25446400  0.04979800  0.06833100  1
  O  O50  1  0.24553600  0.04979800  0.56833100  1
  O  O51  1  0.74553600  0.95020200  0.93166900  1
  O  O52  1  0.98002400  0.82821600  0.29698700  1
  O  O53  1  0.48002400  0.17178400  0.20301300  1
  O  O54  1  0.01997600  0.17178400  0.70301300  1
  O  O55  1  0.51997600  0.82821600  0.79698700  1
  O  O56  1  0.54326600  0.71164600  0.47211200  1
  O  O57  1  0.04326600  0.28835400  0.02788800  1
  O  O58  1  0.45673400  0.28835400  0.52788800  1
  O  O59  1  0.95673400  0.71164600  0.97211200  1
