# generated using pymatgen
data_KHo2Cu(MoO4)4
_symmetry_space_group_name_H-M   'P 1'
_cell_length_a   6.86912352
_cell_length_b   6.86912352
_cell_length_c   19.74210050
_cell_angle_alpha   88.71616530
_cell_angle_beta   88.71616530
_cell_angle_gamma   134.77569593
_symmetry_Int_Tables_number   1
_chemical_formula_structural   KHo2Cu(MoO4)4
_chemical_formula_sum   'K2 Ho4 Cu2 Mo8 O32'
_cell_volume   660.13985079
_cell_formula_units_Z   2
loop_
 _symmetry_equiv_pos_site_id
 _symmetry_equiv_pos_as_xyz
  1  'x, y, z'
loop_
 _atom_site_type_symbol
 _atom_site_label
 _atom_site_symmetry_multiplicity
 _atom_site_fract_x
 _atom_site_fract_y
 _atom_site_fract_z
 _atom_site_occupancy
  K  K0  1  0.97075700  0.02924300  0.25000000  1
  K  K1  1  0.02924300  0.97075700  0.75000000  1
  Ho  Ho2  1  0.85474300  0.14953800  0.03151500  1
  Ho  Ho3  1  0.85046200  0.14525700  0.46848500  1
  Ho  Ho4  1  0.14525700  0.85046200  0.96848500  1
  Ho  Ho5  1  0.14953800  0.85474300  0.53151500  1
  Cu  Cu6  1  0.69041900  0.30958100  0.25000000  1
  Cu  Cu7  1  0.30958100  0.69041900  0.75000000  1
  Mo  Mo8  1  0.54566900  0.42215100  0.09071700  1
  Mo  Mo9  1  0.57784900  0.45433100  0.40928300  1
  Mo  Mo10  1  0.45433100  0.57784900  0.90928300  1
  Mo  Mo11  1  0.42215100  0.54566900  0.59071700  1
  Mo  Mo12  1  0.24931100  0.73208800  0.14579600  1
  Mo  Mo13  1  0.26791200  0.75068900  0.35420400  1
  Mo  Mo14  1  0.75068900  0.26791200  0.85420400  1
  Mo  Mo15  1  0.73208800  0.24931100  0.64579600  1
  O  O16  1  0.41950800  0.94256900  0.43394300  1
  O  O17  1  0.05743100  0.58049200  0.06605700  1
  O  O18  1  0.58049200  0.05743100  0.56605700  1
  O  O19  1  0.94256900  0.41950800  0.93394300  1
  O  O20  1  0.16595600  0.50398200  0.54150900  1
  O  O21  1  0.49601800  0.83404400  0.95849100  1
  O  O22  1  0.83404400  0.49601800  0.45849100  1
  O  O23  1  0.50398200  0.16595600  0.04150900  1
  O  O24  1  0.74485900  0.78422600  0.53676400  1
  O  O25  1  0.21577400  0.25514100  0.96323600  1
  O  O26  1  0.25514100  0.21577400  0.46323600  1
  O  O27  1  0.78422600  0.74485900  0.03676400  1
  O  O28  1  0.01316000  0.73554900  0.32809400  1
  O  O29  1  0.26445100  0.98684000  0.17190600  1
  O  O30  1  0.98684000  0.26445100  0.67190600  1
  O  O31  1  0.73554900  0.01316000  0.82809400  1
  O  O32  1  0.51305000  0.69564300  0.67108900  1
  O  O33  1  0.30435700  0.48695000  0.82891100  1
  O  O34  1  0.48695000  0.30435700  0.32891100  1
  O  O35  1  0.69564300  0.51305000  0.17108900  1
  O  O36  1  0.52877300  0.93297300  0.28702800  1
  O  O37  1  0.06702700  0.47122700  0.21297200  1
  O  O38  1  0.47122700  0.06702700  0.71297200  1
  O  O39  1  0.93297300  0.52877300  0.78702800  1
  O  O40  1  0.67738200  0.77493700  0.40026900  1
  O  O41  1  0.22506300  0.32261800  0.09973100  1
  O  O42  1  0.32261800  0.22506300  0.59973100  1
  O  O43  1  0.77493700  0.67738200  0.90026900  1
  O  O44  1  0.09393700  0.39668300  0.37064600  1
  O  O45  1  0.60331700  0.90606300  0.12935400  1
  O  O46  1  0.90606300  0.60331700  0.62935400  1
  O  O47  1  0.39668300  0.09393700  0.87064600  1
