# generated using pymatgen
data_ErC8N4Cl7
_symmetry_space_group_name_H-M   'P 1'
_cell_length_a   8.49142400
_cell_length_b   8.94629400
_cell_length_c   13.85223100
_cell_angle_alpha   90.00000000
_cell_angle_beta   90.00000000
_cell_angle_gamma   90.00000000
_symmetry_Int_Tables_number   1
_chemical_formula_structural   ErC8N4Cl7
_chemical_formula_sum   'Er2 C16 N8 Cl14'
_cell_volume   1052.30932370
_cell_formula_units_Z   2
loop_
 _symmetry_equiv_pos_site_id
 _symmetry_equiv_pos_as_xyz
  1  'x, y, z'
loop_
 _atom_site_type_symbol
 _atom_site_label
 _atom_site_symmetry_multiplicity
 _atom_site_fract_x
 _atom_site_fract_y
 _atom_site_fract_z
 _atom_site_occupancy
  Er  Er0  1  0.36167700  0.50000000  0.50000000  1
  Er  Er1  1  0.63832300  0.00000000  0.00000000  1
  C  C2  1  0.11861200  0.26929900  0.67594100  1
  C  C3  1  0.11861200  0.73070100  0.32405900  1
  C  C4  1  0.88138800  0.23070100  0.17594100  1
  C  C5  1  0.88138800  0.76929900  0.82405900  1
  C  C6  1  0.94416200  0.21423500  0.53542300  1
  C  C7  1  0.94416200  0.78576500  0.46457700  1
  C  C8  1  0.05583800  0.28576500  0.03542300  1
  C  C9  1  0.05583800  0.71423500  0.96457700  1
  C  C10  1  0.38145800  0.67673200  0.15607800  1
  C  C11  1  0.38145800  0.32326800  0.84392200  1
  C  C12  1  0.61854200  0.82326800  0.65607800  1
  C  C13  1  0.61854200  0.17673200  0.34392200  1
  C  C14  1  0.65729300  0.57915400  0.17288800  1
  C  C15  1  0.65729300  0.42084600  0.82711200  1
  C  C16  1  0.34270700  0.92084600  0.67288800  1
  C  C17  1  0.34270700  0.07915400  0.32711200  1
  N  N18  1  0.04243500  0.22840100  0.60413200  1
  N  N19  1  0.04243500  0.77159900  0.39586800  1
  N  N20  1  0.95756500  0.27159900  0.10413200  1
  N  N21  1  0.95756500  0.72840100  0.89586800  1
  N  N22  1  0.53253400  0.63902400  0.15743500  1
  N  N23  1  0.53253400  0.36097600  0.84256500  1
  N  N24  1  0.46746600  0.86097600  0.65743500  1
  N  N25  1  0.46746600  0.13902400  0.34256500  1
  Cl  Cl26  1  0.39936100  0.26825100  0.60953300  1
  Cl  Cl27  1  0.39936100  0.73174900  0.39046700  1
  Cl  Cl28  1  0.60063900  0.23174900  0.10953300  1
  Cl  Cl29  1  0.60063900  0.76825100  0.89046700  1
  Cl  Cl30  1  0.64416000  0.36198200  0.38260300  1
  Cl  Cl31  1  0.64416000  0.63801800  0.61739700  1
  Cl  Cl32  1  0.35584000  0.13801800  0.88260300  1
  Cl  Cl33  1  0.35584000  0.86198200  0.11739700  1
  Cl  Cl34  1  0.16953100  0.38256700  0.39125100  1
  Cl  Cl35  1  0.16953100  0.61743300  0.60874900  1
  Cl  Cl36  1  0.83046900  0.11743300  0.89125100  1
  Cl  Cl37  1  0.83046900  0.88256700  0.10874900  1
  Cl  Cl38  1  0.90893600  0.00000000  0.50000000  1
  Cl  Cl39  1  0.09106400  0.50000000  0.00000000  1
