# generated using pymatgen
data_AsSXeNF10
_symmetry_space_group_name_H-M   'P 1'
_cell_length_a   13.65545281
_cell_length_b   13.65545281
_cell_length_c   15.36750682
_cell_angle_alpha   60.86297032
_cell_angle_beta   60.86297032
_cell_angle_gamma   22.27226877
_symmetry_Int_Tables_number   1
_chemical_formula_structural   AsSXeNF10
_chemical_formula_sum   'As4 S4 Xe4 N4 F40'
_cell_volume   942.92198804
_cell_formula_units_Z   4
loop_
 _symmetry_equiv_pos_site_id
 _symmetry_equiv_pos_as_xyz
  1  'x, y, z'
loop_
 _atom_site_type_symbol
 _atom_site_label
 _atom_site_symmetry_multiplicity
 _atom_site_fract_x
 _atom_site_fract_y
 _atom_site_fract_z
 _atom_site_occupancy
  As  As0  1  0.18015600  0.01664100  0.02530900  1
  As  As1  1  0.98335900  0.81984400  0.47469100  1
  As  As2  1  0.81984400  0.98335900  0.97469100  1
  As  As3  1  0.01664100  0.18015600  0.52530900  1
  S  S4  1  0.38721800  0.22102700  0.32057500  1
  S  S5  1  0.77897300  0.61278200  0.17942500  1
  S  S6  1  0.61278200  0.77897300  0.67942500  1
  S  S7  1  0.22102700  0.38721800  0.82057500  1
  Xe  Xe8  1  0.46972600  0.41366400  0.18228300  1
  Xe  Xe9  1  0.58633600  0.53027400  0.31771700  1
  Xe  Xe10  1  0.53027400  0.58633600  0.81771700  1
  Xe  Xe11  1  0.41366400  0.46972600  0.68228300  1
  N  N12  1  0.58821500  0.13707100  0.28462400  1
  N  N13  1  0.86292900  0.41178500  0.21537600  1
  N  N14  1  0.41178500  0.86292900  0.71537600  1
  N  N15  1  0.13707100  0.58821500  0.78462400  1
  F  F16  1  0.19611700  0.34265000  0.41906000  1
  F  F17  1  0.65735000  0.80388300  0.08094000  1
  F  F18  1  0.80388300  0.65735000  0.58094000  1
  F  F19  1  0.34265000  0.19611700  0.91906000  1
  F  F20  1  0.14457000  0.50909000  0.26066200  1
  F  F21  1  0.49091000  0.85543000  0.23933800  1
  F  F22  1  0.85543000  0.49091000  0.73933800  1
  F  F23  1  0.50909000  0.14457000  0.76066200  1
  F  F24  1  0.61201000  0.93716500  0.38428500  1
  F  F25  1  0.06283500  0.38799000  0.11571500  1
  F  F26  1  0.38799000  0.06283500  0.61571500  1
  F  F27  1  0.93716500  0.61201000  0.88428500  1
  F  F28  1  0.36551500  0.15925700  0.27686600  1
  F  F29  1  0.84074300  0.63448500  0.22313400  1
  F  F30  1  0.63448500  0.84074300  0.72313400  1
  F  F31  1  0.15925700  0.36551500  0.77686600  1
  F  F32  1  0.98618000  0.31155800  0.99457300  1
  F  F33  1  0.68844200  0.01382000  0.50542700  1
  F  F34  1  0.01382000  0.68844200  0.00542700  1
  F  F35  1  0.31155800  0.98618000  0.49457300  1
  F  F36  1  0.38366600  0.70858800  0.05634100  1
  F  F37  1  0.29141200  0.61633400  0.44365900  1
  F  F38  1  0.61633400  0.29141200  0.94365900  1
  F  F39  1  0.70858800  0.38366600  0.55634100  1
  F  F40  1  0.39698700  0.89377400  0.91534700  1
  F  F41  1  0.10622600  0.60301300  0.58465300  1
  F  F42  1  0.60301300  0.10622600  0.08465300  1
  F  F43  1  0.89377400  0.39698700  0.41534700  1
  F  F44  1  0.97370400  0.12363300  0.13714300  1
  F  F45  1  0.87636700  0.02629600  0.36285700  1
  F  F46  1  0.02629600  0.87636700  0.86285700  1
  F  F47  1  0.12363300  0.97370400  0.63714300  1
  F  F48  1  0.37150600  0.88074500  0.09280200  1
  F  F49  1  0.11925500  0.62849400  0.40719800  1
  F  F50  1  0.62849400  0.11925500  0.90719800  1
  F  F51  1  0.88074500  0.37150600  0.59280200  1
  F  F52  1  0.99808500  0.13793900  0.95946900  1
  F  F53  1  0.86206100  0.00191500  0.54053100  1
  F  F54  1  0.00191500  0.86206100  0.04053100  1
  F  F55  1  0.13793900  0.99808500  0.45946900  1
