# generated using pymatgen
data_Mn3P2O15
_symmetry_space_group_name_H-M   'P 1'
_cell_length_a   7.95775864
_cell_length_b   11.55840176
_cell_length_c   12.74373100
_cell_angle_alpha   90.00000000
_cell_angle_beta   90.00000000
_cell_angle_gamma   107.93885813
_symmetry_Int_Tables_number   1
_chemical_formula_structural   Mn3P2O15
_chemical_formula_sum   'Mn12 P8 O60'
_cell_volume   1115.17180243
_cell_formula_units_Z   4
loop_
 _symmetry_equiv_pos_site_id
 _symmetry_equiv_pos_as_xyz
  1  'x, y, z'
loop_
 _atom_site_type_symbol
 _atom_site_label
 _atom_site_symmetry_multiplicity
 _atom_site_fract_x
 _atom_site_fract_y
 _atom_site_fract_z
 _atom_site_occupancy
  Mn  Mn0  1  0.55186000  0.00025600  0.37643300  1
  Mn  Mn1  1  0.94814000  0.99974400  0.87643300  1
  Mn  Mn2  1  0.44814000  0.99974400  0.62356700  1
  Mn  Mn3  1  0.05186000  0.00025600  0.12356700  1
  Mn  Mn4  1  0.42515600  0.00089900  0.12149500  1
  Mn  Mn5  1  0.07484400  0.99910100  0.62149500  1
  Mn  Mn6  1  0.57484400  0.99910100  0.87850500  1
  Mn  Mn7  1  0.92515600  0.00089900  0.37850500  1
  Mn  Mn8  1  0.92858700  0.66925100  0.63144600  1
  Mn  Mn9  1  0.57141300  0.33074900  0.13144600  1
  Mn  Mn10  1  0.07141300  0.33074900  0.36855400  1
  Mn  Mn11  1  0.42858700  0.66925100  0.86855400  1
  P  P12  1  0.16297400  0.82383000  0.43846100  1
  P  P13  1  0.33702600  0.17617000  0.93846100  1
  P  P14  1  0.83702600  0.17617000  0.56153900  1
  P  P15  1  0.66297400  0.82383000  0.06153900  1
  P  P16  1  0.32426600  0.17875200  0.29497300  1
  P  P17  1  0.17573400  0.82124800  0.79497300  1
  P  P18  1  0.67573400  0.82124800  0.70502700  1
  P  P19  1  0.82426600  0.17875200  0.20502700  1
  O  O20  1  0.10280600  0.71924000  0.51895800  1
  O  O21  1  0.39719400  0.28076000  0.01895800  1
  O  O22  1  0.89719400  0.28076000  0.48104200  1
  O  O23  1  0.60280600  0.71924000  0.98104200  1
  O  O24  1  0.55502000  0.91609000  0.03179900  1
  O  O25  1  0.94498000  0.08391000  0.53179900  1
  O  O26  1  0.44498000  0.08391000  0.96820100  1
  O  O27  1  0.05502000  0.91609000  0.46820100  1
  O  O28  1  0.64022100  0.78463300  0.17376900  1
  O  O29  1  0.85977900  0.21536700  0.67376900  1
  O  O30  1  0.35977900  0.21536700  0.82623100  1
  O  O31  1  0.14022100  0.78463300  0.32623100  1
  O  O32  1  0.86275600  0.89903700  0.03213500  1
  O  O33  1  0.63724400  0.10096300  0.53213500  1
  O  O34  1  0.13724400  0.10096300  0.96786500  1
  O  O35  1  0.36275600  0.89903700  0.46786500  1
  O  O36  1  0.43266400  0.12228900  0.36489200  1
  O  O37  1  0.06733600  0.87771100  0.86489200  1
  O  O38  1  0.56733600  0.87771100  0.63510800  1
  O  O39  1  0.93266400  0.12228900  0.13510800  1
  O  O40  1  0.41972900  0.31048600  0.26604800  1
  O  O41  1  0.08027100  0.68951400  0.76604800  1
  O  O42  1  0.58027100  0.68951400  0.73395200  1
  O  O43  1  0.91972900  0.31048600  0.23395200  1
  O  O44  1  0.85502900  0.82687800  0.65124600  1
  O  O45  1  0.64497100  0.17312200  0.15124600  1
  O  O46  1  0.14497100  0.17312200  0.34875400  1
  O  O47  1  0.35502900  0.82687800  0.84875400  1
  O  O48  1  0.28289800  0.10271600  0.18733300  1
  O  O49  1  0.21710200  0.89728400  0.68733300  1
  O  O50  1  0.71710200  0.89728400  0.81266700  1
  O  O51  1  0.78289800  0.10271600  0.31266700  1
  O  O52  1  0.20065700  0.90861300  0.09012800  1
  O  O53  1  0.29934300  0.09138700  0.59012800  1
  O  O54  1  0.79934300  0.09138700  0.90987200  1
  O  O55  1  0.70065700  0.90861300  0.40987200  1
  O  O56  1  0.61572100  0.52156900  0.15234400  1
  O  O57  1  0.88427900  0.47843100  0.65234400  1
  O  O58  1  0.38427900  0.47843100  0.84765600  1
  O  O59  1  0.11572100  0.52156900  0.34765600  1
  O  O60  1  0.73750400  0.49226400  0.20012600  1
  O  O61  1  0.76249600  0.50773600  0.70012600  1
  O  O62  1  0.26249600  0.50773600  0.79987400  1
  O  O63  1  0.23750400  0.49226400  0.29987400  1
  O  O64  1  0.79061900  0.44620300  0.97592900  1
  O  O65  1  0.70938100  0.55379700  0.47592900  1
  O  O66  1  0.20938100  0.55379700  0.02407100  1
  O  O67  1  0.29061900  0.44620300  0.52407100  1
  O  O68  1  0.67387600  0.44344400  0.46062400  1
  O  O69  1  0.82612400  0.55655600  0.96062400  1
  O  O70  1  0.32612400  0.55655600  0.53937600  1
  O  O71  1  0.17387600  0.44344400  0.03937600  1
  O  O72  1  0.48549600  0.93931600  0.24118800  1
  O  O73  1  0.01450400  0.06068400  0.74118800  1
  O  O74  1  0.51450400  0.06068400  0.75881200  1
  O  O75  1  0.98549600  0.93931600  0.25881200  1
  O  O76  1  0.03983700  0.66105600  0.16241600  1
  O  O77  1  0.46016300  0.33894400  0.66241600  1
  O  O78  1  0.96016300  0.33894400  0.83758400  1
  O  O79  1  0.53983700  0.66105600  0.33758400  1
