# generated using pymatgen
data_K2P4H6PtO11
_symmetry_space_group_name_H-M   'P 1'
_cell_length_a   13.44036700
_cell_length_b   13.44036700
_cell_length_c   8.17869400
_cell_angle_alpha   90.00000000
_cell_angle_beta   90.00000000
_cell_angle_gamma   90.00000000
_symmetry_Int_Tables_number   1
_chemical_formula_structural   K2P4H6PtO11
_chemical_formula_sum   'K8 P16 H24 Pt4 O44'
_cell_volume   1477.42762411
_cell_formula_units_Z   4
loop_
 _symmetry_equiv_pos_site_id
 _symmetry_equiv_pos_as_xyz
  1  'x, y, z'
loop_
 _atom_site_type_symbol
 _atom_site_label
 _atom_site_symmetry_multiplicity
 _atom_site_fract_x
 _atom_site_fract_y
 _atom_site_fract_z
 _atom_site_occupancy
  K  K0  1  0.77482800  0.72517200  0.00000000  1
  K  K1  1  0.22517200  0.27482800  0.00000000  1
  K  K2  1  0.72517200  0.22517200  0.00000000  1
  K  K3  1  0.27482800  0.77482800  0.00000000  1
  K  K4  1  0.88136700  0.61863300  0.50000000  1
  K  K5  1  0.11863300  0.38136700  0.50000000  1
  K  K6  1  0.61863300  0.11863300  0.50000000  1
  K  K7  1  0.38136700  0.88136700  0.50000000  1
  P  P8  1  0.63011000  0.61558800  0.68502600  1
  P  P9  1  0.36989000  0.38441200  0.68502600  1
  P  P10  1  0.86989000  0.11558800  0.68502600  1
  P  P11  1  0.13011000  0.88441200  0.68502600  1
  P  P12  1  0.61558800  0.36989000  0.68502600  1
  P  P13  1  0.38441200  0.63011000  0.68502600  1
  P  P14  1  0.11558800  0.13011000  0.68502600  1
  P  P15  1  0.88441200  0.86989000  0.68502600  1
  P  P16  1  0.36989000  0.38441200  0.31497400  1
  P  P17  1  0.63011000  0.61558800  0.31497400  1
  P  P18  1  0.13011000  0.88441200  0.31497400  1
  P  P19  1  0.86989000  0.11558800  0.31497400  1
  P  P20  1  0.38441200  0.63011000  0.31497400  1
  P  P21  1  0.61558800  0.36989000  0.31497400  1
  P  P22  1  0.88441200  0.86989000  0.31497400  1
  P  P23  1  0.11558800  0.13011000  0.31497400  1
  H  H24  1  0.53020500  0.72985900  0.77782900  1
  H  H25  1  0.46979500  0.27014100  0.77782900  1
  H  H26  1  0.96979500  0.22985900  0.77782900  1
  H  H27  1  0.03020500  0.77014100  0.77782900  1
  H  H28  1  0.72985900  0.46979500  0.77782900  1
  H  H29  1  0.27014100  0.53020500  0.77782900  1
  H  H30  1  0.22985900  0.03020500  0.77782900  1
  H  H31  1  0.77014100  0.96979500  0.77782900  1
  H  H32  1  0.46979500  0.27014100  0.22217100  1
  H  H33  1  0.53020500  0.72985900  0.22217100  1
  H  H34  1  0.03020500  0.77014100  0.22217100  1
  H  H35  1  0.96979500  0.22985900  0.22217100  1
  H  H36  1  0.27014100  0.53020500  0.22217100  1
  H  H37  1  0.72985900  0.46979500  0.22217100  1
  H  H38  1  0.77014100  0.96979500  0.22217100  1
  H  H39  1  0.22985900  0.03020500  0.22217100  1
  H  H40  1  0.87229300  0.37229300  0.40687400  1
  H  H41  1  0.12770700  0.62770700  0.40687400  1
  H  H42  1  0.62770700  0.87229300  0.40687400  1
  H  H43  1  0.37229300  0.12770700  0.40687400  1
  H  H44  1  0.12770700  0.62770700  0.59312600  1
  H  H45  1  0.87229300  0.37229300  0.59312600  1
  H  H46  1  0.37229300  0.12770700  0.59312600  1
  H  H47  1  0.62770700  0.87229300  0.59312600  1
  Pt  Pt48  1  0.50000000  0.50000000  0.68146600  1
  Pt  Pt49  1  0.00000000  0.00000000  0.68146600  1
  Pt  Pt50  1  0.50000000  0.50000000  0.31853400  1
  Pt  Pt51  1  0.00000000  0.00000000  0.31853400  1
  O  O52  1  0.64677900  0.66235800  0.50000000  1
  O  O53  1  0.35322100  0.33764200  0.50000000  1
  O  O54  1  0.85322100  0.16235800  0.50000000  1
  O  O55  1  0.14677900  0.83764200  0.50000000  1
  O  O56  1  0.66235800  0.35322100  0.50000000  1
  O  O57  1  0.33764200  0.64677900  0.50000000  1
  O  O58  1  0.16235800  0.14677900  0.50000000  1
  O  O59  1  0.83764200  0.85322100  0.50000000  1
  O  O60  1  0.60580600  0.71527400  0.78419600  1
  O  O61  1  0.39419400  0.28472600  0.78419600  1
  O  O62  1  0.89419400  0.21527400  0.78419600  1
  O  O63  1  0.10580600  0.78472600  0.78419600  1
  O  O64  1  0.71527400  0.39419400  0.78419600  1
  O  O65  1  0.28472600  0.60580600  0.78419600  1
  O  O66  1  0.21527400  0.10580600  0.78419600  1
  O  O67  1  0.78472600  0.89419400  0.78419600  1
  O  O68  1  0.39419400  0.28472600  0.21580400  1
  O  O69  1  0.60580600  0.71527400  0.21580400  1
  O  O70  1  0.10580600  0.78472600  0.21580400  1
  O  O71  1  0.89419400  0.21527400  0.21580400  1
  O  O72  1  0.28472600  0.60580600  0.21580400  1
  O  O73  1  0.71527400  0.39419400  0.21580400  1
  O  O74  1  0.78472600  0.89419400  0.21580400  1
  O  O75  1  0.21527400  0.10580600  0.21580400  1
  O  O76  1  0.73300800  0.58185700  0.74353300  1
  O  O77  1  0.26699200  0.41814300  0.74353300  1
  O  O78  1  0.76699200  0.08185700  0.74353300  1
  O  O79  1  0.23300800  0.91814300  0.74353300  1
  O  O80  1  0.58185700  0.26699200  0.74353300  1
  O  O81  1  0.41814300  0.73300800  0.74353300  1
  O  O82  1  0.08185700  0.23300800  0.74353300  1
  O  O83  1  0.91814300  0.76699200  0.74353300  1
  O  O84  1  0.26699200  0.41814300  0.25646700  1
  O  O85  1  0.73300800  0.58185700  0.25646700  1
  O  O86  1  0.23300800  0.91814300  0.25646700  1
  O  O87  1  0.76699200  0.08185700  0.25646700  1
  O  O88  1  0.41814300  0.73300800  0.25646700  1
  O  O89  1  0.58185700  0.26699200  0.25646700  1
  O  O90  1  0.91814300  0.76699200  0.25646700  1
  O  O91  1  0.08185700  0.23300800  0.25646700  1
  O  O92  1  0.90451600  0.40451600  0.50000000  1
  O  O93  1  0.09548400  0.59548400  0.50000000  1
  O  O94  1  0.59548400  0.90451600  0.50000000  1
  O  O95  1  0.40451600  0.09548400  0.50000000  1
