# generated using pymatgen
data_SrMn2O11
_symmetry_space_group_name_H-M   'P 1'
_cell_length_a   9.69572600
_cell_length_b   9.69572600
_cell_length_c   9.69572600
_cell_angle_alpha   90.00000000
_cell_angle_beta   90.00000000
_cell_angle_gamma   90.00000000
_symmetry_Int_Tables_number   1
_chemical_formula_structural   SrMn2O11
_chemical_formula_sum   'Sr4 Mn8 O44'
_cell_volume   911.46710951
_cell_formula_units_Z   4
loop_
 _symmetry_equiv_pos_site_id
 _symmetry_equiv_pos_as_xyz
  1  'x, y, z'
loop_
 _atom_site_type_symbol
 _atom_site_label
 _atom_site_symmetry_multiplicity
 _atom_site_fract_x
 _atom_site_fract_y
 _atom_site_fract_z
 _atom_site_occupancy
  Sr  Sr0  1  0.23287200  0.73287200  0.76712800  1
  Sr  Sr1  1  0.73287200  0.76712800  0.23287200  1
  Sr  Sr2  1  0.76712800  0.23287200  0.73287200  1
  Sr  Sr3  1  0.26712800  0.26712800  0.26712800  1
  Mn  Mn4  1  0.48595800  0.98595800  0.51404200  1
  Mn  Mn5  1  0.98595800  0.51404200  0.48595800  1
  Mn  Mn6  1  0.51404200  0.48595800  0.98595800  1
  Mn  Mn7  1  0.01404200  0.01404200  0.01404200  1
  Mn  Mn8  1  0.94998700  0.44998700  0.05001300  1
  Mn  Mn9  1  0.44998700  0.05001300  0.94998700  1
  Mn  Mn10  1  0.05001300  0.94998700  0.44998700  1
  Mn  Mn11  1  0.55001300  0.55001300  0.55001300  1
  O  O12  1  0.38984200  0.88984200  0.61015800  1
  O  O13  1  0.88984200  0.61015800  0.38984200  1
  O  O14  1  0.61015800  0.38984200  0.88984200  1
  O  O15  1  0.11015800  0.11015800  0.11015800  1
  O  O16  1  0.85526400  0.35526400  0.14473600  1
  O  O17  1  0.35526400  0.14473600  0.85526400  1
  O  O18  1  0.14473600  0.85526400  0.35526400  1
  O  O19  1  0.64473600  0.64473600  0.64473600  1
  O  O20  1  0.91623800  0.91937400  0.11075900  1
  O  O21  1  0.88924100  0.41623800  0.58062600  1
  O  O22  1  0.41937400  0.38924100  0.08376200  1
  O  O23  1  0.41623800  0.58062600  0.88924100  1
  O  O24  1  0.38924100  0.08376200  0.41937400  1
  O  O25  1  0.91937400  0.11075900  0.91623800  1
  O  O26  1  0.08376200  0.41937400  0.38924100  1
  O  O27  1  0.11075900  0.91623800  0.91937400  1
  O  O28  1  0.58062600  0.88924100  0.41623800  1
  O  O29  1  0.58376200  0.08062600  0.61075900  1
  O  O30  1  0.61075900  0.58376200  0.08062600  1
  O  O31  1  0.08062600  0.61075900  0.58376200  1
  O  O32  1  0.88639100  0.91738400  0.42198800  1
  O  O33  1  0.57801200  0.38639100  0.58261600  1
  O  O34  1  0.41738400  0.07801200  0.11360900  1
  O  O35  1  0.38639100  0.58261600  0.57801200  1
  O  O36  1  0.07801200  0.11360900  0.41738400  1
  O  O37  1  0.91738400  0.42198800  0.88639100  1
  O  O38  1  0.11360900  0.41738400  0.07801200  1
  O  O39  1  0.42198800  0.88639100  0.91738400  1
  O  O40  1  0.58261600  0.57801200  0.38639100  1
  O  O41  1  0.61360900  0.08261600  0.92198800  1
  O  O42  1  0.92198800  0.61360900  0.08261600  1
  O  O43  1  0.08261600  0.92198800  0.61360900  1
  O  O44  1  0.67013300  0.84685200  0.97814900  1
  O  O45  1  0.02185100  0.17013300  0.65314800  1
  O  O46  1  0.34685200  0.52185100  0.32986700  1
  O  O47  1  0.17013300  0.65314800  0.02185100  1
  O  O48  1  0.52185100  0.32986700  0.34685200  1
  O  O49  1  0.84685200  0.97814900  0.67013300  1
  O  O50  1  0.32986700  0.34685200  0.52185100  1
  O  O51  1  0.97814900  0.67013300  0.84685200  1
  O  O52  1  0.65314800  0.02185100  0.17013300  1
  O  O53  1  0.82986700  0.15314800  0.47814900  1
  O  O54  1  0.47814900  0.82986700  0.15314800  1
  O  O55  1  0.15314800  0.47814900  0.82986700  1
