# generated using pymatgen
data_Na2Cu2(B4O7)3
_symmetry_space_group_name_H-M   'P 1'
_cell_length_a   12.06988668
_cell_length_b   12.06988668
_cell_length_c   17.41597193
_cell_angle_alpha   55.73400161
_cell_angle_beta   55.73400161
_cell_angle_gamma   22.52146021
_symmetry_Int_Tables_number   1
_chemical_formula_structural   Na2Cu2(B4O7)3
_chemical_formula_sum   'Na4 Cu4 B24 O42'
_cell_volume   795.72104471
_cell_formula_units_Z   2
loop_
 _symmetry_equiv_pos_site_id
 _symmetry_equiv_pos_as_xyz
  1  'x, y, z'
loop_
 _atom_site_type_symbol
 _atom_site_label
 _atom_site_symmetry_multiplicity
 _atom_site_fract_x
 _atom_site_fract_y
 _atom_site_fract_z
 _atom_site_occupancy
  Na  Na0  1  0.72775900  0.55123800  0.51013400  1
  Na  Na1  1  0.44876200  0.27224100  0.98986600  1
  Na  Na2  1  0.27224100  0.44876200  0.48986600  1
  Na  Na3  1  0.55123800  0.72775900  0.01013400  1
  Cu  Cu4  1  0.46129400  0.44278200  0.60646300  1
  Cu  Cu5  1  0.55721800  0.53870600  0.89353700  1
  Cu  Cu6  1  0.53870600  0.55721800  0.39353700  1
  Cu  Cu7  1  0.44278200  0.46129400  0.10646300  1
  B  B8  1  0.10830500  0.00670600  0.50850200  1
  B  B9  1  0.99329400  0.89169500  0.99149800  1
  B  B10  1  0.89169500  0.99329400  0.49149800  1
  B  B11  1  0.00670600  0.10830500  0.00850200  1
  B  B12  1  0.90486400  0.42454100  0.70721100  1
  B  B13  1  0.57545900  0.09513600  0.79278900  1
  B  B14  1  0.09513600  0.57545900  0.29278900  1
  B  B15  1  0.42454100  0.90486400  0.20721100  1
  B  B16  1  0.66097700  0.84589200  0.31577200  1
  B  B17  1  0.15410800  0.33902300  0.18422800  1
  B  B18  1  0.33902300  0.15410800  0.68422800  1
  B  B19  1  0.84589200  0.66097700  0.81577200  1
  B  B20  1  0.09414000  0.22948700  0.84661100  1
  B  B21  1  0.77051300  0.90586000  0.65338900  1
  B  B22  1  0.90586000  0.77051300  0.15338900  1
  B  B23  1  0.22948700  0.09414000  0.34661100  1
  B  B24  1  0.07102300  0.89763400  0.82769200  1
  B  B25  1  0.10236600  0.92897700  0.67230800  1
  B  B26  1  0.92897700  0.10236600  0.17230800  1
  B  B27  1  0.89763400  0.07102300  0.32769200  1
  B  B28  1  0.46716400  0.70673800  0.70328000  1
  B  B29  1  0.29326200  0.53283600  0.79672000  1
  B  B30  1  0.53283600  0.29326200  0.29672000  1
  B  B31  1  0.70673800  0.46716400  0.20328000  1
  O  O32  1  0.01852000  0.19671600  0.42827100  1
  O  O33  1  0.80328400  0.98148000  0.07172900  1
  O  O34  1  0.98148000  0.80328400  0.57172900  1
  O  O35  1  0.19671600  0.01852000  0.92827100  1
  O  O36  1  0.94775300  0.11471400  0.59309000  1
  O  O37  1  0.88528600  0.05224700  0.90691000  1
  O  O38  1  0.05224700  0.88528600  0.40691000  1
  O  O39  1  0.11471400  0.94775300  0.09309000  1
  O  O40  1  0.35423200  0.71916000  0.50426500  1
  O  O41  1  0.28084000  0.64576800  0.99573500  1
  O  O42  1  0.64576800  0.28084000  0.49573500  1
  O  O43  1  0.71916000  0.35423200  0.00426500  1
  O  O44  1  0.70870800  0.57595300  0.66651300  1
  O  O45  1  0.42404700  0.29129200  0.83348700  1
  O  O46  1  0.29129200  0.42404700  0.33348700  1
  O  O47  1  0.57595300  0.70870800  0.16651300  1
  O  O48  1  0.87084600  0.68627800  0.35321100  1
  O  O49  1  0.31372200  0.12915400  0.14678900  1
  O  O50  1  0.12915400  0.31372200  0.64678900  1
  O  O51  1  0.68627800  0.87084600  0.85321100  1
  O  O52  1  0.88146600  0.38212900  0.80340100  1
  O  O53  1  0.61787100  0.11853400  0.69659900  1
  O  O54  1  0.11853400  0.61787100  0.19659900  1
  O  O55  1  0.38212900  0.88146600  0.30340100  1
  O  O56  1  0.45791600  0.93004200  0.37769000  1
  O  O57  1  0.06995800  0.54208400  0.12231000  1
  O  O58  1  0.54208400  0.06995800  0.62231000  1
  O  O59  1  0.93004200  0.45791600  0.87769000  1
  O  O60  1  0.34525400  0.07407400  0.77821400  1
  O  O61  1  0.92592600  0.65474600  0.72178600  1
  O  O62  1  0.65474600  0.92592600  0.22178600  1
  O  O63  1  0.07407400  0.34525400  0.27821400  1
  O  O64  1  0.33954700  0.75709600  0.79584400  1
  O  O65  1  0.24290400  0.66045300  0.70415600  1
  O  O66  1  0.66045300  0.24290400  0.20415600  1
  O  O67  1  0.75709600  0.33954700  0.29584400  1
  O  O68  1  0.35683000  0.79276400  0.64070000  1
  O  O69  1  0.20723600  0.64317000  0.85930000  1
  O  O70  1  0.64317000  0.20723600  0.35930000  1
  O  O71  1  0.79276400  0.35683000  0.14070000  1
  O  O72  1  0.91943100  0.08056900  0.75000000  1
  O  O73  1  0.08056900  0.91943100  0.25000000  1
