# generated using pymatgen
data_Mo2N5Cl9O
_symmetry_space_group_name_H-M   'P 1'
_cell_length_a   8.52047421
_cell_length_b   8.52047421
_cell_length_c   14.41024800
_cell_angle_alpha   90.00000000
_cell_angle_beta   90.00000000
_cell_angle_gamma   99.78895398
_symmetry_Int_Tables_number   1
_chemical_formula_structural   Mo2N5Cl9O
_chemical_formula_sum   'Mo4 N10 Cl18 O2'
_cell_volume   1030.93071809
_cell_formula_units_Z   2
loop_
 _symmetry_equiv_pos_site_id
 _symmetry_equiv_pos_as_xyz
  1  'x, y, z'
loop_
 _atom_site_type_symbol
 _atom_site_label
 _atom_site_symmetry_multiplicity
 _atom_site_fract_x
 _atom_site_fract_y
 _atom_site_fract_z
 _atom_site_occupancy
  Mo  Mo0  1  0.02625500  0.97374500  0.93749900  1
  Mo  Mo1  1  0.97374500  0.02625500  0.43749900  1
  Mo  Mo2  1  0.25075300  0.74924700  0.19196700  1
  Mo  Mo3  1  0.74924700  0.25075300  0.69196700  1
  N  N4  1  0.63059700  0.36940300  0.11226300  1
  N  N5  1  0.36940300  0.63059700  0.61226300  1
  N  N6  1  0.70800300  0.79788700  0.21554900  1
  N  N7  1  0.20211300  0.29199700  0.21554900  1
  N  N8  1  0.29199700  0.20211300  0.71554900  1
  N  N9  1  0.79788700  0.70800300  0.71554900  1
  N  N10  1  0.43401000  0.02151700  0.42000200  1
  N  N11  1  0.97848300  0.56599000  0.42000200  1
  N  N12  1  0.56599000  0.97848300  0.92000200  1
  N  N13  1  0.02151700  0.43401000  0.92000200  1
  Cl  Cl14  1  0.90810900  0.09189100  0.06112300  1
  Cl  Cl15  1  0.09189100  0.90810900  0.56112300  1
  Cl  Cl16  1  0.25305600  0.17129300  0.95452300  1
  Cl  Cl17  1  0.82870700  0.74694400  0.95452300  1
  Cl  Cl18  1  0.74694400  0.82870700  0.45452300  1
  Cl  Cl19  1  0.17129300  0.25305600  0.45452300  1
  Cl  Cl20  1  0.17878800  0.82121200  0.85069000  1
  Cl  Cl21  1  0.82121200  0.17878800  0.35069000  1
  Cl  Cl22  1  0.37043300  0.62956700  0.07779100  1
  Cl  Cl23  1  0.62956700  0.37043300  0.57779100  1
  Cl  Cl24  1  0.39249000  0.99864100  0.17236700  1
  Cl  Cl25  1  0.00135900  0.60751000  0.17236700  1
  Cl  Cl26  1  0.60751000  0.00135900  0.67236700  1
  Cl  Cl27  1  0.99864100  0.39249000  0.67236700  1
  Cl  Cl28  1  0.08355900  0.91644100  0.30392300  1
  Cl  Cl29  1  0.91644100  0.08355900  0.80392300  1
  Cl  Cl30  1  0.36079800  0.63920200  0.32336100  1
  Cl  Cl31  1  0.63920200  0.36079800  0.82336100  1
  O  O32  1  0.47627800  0.52372200  0.29922100  1
  O  O33  1  0.52372200  0.47627800  0.79922100  1
