# generated using pymatgen
data_VH11C3(ClO2)2
_symmetry_space_group_name_H-M   'P 1'
_cell_length_a   9.45943600
_cell_length_b   11.16074000
_cell_length_c   13.08144495
_cell_angle_alpha   90.00000000
_cell_angle_beta   127.44594840
_cell_angle_gamma   90.00000000
_symmetry_Int_Tables_number   1
_chemical_formula_structural   VH11C3(ClO2)2
_chemical_formula_sum   'V4 H44 C12 Cl8 O16'
_cell_volume   1096.46475634
_cell_formula_units_Z   4
loop_
 _symmetry_equiv_pos_site_id
 _symmetry_equiv_pos_as_xyz
  1  'x, y, z'
loop_
 _atom_site_type_symbol
 _atom_site_label
 _atom_site_symmetry_multiplicity
 _atom_site_fract_x
 _atom_site_fract_y
 _atom_site_fract_z
 _atom_site_occupancy
  V  V0  1  0.13282800  0.80659600  0.90664900  1
  V  V1  1  0.13282800  0.69340400  0.40664900  1
  V  V2  1  0.86717200  0.19340400  0.09335100  1
  V  V3  1  0.86717200  0.30659600  0.59335100  1
  H  H4  1  0.02182200  0.57386500  0.83307900  1
  H  H5  1  0.02182200  0.92613500  0.33307900  1
  H  H6  1  0.97817800  0.42613500  0.16692100  1
  H  H7  1  0.97817800  0.07386500  0.66692100  1
  H  H8  1  0.18987600  0.73823200  0.73277200  1
  H  H9  1  0.18987600  0.76176800  0.23277200  1
  H  H10  1  0.81012400  0.26176800  0.26722800  1
  H  H11  1  0.81012400  0.23823200  0.76722800  1
  H  H12  1  0.23736100  0.10418300  0.94865700  1
  H  H13  1  0.23736100  0.39581700  0.44865700  1
  H  H14  1  0.76263900  0.89581700  0.05134300  1
  H  H15  1  0.76263900  0.60418300  0.55134300  1
  H  H16  1  0.45286000  0.05734200  0.08649700  1
  H  H17  1  0.45286000  0.44265800  0.58649700  1
  H  H18  1  0.54714000  0.94265800  0.91350300  1
  H  H19  1  0.54714000  0.55734200  0.41350300  1
  H  H20  1  0.25618300  0.02768000  0.07638500  1
  H  H21  1  0.25618300  0.47232000  0.57638500  1
  H  H22  1  0.74381700  0.97232000  0.92361500  1
  H  H23  1  0.74381700  0.52768000  0.42361500  1
  H  H24  1  0.83789500  0.64550100  0.90749200  1
  H  H25  1  0.83789500  0.85449900  0.40749200  1
  H  H26  1  0.16210500  0.35449900  0.09250800  1
  H  H27  1  0.16210500  0.14550100  0.59250800  1
  H  H28  1  0.75490100  0.54351700  0.77580500  1
  H  H29  1  0.75490100  0.95648300  0.27580500  1
  H  H30  1  0.24509900  0.45648300  0.22419500  1
  H  H31  1  0.24509900  0.04351700  0.72419500  1
  H  H32  1  0.70729200  0.70119300  0.74532400  1
  H  H33  1  0.70729200  0.79880700  0.24532400  1
  H  H34  1  0.29270800  0.29880700  0.25467600  1
  H  H35  1  0.29270800  0.20119300  0.75467600  1
  H  H36  1  0.49397500  0.64316800  0.97148800  1
  H  H37  1  0.49397500  0.85683200  0.47148800  1
  H  H38  1  0.50602500  0.35683200  0.02851200  1
  H  H39  1  0.50602500  0.14316800  0.52851200  1
  H  H40  1  0.46351900  0.66153800  0.82332400  1
  H  H41  1  0.46351900  0.83846200  0.32332400  1
  H  H42  1  0.53648100  0.33846200  0.17667600  1
  H  H43  1  0.53648100  0.16153800  0.67667600  1
  H  H44  1  0.35036400  0.54278500  0.84025600  1
  H  H45  1  0.35036400  0.95721500  0.34025600  1
  H  H46  1  0.64963600  0.45721500  0.15974400  1
  H  H47  1  0.64963600  0.04278500  0.65974400  1
  C  C48  1  0.31062300  0.03399200  0.02250300  1
  C  C49  1  0.31062300  0.46600800  0.52250300  1
  C  C50  1  0.68937700  0.96600800  0.97749700  1
  C  C51  1  0.68937700  0.53399200  0.47749700  1
  C  C52  1  0.80587300  0.63409400  0.81208100  1
  C  C53  1  0.80587300  0.86590600  0.31208100  1
  C  C54  1  0.19412700  0.36590600  0.18791900  1
  C  C55  1  0.19412700  0.13409400  0.68791900  1
  C  C56  1  0.39881400  0.63549300  0.86650500  1
  C  C57  1  0.39881400  0.86450700  0.36650500  1
  C  C58  1  0.60118600  0.36450700  0.13349500  1
  C  C59  1  0.60118600  0.13549300  0.63349500  1
  Cl  Cl60  1  0.31599200  0.67708600  0.07802400  1
  Cl  Cl61  1  0.31599200  0.82291400  0.57802400  1
  Cl  Cl62  1  0.68400800  0.32291400  0.92197600  1
  Cl  Cl63  1  0.68400800  0.17708600  0.42197600  1
  Cl  Cl64  1  0.94736100  0.87992500  0.68850900  1
  Cl  Cl65  1  0.94736100  0.62007500  0.18850900  1
  Cl  Cl66  1  0.05263900  0.12007500  0.31149100  1
  Cl  Cl67  1  0.05263900  0.37992500  0.81149100  1
  O  O68  1  0.01572800  0.85747400  0.94904300  1
  O  O69  1  0.01572800  0.64252600  0.44904300  1
  O  O70  1  0.98427200  0.14252600  0.05095700  1
  O  O71  1  0.98427200  0.35747400  0.55095700  1
  O  O72  1  0.29213500  0.92365500  0.96159700  1
  O  O73  1  0.29213500  0.57634500  0.46159700  1
  O  O74  1  0.70786500  0.07634500  0.03840300  1
  O  O75  1  0.70786500  0.42365500  0.53840300  1
  O  O76  1  0.96236800  0.65188100  0.81811800  1
  O  O77  1  0.96236800  0.84811900  0.31811800  1
  O  O78  1  0.03763200  0.34811900  0.18188200  1
  O  O79  1  0.03763200  0.15188100  0.68188200  1
  O  O80  1  0.25310900  0.71649500  0.82325200  1
  O  O81  1  0.25310900  0.78350500  0.32325200  1
  O  O82  1  0.74689100  0.28350500  0.17674800  1
  O  O83  1  0.74689100  0.21649500  0.67674800  1
