# generated using pymatgen
data_Tb6(Ga3Co)7
_symmetry_space_group_name_H-M   'P 1'
_cell_length_a   16.69229200
_cell_length_b   16.69229200
_cell_length_c   4.14431200
_cell_angle_alpha   90.00000000
_cell_angle_beta   90.00000000
_cell_angle_gamma   90.00000000
_symmetry_Int_Tables_number   1
_chemical_formula_structural   Tb6(Ga3Co)7
_chemical_formula_sum   'Tb12 Ga42 Co14'
_cell_volume   1154.74047839
_cell_formula_units_Z   2
loop_
 _symmetry_equiv_pos_site_id
 _symmetry_equiv_pos_as_xyz
  1  'x, y, z'
loop_
 _atom_site_type_symbol
 _atom_site_label
 _atom_site_symmetry_multiplicity
 _atom_site_fract_x
 _atom_site_fract_y
 _atom_site_fract_z
 _atom_site_occupancy
  Tb  Tb0  1  0.10729400  0.60729400  0.50000000  1
  Tb  Tb1  1  0.89270600  0.39270600  0.50000000  1
  Tb  Tb2  1  0.39270600  0.10729400  0.50000000  1
  Tb  Tb3  1  0.60729400  0.89270600  0.50000000  1
  Tb  Tb4  1  0.65777600  0.58684100  0.00000000  1
  Tb  Tb5  1  0.34222400  0.41315900  0.00000000  1
  Tb  Tb6  1  0.84222400  0.08684100  0.00000000  1
  Tb  Tb7  1  0.15777600  0.91315900  0.00000000  1
  Tb  Tb8  1  0.58684100  0.34222400  0.00000000  1
  Tb  Tb9  1  0.41315900  0.65777600  0.00000000  1
  Tb  Tb10  1  0.08684100  0.15777600  0.00000000  1
  Tb  Tb11  1  0.91315900  0.84222400  0.00000000  1
  Ga  Ga12  1  0.00000000  0.50000000  0.00000000  1
  Ga  Ga13  1  0.50000000  0.00000000  0.00000000  1
  Ga  Ga14  1  0.32045500  0.82045500  0.00000000  1
  Ga  Ga15  1  0.67954500  0.17954500  0.00000000  1
  Ga  Ga16  1  0.17954500  0.32045500  0.00000000  1
  Ga  Ga17  1  0.82045500  0.67954500  0.00000000  1
  Ga  Ga18  1  0.42549500  0.92549500  0.50000000  1
  Ga  Ga19  1  0.57450500  0.07450500  0.50000000  1
  Ga  Ga20  1  0.07450500  0.42549500  0.50000000  1
  Ga  Ga21  1  0.92549500  0.57450500  0.50000000  1
  Ga  Ga22  1  0.57537800  0.75839600  0.00000000  1
  Ga  Ga23  1  0.42462200  0.24160400  0.00000000  1
  Ga  Ga24  1  0.92462200  0.25839600  0.00000000  1
  Ga  Ga25  1  0.07537800  0.74160400  0.00000000  1
  Ga  Ga26  1  0.75839600  0.42462200  0.00000000  1
  Ga  Ga27  1  0.24160400  0.57537800  0.00000000  1
  Ga  Ga28  1  0.25839600  0.07537800  0.00000000  1
  Ga  Ga29  1  0.74160400  0.92462200  0.00000000  1
  Ga  Ga30  1  0.53167000  0.60840300  0.50000000  1
  Ga  Ga31  1  0.46833000  0.39159700  0.50000000  1
  Ga  Ga32  1  0.96833000  0.10840300  0.50000000  1
  Ga  Ga33  1  0.03167000  0.89159700  0.50000000  1
  Ga  Ga34  1  0.60840300  0.46833000  0.50000000  1
  Ga  Ga35  1  0.39159700  0.53167000  0.50000000  1
  Ga  Ga36  1  0.10840300  0.03167000  0.50000000  1
  Ga  Ga37  1  0.89159700  0.96833000  0.50000000  1
  Ga  Ga38  1  0.67842000  0.71059700  0.50000000  1
  Ga  Ga39  1  0.32158000  0.28940300  0.50000000  1
  Ga  Ga40  1  0.82158000  0.21059700  0.50000000  1
  Ga  Ga41  1  0.17842000  0.78940300  0.50000000  1
  Ga  Ga42  1  0.71059700  0.32158000  0.50000000  1
  Ga  Ga43  1  0.28940300  0.67842000  0.50000000  1
  Ga  Ga44  1  0.21059700  0.17842000  0.50000000  1
  Ga  Ga45  1  0.78940300  0.82158000  0.50000000  1
  Ga  Ga46  1  0.77262000  0.54276400  0.50000000  1
  Ga  Ga47  1  0.22738000  0.45723600  0.50000000  1
  Ga  Ga48  1  0.72738000  0.04276400  0.50000000  1
  Ga  Ga49  1  0.27262000  0.95723600  0.50000000  1
  Ga  Ga50  1  0.54276400  0.22738000  0.50000000  1
  Ga  Ga51  1  0.45723600  0.77262000  0.50000000  1
  Ga  Ga52  1  0.04276400  0.27262000  0.50000000  1
  Ga  Ga53  1  0.95723600  0.72738000  0.50000000  1
  Co  Co54  1  0.21885100  0.71885100  0.00000000  1
  Co  Co55  1  0.78114900  0.28114900  0.00000000  1
  Co  Co56  1  0.28114900  0.21885100  0.00000000  1
  Co  Co57  1  0.71885100  0.78114900  0.00000000  1
  Co  Co58  1  0.96397500  0.64764000  0.00000000  1
  Co  Co59  1  0.03602500  0.35236000  0.00000000  1
  Co  Co60  1  0.53602500  0.14764000  0.00000000  1
  Co  Co61  1  0.46397500  0.85236000  0.00000000  1
  Co  Co62  1  0.64764000  0.03602500  0.00000000  1
  Co  Co63  1  0.35236000  0.96397500  0.00000000  1
  Co  Co64  1  0.14764000  0.46397500  0.00000000  1
  Co  Co65  1  0.85236000  0.53602500  0.00000000  1
  Co  Co66  1  0.50000000  0.50000000  0.00000000  1
  Co  Co67  1  0.00000000  0.00000000  0.00000000  1
