# generated using pymatgen
data_NaTc2N5OF12
_symmetry_space_group_name_H-M   'P 1'
_cell_length_a   6.25250500
_cell_length_b   7.48143500
_cell_length_c   15.47542900
_cell_angle_alpha   90.00000000
_cell_angle_beta   90.00000000
_cell_angle_gamma   90.00000000
_symmetry_Int_Tables_number   1
_chemical_formula_structural   NaTc2N5OF12
_chemical_formula_sum   'Na2 Tc4 N10 O2 F24'
_cell_volume   723.90512594
_cell_formula_units_Z   2
loop_
 _symmetry_equiv_pos_site_id
 _symmetry_equiv_pos_as_xyz
  1  'x, y, z'
loop_
 _atom_site_type_symbol
 _atom_site_label
 _atom_site_symmetry_multiplicity
 _atom_site_fract_x
 _atom_site_fract_y
 _atom_site_fract_z
 _atom_site_occupancy
  Na  Na0  1  0.00000000  0.00000000  0.50000000  1
  Na  Na1  1  0.00000000  0.50000000  0.00000000  1
  Tc  Tc2  1  0.50000000  0.65575900  0.59362600  1
  Tc  Tc3  1  0.50000000  0.34424100  0.40637400  1
  Tc  Tc4  1  0.50000000  0.15575900  0.90637400  1
  Tc  Tc5  1  0.50000000  0.84424100  0.09362600  1
  N  N6  1  0.50000000  0.16249500  0.63725400  1
  N  N7  1  0.50000000  0.83750500  0.36274600  1
  N  N8  1  0.50000000  0.66249500  0.86274600  1
  N  N9  1  0.50000000  0.33750500  0.13725400  1
  N  N10  1  0.00000000  0.39907200  0.78780800  1
  N  N11  1  0.00000000  0.60092800  0.21219200  1
  N  N12  1  0.00000000  0.89907200  0.71219200  1
  N  N13  1  0.00000000  0.10092800  0.28780800  1
  N  N14  1  0.00000000  0.50000000  0.50000000  1
  N  N15  1  0.00000000  0.00000000  0.00000000  1
  O  O16  1  0.50000000  0.50000000  0.50000000  1
  O  O17  1  0.50000000  0.00000000  0.00000000  1
  F  F18  1  0.28568800  0.52462900  0.64939800  1
  F  F19  1  0.28568800  0.47537100  0.35060200  1
  F  F20  1  0.71431200  0.02462900  0.85060200  1
  F  F21  1  0.71431200  0.97537100  0.14939800  1
  F  F22  1  0.71431200  0.47537100  0.35060200  1
  F  F23  1  0.71431200  0.52462900  0.64939800  1
  F  F24  1  0.28568800  0.97537100  0.14939800  1
  F  F25  1  0.28568800  0.02462900  0.85060200  1
  F  F26  1  0.50000000  0.81362400  0.68785700  1
  F  F27  1  0.50000000  0.18637600  0.31214300  1
  F  F28  1  0.50000000  0.31362400  0.81214300  1
  F  F29  1  0.50000000  0.68637600  0.18785700  1
  F  F30  1  0.71581500  0.80528800  0.54169300  1
  F  F31  1  0.71581500  0.19471200  0.45830700  1
  F  F32  1  0.28418500  0.30528800  0.95830700  1
  F  F33  1  0.28418500  0.69471200  0.04169300  1
  F  F34  1  0.28418500  0.19471200  0.45830700  1
  F  F35  1  0.28418500  0.80528800  0.54169300  1
  F  F36  1  0.71581500  0.69471200  0.04169300  1
  F  F37  1  0.71581500  0.30528800  0.95830700  1
  F  F38  1  0.00000000  0.05857600  0.67135200  1
  F  F39  1  0.00000000  0.94142400  0.32864800  1
  F  F40  1  0.00000000  0.55857600  0.82864800  1
  F  F41  1  0.00000000  0.44142400  0.17135200  1
