# generated using pymatgen
data_B10Pb4O21
_symmetry_space_group_name_H-M   'P 1'
_cell_length_a   11.45481500
_cell_length_b   6.66552600
_cell_length_c   13.14051880
_cell_angle_alpha   60.39693290
_cell_angle_beta   90.00000000
_cell_angle_gamma   90.00000000
_symmetry_Int_Tables_number   1
_chemical_formula_structural   B10Pb4O21
_chemical_formula_sum   'B20 Pb8 O42'
_cell_volume   872.34618143
_cell_formula_units_Z   2
loop_
 _symmetry_equiv_pos_site_id
 _symmetry_equiv_pos_as_xyz
  1  'x, y, z'
loop_
 _atom_site_type_symbol
 _atom_site_label
 _atom_site_symmetry_multiplicity
 _atom_site_fract_x
 _atom_site_fract_y
 _atom_site_fract_z
 _atom_site_occupancy
  B  B0  1  0.21987200  0.21790300  0.46025100  1
  B  B1  1  0.71987200  0.78209700  0.03974900  1
  B  B2  1  0.78012800  0.78209700  0.53974900  1
  B  B3  1  0.28012800  0.21790300  0.96025100  1
  B  B4  1  0.00949300  0.73728400  0.75908000  1
  B  B5  1  0.50949300  0.26271600  0.74092000  1
  B  B6  1  0.99050700  0.26271600  0.24092000  1
  B  B7  1  0.49050700  0.73728400  0.25908000  1
  B  B8  1  0.80897300  0.48434600  0.22582100  1
  B  B9  1  0.30897300  0.51565400  0.27417900  1
  B  B10  1  0.19102700  0.51565400  0.77417900  1
  B  B11  1  0.69102700  0.48434600  0.72582100  1
  B  B12  1  0.78654600  0.84543800  0.71138400  1
  B  B13  1  0.28654600  0.15456200  0.78861600  1
  B  B14  1  0.21345400  0.15456200  0.28861600  1
  B  B15  1  0.71345400  0.84543800  0.21138400  1
  B  B16  1  0.20145100  0.94781400  0.68275600  1
  B  B17  1  0.70145100  0.05218600  0.81724400  1
  B  B18  1  0.79854900  0.05218600  0.31724400  1
  B  B19  1  0.29854900  0.94781400  0.18275600  1
  Pb  Pb20  1  0.26898200  0.64341800  0.52314600  1
  Pb  Pb21  1  0.76898200  0.35658200  0.97685400  1
  Pb  Pb22  1  0.73101800  0.35658200  0.47685400  1
  Pb  Pb23  1  0.23101800  0.64341800  0.02314600  1
  Pb  Pb24  1  0.48190800  0.69376200  0.82478200  1
  Pb  Pb25  1  0.98190800  0.30623800  0.67521800  1
  Pb  Pb26  1  0.51809200  0.30623800  0.17521800  1
  Pb  Pb27  1  0.01809200  0.69376200  0.32478200  1
  O  O28  1  0.76823200  0.26184000  0.32191000  1
  O  O29  1  0.26823200  0.73816000  0.17809000  1
  O  O30  1  0.23176800  0.73816000  0.67809000  1
  O  O31  1  0.73176800  0.26184000  0.82191000  1
  O  O32  1  0.30565500  0.33628100  0.23809200  1
  O  O33  1  0.80565500  0.66371900  0.26190800  1
  O  O34  1  0.69434500  0.66371900  0.76190800  1
  O  O35  1  0.19434500  0.33628100  0.73809200  1
  O  O36  1  0.22453600  0.16095900  0.57415300  1
  O  O37  1  0.72453600  0.83904100  0.92584700  1
  O  O38  1  0.77546400  0.83904100  0.42584700  1
  O  O39  1  0.27546400  0.16095900  0.07415300  1
  O  O40  1  0.26237000  0.94909600  0.78052200  1
  O  O41  1  0.76237000  0.05090400  0.71947800  1
  O  O42  1  0.73763000  0.05090400  0.21947800  1
  O  O43  1  0.23763000  0.94909600  0.28052200  1
  O  O44  1  0.93199400  0.46858400  0.19751000  1
  O  O45  1  0.43199400  0.53141600  0.30249000  1
  O  O46  1  0.06800600  0.53141600  0.80249000  1
  O  O47  1  0.56800600  0.46858400  0.69751000  1
  O  O48  1  0.06948000  0.94454000  0.70389700  1
  O  O49  1  0.56948000  0.05546000  0.79610300  1
  O  O50  1  0.93052000  0.05546000  0.29610300  1
  O  O51  1  0.43052000  0.94454000  0.20389700  1
  O  O52  1  0.73479100  0.54970300  0.12066200  1
  O  O53  1  0.23479100  0.45029700  0.37933800  1
  O  O54  1  0.26520900  0.45029700  0.87933800  1
  O  O55  1  0.76520900  0.54970300  0.62066200  1
  O  O56  1  0.79558500  0.93357500  0.58135600  1
  O  O57  1  0.29558500  0.06642500  0.91864400  1
  O  O58  1  0.20441500  0.06642500  0.41864400  1
  O  O59  1  0.70441500  0.93357500  0.08135600  1
  O  O60  1  0.43742700  0.62706700  0.01195600  1
  O  O61  1  0.93742700  0.37293300  0.48804400  1
  O  O62  1  0.56257300  0.37293300  0.98804400  1
  O  O63  1  0.06257300  0.62706700  0.51195600  1
  O  O64  1  0.89231000  0.72464000  0.77500700  1
  O  O65  1  0.39231000  0.27536000  0.72499300  1
  O  O66  1  0.10769000  0.27536000  0.22499300  1
  O  O67  1  0.60769000  0.72464000  0.27500700  1
  O  O68  1  0.50000000  0.00000000  0.50000000  1
  O  O69  1  0.00000000  0.00000000  0.00000000  1
