# generated using pymatgen
data_FeSO8
_symmetry_space_group_name_H-M   'P 1'
_cell_length_a   6.66874300
_cell_length_b   8.85354617
_cell_length_c   11.63734118
_cell_angle_alpha   80.56394530
_cell_angle_beta   84.78417601
_cell_angle_gamma   88.05664825
_symmetry_Int_Tables_number   1
_chemical_formula_structural   FeSO8
_chemical_formula_sum   'Fe4 S4 O32'
_cell_volume   674.86238335
_cell_formula_units_Z   4
loop_
 _symmetry_equiv_pos_site_id
 _symmetry_equiv_pos_as_xyz
  1  'x, y, z'
loop_
 _atom_site_type_symbol
 _atom_site_label
 _atom_site_symmetry_multiplicity
 _atom_site_fract_x
 _atom_site_fract_y
 _atom_site_fract_z
 _atom_site_occupancy
  Fe  Fe0  1  0.17885900  0.93958500  0.06806900  1
  Fe  Fe1  1  0.82114100  0.06041500  0.93193100  1
  Fe  Fe2  1  0.20125900  0.91493000  0.75999100  1
  Fe  Fe3  1  0.79874100  0.08507000  0.24000900  1
  S  S4  1  0.08870900  0.81268300  0.34669200  1
  S  S5  1  0.91129100  0.18731700  0.65330800  1
  S  S6  1  0.47322400  0.23687900  0.07460700  1
  S  S7  1  0.52677600  0.76312100  0.92539300  1
  O  O8  1  0.01203900  0.02947600  0.65930600  1
  O  O9  1  0.98796100  0.97052400  0.34069400  1
  O  O10  1  0.05036700  0.30865600  0.60221000  1
  O  O11  1  0.94963300  0.69134400  0.39779000  1
  O  O12  1  0.16294800  0.79809300  0.22211900  1
  O  O13  1  0.83705200  0.20190700  0.77788100  1
  O  O14  1  0.26052200  0.80438800  0.41844600  1
  O  O15  1  0.73947800  0.19561200  0.58155400  1
  O  O16  1  0.39880300  0.78794000  0.03371000  1
  O  O17  1  0.60119700  0.21206000  0.96629000  1
  O  O18  1  0.38865400  0.75719200  0.83069900  1
  O  O19  1  0.61134600  0.24280800  0.16930100  1
  O  O20  1  0.34956100  0.37333000  0.05785200  1
  O  O21  1  0.65043900  0.62667000  0.94214800  1
  O  O22  1  0.34673300  0.09429800  0.11313800  1
  O  O23  1  0.65326700  0.90570200  0.88686200  1
  O  O24  1  0.10065300  0.97910300  0.90610800  1
  O  O25  1  0.89934700  0.02089700  0.09389200  1
  O  O26  1  0.40323600  0.50857200  0.23041100  1
  O  O27  1  0.59676400  0.49142800  0.76958900  1
  O  O28  1  0.41311100  0.92894300  0.61005000  1
  O  O29  1  0.58688900  0.07105700  0.38995000  1
  O  O30  1  0.00798500  0.69969800  0.74086000  1
  O  O31  1  0.99201500  0.30030200  0.25914000  1
  O  O32  1  0.12091700  0.30996100  0.32764400  1
  O  O33  1  0.87908300  0.69003900  0.67235600  1
  O  O34  1  0.96615100  0.63430800  0.08265400  1
  O  O35  1  0.03384900  0.36569200  0.91734600  1
  O  O36  1  0.16976500  0.40291000  0.84088200  1
  O  O37  1  0.83023500  0.59709000  0.15911800  1
  O  O38  1  0.44701200  0.03673400  0.66707500  1
  O  O39  1  0.55298800  0.96326600  0.33292500  1
