# generated using pymatgen
data_AsC6NF4
_symmetry_space_group_name_H-M   'P 1'
_cell_length_a   7.54884900
_cell_length_b   10.52741500
_cell_length_c   11.77591170
_cell_angle_alpha   84.73816101
_cell_angle_beta   90.00000000
_cell_angle_gamma   90.00000000
_symmetry_Int_Tables_number   1
_chemical_formula_structural   AsC6NF4
_chemical_formula_sum   'As4 C24 N4 F16'
_cell_volume   931.88653833
_cell_formula_units_Z   4
loop_
 _symmetry_equiv_pos_site_id
 _symmetry_equiv_pos_as_xyz
  1  'x, y, z'
loop_
 _atom_site_type_symbol
 _atom_site_label
 _atom_site_symmetry_multiplicity
 _atom_site_fract_x
 _atom_site_fract_y
 _atom_site_fract_z
 _atom_site_occupancy
  As  As0  1  0.58312900  0.00871100  0.16186600  1
  As  As1  1  0.08312900  0.49128900  0.83813400  1
  As  As2  1  0.41687100  0.99128900  0.83813400  1
  As  As3  1  0.91687100  0.50871100  0.16186600  1
  C  C4  1  0.76990800  0.92430700  0.27228400  1
  C  C5  1  0.26990800  0.57569300  0.72771600  1
  C  C6  1  0.23009200  0.07569300  0.72771600  1
  C  C7  1  0.73009200  0.42430700  0.27228400  1
  C  C8  1  0.46098300  0.07296800  0.28158300  1
  C  C9  1  0.96098300  0.42703200  0.71841700  1
  C  C10  1  0.53901700  0.92703200  0.71841700  1
  C  C11  1  0.03901700  0.57296800  0.28158300  1
  C  C12  1  0.26445300  0.22938700  0.34129400  1
  C  C13  1  0.76445300  0.27061300  0.65870600  1
  C  C14  1  0.73554700  0.77061300  0.65870600  1
  C  C15  1  0.23554700  0.72938700  0.34129400  1
  C  C16  1  0.25588500  0.31634500  0.40977600  1
  C  C17  1  0.75588500  0.18365500  0.59022400  1
  C  C18  1  0.74411500  0.68365500  0.59022400  1
  C  C19  1  0.24411500  0.81634500  0.40977600  1
  C  C20  1  0.23135400  0.15836800  0.15915600  1
  C  C21  1  0.73135400  0.34163200  0.84084400  1
  C  C22  1  0.76864600  0.84163200  0.84084400  1
  C  C23  1  0.26864600  0.65836800  0.15915600  1
  C  C24  1  0.14087200  0.15786000  0.06809800  1
  C  C25  1  0.64087200  0.34214000  0.93190200  1
  C  C26  1  0.85912800  0.84214000  0.93190200  1
  C  C27  1  0.35912800  0.65786000  0.06809800  1
  N  N28  1  0.31268600  0.15492600  0.26061200  1
  N  N29  1  0.81268600  0.34507400  0.73938800  1
  N  N30  1  0.68731400  0.84507400  0.73938800  1
  N  N31  1  0.18731400  0.65492600  0.26061200  1
  F  F32  1  0.85471900  0.00944600  0.33266800  1
  F  F33  1  0.35471900  0.49055400  0.66733200  1
  F  F34  1  0.14528100  0.99055400  0.66733200  1
  F  F35  1  0.64528100  0.50944600  0.33266800  1
  F  F36  1  0.89370400  0.86768800  0.20943300  1
  F  F37  1  0.39370400  0.63231200  0.79056700  1
  F  F38  1  0.10629600  0.13231200  0.79056700  1
  F  F39  1  0.60629600  0.36768800  0.20943300  1
  F  F40  1  0.69639900  0.83237800  0.34571000  1
  F  F41  1  0.19639900  0.66762200  0.65429000  1
  F  F42  1  0.30360100  0.16762200  0.65429000  1
  F  F43  1  0.80360100  0.33237800  0.34571000  1
  F  F44  1  0.50789400  0.06250800  0.38973000  1
  F  F45  1  0.00789400  0.43749200  0.61027000  1
  F  F46  1  0.49210600  0.93749200  0.61027000  1
  F  F47  1  0.99210600  0.56250800  0.38973000  1
