# generated using pymatgen
data_CsV2P3O14
_symmetry_space_group_name_H-M   'P 1'
_cell_length_a   6.25274700
_cell_length_b   18.38138200
_cell_length_c   10.07809780
_cell_angle_alpha   90.00000000
_cell_angle_beta   94.89142900
_cell_angle_gamma   90.00000000
_symmetry_Int_Tables_number   1
_chemical_formula_structural   CsV2P3O14
_chemical_formula_sum   'Cs4 V8 P12 O56'
_cell_volume   1154.09889499
_cell_formula_units_Z   4
loop_
 _symmetry_equiv_pos_site_id
 _symmetry_equiv_pos_as_xyz
  1  'x, y, z'
loop_
 _atom_site_type_symbol
 _atom_site_label
 _atom_site_symmetry_multiplicity
 _atom_site_fract_x
 _atom_site_fract_y
 _atom_site_fract_z
 _atom_site_occupancy
  Cs  Cs0  1  0.19768400  0.69803100  0.99390000  1
  Cs  Cs1  1  0.80231600  0.19803100  0.50610000  1
  Cs  Cs2  1  0.80231600  0.30196900  0.00610000  1
  Cs  Cs3  1  0.19768400  0.80196900  0.49390000  1
  V  V4  1  0.70090500  0.87288900  0.15978800  1
  V  V5  1  0.29909500  0.37288900  0.34021200  1
  V  V6  1  0.29909500  0.12711100  0.84021200  1
  V  V7  1  0.70090500  0.62711100  0.65978800  1
  V  V8  1  0.23755700  0.06460600  0.33240100  1
  V  V9  1  0.76244300  0.56460600  0.16759900  1
  V  V10  1  0.76244300  0.93539400  0.66759900  1
  V  V11  1  0.23755700  0.43539400  0.83240100  1
  P  P12  1  0.65926200  0.80420800  0.86292200  1
  P  P13  1  0.34073800  0.30420800  0.63707800  1
  P  P14  1  0.34073800  0.19579200  0.13707800  1
  P  P15  1  0.65926200  0.69579200  0.36292200  1
  P  P16  1  0.74435200  0.00709200  0.37157400  1
  P  P17  1  0.25564800  0.50709200  0.12842600  1
  P  P18  1  0.25564800  0.99290800  0.62842600  1
  P  P19  1  0.74435200  0.49290800  0.87157400  1
  P  P20  1  0.20387100  0.89983700  0.12906700  1
  P  P21  1  0.79612900  0.39983700  0.37093300  1
  P  P22  1  0.79612900  0.10016300  0.87093300  1
  P  P23  1  0.20387100  0.60016300  0.62906700  1
  O  O24  1  0.42147000  0.80139000  0.80715500  1
  O  O25  1  0.57853000  0.30139000  0.69284500  1
  O  O26  1  0.57853000  0.19861000  0.19284500  1
  O  O27  1  0.42147000  0.69861000  0.30715500  1
  O  O28  1  0.75024100  0.73521000  0.80368100  1
  O  O29  1  0.24975900  0.23521000  0.69631900  1
  O  O30  1  0.24975900  0.26479000  0.19631900  1
  O  O31  1  0.75024100  0.76479000  0.30368100  1
  O  O32  1  0.77260800  0.87551400  0.82550200  1
  O  O33  1  0.22739200  0.37551400  0.67449800  1
  O  O34  1  0.22739200  0.12448600  0.17449800  1
  O  O35  1  0.77260800  0.62448600  0.32550200  1
  O  O36  1  0.67818500  0.80005400  0.01876300  1
  O  O37  1  0.32181500  0.30005400  0.48123700  1
  O  O38  1  0.32181500  0.19994600  0.98123700  1
  O  O39  1  0.67818500  0.69994600  0.51876300  1
  O  O40  1  0.67875000  0.94199900  0.06497800  1
  O  O41  1  0.32125000  0.44199900  0.43502200  1
  O  O42  1  0.32125000  0.05800100  0.93502200  1
  O  O43  1  0.67875000  0.55800100  0.56497800  1
  O  O44  1  0.76435200  0.92716800  0.32505000  1
  O  O45  1  0.23564800  0.42716800  0.17495000  1
  O  O46  1  0.23564800  0.07283200  0.67495000  1
  O  O47  1  0.76435200  0.57283200  0.82505000  1
  O  O48  1  0.92870700  0.05581800  0.32760400  1
  O  O49  1  0.07129300  0.55581800  0.17239600  1
  O  O50  1  0.07129300  0.94418200  0.67239600  1
  O  O51  1  0.92870700  0.44418200  0.82760400  1
  O  O52  1  0.75191200  0.00981800  0.52592600  1
  O  O53  1  0.24808800  0.50981800  0.97407400  1
  O  O54  1  0.24808800  0.99018200  0.47407400  1
  O  O55  1  0.75191200  0.49018200  0.02592600  1
  O  O56  1  0.53375000  0.04211700  0.31210000  1
  O  O57  1  0.46625000  0.54211700  0.18790000  1
  O  O58  1  0.46625000  0.95788300  0.68790000  1
  O  O59  1  0.53375000  0.45788300  0.81210000  1
  O  O60  1  0.27155300  0.13292200  0.43271100  1
  O  O61  1  0.72844700  0.63292200  0.06728900  1
  O  O62  1  0.72844700  0.86707800  0.56728900  1
  O  O63  1  0.27155300  0.36707800  0.93271100  1
  O  O64  1  0.18834500  0.97647000  0.18172000  1
  O  O65  1  0.81165500  0.47647000  0.31828000  1
  O  O66  1  0.81165500  0.02353000  0.81828000  1
  O  O67  1  0.18834500  0.52353000  0.68172000  1
  O  O68  1  0.01451700  0.85208400  0.17163700  1
  O  O69  1  0.98548300  0.35208400  0.32836300  1
  O  O70  1  0.98548300  0.14791600  0.82836300  1
  O  O71  1  0.01451700  0.64791600  0.67163700  1
  O  O72  1  0.19542700  0.89634300  0.97632200  1
  O  O73  1  0.80457300  0.39634300  0.52367800  1
  O  O74  1  0.80457300  0.10365700  0.02367800  1
  O  O75  1  0.19542700  0.60365700  0.47632200  1
  O  O76  1  0.41060600  0.85941400  0.19384900  1
  O  O77  1  0.58939400  0.35941400  0.30615100  1
  O  O78  1  0.58939400  0.14058600  0.80615100  1
  O  O79  1  0.41060600  0.64058600  0.69384900  1
