# generated using pymatgen
data_BP3(PbO4)3
_symmetry_space_group_name_H-M   'P 1'
_cell_length_a   7.09329700
_cell_length_b   14.23591800
_cell_length_c   21.89281600
_cell_angle_alpha   90.00000000
_cell_angle_beta   90.00000000
_cell_angle_gamma   90.00000000
_symmetry_Int_Tables_number   1
_chemical_formula_structural   BP3(PbO4)3
_chemical_formula_sum   'B8 P24 Pb24 O96'
_cell_volume   2210.72768087
_cell_formula_units_Z   8
loop_
 _symmetry_equiv_pos_site_id
 _symmetry_equiv_pos_as_xyz
  1  'x, y, z'
loop_
 _atom_site_type_symbol
 _atom_site_label
 _atom_site_symmetry_multiplicity
 _atom_site_fract_x
 _atom_site_fract_y
 _atom_site_fract_z
 _atom_site_occupancy
  B  B0  1  0.78520600  0.49494900  0.16563200  1
  B  B1  1  0.28520600  0.50505100  0.33436800  1
  B  B2  1  0.21479400  0.00505100  0.66563200  1
  B  B3  1  0.71479400  0.99494900  0.83436800  1
  B  B4  1  0.21479400  0.50505100  0.83436800  1
  B  B5  1  0.71479400  0.49494900  0.66563200  1
  B  B6  1  0.78520600  0.99494900  0.33436800  1
  B  B7  1  0.28520600  0.00505100  0.16563200  1
  P  P8  1  0.96391500  0.37929000  0.08118500  1
  P  P9  1  0.46391500  0.62071000  0.41881500  1
  P  P10  1  0.03608500  0.12071000  0.58118500  1
  P  P11  1  0.53608500  0.87929000  0.91881500  1
  P  P12  1  0.03608500  0.62071000  0.91881500  1
  P  P13  1  0.53608500  0.37929000  0.58118500  1
  P  P14  1  0.96391500  0.87929000  0.41881500  1
  P  P15  1  0.46391500  0.12071000  0.08118500  1
  P  P16  1  0.61673500  0.13076900  0.40847200  1
  P  P17  1  0.11673500  0.86923100  0.09152800  1
  P  P18  1  0.38326500  0.36923100  0.90847200  1
  P  P19  1  0.88326500  0.63076900  0.59152800  1
  P  P20  1  0.38326500  0.86923100  0.59152800  1
  P  P21  1  0.88326500  0.13076900  0.90847200  1
  P  P22  1  0.61673500  0.63076900  0.09152800  1
  P  P23  1  0.11673500  0.36923100  0.40847200  1
  P  P24  1  0.01498400  0.58790200  0.25998600  1
  P  P25  1  0.51498400  0.41209800  0.24001400  1
  P  P26  1  0.98501600  0.91209800  0.75998600  1
  P  P27  1  0.48501600  0.08790200  0.74001400  1
  P  P28  1  0.98501600  0.41209800  0.74001400  1
  P  P29  1  0.48501600  0.58790200  0.75998600  1
  P  P30  1  0.01498400  0.08790200  0.24001400  1
  P  P31  1  0.51498400  0.91209800  0.25998600  1
  Pb  Pb32  1  0.65111500  0.37255800  0.42347000  1
  Pb  Pb33  1  0.15111500  0.62744200  0.07653000  1
  Pb  Pb34  1  0.34888500  0.12744200  0.92347000  1
  Pb  Pb35  1  0.84888500  0.87255800  0.57653000  1
  Pb  Pb36  1  0.34888500  0.62744200  0.57653000  1
  Pb  Pb37  1  0.84888500  0.37255800  0.92347000  1
  Pb  Pb38  1  0.65111500  0.87255800  0.07653000  1
  Pb  Pb39  1  0.15111500  0.12744200  0.42347000  1
  Pb  Pb40  1  0.42071900  0.36257200  0.05761600  1
  Pb  Pb41  1  0.92071900  0.63742800  0.44238400  1
  Pb  Pb42  1  0.57928100  0.13742800  0.55761600  1
  Pb  Pb43  1  0.07928100  0.86257200  0.94238400  1
  Pb  Pb44  1  0.57928100  0.63742800  0.94238400  1
  Pb  Pb45  1  0.07928100  0.36257200  0.55761600  1
  Pb  Pb46  1  0.42071900  0.86257200  0.44238400  1
  Pb  Pb47  1  0.92071900  0.13742800  0.05761600  1
  Pb  Pb48  1  0.00873500  0.31822500  0.24630500  1
  Pb  Pb49  1  0.50873500  0.68177500  0.25369500  1
  Pb  Pb50  1  0.99126500  0.18177500  0.74630500  1
  Pb  Pb51  1  0.49126500  0.81822500  0.75369500  1
  Pb  Pb52  1  0.99126500  0.68177500  0.75369500  1
  Pb  Pb53  1  0.49126500  0.31822500  0.74630500  1
  Pb  Pb54  1  0.00873500  0.81822500  0.25369500  1
  Pb  Pb55  1  0.50873500  0.18177500  0.24630500  1
  O  O56  1  0.11271600  0.45621100  0.06838600  1
  O  O57  1  0.61271600  0.54378900  0.43161400  1
  O  O58  1  0.88728400  0.04378900  0.56838600  1
  O  O59  1  0.38728400  0.95621100  0.93161400  1
  O  O60  1  0.88728400  0.54378900  0.93161400  1
  O  O61  1  0.38728400  0.45621100  0.56838600  1
  O  O62  1  0.11271600  0.95621100  0.43161400  1
  O  O63  1  0.61271600  0.04378900  0.06838600  1
  O  O64  1  0.81480900  0.36949700  0.03052600  1
  O  O65  1  0.31480900  0.63050300  0.46947400  1
  O  O66  1  0.18519100  0.13050300  0.53052600  1
  O  O67  1  0.68519100  0.86949700  0.96947400  1
  O  O68  1  0.18519100  0.63050300  0.96947400  1
  O  O69  1  0.68519100  0.36949700  0.53052600  1
  O  O70  1  0.81480900  0.86949700  0.46947400  1
  O  O71  1  0.31480900  0.13050300  0.03052600  1
  O  O72  1  0.06972400  0.28695800  0.09528600  1
  O  O73  1  0.56972400  0.71304200  0.40471400  1
  O  O74  1  0.93027600  0.21304200  0.59528600  1
  O  O75  1  0.43027600  0.78695800  0.90471400  1
  O  O76  1  0.93027600  0.71304200  0.90471400  1
  O  O77  1  0.43027600  0.28695800  0.59528600  1
  O  O78  1  0.06972400  0.78695800  0.40471400  1
  O  O79  1  0.56972400  0.21304200  0.09528600  1
  O  O80  1  0.84807100  0.40380500  0.14187500  1
  O  O81  1  0.34807100  0.59619500  0.35812500  1
  O  O82  1  0.15192900  0.09619500  0.64187500  1
  O  O83  1  0.65192900  0.90380500  0.85812500  1
  O  O84  1  0.15192900  0.59619500  0.85812500  1
  O  O85  1  0.65192900  0.40380500  0.64187500  1
  O  O86  1  0.84807100  0.90380500  0.35812500  1
  O  O87  1  0.34807100  0.09619500  0.14187500  1
  O  O88  1  0.52475200  0.19155900  0.35872400  1
  O  O89  1  0.02475200  0.80844100  0.14127600  1
  O  O90  1  0.47524800  0.30844100  0.85872400  1
  O  O91  1  0.97524800  0.69155900  0.64127600  1
  O  O92  1  0.47524800  0.80844100  0.64127600  1
  O  O93  1  0.97524800  0.19155900  0.85872400  1
  O  O94  1  0.52475200  0.69155900  0.14127600  1
  O  O95  1  0.02475200  0.30844100  0.35872400  1
  O  O96  1  0.78497900  0.06966300  0.38022200  1
  O  O97  1  0.28497900  0.93033700  0.11977800  1
  O  O98  1  0.21502100  0.43033700  0.88022200  1
  O  O99  1  0.71502100  0.56966300  0.61977800  1
  O  O100  1  0.21502100  0.93033700  0.61977800  1
  O  O101  1  0.71502100  0.06966300  0.88022200  1
  O  O102  1  0.78497900  0.56966300  0.11977800  1
  O  O103  1  0.28497900  0.43033700  0.38022200  1
  O  O104  1  0.71228100  0.19212000  0.45837800  1
  O  O105  1  0.21228100  0.80788000  0.04162200  1
  O  O106  1  0.28771900  0.30788000  0.95837800  1
  O  O107  1  0.78771900  0.69212000  0.54162200  1
  O  O108  1  0.28771900  0.80788000  0.54162200  1
  O  O109  1  0.78771900  0.19212000  0.95837800  1
  O  O110  1  0.71228100  0.69212000  0.04162200  1
  O  O111  1  0.21228100  0.30788000  0.45837800  1
  O  O112  1  0.47129500  0.06517200  0.43954800  1
  O  O113  1  0.97129500  0.93482800  0.06045200  1
  O  O114  1  0.52870500  0.43482800  0.93954800  1
  O  O115  1  0.02870500  0.56517200  0.56045200  1
  O  O116  1  0.52870500  0.93482800  0.56045200  1
  O  O117  1  0.02870500  0.06517200  0.93954800  1
  O  O118  1  0.47129500  0.56517200  0.06045200  1
  O  O119  1  0.97129500  0.43482800  0.43954800  1
  O  O120  1  0.17327400  0.64536000  0.23026300  1
  O  O121  1  0.67327400  0.35464000  0.26973700  1
  O  O122  1  0.82672600  0.85464000  0.73026300  1
  O  O123  1  0.32672600  0.14536000  0.76973700  1
  O  O124  1  0.82672600  0.35464000  0.76973700  1
  O  O125  1  0.32672600  0.64536000  0.73026300  1
  O  O126  1  0.17327400  0.14536000  0.26973700  1
  O  O127  1  0.67327400  0.85464000  0.23026300  1
  O  O128  1  0.09249200  0.51630200  0.30937300  1
  O  O129  1  0.59249200  0.48369800  0.19062700  1
  O  O130  1  0.90750800  0.98369800  0.80937300  1
  O  O131  1  0.40750800  0.01630200  0.69062700  1
  O  O132  1  0.90750800  0.48369800  0.69062700  1
  O  O133  1  0.40750800  0.51630200  0.80937300  1
  O  O134  1  0.09249200  0.01630200  0.19062700  1
  O  O135  1  0.59249200  0.98369800  0.30937300  1
  O  O136  1  0.86720800  0.65442400  0.28729300  1
  O  O137  1  0.36720800  0.34557600  0.21270700  1
  O  O138  1  0.13279200  0.84557600  0.78729300  1
  O  O139  1  0.63279200  0.15442400  0.71270700  1
  O  O140  1  0.13279200  0.34557600  0.71270700  1
  O  O141  1  0.63279200  0.65442400  0.78729300  1
  O  O142  1  0.86720800  0.15442400  0.21270700  1
  O  O143  1  0.36720800  0.84557600  0.28729300  1
  O  O144  1  0.92576800  0.51625200  0.21417500  1
  O  O145  1  0.42576800  0.48374800  0.28582500  1
  O  O146  1  0.07423200  0.98374800  0.71417500  1
  O  O147  1  0.57423200  0.01625200  0.78582500  1
  O  O148  1  0.07423200  0.48374800  0.78582500  1
  O  O149  1  0.57423200  0.51625200  0.71417500  1
  O  O150  1  0.92576800  0.01625200  0.28582500  1
  O  O151  1  0.42576800  0.98374800  0.21417500  1
