# generated using pymatgen
data_KErP2O9
_symmetry_space_group_name_H-M   'P 1'
_cell_length_a   10.56066900
_cell_length_b   7.69049700
_cell_length_c   10.13665545
_cell_angle_alpha   88.84222112
_cell_angle_beta   90.00000000
_cell_angle_gamma   90.00000000
_symmetry_Int_Tables_number   1
_chemical_formula_structural   KErP2O9
_chemical_formula_sum   'K4 Er4 P8 O36'
_cell_volume   823.09857596
_cell_formula_units_Z   4
loop_
 _symmetry_equiv_pos_site_id
 _symmetry_equiv_pos_as_xyz
  1  'x, y, z'
loop_
 _atom_site_type_symbol
 _atom_site_label
 _atom_site_symmetry_multiplicity
 _atom_site_fract_x
 _atom_site_fract_y
 _atom_site_fract_z
 _atom_site_occupancy
  K  K0  1  0.72095500  0.73985000  0.14636300  1
  K  K1  1  0.22095500  0.26015000  0.35363700  1
  K  K2  1  0.27904500  0.26015000  0.85363700  1
  K  K3  1  0.77904500  0.73985000  0.64636300  1
  Er  Er4  1  0.62207400  0.25126800  0.16749400  1
  Er  Er5  1  0.12207400  0.74873200  0.33250600  1
  Er  Er6  1  0.37792600  0.74873200  0.83250600  1
  Er  Er7  1  0.87792600  0.25126800  0.66749400  1
  P  P8  1  0.39286600  0.60362800  0.16612600  1
  P  P9  1  0.89286600  0.39637200  0.33387400  1
  P  P10  1  0.60713400  0.39637200  0.83387400  1
  P  P11  1  0.10713400  0.60362800  0.66612600  1
  P  P12  1  0.64696900  0.03296000  0.86718400  1
  P  P13  1  0.14696900  0.96704000  0.63281600  1
  P  P14  1  0.35303100  0.96704000  0.13281600  1
  P  P15  1  0.85303100  0.03296000  0.36718400  1
  O  O16  1  0.36061800  0.57929800  0.02089900  1
  O  O17  1  0.86061800  0.42070200  0.47910100  1
  O  O18  1  0.63938200  0.42070200  0.97910100  1
  O  O19  1  0.13938200  0.57929800  0.52089900  1
  O  O20  1  0.28161900  0.58175200  0.25998700  1
  O  O21  1  0.78161900  0.41824800  0.24001300  1
  O  O22  1  0.71838100  0.41824800  0.74001300  1
  O  O23  1  0.21838100  0.58175200  0.75998700  1
  O  O24  1  0.50846500  0.49486600  0.20957400  1
  O  O25  1  0.00846500  0.50513400  0.29042600  1
  O  O26  1  0.49153500  0.50513400  0.79042600  1
  O  O27  1  0.99153500  0.49486600  0.70957400  1
  O  O28  1  0.44464900  0.80379100  0.17901600  1
  O  O29  1  0.94464900  0.19620900  0.32098400  1
  O  O30  1  0.55535100  0.19620900  0.82098400  1
  O  O31  1  0.05535100  0.80379100  0.67901600  1
  O  O32  1  0.57235000  0.86927900  0.83404300  1
  O  O33  1  0.07235000  0.13072100  0.66595700  1
  O  O34  1  0.42765000  0.13072100  0.16595700  1
  O  O35  1  0.92765000  0.86927900  0.33404300  1
  O  O36  1  0.76885300  0.04954800  0.78681300  1
  O  O37  1  0.26885300  0.95045200  0.71318700  1
  O  O38  1  0.23114700  0.95045200  0.21318700  1
  O  O39  1  0.73114700  0.04954800  0.28681300  1
  O  O40  1  0.66824700  0.05028300  0.01565200  1
  O  O41  1  0.16824700  0.94971700  0.48434800  1
  O  O42  1  0.33175300  0.94971700  0.98434800  1
  O  O43  1  0.83175300  0.05028300  0.51565200  1
  O  O44  1  0.93077000  0.58453700  0.95729500  1
  O  O45  1  0.43077000  0.41546300  0.54270500  1
  O  O46  1  0.06923000  0.41546300  0.04270500  1
  O  O47  1  0.56923000  0.58453700  0.45729500  1
  O  O48  1  0.52164800  0.29740100  0.39399100  1
  O  O49  1  0.02164800  0.70259900  0.10600900  1
  O  O50  1  0.47835200  0.70259900  0.60600900  1
  O  O51  1  0.97835200  0.29740100  0.89399100  1
