# generated using pymatgen
data_GaH15(C2N)2
_symmetry_space_group_name_H-M   'P 1'
_cell_length_a   8.76188000
_cell_length_b   8.04507700
_cell_length_c   15.82414017
_cell_angle_alpha   90.00000000
_cell_angle_beta   97.97610028
_cell_angle_gamma   90.00000000
_symmetry_Int_Tables_number   1
_chemical_formula_structural   GaH15(C2N)2
_chemical_formula_sum   'Ga4 H60 C16 N8'
_cell_volume   1104.65286690
_cell_formula_units_Z   4
loop_
 _symmetry_equiv_pos_site_id
 _symmetry_equiv_pos_as_xyz
  1  'x, y, z'
loop_
 _atom_site_type_symbol
 _atom_site_label
 _atom_site_symmetry_multiplicity
 _atom_site_fract_x
 _atom_site_fract_y
 _atom_site_fract_z
 _atom_site_occupancy
  Ga  Ga0  1  0.23700400  0.31170500  0.10256800  1
  Ga  Ga1  1  0.76299600  0.81170500  0.39743200  1
  Ga  Ga2  1  0.76299600  0.68829500  0.89743200  1
  Ga  Ga3  1  0.23700400  0.18829500  0.60256800  1
  H  H4  1  0.98122000  0.19269300  0.13611400  1
  H  H5  1  0.01878000  0.69269300  0.36388600  1
  H  H6  1  0.01878000  0.80730700  0.86388600  1
  H  H7  1  0.98122000  0.30730700  0.63611400  1
  H  H8  1  0.12980400  0.07023000  0.19071700  1
  H  H9  1  0.87019600  0.57023000  0.30928300  1
  H  H10  1  0.87019600  0.92977000  0.80928300  1
  H  H11  1  0.12980400  0.42977000  0.69071700  1
  H  H12  1  0.08238700  0.26572500  0.23315900  1
  H  H13  1  0.91761300  0.76572500  0.26684100  1
  H  H14  1  0.91761300  0.73427500  0.76684100  1
  H  H15  1  0.08238700  0.23427500  0.73315900  1
  H  H16  1  0.38831300  0.22329100  0.97713300  1
  H  H17  1  0.61168700  0.72329100  0.52286700  1
  H  H18  1  0.61168700  0.77670900  0.02286700  1
  H  H19  1  0.38831300  0.27670900  0.47713300  1
  H  H20  1  0.28873800  0.04840500  0.01193200  1
  H  H21  1  0.71126200  0.54840500  0.48806800  1
  H  H22  1  0.71126200  0.95159500  0.98806800  1
  H  H23  1  0.28873800  0.45159500  0.51193200  1
  H  H24  1  0.18626300  0.20353400  0.94848700  1
  H  H25  1  0.81373700  0.70353400  0.55151300  1
  H  H26  1  0.81373700  0.79646600  0.05151300  1
  H  H27  1  0.18626300  0.29646600  0.44848700  1
  H  H28  1  0.19795600  0.61774100  0.15094700  1
  H  H29  1  0.80204400  0.11774100  0.34905300  1
  H  H30  1  0.80204400  0.38225900  0.84905300  1
  H  H31  1  0.19795600  0.88225900  0.65094700  1
  H  H32  1  0.31970600  0.61515700  0.06911100  1
  H  H33  1  0.68029400  0.11515700  0.43088900  1
  H  H34  1  0.68029400  0.38484300  0.93088900  1
  H  H35  1  0.31970600  0.88484300  0.56911100  1
  H  H36  1  0.11857400  0.59068900  0.04309200  1
  H  H37  1  0.88142600  0.09068900  0.45690800  1
  H  H38  1  0.88142600  0.40931100  0.95690800  1
  H  H39  1  0.11857400  0.90931100  0.54309200  1
  H  H40  1  0.47433800  0.16814700  0.20259600  1
  H  H41  1  0.52566200  0.66814700  0.29740400  1
  H  H42  1  0.52566200  0.83185300  0.79740400  1
  H  H43  1  0.47433800  0.33185300  0.70259600  1
  H  H44  1  0.34897100  0.36415100  0.28557200  1
  H  H45  1  0.65102900  0.86415100  0.21442800  1
  H  H46  1  0.65102900  0.63584900  0.71442800  1
  H  H47  1  0.34897100  0.13584900  0.78557200  1
  H  H48  1  0.53435500  0.33018900  0.31452800  1
  H  H49  1  0.46564500  0.83018900  0.18547200  1
  H  H50  1  0.46564500  0.66981100  0.68547200  1
  H  H51  1  0.53435500  0.16981100  0.81452800  1
  H  H52  1  0.70228500  0.33889900  0.20011800  1
  H  H53  1  0.29771500  0.83889900  0.29988200  1
  H  H54  1  0.29771500  0.66110100  0.79988200  1
  H  H55  1  0.70228500  0.16110100  0.70011800  1
  H  H56  1  0.61295200  0.26956100  0.09774700  1
  H  H57  1  0.38704800  0.76956100  0.40225300  1
  H  H58  1  0.38704800  0.73043900  0.90225300  1
  H  H59  1  0.61295200  0.23043900  0.59774700  1
  H  H60  1  0.58299100  0.47773900  0.13161500  1
  H  H61  1  0.41700900  0.97773900  0.36838500  1
  H  H62  1  0.41700900  0.52226100  0.86838500  1
  H  H63  1  0.58299100  0.02226100  0.63161500  1
  C  C64  1  0.59825200  0.34842400  0.15258200  1
  C  C65  1  0.40174800  0.84842400  0.34741800  1
  C  C66  1  0.40174800  0.65157600  0.84741800  1
  C  C67  1  0.59825200  0.15157600  0.65258200  1
  C  C68  1  0.09639700  0.19904000  0.17405400  1
  C  C69  1  0.90360300  0.69904000  0.32594600  1
  C  C70  1  0.90360300  0.80096000  0.82594600  1
  C  C71  1  0.09639700  0.30096000  0.67405400  1
  C  C72  1  0.28170600  0.18310200  0.00048200  1
  C  C73  1  0.71829400  0.68310200  0.49951800  1
  C  C74  1  0.71829400  0.81689800  0.99951800  1
  C  C75  1  0.28170600  0.31689800  0.50048200  1
  C  C76  1  0.21767700  0.55838800  0.09079500  1
  C  C77  1  0.78232300  0.05838800  0.40920500  1
  C  C78  1  0.78232300  0.44161200  0.90920500  1
  C  C79  1  0.21767700  0.94161200  0.59079500  1
  N  N80  1  0.46099400  0.29292200  0.18911700  1
  N  N81  1  0.53900600  0.79292200  0.31088300  1
  N  N82  1  0.53900600  0.70707800  0.81088300  1
  N  N83  1  0.46099400  0.20707800  0.68911700  1
  N  N84  1  0.45606200  0.38335800  0.26820400  1
  N  N85  1  0.54393800  0.88335800  0.23179600  1
  N  N86  1  0.54393800  0.61664200  0.73179600  1
  N  N87  1  0.45606200  0.11664200  0.76820400  1
