# generated using pymatgen
data_K3NaAl12Si12(HO6)8
_symmetry_space_group_name_H-M   'P 1'
_cell_length_a   9.03912567
_cell_length_b   10.40993532
_cell_length_c   20.01550039
_cell_angle_alpha   84.37773274
_cell_angle_beta   90.00013195
_cell_angle_gamma   89.99998792
_symmetry_Int_Tables_number   1
_chemical_formula_structural   K3NaAl12Si12(HO6)8
_chemical_formula_sum   'K6 Na2 Al24 Si24 H16 O96'
_cell_volume   1874.33255852
_cell_formula_units_Z   2
loop_
 _symmetry_equiv_pos_site_id
 _symmetry_equiv_pos_as_xyz
  1  'x, y, z'
loop_
 _atom_site_type_symbol
 _atom_site_label
 _atom_site_symmetry_multiplicity
 _atom_site_fract_x
 _atom_site_fract_y
 _atom_site_fract_z
 _atom_site_occupancy
  K  K0  1  0.09521028  0.00207879  0.75035933  1
  K  K1  1  0.90479514  0.99793002  0.24963562  1
  K  K2  1  0.60470118  0.24999948  0.74999906  1
  K  K3  1  0.09521704  0.49792975  0.74963294  1
  K  K4  1  0.90478742  0.50207067  0.25036065  1
  K  K5  1  0.39531227  0.75000057  0.25000055  1
  Na  Na6  1  0.43291206  0.25001001  0.24999966  1
  Na  Na7  1  0.56708725  0.75001121  0.75000881  1
  Al  Al8  1  0.58426876  0.37371789  0.00058728  1
  Al  Al9  1  0.58425961  0.12627828  0.49940739  1
  Al  Al10  1  0.41604011  0.12690166  0.99927234  1
  Al  Al11  1  0.41603834  0.37309629  0.50071825  1
  Al  Al12  1  0.26125877  0.23405693  0.86258922  1
  Al  Al13  1  0.08599945  0.12434587  0.99921867  1
  Al  Al14  1  0.26125324  0.26594072  0.63740139  1
  Al  Al15  1  0.08599060  0.37565135  0.50077803  1
  Al  Al16  1  0.73915346  0.26770670  0.13792948  1
  Al  Al17  1  0.91406235  0.37616238  0.00142174  1
  Al  Al18  1  0.73914666  0.23228622  0.36206755  1
  Al  Al19  1  0.91405423  0.12383678  0.49857773  1
  Al  Al20  1  0.58397160  0.87309387  0.00071659  1
  Al  Al21  1  0.58396486  0.62690420  0.49927210  1
  Al  Al22  1  0.41575444  0.62627316  0.99940467  1
  Al  Al23  1  0.41573852  0.87372021  0.50058603  1
  Al  Al24  1  0.26085507  0.73228445  0.86206722  1
  Al  Al25  1  0.08595594  0.62383204  0.99857658  1
  Al  Al26  1  0.26085437  0.76770780  0.63792714  1
  Al  Al27  1  0.08594190  0.87616198  0.50142123  1
  Al  Al28  1  0.73875604  0.76593985  0.13740018  1
  Al  Al29  1  0.91401436  0.87564601  0.00077571  1
  Al  Al30  1  0.73874447  0.73405864  0.36258912  1
  Al  Al31  1  0.91400274  0.62434962  0.49921951  1
  Si  Si32  1  0.75593687  0.47635222  0.86388620  1
  Si  Si33  1  0.43116916  0.49300247  0.86163587  1
  Si  Si34  1  0.75592713  0.02364539  0.63611051  1
  Si  Si35  1  0.43116091  0.00699390  0.63835697  1
  Si  Si36  1  0.24437703  0.02566667  0.13639101  1
  Si  Si37  1  0.57012779  0.00889489  0.13803114  1
  Si  Si38  1  0.24436783  0.47433129  0.36360426  1
  Si  Si39  1  0.57012245  0.49109924  0.36195729  1
  Si  Si40  1  0.92932125  0.23052425  0.86346642  1
  Si  Si41  1  0.92931319  0.26947342  0.63653029  1
  Si  Si42  1  0.07054955  0.26967502  0.13764813  1
  Si  Si43  1  0.07053734  0.23032135  0.36234977  1
  Si  Si44  1  0.75563548  0.97433044  0.86360234  1
  Si  Si45  1  0.42988110  0.99109755  0.86195691  1
  Si  Si46  1  0.75562949  0.52566775  0.63639083  1
  Si  Si47  1  0.42987681  0.50889727  0.63803088  1
  Si  Si48  1  0.24407944  0.52364360  0.13610993  1
  Si  Si49  1  0.56884482  0.50699229  0.13835699  1
  Si  Si50  1  0.24406740  0.97635458  0.36388621  1
  Si  Si51  1  0.56883319  0.99300419  0.36163552  1
  Si  Si52  1  0.92946455  0.73031972  0.86234784  1
  Si  Si53  1  0.92945642  0.76967726  0.63764789  1
  Si  Si54  1  0.07069378  0.76947128  0.13652881  1
  Si  Si55  1  0.07068261  0.73052628  0.36346617  1
  H  H56  1  0.14653046  0.43660036  0.93346538  1
  H  H57  1  0.14651339  0.06338081  0.56654522  1
  H  H58  1  0.85447030  0.06130967  0.06802462  1
  H  H59  1  0.85446743  0.43869787  0.43196505  1
  H  H60  1  0.65861800  0.18054324  0.94650004  1
  H  H61  1  0.65861287  0.31944656  0.55349925  1
  H  H62  1  0.34273356  0.31908002  0.05445135  1
  H  H63  1  0.34273215  0.18091023  0.44554787  1
  H  H64  1  0.14553896  0.93868931  0.93196555  1
  H  H65  1  0.14553048  0.56131027  0.56802545  1
  H  H66  1  0.85349962  0.56337905  0.06655376  1
  H  H67  1  0.85347744  0.93660975  0.43346441  1
  H  H68  1  0.65728894  0.68091006  0.94554775  1
  H  H69  1  0.65726669  0.81908769  0.55445165  1
  H  H70  1  0.34140428  0.81943740  0.05349945  1
  H  H71  1  0.34139170  0.68055167  0.44649079  1
  O  O72  1  0.39246044  0.13545261  0.82826843  1
  O  O73  1  0.30156050  0.39730394  0.84100859  1
  O  O74  1  0.59354204  0.45242721  0.83083455  1
  O  O75  1  0.05708377  0.47769472  0.94869938  1
  O  O76  1  0.75127486  0.45011564  0.94533311  1
  O  O77  1  0.44850508  0.48389512  0.94447532  1
  O  O78  1  0.39245856  0.36454240  0.67172130  1
  O  O79  1  0.30155022  0.10269388  0.65898074  1
  O  O80  1  0.59353136  0.04757043  0.66916061  1
  O  O81  1  0.05707158  0.02229738  0.55130096  1
  O  O82  1  0.75126472  0.04987594  0.55466324  1
  O  O83  1  0.44849624  0.01609740  0.55551760  1
  O  O84  1  0.60294012  0.36172520  0.17310099  1
  O  O85  1  0.69950120  0.10467595  0.15892206  1
  O  O86  1  0.40725705  0.04973890  0.16977585  1
  O  O87  1  0.94301947  0.02107464  0.05131412  1
  O  O88  1  0.24960596  0.05155071  0.05494970  1
  O  O89  1  0.55190343  0.01705007  0.05525795  1
  O  O90  1  0.60293081  0.13827211  0.32689501  1
  O  O91  1  0.69949434  0.39531664  0.34106685  1
  O  O92  1  0.40724575  0.45025462  0.33021721  1
  O  O93  1  0.94301390  0.47892660  0.44867802  1
  O  O94  1  0.24959942  0.44844731  0.44504532  1
  O  O95  1  0.55190582  0.48294286  0.44473086  1
  O  O96  1  0.86628534  0.37349965  0.83113571  1
  O  O97  1  0.80690290  0.12404806  0.84053391  1
  O  O98  1  0.08530127  0.20728678  0.82799617  1
  O  O99  1  0.56590477  0.22790437  0.94961989  1
  O  O100  1  0.25019579  0.19184236  0.94987583  1
  O  O101  1  0.93997629  0.23040375  0.94558430  1
  O  O102  1  0.86627392  0.12650036  0.66886112  1
  O  O103  1  0.80689923  0.37595129  0.65946290  1
  O  O104  1  0.08529924  0.29270576  0.67199660  1
  O  O105  1  0.56589571  0.27209191  0.55037645  1
  O  O106  1  0.25019103  0.30815564  0.55011581  1
  O  O107  1  0.93996452  0.26959437  0.55441175  1
  O  O108  1  0.13103535  0.12564780  0.16921581  1
  O  O109  1  0.19542894  0.37396800  0.16054257  1
  O  O110  1  0.91456819  0.29614380  0.17257894  1
  O  O111  1  0.43543157  0.27227948  0.05018788  1
  O  O112  1  0.74950508  0.31030335  0.05073602  1
  O  O113  1  0.05894828  0.26977902  0.05540987  1
  O  O114  1  0.13102125  0.37434979  0.33078349  1
  O  O115  1  0.19542048  0.12603103  0.33945701  1
  O  O116  1  0.91455950  0.20384916  0.32741710  1
  O  O117  1  0.43542818  0.22771556  0.44980441  1
  O  O118  1  0.74949764  0.18969662  0.44926223  1
  O  O119  1  0.05893639  0.23021720  0.44458783  1
  O  O120  1  0.39707420  0.63827254  0.82689600  1
  O  O121  1  0.30050833  0.89531464  0.84106776  1
  O  O122  1  0.59275695  0.95025264  0.83021507  1
  O  O123  1  0.05699096  0.97891920  0.94867821  1
  O  O124  1  0.75040284  0.94844376  0.94504298  1
  O  O125  1  0.44810182  0.98294199  0.94472996  1
  O  O126  1  0.39706552  0.86172650  0.67310077  1
  O  O127  1  0.30050106  0.60467640  0.65892151  1
  O  O128  1  0.59274909  0.54974076  0.66977408  1
  O  O129  1  0.05698038  0.52107398  0.55132036  1
  O  O130  1  0.75040041  0.55155437  0.55494977  1
  O  O131  1  0.44809814  0.51705673  0.55525696  1
  O  O132  1  0.60754966  0.86453989  0.17172025  1
  O  O133  1  0.69845636  0.60269265  0.15898045  1
  O  O134  1  0.40647475  0.54756468  0.16916161  1
  O  O135  1  0.94293775  0.52229778  0.05130103  1
  O  O136  1  0.24874441  0.54987529  0.05466293  1
  O  O137  1  0.55151266  0.51609606  0.05551735  1
  O  O138  1  0.60754242  0.63545465  0.32826855  1
  O  O139  1  0.69844106  0.89730405  0.34100914  1
  O  O140  1  0.40646095  0.95242802  0.33083419  1
  O  O141  1  0.94292586  0.97770134  0.44869832  1
  O  O142  1  0.24873158  0.95011705  0.44533299  1
  O  O143  1  0.55149906  0.98390122  0.44447477  1
  O  O144  1  0.86898386  0.87434978  0.83078229  1
  O  O145  1  0.80457973  0.62602996  0.83945556  1
  O  O146  1  0.08544367  0.70384770  0.82741635  1
  O  O147  1  0.56458888  0.72771124  0.94980281  1
  O  O148  1  0.25051249  0.68968946  0.94926054  1
  O  O149  1  0.94107094  0.73021146  0.94458571  1
  O  O150  1  0.86897197  0.62564932  0.66921420  1
  O  O151  1  0.80457827  0.87397040  0.66054325  1
  O  O152  1  0.08544072  0.79614475  0.67257635  1
  O  O153  1  0.56457121  0.77228110  0.55018769  1
  O  O154  1  0.25050142  0.81030083  0.55073295  1
  O  O155  1  0.94105453  0.76978189  0.55540929  1
  O  O156  1  0.13373497  0.62649945  0.16886120  1
  O  O157  1  0.19310717  0.87595025  0.15945940  1
  O  O158  1  0.91471008  0.79270626  0.17199659  1
  O  O159  1  0.43412152  0.77208410  0.05037164  1
  O  O160  1  0.74981725  0.80815470  0.05011480  1
  O  O161  1  0.06004321  0.76959206  0.05441054  1
  O  O162  1  0.13371814  0.87350190  0.33113643  1
  O  O163  1  0.19310152  0.62404996  0.34053553  1
  O  O164  1  0.91470169  0.70729281  0.32799523  1
  O  O165  1  0.43410629  0.72790724  0.44961793  1
  O  O166  1  0.74980708  0.69184431  0.44987553  1
  O  O167  1  0.06002530  0.73040585  0.44558425  1
