# generated using pymatgen
data_CeP3O14
_symmetry_space_group_name_H-M   'P 1'
_cell_length_a   6.68699200
_cell_length_b   12.92636700
_cell_length_c   13.53117900
_cell_angle_alpha   90.00000000
_cell_angle_beta   90.00000000
_cell_angle_gamma   90.00000000
_symmetry_Int_Tables_number   1
_chemical_formula_structural   CeP3O14
_chemical_formula_sum   'Ce4 P12 O56'
_cell_volume   1169.61498808
_cell_formula_units_Z   4
loop_
 _symmetry_equiv_pos_site_id
 _symmetry_equiv_pos_as_xyz
  1  'x, y, z'
loop_
 _atom_site_type_symbol
 _atom_site_label
 _atom_site_symmetry_multiplicity
 _atom_site_fract_x
 _atom_site_fract_y
 _atom_site_fract_z
 _atom_site_occupancy
  Ce  Ce0  1  0.19338100  0.26911900  0.70539800  1
  Ce  Ce1  1  0.19338100  0.73088100  0.29460200  1
  Ce  Ce2  1  0.80661900  0.23088100  0.20539800  1
  Ce  Ce3  1  0.80661900  0.76911900  0.79460200  1
  P  P4  1  0.29019100  0.84748200  0.87935400  1
  P  P5  1  0.29019100  0.15251800  0.12064600  1
  P  P6  1  0.70980900  0.65251800  0.37935400  1
  P  P7  1  0.70980900  0.34748200  0.62064600  1
  P  P8  1  0.97724700  0.69439800  0.54653700  1
  P  P9  1  0.97724700  0.30560200  0.45346300  1
  P  P10  1  0.02275300  0.80560200  0.04653700  1
  P  P11  1  0.02275300  0.19439800  0.95346300  1
  P  P12  1  0.03850700  0.02256800  0.81125700  1
  P  P13  1  0.03850700  0.97743200  0.18874300  1
  P  P14  1  0.96149300  0.47743200  0.31125700  1
  P  P15  1  0.96149300  0.52256800  0.68874300  1
  O  O16  1  0.76681900  0.33673400  0.50530500  1
  O  O17  1  0.76681900  0.66326600  0.49469500  1
  O  O18  1  0.23318100  0.16326600  0.00530500  1
  O  O19  1  0.23318100  0.83673400  0.99469500  1
  O  O20  1  0.76325700  0.53296700  0.35332700  1
  O  O21  1  0.76325700  0.46703300  0.64667300  1
  O  O22  1  0.23674300  0.96703300  0.85332700  1
  O  O23  1  0.23674300  0.03296700  0.14667300  1
  O  O24  1  0.04463700  0.41582200  0.40598600  1
  O  O25  1  0.04463700  0.58417800  0.59401400  1
  O  O26  1  0.95536300  0.08417800  0.90598600  1
  O  O27  1  0.95536300  0.91582200  0.09401400  1
  O  O28  1  0.48815300  0.33684700  0.62700300  1
  O  O29  1  0.48815300  0.66315300  0.37299700  1
  O  O30  1  0.51184700  0.16315300  0.12700300  1
  O  O31  1  0.51184700  0.83684700  0.87299700  1
  O  O32  1  0.15669200  0.77804000  0.81832900  1
  O  O33  1  0.15669200  0.22196000  0.18167100  1
  O  O34  1  0.84330800  0.72196000  0.31832900  1
  O  O35  1  0.84330800  0.27804000  0.68167100  1
  O  O36  1  0.06336100  0.26940200  0.87133700  1
  O  O37  1  0.06336100  0.73059800  0.12866300  1
  O  O38  1  0.93663900  0.23059800  0.37133700  1
  O  O39  1  0.93663900  0.76940200  0.62866300  1
  O  O40  1  0.87401200  0.77836000  0.96756200  1
  O  O41  1  0.87401200  0.22164000  0.03243800  1
  O  O42  1  0.12598800  0.72164000  0.46756200  1
  O  O43  1  0.12598800  0.27836000  0.53243800  1
  O  O44  1  0.88131800  0.94386900  0.78458700  1
  O  O45  1  0.88131800  0.05613100  0.21541300  1
  O  O46  1  0.11868200  0.55613100  0.28458700  1
  O  O47  1  0.11868200  0.44386900  0.71541300  1
  O  O48  1  0.89488900  0.59684700  0.76815300  1
  O  O49  1  0.89488900  0.40315300  0.23184700  1
  O  O50  1  0.10511100  0.90315300  0.26815300  1
  O  O51  1  0.10511100  0.09684700  0.73184700  1
  O  O52  1  0.53391800  0.58899400  0.90748800  1
  O  O53  1  0.53391800  0.41100600  0.09251200  1
  O  O54  1  0.46608200  0.91100600  0.40748800  1
  O  O55  1  0.46608200  0.08899400  0.59251200  1
  O  O56  1  0.49891200  0.83917300  0.66234300  1
  O  O57  1  0.49891200  0.16082700  0.33765700  1
  O  O58  1  0.50108800  0.66082700  0.16234300  1
  O  O59  1  0.50108800  0.33917300  0.83765700  1
  O  O60  1  0.55290900  0.72769000  0.69778600  1
  O  O61  1  0.55290900  0.27231000  0.30221400  1
  O  O62  1  0.44709100  0.77231000  0.19778600  1
  O  O63  1  0.44709100  0.22769000  0.80221400  1
  O  O64  1  0.64129800  0.65753600  0.10088500  1
  O  O65  1  0.64129800  0.34246400  0.89911500  1
  O  O66  1  0.35870200  0.84246400  0.60088500  1
  O  O67  1  0.35870200  0.15753600  0.39911500  1
  O  O68  1  0.64713900  0.92406000  0.41754700  1
  O  O69  1  0.64713900  0.07594000  0.58245300  1
  O  O70  1  0.35286100  0.57594000  0.91754700  1
  O  O71  1  0.35286100  0.42406000  0.08245300  1
