# generated using pymatgen
data_Mg17(SiO3)20
_symmetry_space_group_name_H-M   'P 1'
_cell_length_a   23.20579856
_cell_length_b   23.20579856
_cell_length_c   9.65562290
_cell_angle_alpha   88.66675856
_cell_angle_beta   88.66675856
_cell_angle_gamma   166.75859249
_symmetry_Int_Tables_number   1
_chemical_formula_structural   Mg17(SiO3)20
_chemical_formula_sum   'Mg17 Si20 O60'
_cell_volume   1166.49661209
_cell_formula_units_Z   1
loop_
 _symmetry_equiv_pos_site_id
 _symmetry_equiv_pos_as_xyz
  1  'x, y, z'
loop_
 _atom_site_type_symbol
 _atom_site_label
 _atom_site_symmetry_multiplicity
 _atom_site_fract_x
 _atom_site_fract_y
 _atom_site_fract_z
 _atom_site_occupancy
  Mg  Mg0  1  0.76552100  0.23447900  0.50000000  1
  Mg  Mg1  1  0.23447900  0.76552100  0.50000000  1
  Mg  Mg2  1  0.30125100  0.69874900  0.50000000  1
  Mg  Mg3  1  0.69874900  0.30125100  0.50000000  1
  Mg  Mg4  1  0.83756300  0.16243700  0.50000000  1
  Mg  Mg5  1  0.16243700  0.83756300  0.50000000  1
  Mg  Mg6  1  0.37133700  0.62866300  0.50000000  1
  Mg  Mg7  1  0.62866300  0.37133700  0.50000000  1
  Mg  Mg8  1  0.90240300  0.09759700  0.50000000  1
  Mg  Mg9  1  0.09759700  0.90240300  0.50000000  1
  Mg  Mg10  1  0.95943600  0.04056400  0.00000000  1
  Mg  Mg11  1  0.04056400  0.95943600  0.00000000  1
  Mg  Mg12  1  0.42800200  0.57199800  0.00000000  1
  Mg  Mg13  1  0.57199800  0.42800200  0.00000000  1
  Mg  Mg14  1  0.50000000  0.50000000  0.00000000  1
  Mg  Mg15  1  0.89459500  0.10540500  0.00000000  1
  Mg  Mg16  1  0.10540500  0.89459500  0.00000000  1
  Si  Si17  1  0.53844600  0.00520000  0.20900100  1
  Si  Si18  1  0.99480000  0.46155400  0.79099900  1
  Si  Si19  1  0.46155400  0.99480000  0.79099900  1
  Si  Si20  1  0.00520000  0.53844600  0.20900100  1
  Si  Si21  1  0.59309700  0.92568200  0.21249400  1
  Si  Si22  1  0.07431800  0.40690300  0.78750600  1
  Si  Si23  1  0.40690300  0.07431800  0.78750600  1
  Si  Si24  1  0.92568200  0.59309700  0.21249400  1
  Si  Si25  1  0.13444100  0.39794900  0.20309300  1
  Si  Si26  1  0.60205100  0.86555900  0.79690700  1
  Si  Si27  1  0.86555900  0.60205100  0.79690700  1
  Si  Si28  1  0.39794900  0.13444100  0.20309300  1
  Si  Si29  1  0.20094400  0.26828500  0.28512000  1
  Si  Si30  1  0.73171500  0.79905600  0.71488000  1
  Si  Si31  1  0.79905600  0.73171500  0.71488000  1
  Si  Si32  1  0.26828500  0.20094400  0.28512000  1
  Si  Si33  1  0.65779700  0.79424400  0.29803000  1
  Si  Si34  1  0.20575600  0.34220300  0.70197000  1
  Si  Si35  1  0.34220300  0.20575600  0.70197000  1
  Si  Si36  1  0.79424400  0.65779700  0.29803000  1
  O  O37  1  0.98210200  0.37888100  0.40895700  1
  O  O38  1  0.62111900  0.01789800  0.59104300  1
  O  O39  1  0.01789800  0.62111900  0.59104300  1
  O  O40  1  0.37888100  0.98210200  0.40895700  1
  O  O41  1  0.29490800  0.79583300  0.15047800  1
  O  O42  1  0.20416700  0.70509200  0.84952200  1
  O  O43  1  0.70509200  0.20416700  0.84952200  1
  O  O44  1  0.79583300  0.29490800  0.15047800  1
  O  O45  1  0.47033200  0.93692000  0.38246900  1
  O  O46  1  0.06308000  0.52966800  0.61753100  1
  O  O47  1  0.52966800  0.06308000  0.61753100  1
  O  O48  1  0.93692000  0.47033200  0.38246900  1
  O  O49  1  0.59063300  0.98981200  0.15443500  1
  O  O50  1  0.01018800  0.40936700  0.84556500  1
  O  O51  1  0.40936700  0.01018800  0.84556500  1
  O  O52  1  0.98981200  0.59063300  0.15443500  1
  O  O53  1  0.53729000  0.86566100  0.38496600  1
  O  O54  1  0.13433900  0.46271000  0.61503400  1
  O  O55  1  0.46271000  0.13433900  0.61503400  1
  O  O56  1  0.86566100  0.53729000  0.38496600  1
  O  O57  1  0.38064900  0.68120000  0.15136100  1
  O  O58  1  0.31880000  0.61935100  0.84863900  1
  O  O59  1  0.61935100  0.31880000  0.84863900  1
  O  O60  1  0.68120000  0.38064900  0.15136100  1
  O  O61  1  0.87496200  0.17067500  0.14799200  1
  O  O62  1  0.82932500  0.12503800  0.85200800  1
  O  O63  1  0.12503800  0.82932500  0.85200800  1
  O  O64  1  0.17067500  0.87496200  0.14799200  1
  O  O65  1  0.08017900  0.33915400  0.37718500  1
  O  O66  1  0.66084600  0.91982100  0.62281500  1
  O  O67  1  0.91982100  0.66084600  0.62281500  1
  O  O68  1  0.33915400  0.08017900  0.37718500  1
  O  O69  1  0.17178300  0.37478500  0.11828500  1
  O  O70  1  0.62521500  0.82821700  0.88171500  1
  O  O71  1  0.82821700  0.62521500  0.88171500  1
  O  O72  1  0.37478500  0.17178300  0.11828500  1
  O  O73  1  0.89417000  0.89417000  0.06562800  1
  O  O74  1  0.10583000  0.10583000  0.93437200  1
  O  O75  1  0.26956500  0.33998100  0.11220500  1
  O  O76  1  0.66001900  0.73043500  0.88779500  1
  O  O77  1  0.73043500  0.66001900  0.88779500  1
  O  O78  1  0.33998100  0.26956500  0.11220500  1
  O  O79  1  0.71613900  0.85805800  0.12356600  1
  O  O80  1  0.14194200  0.28386100  0.87643400  1
  O  O81  1  0.28386100  0.14194200  0.87643400  1
  O  O82  1  0.85805800  0.71613900  0.12356600  1
  O  O83  1  0.63061500  0.82691000  0.38350300  1
  O  O84  1  0.17309000  0.36938500  0.61649700  1
  O  O85  1  0.36938500  0.17309000  0.61649700  1
  O  O86  1  0.82691000  0.63061500  0.38350300  1
  O  O87  1  0.90901200  0.00725700  0.34758500  1
  O  O88  1  0.99274300  0.09098800  0.65241500  1
  O  O89  1  0.09098800  0.99274300  0.65241500  1
  O  O90  1  0.00725700  0.90901200  0.34758500  1
  O  O91  1  0.39980400  0.50256300  0.34898700  1
  O  O92  1  0.49743700  0.60019600  0.65101300  1
  O  O93  1  0.60019600  0.49743700  0.65101300  1
  O  O94  1  0.50256300  0.39980400  0.34898700  1
  O  O95  1  0.22721600  0.22721600  0.33902400  1
  O  O96  1  0.77278400  0.77278400  0.66097600  1
