# generated using pymatgen
data_Tm2Ga2Fe15
_symmetry_space_group_name_H-M   'P 1'
_cell_length_a   8.37196700
_cell_length_b   8.38334030
_cell_length_c   8.38334030
_cell_angle_alpha   119.96636472
_cell_angle_beta   90.00000000
_cell_angle_gamma   90.00000000
_symmetry_Int_Tables_number   1
_chemical_formula_structural   Tm2Ga2Fe15
_chemical_formula_sum   'Tm4 Ga4 Fe30'
_cell_volume   509.72909847
_cell_formula_units_Z   2
loop_
 _symmetry_equiv_pos_site_id
 _symmetry_equiv_pos_as_xyz
  1  'x, y, z'
loop_
 _atom_site_type_symbol
 _atom_site_label
 _atom_site_symmetry_multiplicity
 _atom_site_fract_x
 _atom_site_fract_y
 _atom_site_fract_z
 _atom_site_occupancy
  Tm  Tm0  1  0.75000000  0.99989000  0.00011000  1
  Tm  Tm1  1  0.25000000  0.00011000  0.99989000  1
  Tm  Tm2  1  0.25000000  0.66666100  0.33333900  1
  Tm  Tm3  1  0.75000000  0.33333900  0.66666100  1
  Ga  Ga4  1  0.60072100  0.66667000  0.33333000  1
  Ga  Ga5  1  0.39927900  0.33333000  0.66667000  1
  Ga  Ga6  1  0.10072100  0.33333000  0.66667000  1
  Ga  Ga7  1  0.89927900  0.66667000  0.33333000  1
  Fe  Fe8  1  0.50000000  0.50000000  0.00000000  1
  Fe  Fe9  1  0.50000000  0.50000000  0.50000000  1
  Fe  Fe10  1  0.50000000  0.00000000  0.50000000  1
  Fe  Fe11  1  0.00000000  0.50000000  0.00000000  1
  Fe  Fe12  1  0.00000000  0.50000000  0.50000000  1
  Fe  Fe13  1  0.00000000  0.00000000  0.50000000  1
  Fe  Fe14  1  0.75000000  0.66929700  0.02745100  1
  Fe  Fe15  1  0.75000000  0.35816500  0.33075900  1
  Fe  Fe16  1  0.75000000  0.97248600  0.64162400  1
  Fe  Fe17  1  0.75000000  0.35837600  0.02751400  1
  Fe  Fe18  1  0.75000000  0.97254900  0.33070300  1
  Fe  Fe19  1  0.75000000  0.66924100  0.64183500  1
  Fe  Fe20  1  0.25000000  0.33070300  0.97254900  1
  Fe  Fe21  1  0.25000000  0.64183500  0.66924100  1
  Fe  Fe22  1  0.25000000  0.02751400  0.35837600  1
  Fe  Fe23  1  0.25000000  0.64162400  0.97248600  1
  Fe  Fe24  1  0.25000000  0.02745100  0.66929700  1
  Fe  Fe25  1  0.25000000  0.33075900  0.35816500  1
  Fe  Fe26  1  0.48799500  0.83508100  0.67023400  1
  Fe  Fe27  1  0.48812800  0.83519900  0.16480100  1
  Fe  Fe28  1  0.48799500  0.32976600  0.16491900  1
  Fe  Fe29  1  0.51200500  0.16491900  0.32976600  1
  Fe  Fe30  1  0.51187200  0.16480100  0.83519900  1
  Fe  Fe31  1  0.51200500  0.67023400  0.83508100  1
  Fe  Fe32  1  0.98799500  0.16491900  0.32976600  1
  Fe  Fe33  1  0.98812800  0.16480100  0.83519900  1
  Fe  Fe34  1  0.98799500  0.67023400  0.83508100  1
  Fe  Fe35  1  0.01200500  0.83508100  0.67023400  1
  Fe  Fe36  1  0.01187200  0.83519900  0.16480100  1
  Fe  Fe37  1  0.01200500  0.32976600  0.16491900  1
