# generated using pymatgen
data_BaU3O14
_symmetry_space_group_name_H-M   'P 1'
_cell_length_a   6.97398614
_cell_length_b   7.38236200
_cell_length_c   11.82983391
_cell_angle_alpha   90.00000000
_cell_angle_beta   90.19761524
_cell_angle_gamma   90.00000000
_symmetry_Int_Tables_number   1
_chemical_formula_structural   BaU3O14
_chemical_formula_sum   'Ba2 U6 O28'
_cell_volume   609.04934608
_cell_formula_units_Z   2
loop_
 _symmetry_equiv_pos_site_id
 _symmetry_equiv_pos_as_xyz
  1  'x, y, z'
loop_
 _atom_site_type_symbol
 _atom_site_label
 _atom_site_symmetry_multiplicity
 _atom_site_fract_x
 _atom_site_fract_y
 _atom_site_fract_z
 _atom_site_occupancy
  Ba  Ba0  1  0.18938800  0.50889300  0.51404400  1
  Ba  Ba1  1  0.68938800  0.49110700  0.01404400  1
  U  U2  1  0.50118600  0.97908400  0.50244400  1
  U  U3  1  0.00118600  0.02091600  0.00244400  1
  U  U4  1  0.03398800  0.97993100  0.68294300  1
  U  U5  1  0.53398800  0.02006900  0.18294300  1
  U  U6  1  0.00185000  0.98868000  0.36302900  1
  U  U7  1  0.50185000  0.01132000  0.86302900  1
  O  O8  1  0.51346800  0.72871300  0.48765300  1
  O  O9  1  0.01346800  0.27128700  0.98765300  1
  O  O10  1  0.46094700  0.22808700  0.50348800  1
  O  O11  1  0.96094700  0.77191300  0.00348800  1
  O  O12  1  0.02709500  0.72769500  0.69107100  1
  O  O13  1  0.52709500  0.27230500  0.19107100  1
  O  O14  1  0.07894600  0.22558900  0.66178200  1
  O  O15  1  0.57894600  0.77441100  0.16178200  1
  O  O16  1  0.98158900  0.73798600  0.35648500  1
  O  O17  1  0.48158900  0.26201400  0.85648500  1
  O  O18  1  0.02069500  0.23496000  0.39285100  1
  O  O19  1  0.52069500  0.76504000  0.89285100  1
  O  O20  1  0.18145100  0.93069600  0.51783000  1
  O  O21  1  0.68145100  0.06930400  0.01783000  1
  O  O22  1  0.81051600  0.98629000  0.55292700  1
  O  O23  1  0.31051600  0.01371000  0.05292700  1
  O  O24  1  0.43761700  0.97262500  0.68488800  1
  O  O25  1  0.93761700  0.02737500  0.18488800  1
  O  O26  1  0.31293400  0.98410900  0.31241000  1
  O  O27  1  0.81293400  0.01589100  0.81241000  1
  O  O28  1  0.68079800  0.00911100  0.34759700  1
  O  O29  1  0.18079800  0.99088900  0.84759700  1
  O  O30  1  0.29449400  0.53375100  0.24081200  1
  O  O31  1  0.79449400  0.46624900  0.74081200  1
  O  O32  1  0.49157700  0.51983200  0.70070900  1
  O  O33  1  0.99157700  0.48016800  0.20070900  1
  O  O34  1  0.65914200  0.46884100  0.66662700  1
  O  O35  1  0.15914200  0.53115900  0.16662700  1
