data_image0
_chemical_formula_structural       N4Sr4
_chemical_formula_sum              "N4 Sr4"
_cell_length_a       3.75661
_cell_length_b       6.71757
_cell_length_c       6.98463
_cell_angle_alpha    94.3663
_cell_angle_beta     105.6
_cell_angle_gamma    90

_space_group_name_H-M_alt    "P 1"
_space_group_IT_number       1

loop_
  _space_group_symop_operation_xyz
  'x, y, z'

loop_
  _atom_site_type_symbol
  _atom_site_label
  _atom_site_symmetry_multiplicity
  _atom_site_fract_x
  _atom_site_fract_y
  _atom_site_fract_z
  _atom_site_occupancy
  N   N1        1.0  0.02240  0.08330  0.04480  1.0000
  N   N2        1.0  0.24600  0.74800  0.49200  1.0000
  N   N3        1.0  0.75400  0.25200  0.50800  1.0000
  N   N4        1.0  0.97800  0.91700  0.95500  1.0000
  Sr  Sr1       1.0  0.64600  0.90600  0.29100  1.0000
  Sr  Sr2       1.0  0.15100  0.39200  0.30200  1.0000
  Sr  Sr3       1.0  0.84900  0.60800  0.69800  1.0000
  Sr  Sr4       1.0  0.35400  0.09390  0.70900  1.0000
