# generated using pymatgen
data_CsSb
_symmetry_space_group_name_H-M   'P 1'
_cell_length_a   7.54336500
_cell_length_b   14.56248500
_cell_length_c   15.62612674
_cell_angle_alpha   66.53034543
_cell_angle_beta   90.00000000
_cell_angle_gamma   90.00000000
_symmetry_Int_Tables_number   1
_chemical_formula_structural   CsSb
_chemical_formula_sum   'Cs16 Sb16'
_cell_volume   1574.52544258
_cell_formula_units_Z   16
loop_
 _symmetry_equiv_pos_site_id
 _symmetry_equiv_pos_as_xyz
  1  'x, y, z'
loop_
 _atom_site_type_symbol
 _atom_site_label
 _atom_site_symmetry_multiplicity
 _atom_site_fract_x
 _atom_site_fract_y
 _atom_site_fract_z
 _atom_site_occupancy
  Cs  Cs0  1  0.61898700  0.35424900  0.13122200  1
  Cs  Cs1  1  0.11898700  0.14575100  0.86877800  1
  Cs  Cs2  1  0.38101300  0.64575100  0.86877800  1
  Cs  Cs3  1  0.88101300  0.85424900  0.13122200  1
  Cs  Cs4  1  0.81202900  0.47162800  0.39115100  1
  Cs  Cs5  1  0.31202900  0.02837200  0.60884900  1
  Cs  Cs6  1  0.18797100  0.52837200  0.60884900  1
  Cs  Cs7  1  0.68797100  0.97162800  0.39115100  1
  Cs  Cs8  1  0.58900200  0.31760600  0.65732300  1
  Cs  Cs9  1  0.08900200  0.18239400  0.34267700  1
  Cs  Cs10  1  0.41099800  0.68239400  0.34267700  1
  Cs  Cs11  1  0.91099800  0.81760600  0.65732300  1
  Cs  Cs12  1  0.85541800  0.45896300  0.85630300  1
  Cs  Cs13  1  0.35541800  0.04103700  0.14369700  1
  Cs  Cs14  1  0.14458200  0.54103700  0.14369700  1
  Cs  Cs15  1  0.64458200  0.95896300  0.85630300  1
  Sb  Sb16  1  0.13375000  0.30186200  0.06874600  1
  Sb  Sb17  1  0.63375000  0.19813800  0.93125400  1
  Sb  Sb18  1  0.86625000  0.69813800  0.93125400  1
  Sb  Sb19  1  0.36625000  0.80186200  0.06874600  1
  Sb  Sb20  1  0.87179700  0.14648400  0.08935700  1
  Sb  Sb21  1  0.37179700  0.35351600  0.91064300  1
  Sb  Sb22  1  0.12820300  0.85351600  0.91064300  1
  Sb  Sb23  1  0.62820300  0.64648400  0.08935700  1
  Sb  Sb24  1  0.57478600  0.23009900  0.41061300  1
  Sb  Sb25  1  0.07478600  0.26990100  0.58938700  1
  Sb  Sb26  1  0.42521400  0.76990100  0.58938700  1
  Sb  Sb27  1  0.92521400  0.73009900  0.41061300  1
  Sb  Sb28  1  0.80837000  0.13333000  0.56906500  1
  Sb  Sb29  1  0.30837000  0.36667000  0.43093500  1
  Sb  Sb30  1  0.19163000  0.86667000  0.43093500  1
  Sb  Sb31  1  0.69163000  0.63333000  0.56906500  1
