# generated using pymatgen
data_Sm3B13O29
_symmetry_space_group_name_H-M   'P 1'
_cell_length_a   6.45286919
_cell_length_b   10.71388749
_cell_length_c   30.89493873
_cell_angle_alpha   100.11743078
_cell_angle_beta   90.00000000
_cell_angle_gamma   90.00000000
_symmetry_Int_Tables_number   1
_chemical_formula_structural   Sm3B13O29
_chemical_formula_sum   'Sm12 B52 O116'
_cell_volume   2102.71711004
_cell_formula_units_Z   4
loop_
 _symmetry_equiv_pos_site_id
 _symmetry_equiv_pos_as_xyz
  1  'x, y, z'
loop_
 _atom_site_type_symbol
 _atom_site_label
 _atom_site_symmetry_multiplicity
 _atom_site_fract_x
 _atom_site_fract_y
 _atom_site_fract_z
 _atom_site_occupancy
  Sm  Sm0  1  0.72913159  0.44409190  0.32037369  1
  Sm  Sm1  1  0.72913159  0.55590810  0.17962631  1
  Sm  Sm2  1  0.27086841  0.55590810  0.67962631  1
  Sm  Sm3  1  0.27086841  0.44409190  0.82037369  1
  Sm  Sm4  1  0.20655540  0.93626861  0.32710315  1
  Sm  Sm5  1  0.20655540  0.06373139  0.17289685  1
  Sm  Sm6  1  0.79344460  0.06373139  0.67289685  1
  Sm  Sm7  1  0.79344460  0.93626861  0.82710315  1
  Sm  Sm8  1  0.59509196  0.59491301  0.45268925  1
  Sm  Sm9  1  0.59509196  0.40508699  0.04731075  1
  Sm  Sm10  1  0.40490804  0.40508699  0.54731075  1
  Sm  Sm11  1  0.40490804  0.59491301  0.95268925  1
  B  B12  1  0.20913187  0.86796401  0.57184085  1
  B  B13  1  0.20913187  0.13203599  0.92815915  1
  B  B14  1  0.79086813  0.13203599  0.42815915  1
  B  B15  1  0.79086813  0.86796401  0.07184085  1
  B  B16  1  0.22841228  0.60910361  0.35012860  1
  B  B17  1  0.22841228  0.39089639  0.14987140  1
  B  B18  1  0.77158772  0.39089639  0.64987140  1
  B  B19  1  0.77158772  0.60910361  0.85012860  1
  B  B20  1  0.12690847  0.64973414  0.42901613  1
  B  B21  1  0.12690847  0.35026586  0.07098387  1
  B  B22  1  0.87309153  0.35026586  0.57098387  1
  B  B23  1  0.87309153  0.64973414  0.92901613  1
  B  B24  1  0.37979567  0.83963318  0.20991713  1
  B  B25  1  0.37979567  0.16036682  0.29008287  1
  B  B26  1  0.62020433  0.16036682  0.79008287  1
  B  B27  1  0.62020433  0.83963318  0.70991713  1
  B  B28  1  0.27430449  0.90249290  0.68347784  1
  B  B29  1  0.27430449  0.09750710  0.81652216  1
  B  B30  1  0.72569551  0.09750710  0.31652216  1
  B  B31  1  0.72569551  0.90249290  0.18347784  1
  B  B32  1  0.25665956  0.67167525  0.04386391  1
  B  B33  1  0.25665956  0.32832475  0.45613609  1
  B  B34  1  0.74334044  0.32832475  0.95613609  1
  B  B35  1  0.74334044  0.67167525  0.54386391  1
  B  B36  1  0.10424071  0.69212060  0.51297759  1
  B  B37  1  0.10424071  0.30787940  0.98702241  1
  B  B38  1  0.89575929  0.30787940  0.48702241  1
  B  B39  1  0.89575929  0.69212060  0.01297759  1
  B  B40  1  0.26853663  0.61536038  0.19228437  1
  B  B41  1  0.26853663  0.38463962  0.30771563  1
  B  B42  1  0.73146337  0.38463962  0.80771563  1
  B  B43  1  0.73146337  0.61536038  0.69228437  1
  B  B44  1  0.11021516  0.70538081  0.87189991  1
  B  B45  1  0.11021516  0.29461919  0.62810009  1
  B  B46  1  0.88978484  0.29461919  0.12810009  1
  B  B47  1  0.88978484  0.70538081  0.37189991  1
  B  B48  1  0.24652191  0.65431919  0.58439122  1
  B  B49  1  0.24652191  0.34568081  0.91560878  1
  B  B50  1  0.75347809  0.34568081  0.41560878  1
  B  B51  1  0.75347809  0.65431919  0.08439122  1
  B  B52  1  0.47702720  0.75958112  0.85468094  1
  B  B53  1  0.47702720  0.24041888  0.64531906  1
  B  B54  1  0.52297280  0.24041888  0.14531906  1
  B  B55  1  0.52297280  0.75958112  0.35468094  1
  B  B56  1  0.02425690  0.79315119  0.21557414  1
  B  B57  1  0.02425690  0.20684881  0.28442586  1
  B  B58  1  0.97574310  0.20684881  0.78442586  1
  B  B59  1  0.97574310  0.79315119  0.71557414  1
  B  B60  1  0.22285491  0.93543754  0.86839821  1
  B  B61  1  0.22285491  0.06456246  0.63160179  1
  B  B62  1  0.77714509  0.06456246  0.13160179  1
  B  B63  1  0.77714509  0.93543754  0.36839821  1
  O  O64  1  0.42873402  0.70157849  0.19932922  1
  O  O65  1  0.42873402  0.29842151  0.30067078  1
  O  O66  1  0.57126598  0.29842151  0.80067078  1
  O  O67  1  0.57126598  0.70157849  0.69932922  1
  O  O68  1  0.06775083  0.83224334  0.86359538  1
  O  O69  1  0.06775083  0.16775666  0.63640462  1
  O  O70  1  0.93224917  0.16775666  0.13640462  1
  O  O71  1  0.93224917  0.83224334  0.36359538  1
  O  O72  1  0.15626089  0.98646950  0.66498001  1
  O  O73  1  0.15626089  0.01353050  0.83501999  1
  O  O74  1  0.84373911  0.01353050  0.33501999  1
  O  O75  1  0.84373911  0.98646950  0.16498001  1
  O  O76  1  0.06961990  0.68766256  0.91887746  1
  O  O77  1  0.06961990  0.31233744  0.58112254  1
  O  O78  1  0.93038010  0.31233744  0.08112254  1
  O  O79  1  0.93038010  0.68766256  0.41887746  1
  O  O80  1  0.33466548  0.67084137  0.86359316  1
  O  O81  1  0.33466548  0.32915863  0.63640684  1
  O  O82  1  0.66533452  0.32915863  0.13640684  1
  O  O83  1  0.66533452  0.67084137  0.36359316  1
  O  O84  1  0.38186699  0.87478388  0.25827974  1
  O  O85  1  0.38186699  0.12521612  0.24172026  1
  O  O86  1  0.61813301  0.12521612  0.74172026  1
  O  O87  1  0.61813301  0.87478388  0.75827974  1
  O  O88  1  0.29944126  0.56193660  0.75994146  1
  O  O89  1  0.29944126  0.43806340  0.74005854  1
  O  O90  1  0.70055874  0.43806340  0.24005854  1
  O  O91  1  0.70055874  0.56193660  0.25994146  1
  O  O92  1  0.32402264  0.72820506  0.34114674  1
  O  O93  1  0.32402264  0.27179494  0.15885326  1
  O  O94  1  0.67597736  0.27179494  0.65885326  1
  O  O95  1  0.67597736  0.72820506  0.84114674  1
  O  O96  1  0.31005869  0.56619689  0.60849884  1
  O  O97  1  0.31005869  0.43380311  0.89150116  1
  O  O98  1  0.68994131  0.43380311  0.39150116  1
  O  O99  1  0.68994131  0.56619689  0.10849884  1
  O  O100  1  0.48575302  0.91507021  0.68674136  1
  O  O101  1  0.48575302  0.08492979  0.81325864  1
  O  O102  1  0.51424698  0.08492979  0.31325864  1
  O  O103  1  0.51424698  0.91507021  0.18674136  1
  O  O104  1  0.16892013  0.60480642  0.54312972  1
  O  O105  1  0.16892013  0.39519358  0.95687028  1
  O  O106  1  0.83107987  0.39519358  0.45687028  1
  O  O107  1  0.83107987  0.60480642  0.04312972  1
  O  O108  1  0.33877543  0.49563822  0.17707782  1
  O  O109  1  0.33877543  0.50436178  0.32292218  1
  O  O110  1  0.66122457  0.50436178  0.82292218  1
  O  O111  1  0.66122457  0.49563822  0.67707782  1
  O  O112  1  0.21294981  0.99435951  0.58714066  1
  O  O113  1  0.21294981  0.00564049  0.91285934  1
  O  O114  1  0.78705019  0.00564049  0.41285934  1
  O  O115  1  0.78705019  0.99435951  0.08714066  1
  O  O116  1  0.43513547  0.88562450  0.85843505  1
  O  O117  1  0.43513547  0.11437550  0.64156495  1
  O  O118  1  0.56486453  0.11437550  0.14156495  1
  O  O119  1  0.56486453  0.88562450  0.35843505  1
  O  O120  1  0.06543587  0.64971243  0.20074931  1
  O  O121  1  0.06543587  0.35028757  0.29925069  1
  O  O122  1  0.93456413  0.35028757  0.79925069  1
  O  O123  1  0.93456413  0.64971243  0.70074931  1
  O  O124  1  0.25990757  0.78241393  0.59985192  1
  O  O125  1  0.25990757  0.21758607  0.90014808  1
  O  O126  1  0.74009243  0.21758607  0.40014808  1
  O  O127  1  0.74009243  0.78241393  0.09985192  1
  O  O128  1  0.22654071  0.93062997  0.08707130  1
  O  O129  1  0.22654071  0.06937003  0.41292870  1
  O  O130  1  0.77345929  0.06937003  0.91292870  1
  O  O131  1  0.77345929  0.93062997  0.58707130  1
  O  O132  1  0.18799477  0.80507457  0.70185866  1
  O  O133  1  0.18799477  0.19492543  0.79814134  1
  O  O134  1  0.81200523  0.19492543  0.29814134  1
  O  O135  1  0.81200523  0.80507457  0.20185866  1
  O  O136  1  0.00583449  0.60695165  0.34234601  1
  O  O137  1  0.00583449  0.39304835  0.15765399  1
  O  O138  1  0.99416551  0.39304835  0.65765399  1
  O  O139  1  0.99416551  0.60695165  0.84234601  1
  O  O140  1  0.12541421  0.67844313  0.00822595  1
  O  O141  1  0.12541421  0.32155687  0.49177405  1
  O  O142  1  0.87458579  0.32155687  0.99177405  1
  O  O143  1  0.87458579  0.67844313  0.50822595  1
  O  O144  1  0.20312368  0.64888382  0.47038936  1
  O  O145  1  0.20312368  0.35111618  0.02961064  1
  O  O146  1  0.79687632  0.35111618  0.52961064  1
  O  O147  1  0.79687632  0.64888382  0.97038936  1
  O  O148  1  0.27350240  0.60578047  0.39747932  1
  O  O149  1  0.27350240  0.39421953  0.10252068  1
  O  O150  1  0.72649760  0.39421953  0.60252068  1
  O  O151  1  0.72649760  0.60578047  0.89747932  1
  O  O152  1  0.94630742  0.82710944  0.76314288  1
  O  O153  1  0.94630742  0.17289056  0.73685712  1
  O  O154  1  0.05369258  0.17289056  0.23685712  1
  O  O155  1  0.05369258  0.82710944  0.26314288  1
  O  O156  1  0.15949232  0.82271406  0.52900297  1
  O  O157  1  0.15949232  0.17728594  0.97099703  1
  O  O158  1  0.84050768  0.17728594  0.47099703  1
  O  O159  1  0.84050768  0.82271406  0.02900297  1
  O  O160  1  0.17229437  0.86303029  0.19403043  1
  O  O161  1  0.17229437  0.13696971  0.30596957  1
  O  O162  1  0.82770563  0.13696971  0.80596957  1
  O  O163  1  0.82770563  0.86303029  0.69403043  1
  O  O164  1  0.42210772  0.59354796  0.03193130  1
  O  O165  1  0.42210772  0.40645204  0.46806870  1
  O  O166  1  0.57789228  0.40645204  0.96806870  1
  O  O167  1  0.57789228  0.59354796  0.53193130  1
  O  O168  1  0.22589944  0.73484814  0.08592902  1
  O  O169  1  0.22589944  0.26515186  0.41407098  1
  O  O170  1  0.77410056  0.26515186  0.91407098  1
  O  O171  1  0.77410056  0.73484814  0.58592902  1
  O  O172  1  0.43493572  0.82957220  0.97360713  1
  O  O173  1  0.43493572  0.17042780  0.52639287  1
  O  O174  1  0.56506428  0.17042780  0.02639287  1
  O  O175  1  0.56506428  0.82957220  0.47360713  1
  O  O176  1  0.22450987  0.93560312  0.01648731  1
  O  O177  1  0.22450987  0.06439688  0.48351269  1
  O  O178  1  0.77549013  0.06439688  0.98351269  1
  O  O179  1  0.77549013  0.93560312  0.51648731  1
