# generated using pymatgen
data_Cd2H18C8O17
_symmetry_space_group_name_H-M   'P 1'
_cell_length_a   7.16325768
_cell_length_b   16.32908810
_cell_length_c   16.21997285
_cell_angle_alpha   90.00000000
_cell_angle_beta   90.00000000
_cell_angle_gamma   99.32479834
_symmetry_Int_Tables_number   1
_chemical_formula_structural   Cd2H18C8O17
_chemical_formula_sum   'Cd8 H72 C32 O68'
_cell_volume   1872.17080037
_cell_formula_units_Z   4
loop_
 _symmetry_equiv_pos_site_id
 _symmetry_equiv_pos_as_xyz
  1  'x, y, z'
loop_
 _atom_site_type_symbol
 _atom_site_label
 _atom_site_symmetry_multiplicity
 _atom_site_fract_x
 _atom_site_fract_y
 _atom_site_fract_z
 _atom_site_occupancy
  Cd  Cd0  1  0.51181595  0.55126853  0.24359801  1
  Cd  Cd1  1  0.01181595  0.05126853  0.25640199  1
  Cd  Cd2  1  0.48818405  0.44873147  0.75640199  1
  Cd  Cd3  1  0.98818405  0.94873147  0.74359801  1
  Cd  Cd4  1  0.47578018  0.75172564  0.54949753  1
  Cd  Cd5  1  0.97578018  0.25172564  0.95050247  1
  Cd  Cd6  1  0.52421982  0.24827436  0.45050247  1
  Cd  Cd7  1  0.02421982  0.74827436  0.04949753  1
  H  H8  1  0.87559703  0.82957392  0.51066840  1
  H  H9  1  0.37559703  0.32957392  0.98933160  1
  H  H10  1  0.12440297  0.17042608  0.48933160  1
  H  H11  1  0.62440297  0.67042608  0.01066840  1
  H  H12  1  0.86739590  0.80286192  0.60648915  1
  H  H13  1  0.36739590  0.30286192  0.89351085  1
  H  H14  1  0.13260410  0.19713808  0.39351085  1
  H  H15  1  0.63260410  0.69713808  0.10648915  1
  H  H16  1  0.08829432  0.68986769  0.48715486  1
  H  H17  1  0.58829432  0.18986769  0.01284514  1
  H  H18  1  0.91170568  0.31013231  0.51284514  1
  H  H19  1  0.41170568  0.81013231  0.98715486  1
  H  H20  1  0.07542174  0.66697512  0.58495287  1
  H  H21  1  0.57542174  0.16697512  0.91504713  1
  H  H22  1  0.92457826  0.33302488  0.41504713  1
  H  H23  1  0.42457826  0.83302488  0.08495287  1
  H  H24  1  0.52921386  0.60070429  0.61849448  1
  H  H25  1  0.02921386  0.10070429  0.88150552  1
  H  H26  1  0.47078614  0.39929571  0.38150552  1
  H  H27  1  0.97078614  0.89929571  0.11849448  1
  H  H28  1  0.43717600  0.58082936  0.52998841  1
  H  H29  1  0.93717600  0.08082936  0.97001159  1
  H  H30  1  0.56282400  0.41917064  0.47001159  1
  H  H31  1  0.06282400  0.91917064  0.02998841  1
  H  H32  1  0.42873605  0.90265476  0.46776307  1
  H  H33  1  0.92873605  0.40265476  0.03223693  1
  H  H34  1  0.57126395  0.09734524  0.53223693  1
  H  H35  1  0.07126395  0.59734524  0.96776307  1
  H  H36  1  0.27335141  0.89462576  0.53864254  1
  H  H37  1  0.77335141  0.39462576  0.96135746  1
  H  H38  1  0.72664859  0.10537424  0.46135746  1
  H  H39  1  0.22664859  0.60537424  0.03864254  1
  H  H40  1  0.78494916  0.61148508  0.36904052  1
  H  H41  1  0.28494916  0.11148508  0.13095948  1
  H  H42  1  0.21505084  0.38851492  0.63095948  1
  H  H43  1  0.71505084  0.88851492  0.86904052  1
  H  H44  1  0.58882120  0.63583203  0.39193481  1
  H  H45  1  0.08882120  0.13583203  0.10806519  1
  H  H46  1  0.41117880  0.36416797  0.60806519  1
  H  H47  1  0.91117880  0.86416797  0.89193481  1
  H  H48  1  0.20792634  0.56777885  0.35581106  1
  H  H49  1  0.70792634  0.06777885  0.14418894  1
  H  H50  1  0.79207366  0.43222115  0.64418894  1
  H  H51  1  0.29207366  0.93222115  0.85581106  1
  H  H52  1  0.13790819  0.48516138  0.30997885  1
  H  H53  1  0.63790819  0.98516138  0.19002115  1
  H  H54  1  0.86209181  0.51483862  0.69002115  1
  H  H55  1  0.36209181  0.01483862  0.80997885  1
  H  H56  1  0.42624191  0.47209363  0.09267815  1
  H  H57  1  0.92624191  0.97209363  0.40732185  1
  H  H58  1  0.57375809  0.52790637  0.90732185  1
  H  H59  1  0.07375809  0.02790637  0.59267815  1
  H  H60  1  0.23202500  0.49314821  0.12269292  1
  H  H61  1  0.73202500  0.99314821  0.37730708  1
  H  H62  1  0.76797500  0.50685179  0.87730708  1
  H  H63  1  0.26797500  0.00685179  0.62269292  1
  H  H64  1  0.90614718  0.60783940  0.19300056  1
  H  H65  1  0.40614718  0.10783940  0.30699944  1
  H  H66  1  0.09385282  0.39216060  0.80699944  1
  H  H67  1  0.59385282  0.89216060  0.69300056  1
  H  H68  1  0.87975763  0.51025932  0.17464723  1
  H  H69  1  0.37975763  0.01025932  0.32535277  1
  H  H70  1  0.12024237  0.48974068  0.82535277  1
  H  H71  1  0.62024237  0.98974068  0.67464723  1
  H  H72  1  0.74317739  0.53525253  0.51079762  1
  H  H73  1  0.24317739  0.03525253  0.98920238  1
  H  H74  1  0.25682261  0.46474747  0.48920238  1
  H  H75  1  0.75682261  0.96474747  0.01079762  1
  H  H76  1  0.85170833  0.46557202  0.47590969  1
  H  H77  1  0.35170833  0.96557202  0.02409031  1
  H  H78  1  0.14829167  0.53442798  0.52409031  1
  H  H79  1  0.64829167  0.03442798  0.97590969  1
  C  C80  1  0.50357545  0.77058788  0.34251448  1
  C  C81  1  0.00357545  0.27058788  0.15748552  1
  C  C82  1  0.49642455  0.22941212  0.65748552  1
  C  C83  1  0.99642455  0.72941212  0.84251448  1
  C  C84  1  0.50115388  0.85872194  0.32472206  1
  C  C85  1  0.00115388  0.35872194  0.17527794  1
  C  C86  1  0.49884612  0.14127806  0.67527794  1
  C  C87  1  0.99884612  0.64127806  0.82472206  1
  C  C88  1  0.51566954  0.84236438  0.23582493  1
  C  C89  1  0.01566954  0.34236438  0.26417507  1
  C  C90  1  0.48433046  0.15763562  0.76417507  1
  C  C91  1  0.98433046  0.65763562  0.73582493  1
  C  C92  1  0.51769444  0.75388099  0.25357933  1
  C  C93  1  0.01769444  0.25388099  0.24642067  1
  C  C94  1  0.48230556  0.24611901  0.74642067  1
  C  C95  1  0.98230556  0.74611901  0.75357933  1
  C  C96  1  0.48436649  0.73797349  0.75403012  1
  C  C97  1  0.98436649  0.23797349  0.74596988  1
  C  C98  1  0.51563351  0.26202651  0.24596988  1
  C  C99  1  0.01563351  0.76202651  0.25403012  1
  C  C100  1  0.49190915  0.65007782  0.76996458  1
  C  C101  1  0.99190915  0.15007782  0.73003542  1
  C  C102  1  0.50809085  0.34992218  0.23003542  1
  C  C103  1  0.00809085  0.84992218  0.26996458  1
  C  C104  1  0.49551697  0.66537472  0.85961825  1
  C  C105  1  0.99551697  0.16537472  0.64038175  1
  C  C106  1  0.50448303  0.33462528  0.14038175  1
  C  C107  1  0.00448303  0.83462528  0.35961825  1
  C  C108  1  0.48882348  0.75432393  0.84376416  1
  C  C109  1  0.98882348  0.25432393  0.65623584  1
  C  C110  1  0.51117652  0.24567607  0.15623584  1
  C  C111  1  0.01117652  0.74567607  0.34376416  1
  O  O112  1  0.49996601  0.72590323  0.40645948  1
  O  O113  1  0.99996601  0.22590323  0.09354052  1
  O  O114  1  0.50003399  0.27409677  0.59354052  1
  O  O115  1  0.00003399  0.77409677  0.90645948  1
  O  O116  1  0.49271043  0.92311019  0.36754512  1
  O  O117  1  0.99271043  0.42311019  0.13245488  1
  O  O118  1  0.50728957  0.07688981  0.63245488  1
  O  O119  1  0.00728957  0.57688981  0.86754512  1
  O  O120  1  0.52506621  0.88609721  0.17181805  1
  O  O121  1  0.02506621  0.38609721  0.32818195  1
  O  O122  1  0.47493379  0.11390279  0.82818195  1
  O  O123  1  0.97493379  0.61390279  0.67181805  1
  O  O124  1  0.53099890  0.69170642  0.20902378  1
  O  O125  1  0.03099890  0.19170642  0.29097622  1
  O  O126  1  0.46900110  0.30829358  0.79097622  1
  O  O127  1  0.96900110  0.80829358  0.70902378  1
  O  O128  1  0.48057048  0.78293062  0.69061243  1
  O  O129  1  0.98057048  0.28293062  0.80938757  1
  O  O130  1  0.51942952  0.21706938  0.30938757  1
  O  O131  1  0.01942952  0.71706938  0.19061243  1
  O  O132  1  0.49970392  0.58814968  0.72347424  1
  O  O133  1  0.99970392  0.08814968  0.77652576  1
  O  O134  1  0.50029608  0.41185032  0.27652576  1
  O  O135  1  0.00029608  0.91185032  0.22347424  1
  O  O136  1  0.50773589  0.62175707  0.92313168  1
  O  O137  1  0.00773589  0.12175707  0.57686832  1
  O  O138  1  0.49226411  0.37824293  0.07686832  1
  O  O139  1  0.99226411  0.87824293  0.42313168  1
  O  O140  1  0.49327319  0.81800389  0.88787786  1
  O  O141  1  0.99327319  0.31800389  0.61212214  1
  O  O142  1  0.50672681  0.18199611  0.11212214  1
  O  O143  1  0.00672681  0.68199611  0.38787786  1
  O  O144  1  0.79841397  0.79649879  0.55353865  1
  O  O145  1  0.29841397  0.29649879  0.94646135  1
  O  O146  1  0.20158603  0.20350121  0.44646135  1
  O  O147  1  0.70158603  0.70350121  0.05353865  1
  O  O148  1  0.16264100  0.68543122  0.53856038  1
  O  O149  1  0.66264100  0.18543122  0.96143962  1
  O  O150  1  0.83735900  0.31456878  0.46143962  1
  O  O151  1  0.33735900  0.81456878  0.03856038  1
  O  O152  1  0.54458925  0.61560789  0.55885329  1
  O  O153  1  0.04458925  0.11560789  0.94114671  1
  O  O154  1  0.45541075  0.38439211  0.44114671  1
  O  O155  1  0.95541075  0.88439211  0.05885329  1
  O  O156  1  0.39965142  0.88277694  0.52547592  1
  O  O157  1  0.89965142  0.38277694  0.97452408  1
  O  O158  1  0.60034858  0.11722306  0.47452408  1
  O  O159  1  0.10034858  0.61722306  0.02547592  1
  O  O160  1  0.64851614  0.58822281  0.37187499  1
  O  O161  1  0.14851614  0.08822281  0.12812501  1
  O  O162  1  0.35148386  0.41177719  0.62812501  1
  O  O163  1  0.85148386  0.91177719  0.87187499  1
  O  O164  1  0.21014969  0.54234212  0.30122521  1
  O  O165  1  0.71014969  0.04234212  0.19877479  1
  O  O166  1  0.78985031  0.45765788  0.69877479  1
  O  O167  1  0.28985031  0.95765788  0.80122521  1
  O  O168  1  0.36512686  0.51917172  0.11432722  1
  O  O169  1  0.86512686  0.01917172  0.38567278  1
  O  O170  1  0.63487314  0.48082828  0.88567278  1
  O  O171  1  0.13487314  0.98082828  0.61432722  1
  O  O172  1  0.81336236  0.55595033  0.19153720  1
  O  O173  1  0.31336236  0.05595033  0.30846280  1
  O  O174  1  0.18663764  0.44404967  0.80846280  1
  O  O175  1  0.68663764  0.94404967  0.69153720  1
  O  O176  1  0.76659949  0.47825302  0.51929969  1
  O  O177  1  0.26659949  0.97825302  0.98070031  1
  O  O178  1  0.23340051  0.52174698  0.48070031  1
  O  O179  1  0.73340051  0.02174698  0.01929969  1
