# generated using pymatgen
data_Yb3InS6
_symmetry_space_group_name_H-M   'P 1'
_cell_length_a   3.87799500
_cell_length_b   14.38086900
_cell_length_c   16.13845700
_cell_angle_alpha   90.00000000
_cell_angle_beta   90.00000000
_cell_angle_gamma   90.00000000
_symmetry_Int_Tables_number   1
_chemical_formula_structural   Yb3InS6
_chemical_formula_sum   'Yb12 In4 S24'
_cell_volume   900.02460910
_cell_formula_units_Z   4
loop_
 _symmetry_equiv_pos_site_id
 _symmetry_equiv_pos_as_xyz
  1  'x, y, z'
loop_
 _atom_site_type_symbol
 _atom_site_label
 _atom_site_symmetry_multiplicity
 _atom_site_fract_x
 _atom_site_fract_y
 _atom_site_fract_z
 _atom_site_occupancy
  Yb  Yb0  1  0.25316900  0.99358800  0.78222500  1
  Yb  Yb1  1  0.25316900  0.00641200  0.21777500  1
  Yb  Yb2  1  0.74683100  0.50641200  0.28222500  1
  Yb  Yb3  1  0.74683100  0.49358800  0.71777500  1
  Yb  Yb4  1  0.23521500  0.23384600  0.62127000  1
  Yb  Yb5  1  0.23521500  0.76615400  0.37873000  1
  Yb  Yb6  1  0.76478500  0.26615400  0.12127000  1
  Yb  Yb7  1  0.76478500  0.73384600  0.87873000  1
  Yb  Yb8  1  0.75470100  0.32420900  0.87232600  1
  Yb  Yb9  1  0.75470100  0.67579100  0.12767400  1
  Yb  Yb10  1  0.24529900  0.17579100  0.37232600  1
  Yb  Yb11  1  0.24529900  0.82420900  0.62767400  1
  In  In12  1  0.75439300  0.00000000  0.50000000  1
  In  In13  1  0.24560700  0.50000000  0.00000000  1
  In  In14  1  0.28282600  0.50000000  0.50000000  1
  In  In15  1  0.71717400  0.00000000  0.00000000  1
  S  S16  1  0.78002600  0.40004700  0.56311400  1
  S  S17  1  0.78002600  0.59995300  0.43688600  1
  S  S18  1  0.21997400  0.09995300  0.06311400  1
  S  S19  1  0.21997400  0.90004700  0.93688600  1
  S  S20  1  0.26199900  0.31452500  0.00059700  1
  S  S21  1  0.26199900  0.68547500  0.99940300  1
  S  S22  1  0.73800100  0.18547500  0.50059700  1
  S  S23  1  0.73800100  0.81452500  0.49940300  1
  S  S24  1  0.82250700  0.13214600  0.86239600  1
  S  S25  1  0.82250700  0.86785400  0.13760400  1
  S  S26  1  0.17749300  0.36785400  0.36239600  1
  S  S27  1  0.17749300  0.63214600  0.63760400  1
  S  S28  1  0.74529800  0.13225600  0.73481200  1
  S  S29  1  0.74529800  0.86774400  0.26518800  1
  S  S30  1  0.25470200  0.36774400  0.23481200  1
  S  S31  1  0.25470200  0.63225600  0.76518800  1
  S  S32  1  0.25108700  0.36096900  0.75346000  1
  S  S33  1  0.25108700  0.63903100  0.24654000  1
  S  S34  1  0.74891300  0.13903100  0.25346000  1
  S  S35  1  0.74891300  0.86096900  0.74654000  1
  S  S36  1  0.24989300  0.01894300  0.60830900  1
  S  S37  1  0.24989300  0.98105700  0.39169100  1
  S  S38  1  0.75010700  0.48105700  0.10830900  1
  S  S39  1  0.75010700  0.51894300  0.89169100  1
