# generated using pymatgen
data_SiAgH16C7S3(OF)3
_symmetry_space_group_name_H-M   'P 1'
_cell_length_a   8.56371900
_cell_length_b   14.78457392
_cell_length_c   16.38426240
_cell_angle_alpha   70.49927714
_cell_angle_beta   74.85042349
_cell_angle_gamma   73.16498821
_symmetry_Int_Tables_number   1
_chemical_formula_structural   SiAgH16C7S3(OF)3
_chemical_formula_sum   'Si4 Ag4 H64 C28 S12 O12 F12'
_cell_volume   1840.19442258
_cell_formula_units_Z   4
loop_
 _symmetry_equiv_pos_site_id
 _symmetry_equiv_pos_as_xyz
  1  'x, y, z'
loop_
 _atom_site_type_symbol
 _atom_site_label
 _atom_site_symmetry_multiplicity
 _atom_site_fract_x
 _atom_site_fract_y
 _atom_site_fract_z
 _atom_site_occupancy
  Si  Si0  1  0.28600200  0.97051400  0.70655300  1
  Si  Si1  1  0.96307000  0.52948600  0.79344700  1
  Si  Si2  1  0.71399800  0.02948600  0.29344700  1
  Si  Si3  1  0.03693000  0.47051400  0.20655300  1
  Ag  Ag4  1  0.04371800  0.25000000  0.75000000  1
  Ag  Ag5  1  0.95628200  0.75000000  0.25000000  1
  Ag  Ag6  1  0.40401400  0.25000000  0.75000000  1
  Ag  Ag7  1  0.59598600  0.75000000  0.25000000  1
  H  H8  1  0.33088200  0.94687000  0.85782500  1
  H  H9  1  0.13557600  0.55313000  0.64217500  1
  H  H10  1  0.66911800  0.05313000  0.14217500  1
  H  H11  1  0.86442400  0.44687000  0.35782500  1
  H  H12  1  0.24786400  0.13611300  0.92833000  1
  H  H13  1  0.31230800  0.36388700  0.57167000  1
  H  H14  1  0.75213600  0.86388700  0.07167000  1
  H  H15  1  0.68769200  0.63611300  0.42833000  1
  H  H16  1  0.03215500  0.13909600  0.97525900  1
  H  H17  1  0.14651000  0.36090400  0.52474100  1
  H  H18  1  0.96784500  0.86090400  0.02474100  1
  H  H19  1  0.85349000  0.63909600  0.47525900  1
  H  H20  1  0.17983500  0.02286000  0.99008100  1
  H  H21  1  0.19277500  0.47714000  0.50991900  1
  H  H22  1  0.82016500  0.97714000  0.00991900  1
  H  H23  1  0.80722500  0.52286000  0.49008100  1
  H  H24  1  0.62700600  0.93097200  0.86923900  1
  H  H25  1  0.42721800  0.56902800  0.63076100  1
  H  H26  1  0.37299400  0.06902800  0.13076100  1
  H  H27  1  0.57278200  0.43097200  0.36923900  1
  H  H28  1  0.70018600  0.04085400  0.84447700  1
  H  H29  1  0.58551700  0.45914600  0.65552300  1
  H  H30  1  0.29981400  0.95914600  0.15552300  1
  H  H31  1  0.41448300  0.54085400  0.34447700  1
  H  H32  1  0.51257200  0.02617100  0.92200100  1
  H  H33  1  0.46074500  0.47382900  0.57799900  1
  H  H34  1  0.48742800  0.97382900  0.07799900  1
  H  H35  1  0.53925500  0.52617100  0.42200100  1
  H  H36  1  0.30460800  0.04659300  0.54680900  1
  H  H37  1  0.89801000  0.45340700  0.95319100  1
  H  H38  1  0.69539200  0.95340700  0.45319100  1
  H  H39  1  0.10199000  0.54659300  0.04680900  1
  H  H40  1  0.20145600  0.13624900  0.60380000  1
  H  H41  1  0.94150500  0.36375100  0.89620000  1
  H  H42  1  0.79854400  0.86375100  0.39620000  1
  H  H43  1  0.05849500  0.63624900  0.10380000  1
  H  H44  1  0.42286400  0.09627800  0.58850500  1
  H  H45  1  0.10764700  0.40372200  0.91149500  1
  H  H46  1  0.57713600  0.90372200  0.41149500  1
  H  H47  1  0.89235300  0.59627800  0.08850500  1
  H  H48  1  0.58213600  0.87696500  0.69810700  1
  H  H49  1  0.15720800  0.62303500  0.80189300  1
  H  H50  1  0.41786400  0.12303500  0.30189300  1
  H  H51  1  0.84279200  0.37696500  0.19810700  1
  H  H52  1  0.44410800  0.79688200  0.75698800  1
  H  H53  1  0.99797800  0.70311800  0.74301200  1
  H  H54  1  0.55589200  0.20311800  0.24301200  1
  H  H55  1  0.00202200  0.29688200  0.25698800  1
  H  H56  1  0.47181500  0.84171900  0.64026600  1
  H  H57  1  0.95380000  0.65828100  0.85973400  1
  H  H58  1  0.52818500  0.15828100  0.35973400  1
  H  H59  1  0.04620000  0.34171900  0.14026600  1
  H  H60  1  0.07666600  0.90622400  0.67849700  1
  H  H61  1  0.66138800  0.59377600  0.82150300  1
  H  H62  1  0.92333400  0.09377600  0.32150300  1
  H  H63  1  0.33861200  0.40622400  0.17849700  1
  H  H64  1  0.06679500  0.87705500  0.79387400  1
  H  H65  1  0.73772400  0.62294500  0.70612600  1
  H  H66  1  0.93320500  0.12294500  0.20612600  1
  H  H67  1  0.26227600  0.37705500  0.29387400  1
  H  H68  1  0.97733600  0.99842400  0.73336500  1
  H  H69  1  0.70912500  0.50157600  0.76663500  1
  H  H70  1  0.02266400  0.00157600  0.26663500  1
  H  H71  1  0.29087500  0.49842400  0.23336500  1
  C  C72  1  0.30187600  0.01367900  0.80341300  1
  C  C73  1  0.11896700  0.48632100  0.69658700  1
  C  C74  1  0.69812400  0.98632100  0.19658700  1
  C  C75  1  0.88103300  0.51367900  0.30341300  1
  C  C76  1  0.14786600  0.09686100  0.94542800  1
  C  C77  1  0.19015500  0.40313900  0.55457200  1
  C  C78  1  0.85213400  0.90313900  0.05457200  1
  C  C79  1  0.80984500  0.59686100  0.44542800  1
  C  C80  1  0.58959600  0.01042100  0.86154200  1
  C  C81  1  0.46155900  0.48957900  0.63845800  1
  C  C82  1  0.41040400  0.98957900  0.13845800  1
  C  C83  1  0.53844100  0.51042100  0.36154200  1
  C  C84  1  0.83906300  0.17048400  0.50600500  1
  C  C85  1  0.51555200  0.32951600  0.99399500  1
  C  C86  1  0.16093700  0.82951600  0.49399500  1
  C  C87  1  0.48444800  0.67048400  0.00600500  1
  C  C88  1  0.30612100  0.07254500  0.60213900  1
  C  C89  1  0.98080500  0.42745500  0.89786100  1
  C  C90  1  0.69387900  0.92745500  0.39786100  1
  C  C91  1  0.01919500  0.57254500  0.10213900  1
  C  C92  1  0.46282400  0.86130700  0.70076000  1
  C  C93  1  0.02489000  0.63869300  0.79924000  1
  C  C94  1  0.53717600  0.13869300  0.29924000  1
  C  C95  1  0.97511000  0.36130700  0.20076000  1
  C  C96  1  0.08210600  0.93489200  0.73135400  1
  C  C97  1  0.74835100  0.56510800  0.76864600  1
  C  C98  1  0.91789400  0.06510800  0.26864600  1
  C  C99  1  0.25164900  0.43489200  0.23135400  1
  S  S100  1  0.10524500  0.08337200  0.84810100  1
  S  S101  1  0.03671700  0.41662800  0.65189900  1
  S  S102  1  0.89475500  0.91662800  0.15189900  1
  S  S103  1  0.96328300  0.58337200  0.34810100  1
  S  S104  1  0.48254300  0.06849700  0.76891700  1
  S  S105  1  0.31995700  0.43150300  0.73108300  1
  S  S106  1  0.51745700  0.93150300  0.23108300  1
  S  S107  1  0.68004300  0.56849700  0.26891700  1
  S  S108  1  0.78849600  0.25653500  0.57621200  1
  S  S109  1  0.62124300  0.24346500  0.92378800  1
  S  S110  1  0.21150400  0.74346500  0.42378800  1
  S  S111  1  0.37875700  0.75653500  0.07621200  1
  O  O112  1  0.60667700  0.27711500  0.59676200  1
  O  O113  1  0.48055400  0.22288500  0.90323800  1
  O  O114  1  0.39332300  0.72288500  0.40323800  1
  O  O115  1  0.51944600  0.77711500  0.09676200  1
  O  O116  1  0.86992500  0.19901300  0.65170000  1
  O  O117  1  0.72063800  0.30098700  0.84830000  1
  O  O118  1  0.13007500  0.80098700  0.34830000  1
  O  O119  1  0.27936200  0.69901300  0.15170000  1
  O  O120  1  0.85860900  0.33955500  0.51766900  1
  O  O121  1  0.71583300  0.16044500  0.98233100  1
  O  O122  1  0.14139100  0.66044500  0.48233100  1
  O  O123  1  0.28416700  0.83955500  0.01766900  1
  F  F124  1  0.76412700  0.21374800  0.43400800  1
  F  F125  1  0.41188300  0.28625200  0.06599200  1
  F  F126  1  0.23587300  0.78625200  0.56599200  1
  F  F127  1  0.58811700  0.71374800  0.93400800  1
  F  F128  1  0.78615400  0.08610200  0.55083500  1
  F  F129  1  0.42309000  0.41389800  0.94916500  1
  F  F130  1  0.21384600  0.91389800  0.44916500  1
  F  F131  1  0.57691000  0.58610200  0.05083500  1
  F  F132  1  0.00501300  0.14600500  0.47637200  1
  F  F133  1  0.62739000  0.35399500  0.02362800  1
  F  F134  1  0.99498700  0.85399500  0.52362800  1
  F  F135  1  0.37261000  0.64600500  0.97637200  1
