# generated using pymatgen
data_UH18N5F7
_symmetry_space_group_name_H-M   'P 1'
_cell_length_a   12.33610500
_cell_length_b   6.66697300
_cell_length_c   14.61748620
_cell_angle_alpha   67.64087176
_cell_angle_beta   90.00000000
_cell_angle_gamma   90.00000000
_symmetry_Int_Tables_number   1
_chemical_formula_structural   UH18N5F7
_chemical_formula_sum   'U4 H72 N20 F28'
_cell_volume   1111.82272902
_cell_formula_units_Z   4
loop_
 _symmetry_equiv_pos_site_id
 _symmetry_equiv_pos_as_xyz
  1  'x, y, z'
loop_
 _atom_site_type_symbol
 _atom_site_label
 _atom_site_symmetry_multiplicity
 _atom_site_fract_x
 _atom_site_fract_y
 _atom_site_fract_z
 _atom_site_occupancy
  U  U0  1  0.25885700  0.10862000  0.59623500  1
  U  U1  1  0.24114300  0.10862000  0.09623500  1
  U  U2  1  0.74114300  0.89138000  0.40376500  1
  U  U3  1  0.75885700  0.89138000  0.90376500  1
  H  H4  1  0.30639600  0.60518900  0.65669700  1
  H  H5  1  0.19360400  0.60518900  0.15669700  1
  H  H6  1  0.69360400  0.39481100  0.34330300  1
  H  H7  1  0.80639600  0.39481100  0.84330300  1
  H  H8  1  0.24066400  0.62339000  0.75115900  1
  H  H9  1  0.25933600  0.62339000  0.25115900  1
  H  H10  1  0.75933600  0.37661000  0.24884100  1
  H  H11  1  0.74066400  0.37661000  0.74884100  1
  H  H12  1  0.17551900  0.62297700  0.65265100  1
  H  H13  1  0.32448100  0.62297700  0.15265100  1
  H  H14  1  0.82448100  0.37702300  0.34734900  1
  H  H15  1  0.67551900  0.37702300  0.84734900  1
  H  H16  1  0.58066700  0.82104800  0.71350700  1
  H  H17  1  0.91933300  0.82104800  0.21350700  1
  H  H18  1  0.41933300  0.17895200  0.28649300  1
  H  H19  1  0.08066700  0.17895200  0.78649300  1
  H  H20  1  0.61325500  0.69237200  0.63781500  1
  H  H21  1  0.88674500  0.69237200  0.13781500  1
  H  H22  1  0.38674500  0.30762800  0.36218500  1
  H  H23  1  0.11325500  0.30762800  0.86218500  1
  H  H24  1  0.49218800  0.81990700  0.62489100  1
  H  H25  1  0.00781200  0.81990700  0.12489100  1
  H  H26  1  0.50781200  0.18009300  0.37510900  1
  H  H27  1  0.99218800  0.18009300  0.87510900  1
  H  H28  1  0.51327500  0.58479000  0.72788900  1
  H  H29  1  0.98672500  0.58479000  0.22788900  1
  H  H30  1  0.48672500  0.41521000  0.27211100  1
  H  H31  1  0.01327500  0.41521000  0.77211100  1
  H  H32  1  0.01511300  0.67313000  0.90827500  1
  H  H33  1  0.48488700  0.67313000  0.40827500  1
  H  H34  1  0.98488700  0.32687000  0.09172500  1
  H  H35  1  0.51511300  0.32687000  0.59172500  1
  H  H36  1  0.14426900  0.57773700  0.93597900  1
  H  H37  1  0.35573100  0.57773700  0.43597900  1
  H  H38  1  0.85573100  0.42226300  0.06402100  1
  H  H39  1  0.64426900  0.42226300  0.56402100  1
  H  H40  1  0.12068100  0.82242300  0.84101000  1
  H  H41  1  0.37931900  0.82242300  0.34101000  1
  H  H42  1  0.87931900  0.17757700  0.15899000  1
  H  H43  1  0.62068100  0.17757700  0.65899000  1
  H  H44  1  0.10197900  0.79568400  0.96059500  1
  H  H45  1  0.39802100  0.79568400  0.46059500  1
  H  H46  1  0.89802100  0.20431600  0.03940500  1
  H  H47  1  0.60197900  0.20431600  0.53940500  1
  H  H48  1  0.91449400  0.14800100  0.54504200  1
  H  H49  1  0.58550600  0.14800100  0.04504200  1
  H  H50  1  0.08550600  0.85199900  0.45495800  1
  H  H51  1  0.41449400  0.85199900  0.95495800  1
  H  H52  1  0.89317300  0.18431200  0.65305100  1
  H  H53  1  0.60682700  0.18431200  0.15305100  1
  H  H54  1  0.10682700  0.81568800  0.34694900  1
  H  H55  1  0.39317300  0.81568800  0.84694900  1
  H  H56  1  0.12269800  0.60340500  0.46368500  1
  H  H57  1  0.37730200  0.60340500  0.96368500  1
  H  H58  1  0.87730200  0.39659500  0.53631500  1
  H  H59  1  0.62269800  0.39659500  0.03631500  1
  H  H60  1  0.00120900  0.30250400  0.58076900  1
  H  H61  1  0.49879100  0.30250400  0.08076900  1
  H  H62  1  0.99879100  0.69749600  0.41923100  1
  H  H63  1  0.50120900  0.69749600  0.91923100  1
  H  H64  1  0.89231700  0.65904700  0.65157400  1
  H  H65  1  0.60768300  0.65904700  0.15157400  1
  H  H66  1  0.10768300  0.34095300  0.34842600  1
  H  H67  1  0.39231700  0.34095300  0.84842600  1
  H  H68  1  0.01217000  0.76897600  0.64239500  1
  H  H69  1  0.48783000  0.76897600  0.14239500  1
  H  H70  1  0.98783000  0.23102400  0.35760500  1
  H  H71  1  0.51217000  0.23102400  0.85760500  1
  H  H72  1  0.93358300  0.74793100  0.73576200  1
  H  H73  1  0.56641700  0.74793100  0.23576200  1
  H  H74  1  0.06641700  0.25206900  0.26423800  1
  H  H75  1  0.43358300  0.25206900  0.76423800  1
  N  N76  1  0.24276900  0.68032300  0.67567500  1
  N  N77  1  0.25723100  0.68032300  0.17567500  1
  N  N78  1  0.75723100  0.31967700  0.32432500  1
  N  N79  1  0.74276900  0.31967700  0.82432500  1
  N  N80  1  0.09589400  0.71630800  0.91158300  1
  N  N81  1  0.40410600  0.71630800  0.41158300  1
  N  N82  1  0.90410600  0.28369200  0.08841700  1
  N  N83  1  0.59589400  0.28369200  0.58841700  1
  N  N84  1  0.92031700  0.25822700  0.57963700  1
  N  N85  1  0.57968300  0.25822700  0.07963700  1
  N  N86  1  0.07968300  0.74177300  0.42036300  1
  N  N87  1  0.42031700  0.74177300  0.92036300  1
  N  N88  1  0.95894800  0.66716100  0.69225500  1
  N  N89  1  0.54105200  0.66716100  0.19225500  1
  N  N90  1  0.04105200  0.33283900  0.30774500  1
  N  N91  1  0.45894800  0.33283900  0.80774500  1
  N  N92  1  0.54960200  0.72938700  0.67571800  1
  N  N93  1  0.95039800  0.72938700  0.17571800  1
  N  N94  1  0.45039800  0.27061300  0.32428200  1
  N  N95  1  0.04960200  0.27061300  0.82428200  1
  F  F96  1  0.13769400  0.38982800  0.57541300  1
  F  F97  1  0.36230600  0.38982800  0.07541300  1
  F  F98  1  0.86230600  0.61017200  0.42458700  1
  F  F99  1  0.63769400  0.61017200  0.92458700  1
  F  F100  1  0.37689000  0.37512000  0.59537000  1
  F  F101  1  0.12311000  0.37512000  0.09537000  1
  F  F102  1  0.62311000  0.62488000  0.40463000  1
  F  F103  1  0.87689000  0.62488000  0.90463000  1
  F  F104  1  0.27760800  0.35616000  0.42778700  1
  F  F105  1  0.22239200  0.35616000  0.92778700  1
  F  F106  1  0.72239200  0.64384000  0.57221300  1
  F  F107  1  0.77760800  0.64384000  0.07221300  1
  F  F108  1  0.37642500  0.97085400  0.72568600  1
  F  F109  1  0.12357500  0.97085400  0.22568600  1
  F  F110  1  0.62357500  0.02914600  0.27431400  1
  F  F111  1  0.87642500  0.02914600  0.77431400  1
  F  F112  1  0.38510400  0.96227200  0.52949900  1
  F  F113  1  0.11489600  0.96227200  0.02949900  1
  F  F114  1  0.61489600  0.03772800  0.47050100  1
  F  F115  1  0.88510400  0.03772800  0.97050100  1
  F  F116  1  0.12226000  0.00433800  0.52642500  1
  F  F117  1  0.37774000  0.00433800  0.02642500  1
  F  F118  1  0.87774000  0.99566200  0.47357500  1
  F  F119  1  0.62226000  0.99566200  0.97357500  1
  F  F120  1  0.14875900  0.01697200  0.73312000  1
  F  F121  1  0.35124100  0.01697200  0.23312000  1
  F  F122  1  0.85124100  0.98302800  0.26688000  1
  F  F123  1  0.64875900  0.98302800  0.76688000  1
