# generated using pymatgen
data_U3(C3O8)2
_symmetry_space_group_name_H-M   'P 1'
_cell_length_a   14.99930365
_cell_length_b   14.99930365
_cell_length_c   14.99930365
_cell_angle_alpha   109.47122063
_cell_angle_beta   109.47122063
_cell_angle_gamma   109.47122063
_symmetry_Int_Tables_number   1
_chemical_formula_structural   U3(C3O8)2
_chemical_formula_sum   'U12 C24 O64'
_cell_volume   2597.71439409
_cell_formula_units_Z   4
loop_
 _symmetry_equiv_pos_site_id
 _symmetry_equiv_pos_as_xyz
  1  'x, y, z'
loop_
 _atom_site_type_symbol
 _atom_site_label
 _atom_site_symmetry_multiplicity
 _atom_site_fract_x
 _atom_site_fract_y
 _atom_site_fract_z
 _atom_site_occupancy
  U  U0  1  0.53153600  0.15050900  0.14560500  1
  U  U1  1  0.38593200  0.85439500  0.00490400  1
  U  U2  1  0.38102800  0.99509600  0.84949100  1
  U  U3  1  0.00490400  0.38593200  0.85439500  1
  U  U4  1  0.84949100  0.38102800  0.99509600  1
  U  U5  1  0.14560500  0.53153600  0.15050900  1
  U  U6  1  0.99509600  0.84949100  0.38102800  1
  U  U7  1  0.15050900  0.14560500  0.53153600  1
  U  U8  1  0.85439500  0.00490400  0.38593200  1
  U  U9  1  0.46846400  0.61406800  0.61897200  1
  U  U10  1  0.61406800  0.61897200  0.46846400  1
  U  U11  1  0.61897200  0.46846400  0.61406800  1
  C  C12  1  0.73366100  0.44138100  0.16883900  1
  C  C13  1  0.56482200  0.83116100  0.27254200  1
  C  C14  1  0.29228000  0.72745800  0.55861900  1
  C  C15  1  0.27254200  0.56482200  0.83116100  1
  C  C16  1  0.55861900  0.29228000  0.72745800  1
  C  C17  1  0.16883900  0.73366100  0.44138100  1
  C  C18  1  0.72745800  0.55861900  0.29228000  1
  C  C19  1  0.44138100  0.16883900  0.73366100  1
  C  C20  1  0.83116100  0.27254200  0.56482200  1
  C  C21  1  0.26633900  0.43517800  0.70772000  1
  C  C22  1  0.43517800  0.70772000  0.26633900  1
  C  C23  1  0.70772000  0.26633900  0.43517800  1
  C  C24  1  0.66837900  0.43523300  0.22694300  1
  C  C25  1  0.44143600  0.77305700  0.20829000  1
  C  C26  1  0.23314600  0.79171000  0.56476700  1
  C  C27  1  0.20829000  0.44143600  0.77305700  1
  C  C28  1  0.56476700  0.23314600  0.79171000  1
  C  C29  1  0.22694300  0.66837900  0.43523300  1
  C  C30  1  0.79171000  0.56476700  0.23314600  1
  C  C31  1  0.43523300  0.22694300  0.66837900  1
  C  C32  1  0.77305700  0.20829000  0.44143600  1
  C  C33  1  0.33162100  0.55856400  0.76685400  1
  C  C34  1  0.55856400  0.76685400  0.33162100  1
  C  C35  1  0.76685400  0.33162100  0.55856400  1
  O  O36  1  0.48135500  0.15774900  0.98699500  1
  O  O37  1  0.49436100  0.01300500  0.17075400  1
  O  O38  1  0.32360700  0.82924600  0.84225100  1
  O  O39  1  0.17075400  0.49436000  0.01300500  1
  O  O40  1  0.84225100  0.32360700  0.82924600  1
  O  O41  1  0.98699500  0.48135500  0.15774900  1
  O  O42  1  0.82924600  0.84225100  0.32360700  1
  O  O43  1  0.15774900  0.98699500  0.48135500  1
  O  O44  1  0.01300500  0.17075400  0.49436100  1
  O  O45  1  0.51864500  0.50564000  0.67639300  1
  O  O46  1  0.50564000  0.67639300  0.51864500  1
  O  O47  1  0.67639300  0.51864500  0.50564000  1
  O  O48  1  0.40743500  0.14404000  0.14099500  1
  O  O49  1  0.26644000  0.85900500  0.00304600  1
  O  O50  1  0.26339400  0.99695400  0.85596000  1
  O  O51  1  0.00304600  0.26644000  0.85900500  1
  O  O52  1  0.85596000  0.26339400  0.99695400  1
  O  O53  1  0.14099500  0.40743500  0.14404000  1
  O  O54  1  0.99695400  0.85596000  0.26339400  1
  O  O55  1  0.14404000  0.14099500  0.40743500  1
  O  O56  1  0.85900500  0.00304600  0.26644000  1
  O  O57  1  0.59256500  0.73356000  0.73660600  1
  O  O58  1  0.73356000  0.73660600  0.59256500  1
  O  O59  1  0.73660600  0.59256500  0.73356000  1
  O  O60  1  0.67235800  0.19417000  0.17693400  1
  O  O61  1  0.49542500  0.82306600  0.01723700  1
  O  O62  1  0.47818800  0.98276300  0.80583000  1
  O  O63  1  0.01723700  0.49542500  0.82306600  1
  O  O64  1  0.80583000  0.47818800  0.98276300  1
  O  O65  1  0.17693400  0.67235800  0.19417000  1
  O  O66  1  0.98276300  0.80583000  0.47818800  1
  O  O67  1  0.19417000  0.17693400  0.67235800  1
  O  O68  1  0.82306600  0.01723700  0.49542500  1
  O  O69  1  0.32764200  0.50457500  0.52181200  1
  O  O70  1  0.50457500  0.52181200  0.32764200  1
  O  O71  1  0.52181200  0.32764200  0.50457500  1
  O  O72  1  0.59806100  0.36191400  0.22398900  1
  O  O73  1  0.37407200  0.77601100  0.13792500  1
  O  O74  1  0.23614700  0.86207500  0.63808600  1
  O  O75  1  0.13792500  0.37407200  0.77601100  1
  O  O76  1  0.63808600  0.23614700  0.86207500  1
  O  O77  1  0.22398900  0.59806100  0.36191400  1
  O  O78  1  0.86207500  0.63808600  0.23614700  1
  O  O79  1  0.36191400  0.22398900  0.59806100  1
  O  O80  1  0.77601100  0.13792500  0.37407200  1
  O  O81  1  0.40193900  0.62592800  0.76385300  1
  O  O82  1  0.62592800  0.76385300  0.40193900  1
  O  O83  1  0.76385300  0.40193900  0.62592800  1
  O  O84  1  0.73801300  0.37383300  0.10005700  1
  O  O85  1  0.63795600  0.89994300  0.27377600  1
  O  O86  1  0.36418000  0.72622400  0.62616700  1
  O  O87  1  0.27377600  0.63795600  0.89994300  1
  O  O88  1  0.62616700  0.36418000  0.72622400  1
  O  O89  1  0.10005700  0.73801300  0.37383300  1
  O  O90  1  0.72622400  0.62616700  0.36418000  1
  O  O91  1  0.37383300  0.10005700  0.73801300  1
  O  O92  1  0.89994300  0.27377600  0.63795600  1
  O  O93  1  0.26198700  0.36204400  0.63582000  1
  O  O94  1  0.36204400  0.63582000  0.26198700  1
  O  O95  1  0.63582000  0.26198700  0.36204400  1
  O  O96  1  0.46644100  0.00000000  0.00000000  1
  O  O97  1  0.00000000  0.46644100  0.00000000  1
  O  O98  1  0.00000000  0.00000000  0.46644100  1
  O  O99  1  0.53355900  0.53355900  0.53355900  1
