# generated using pymatgen
data_Dy3Ir2
_symmetry_space_group_name_H-M   'P 1'
_cell_length_a   14.92881364
_cell_length_b   14.92881364
_cell_length_c   14.92881364
_cell_angle_alpha   135.68345311
_cell_angle_beta   135.68345311
_cell_angle_gamma   64.47010312
_symmetry_Int_Tables_number   1
_chemical_formula_structural   Dy3Ir2
_chemical_formula_sum   'Dy42 Ir28'
_cell_volume   1601.41532028
_cell_formula_units_Z   14
loop_
 _symmetry_equiv_pos_site_id
 _symmetry_equiv_pos_as_xyz
  1  'x, y, z'
loop_
 _atom_site_type_symbol
 _atom_site_label
 _atom_site_symmetry_multiplicity
 _atom_site_fract_x
 _atom_site_fract_y
 _atom_site_fract_z
 _atom_site_occupancy
  Dy  Dy0  1  0.63212500  0.50373100  0.27917600  1
  Dy  Dy1  1  0.22455500  0.35294900  0.72082400  1
  Dy  Dy2  1  0.13212500  0.85294900  0.12839400  1
  Dy  Dy3  1  0.72455500  0.00373100  0.87160600  1
  Dy  Dy4  1  0.35294900  0.63212500  0.12839400  1
  Dy  Dy5  1  0.50373100  0.22455500  0.87160600  1
  Dy  Dy6  1  0.00373100  0.13212500  0.27917600  1
  Dy  Dy7  1  0.85294900  0.72455500  0.72082400  1
  Dy  Dy8  1  0.36787500  0.49626900  0.72082400  1
  Dy  Dy9  1  0.77544500  0.64705100  0.27917600  1
  Dy  Dy10  1  0.86787500  0.14705100  0.87160600  1
  Dy  Dy11  1  0.27544500  0.99626900  0.12839400  1
  Dy  Dy12  1  0.64705100  0.36787500  0.87160600  1
  Dy  Dy13  1  0.49626900  0.77544500  0.12839400  1
  Dy  Dy14  1  0.99626900  0.86787500  0.72082400  1
  Dy  Dy15  1  0.14705100  0.27544500  0.27917600  1
  Dy  Dy16  1  0.38586900  0.51673300  0.29008300  1
  Dy  Dy17  1  0.22665000  0.09578600  0.70991700  1
  Dy  Dy18  1  0.88586900  0.59578600  0.86913600  1
  Dy  Dy19  1  0.72665000  0.01673300  0.13086400  1
  Dy  Dy20  1  0.09578600  0.38586900  0.86913600  1
  Dy  Dy21  1  0.51673300  0.22665000  0.13086400  1
  Dy  Dy22  1  0.01673300  0.88586900  0.29008300  1
  Dy  Dy23  1  0.59578600  0.72665000  0.70991700  1
  Dy  Dy24  1  0.61413100  0.48326700  0.70991700  1
  Dy  Dy25  1  0.77335000  0.90421400  0.29008300  1
  Dy  Dy26  1  0.11413100  0.40421400  0.13086400  1
  Dy  Dy27  1  0.27335000  0.98326700  0.86913600  1
  Dy  Dy28  1  0.90421400  0.61413100  0.13086400  1
  Dy  Dy29  1  0.48326700  0.77335000  0.86913600  1
  Dy  Dy30  1  0.98326700  0.11413100  0.70991700  1
  Dy  Dy31  1  0.40421400  0.27335000  0.29008300  1
  Dy  Dy32  1  0.85053100  0.35053100  0.20106200  1
  Dy  Dy33  1  0.14946900  0.64946900  0.79893800  1
  Dy  Dy34  1  0.35053100  0.14946900  0.50000000  1
  Dy  Dy35  1  0.64946900  0.85053100  0.50000000  1
  Dy  Dy36  1  0.38775600  0.88775600  0.50000000  1
  Dy  Dy37  1  0.88775600  0.38775600  0.50000000  1
  Dy  Dy38  1  0.61224400  0.11224400  0.50000000  1
  Dy  Dy39  1  0.11224400  0.61224400  0.50000000  1
  Dy  Dy40  1  0.25000000  0.75000000  0.50000000  1
  Dy  Dy41  1  0.75000000  0.25000000  0.50000000  1
  Ir  Ir42  1  0.71492700  0.21492700  0.14178300  1
  Ir  Ir43  1  0.07314500  0.57314500  0.85821700  1
  Ir  Ir44  1  0.21492700  0.07314500  0.50000000  1
  Ir  Ir45  1  0.57314500  0.71492700  0.50000000  1
  Ir  Ir46  1  0.28507300  0.78507300  0.85821700  1
  Ir  Ir47  1  0.92685500  0.42685500  0.14178300  1
  Ir  Ir48  1  0.78507300  0.92685500  0.50000000  1
  Ir  Ir49  1  0.42685500  0.28507300  0.50000000  1
  Ir  Ir50  1  0.46540800  0.96540800  0.80779400  1
  Ir  Ir51  1  0.15761400  0.65761400  0.19220600  1
  Ir  Ir52  1  0.96540800  0.15761400  0.50000000  1
  Ir  Ir53  1  0.65761400  0.46540800  0.50000000  1
  Ir  Ir54  1  0.53459200  0.03459200  0.19220600  1
  Ir  Ir55  1  0.84238600  0.34238600  0.80779400  1
  Ir  Ir56  1  0.03459200  0.84238600  0.50000000  1
  Ir  Ir57  1  0.34238600  0.53459200  0.50000000  1
  Ir  Ir58  1  0.59678300  0.09678300  0.69356600  1
  Ir  Ir59  1  0.40321700  0.90321700  0.30643400  1
  Ir  Ir60  1  0.09678300  0.40321700  0.50000000  1
  Ir  Ir61  1  0.90321700  0.59678300  0.50000000  1
  Ir  Ir62  1  0.36606900  0.36606900  0.00000000  1
  Ir  Ir63  1  0.86606900  0.86606900  0.00000000  1
  Ir  Ir64  1  0.63393100  0.63393100  0.00000000  1
  Ir  Ir65  1  0.13393100  0.13393100  0.00000000  1
  Ir  Ir66  1  0.50000000  0.50000000  0.00000000  1
  Ir  Ir67  1  0.00000000  0.00000000  0.00000000  1
  Ir  Ir68  1  0.25000000  0.25000000  0.00000000  1
  Ir  Ir69  1  0.75000000  0.75000000  0.00000000  1
