# generated using pymatgen
data_Sr(SO4)2
_symmetry_space_group_name_H-M   'P 1'
_cell_length_a   7.41778700
_cell_length_b   13.18405100
_cell_length_c   14.45533700
_cell_angle_alpha   90.00000000
_cell_angle_beta   90.00000000
_cell_angle_gamma   90.00000000
_symmetry_Int_Tables_number   1
_chemical_formula_structural   Sr(SO4)2
_chemical_formula_sum   'Sr8 S16 O64'
_cell_volume   1413.68110639
_cell_formula_units_Z   8
loop_
 _symmetry_equiv_pos_site_id
 _symmetry_equiv_pos_as_xyz
  1  'x, y, z'
loop_
 _atom_site_type_symbol
 _atom_site_label
 _atom_site_symmetry_multiplicity
 _atom_site_fract_x
 _atom_site_fract_y
 _atom_site_fract_z
 _atom_site_occupancy
  Sr  Sr0  1  0.65003100  0.43283000  0.30963100  1
  Sr  Sr1  1  0.84996900  0.93283000  0.69036900  1
  Sr  Sr2  1  0.15003100  0.56717000  0.19036900  1
  Sr  Sr3  1  0.34996900  0.06717000  0.80963100  1
  Sr  Sr4  1  0.34996900  0.56717000  0.69036900  1
  Sr  Sr5  1  0.15003100  0.06717000  0.30963100  1
  Sr  Sr6  1  0.84996900  0.43283000  0.80963100  1
  Sr  Sr7  1  0.65003100  0.93283000  0.19036900  1
  S  S8  1  0.66422100  0.13236700  0.33538400  1
  S  S9  1  0.83577900  0.63236700  0.66461600  1
  S  S10  1  0.16422100  0.86763300  0.16461600  1
  S  S11  1  0.33577900  0.36763300  0.83538400  1
  S  S12  1  0.33577900  0.86763300  0.66461600  1
  S  S13  1  0.16422100  0.36763300  0.33538400  1
  S  S14  1  0.83577900  0.13236700  0.83538400  1
  S  S15  1  0.66422100  0.63236700  0.16461600  1
  S  S16  1  0.85459800  0.35505200  0.07336800  1
  S  S17  1  0.64540200  0.85505200  0.92663200  1
  S  S18  1  0.35459800  0.64494800  0.42663200  1
  S  S19  1  0.14540200  0.14494800  0.57336800  1
  S  S20  1  0.14540200  0.64494800  0.92663200  1
  S  S21  1  0.35459800  0.14494800  0.07336800  1
  S  S22  1  0.64540200  0.35505200  0.57336800  1
  S  S23  1  0.85459800  0.85505200  0.42663200  1
  O  O24  1  0.62260800  0.24034100  0.31861800  1
  O  O25  1  0.87739200  0.74034100  0.68138200  1
  O  O26  1  0.12260800  0.75965900  0.18138200  1
  O  O27  1  0.37739200  0.25965900  0.81861800  1
  O  O28  1  0.37739200  0.75965900  0.68138200  1
  O  O29  1  0.12260800  0.25965900  0.31861800  1
  O  O30  1  0.87739200  0.24034100  0.81861800  1
  O  O31  1  0.62260800  0.74034100  0.18138200  1
  O  O32  1  0.00105800  0.43096400  0.31993100  1
  O  O33  1  0.49894200  0.93096400  0.68006900  1
  O  O34  1  0.50105800  0.56903600  0.18006900  1
  O  O35  1  0.99894200  0.06903600  0.81993100  1
  O  O36  1  0.99894200  0.56903600  0.68006900  1
  O  O37  1  0.50105800  0.06903600  0.31993100  1
  O  O38  1  0.49894200  0.43096400  0.81993100  1
  O  O39  1  0.00105800  0.93096400  0.18006900  1
  O  O40  1  0.80593100  0.09444500  0.27017000  1
  O  O41  1  0.69406900  0.59444500  0.72983000  1
  O  O42  1  0.30593100  0.90555500  0.22983000  1
  O  O43  1  0.19406900  0.40555500  0.77017000  1
  O  O44  1  0.19406900  0.90555500  0.72983000  1
  O  O45  1  0.30593100  0.40555500  0.27017000  1
  O  O46  1  0.69406900  0.09444500  0.77017000  1
  O  O47  1  0.80593100  0.59444500  0.22983000  1
  O  O48  1  0.73493300  0.12252000  0.43095700  1
  O  O49  1  0.76506700  0.62252000  0.56904300  1
  O  O50  1  0.23493300  0.87748000  0.06904300  1
  O  O51  1  0.26506700  0.37748000  0.93095700  1
  O  O52  1  0.26506700  0.87748000  0.56904300  1
  O  O53  1  0.23493300  0.37748000  0.43095700  1
  O  O54  1  0.76506700  0.12252000  0.93095700  1
  O  O55  1  0.73493300  0.62252000  0.06904300  1
  O  O56  1  0.70708100  0.36249500  0.14250100  1
  O  O57  1  0.79291900  0.86249500  0.85749900  1
  O  O58  1  0.20708100  0.63750500  0.35749900  1
  O  O59  1  0.29291900  0.13750500  0.64250100  1
  O  O60  1  0.29291900  0.63750500  0.85749900  1
  O  O61  1  0.20708100  0.13750500  0.14250100  1
  O  O62  1  0.79291900  0.36249500  0.64250100  1
  O  O63  1  0.70708100  0.86249500  0.35749900  1
  O  O64  1  0.01154000  0.41426500  0.10522200  1
  O  O65  1  0.48846000  0.91426500  0.89477800  1
  O  O66  1  0.51154000  0.58573500  0.39477800  1
  O  O67  1  0.98846000  0.08573500  0.60522200  1
  O  O68  1  0.98846000  0.58573500  0.89477800  1
  O  O69  1  0.51154000  0.08573500  0.10522200  1
  O  O70  1  0.48846000  0.41426500  0.60522200  1
  O  O71  1  0.01154000  0.91426500  0.39477800  1
  O  O72  1  0.70629800  0.38855000  0.48122500  1
  O  O73  1  0.79370200  0.88855000  0.51877500  1
  O  O74  1  0.20629800  0.61145000  0.01877500  1
  O  O75  1  0.29370200  0.11145000  0.98122500  1
  O  O76  1  0.29370200  0.61145000  0.51877500  1
  O  O77  1  0.20629800  0.11145000  0.48122500  1
  O  O78  1  0.79370200  0.38855000  0.98122500  1
  O  O79  1  0.70629800  0.88855000  0.01877500  1
  O  O80  1  0.90529600  0.24537400  0.06639500  1
  O  O81  1  0.59470400  0.74537400  0.93360500  1
  O  O82  1  0.40529600  0.75462600  0.43360500  1
  O  O83  1  0.09470400  0.25462600  0.56639500  1
  O  O84  1  0.09470400  0.75462600  0.93360500  1
  O  O85  1  0.40529600  0.25462600  0.06639500  1
  O  O86  1  0.59470400  0.24537400  0.56639500  1
  O  O87  1  0.90529600  0.74537400  0.43360500  1
