# generated using pymatgen
data_NdP2(HO4)2
_symmetry_space_group_name_H-M   'P 1'
_cell_length_a   6.76590100
_cell_length_b   7.12165900
_cell_length_c   16.77601400
_cell_angle_alpha   90.00000000
_cell_angle_beta   90.00000000
_cell_angle_gamma   90.00000000
_symmetry_Int_Tables_number   1
_chemical_formula_structural   NdP2(HO4)2
_chemical_formula_sum   'Nd4 P8 H8 O32'
_cell_volume   808.34283582
_cell_formula_units_Z   4
loop_
 _symmetry_equiv_pos_site_id
 _symmetry_equiv_pos_as_xyz
  1  'x, y, z'
loop_
 _atom_site_type_symbol
 _atom_site_label
 _atom_site_symmetry_multiplicity
 _atom_site_fract_x
 _atom_site_fract_y
 _atom_site_fract_z
 _atom_site_occupancy
  Nd  Nd0  1  0.86116400  0.42562000  0.22868100  1
  Nd  Nd1  1  0.13883600  0.92562000  0.27131900  1
  Nd  Nd2  1  0.36116400  0.07438000  0.77131900  1
  Nd  Nd3  1  0.63883600  0.57438000  0.72868100  1
  P  P4  1  0.11242900  0.71888200  0.07769300  1
  P  P5  1  0.88757100  0.21888200  0.42230700  1
  P  P6  1  0.61242900  0.78111800  0.92230700  1
  P  P7  1  0.38757100  0.28111800  0.57769300  1
  P  P8  1  0.82756800  0.08961500  0.73933100  1
  P  P9  1  0.17243200  0.58961500  0.76066900  1
  P  P10  1  0.32756800  0.41038500  0.26066900  1
  P  P11  1  0.67243200  0.91038500  0.23933100  1
  H  H12  1  0.28775600  0.61400400  0.07681000  1
  H  H13  1  0.71224400  0.11400400  0.42319000  1
  H  H14  1  0.78775600  0.88599600  0.92319000  1
  H  H15  1  0.21224400  0.38599600  0.57681000  1
  H  H16  1  0.87972300  0.12517700  0.65939000  1
  H  H17  1  0.12027700  0.62517700  0.84061000  1
  H  H18  1  0.37972300  0.37482300  0.34061000  1
  H  H19  1  0.62027700  0.87482300  0.15939000  1
  O  O20  1  0.94302600  0.59150800  0.10714200  1
  O  O21  1  0.05697400  0.09150800  0.39285800  1
  O  O22  1  0.44302600  0.90849200  0.89285800  1
  O  O23  1  0.55697400  0.40849200  0.60714200  1
  O  O24  1  0.14536100  0.89004600  0.13126100  1
  O  O25  1  0.85463900  0.39004600  0.36873900  1
  O  O26  1  0.64536100  0.60995400  0.86873900  1
  O  O27  1  0.35463900  0.10995400  0.63126100  1
  O  O28  1  0.05992300  0.77606900  0.99113600  1
  O  O29  1  0.94007700  0.27606900  0.50886400  1
  O  O30  1  0.55992300  0.72393100  0.00886400  1
  O  O31  1  0.44007700  0.22393100  0.49113600  1
  O  O32  1  0.01734600  0.07431200  0.78769600  1
  O  O33  1  0.98265400  0.57431200  0.71230400  1
  O  O34  1  0.51734600  0.42568800  0.21230400  1
  O  O35  1  0.48265400  0.92568800  0.28769600  1
  O  O36  1  0.69426800  0.91182800  0.74056600  1
  O  O37  1  0.30573200  0.41182800  0.75943400  1
  O  O38  1  0.19426800  0.58817200  0.25943400  1
  O  O39  1  0.80573200  0.08817200  0.24056600  1
  O  O40  1  0.31316900  0.75022400  0.73293300  1
  O  O41  1  0.68683100  0.25022400  0.76706700  1
  O  O42  1  0.81316900  0.74977600  0.26706700  1
  O  O43  1  0.18683100  0.24977600  0.23293300  1
  O  O44  1  0.39667700  0.27184000  0.96387100  1
  O  O45  1  0.60332300  0.77184000  0.53612900  1
  O  O46  1  0.89667700  0.22816000  0.03612900  1
  O  O47  1  0.10332300  0.72816000  0.46387100  1
  O  O48  1  0.93318400  0.28761500  0.96921500  1
  O  O49  1  0.06681600  0.78761500  0.53078500  1
  O  O50  1  0.43318400  0.21238500  0.03078500  1
  O  O51  1  0.56681600  0.71238500  0.46921500  1
