# generated using pymatgen
data_MgUSe2O15
_symmetry_space_group_name_H-M   'P 1'
_cell_length_a   8.44382759
_cell_length_b   11.77748300
_cell_length_c   12.71314038
_cell_angle_alpha   90.00000000
_cell_angle_beta   95.80925773
_cell_angle_gamma   90.00000000
_symmetry_Int_Tables_number   1
_chemical_formula_structural   MgUSe2O15
_chemical_formula_sum   'Mg4 U4 Se8 O60'
_cell_volume   1257.79122973
_cell_formula_units_Z   4
loop_
 _symmetry_equiv_pos_site_id
 _symmetry_equiv_pos_as_xyz
  1  'x, y, z'
loop_
 _atom_site_type_symbol
 _atom_site_label
 _atom_site_symmetry_multiplicity
 _atom_site_fract_x
 _atom_site_fract_y
 _atom_site_fract_z
 _atom_site_occupancy
  Mg  Mg0  1  0.90994600  0.81012400  0.51246200  1
  Mg  Mg1  1  0.09005400  0.31012400  0.98753800  1
  Mg  Mg2  1  0.09005400  0.18987600  0.48753800  1
  Mg  Mg3  1  0.90994600  0.68987600  0.01246200  1
  U  U4  1  0.61791400  0.39993100  0.25621400  1
  U  U5  1  0.38208600  0.89993100  0.24378600  1
  U  U6  1  0.38208600  0.60006900  0.74378600  1
  U  U7  1  0.61791400  0.10006900  0.75621400  1
  Se  Se8  1  0.76412100  0.71697600  0.25791200  1
  Se  Se9  1  0.23587900  0.21697600  0.24208800  1
  Se  Se10  1  0.23587900  0.28302400  0.74208800  1
  Se  Se11  1  0.76412100  0.78302400  0.75791200  1
  Se  Se12  1  0.25313500  0.59408200  0.26869800  1
  Se  Se13  1  0.74686500  0.09408200  0.23130200  1
  Se  Se14  1  0.74686500  0.40591800  0.73130200  1
  Se  Se15  1  0.25313500  0.90591800  0.76869800  1
  O  O16  1  0.74784300  0.58167400  0.29725600  1
  O  O17  1  0.25215700  0.08167400  0.20274400  1
  O  O18  1  0.25215700  0.41832600  0.70274400  1
  O  O19  1  0.74784300  0.91832600  0.79725600  1
  O  O20  1  0.69886400  0.36511700  0.38898000  1
  O  O21  1  0.30113600  0.86511700  0.11102000  1
  O  O22  1  0.30113600  0.63488300  0.61102000  1
  O  O23  1  0.69886400  0.13488300  0.88898000  1
  O  O24  1  0.41570700  0.26486200  0.28584200  1
  O  O25  1  0.58429300  0.76486200  0.21415800  1
  O  O26  1  0.58429300  0.73513800  0.71415800  1
  O  O27  1  0.41570700  0.23513800  0.78584200  1
  O  O28  1  0.23164500  0.58453700  0.13656700  1
  O  O29  1  0.76835500  0.08453700  0.36343300  1
  O  O30  1  0.76835500  0.41546300  0.86343300  1
  O  O31  1  0.23164500  0.91546300  0.63656700  1
  O  O32  1  0.41633100  0.51886100  0.31493400  1
  O  O33  1  0.58366900  0.01886100  0.18506600  1
  O  O34  1  0.58366900  0.48113900  0.68506600  1
  O  O35  1  0.41633100  0.98113900  0.81493400  1
  O  O36  1  0.15028600  0.80097800  0.50880100  1
  O  O37  1  0.84971400  0.30097800  0.99119900  1
  O  O38  1  0.84971400  0.19902200  0.49119900  1
  O  O39  1  0.15028600  0.69902200  0.00880100  1
  O  O40  1  0.84178200  0.79493400  0.35944200  1
  O  O41  1  0.15821800  0.29493400  0.14055800  1
  O  O42  1  0.15821800  0.20506600  0.64055800  1
  O  O43  1  0.84178200  0.70506600  0.85944200  1
  O  O44  1  0.54224600  0.43547400  0.12332100  1
  O  O45  1  0.45775400  0.93547400  0.37667900  1
  O  O46  1  0.45775400  0.56452600  0.87667900  1
  O  O47  1  0.54224600  0.06452600  0.62332100  1
  O  O48  1  0.88250800  0.72197600  0.16130500  1
  O  O49  1  0.11749200  0.22197600  0.33869500  1
  O  O50  1  0.11749200  0.27802400  0.83869500  1
  O  O51  1  0.88250800  0.77802400  0.66130500  1
  O  O52  1  0.87375800  0.45535400  0.19933000  1
  O  O53  1  0.12624200  0.95535400  0.30067000  1
  O  O54  1  0.12624200  0.54464600  0.80067000  1
  O  O55  1  0.87375800  0.04464600  0.69933000  1
  O  O56  1  0.28456500  0.73057600  0.30799200  1
  O  O57  1  0.71543500  0.23057600  0.19200800  1
  O  O58  1  0.71543500  0.26942400  0.69200800  1
  O  O59  1  0.28456500  0.76942400  0.80799200  1
  O  O60  1  0.09626700  0.54384300  0.32400300  1
  O  O61  1  0.90373300  0.04384300  0.17599700  1
  O  O62  1  0.90373300  0.45615700  0.67599700  1
  O  O63  1  0.09626700  0.95615700  0.82400300  1
  O  O64  1  0.76042400  0.60526200  0.51684800  1
  O  O65  1  0.23957600  0.10526200  0.98315200  1
  O  O66  1  0.23957600  0.39473800  0.48315200  1
  O  O67  1  0.76042400  0.89473800  0.01684800  1
  O  O68  1  0.93072300  0.50566600  0.01565600  1
  O  O69  1  0.06927700  0.00566600  0.48434400  1
  O  O70  1  0.06927700  0.49433400  0.98434400  1
  O  O71  1  0.93072300  0.99433400  0.51565600  1
  O  O72  1  0.35639200  0.33123200  0.49720600  1
  O  O73  1  0.64360800  0.83123200  0.00279400  1
  O  O74  1  0.64360800  0.66876800  0.50279400  1
  O  O75  1  0.35639200  0.16876800  0.99720600  1
