# generated using pymatgen
data_Mo8P6O49
_symmetry_space_group_name_H-M   'P 1'
_cell_length_a   8.39046653
_cell_length_b   10.67126119
_cell_length_c   13.10013616
_cell_angle_alpha   89.00341120
_cell_angle_beta   83.26907125
_cell_angle_gamma   68.46073834
_symmetry_Int_Tables_number   1
_chemical_formula_structural   Mo8P6O49
_chemical_formula_sum   'Mo8 P6 O49'
_cell_volume   1083.09652811
_cell_formula_units_Z   1
loop_
 _symmetry_equiv_pos_site_id
 _symmetry_equiv_pos_as_xyz
  1  'x, y, z'
loop_
 _atom_site_type_symbol
 _atom_site_label
 _atom_site_symmetry_multiplicity
 _atom_site_fract_x
 _atom_site_fract_y
 _atom_site_fract_z
 _atom_site_occupancy
  Mo  Mo0  1  0.70862600  0.40516400  0.82566500  1
  Mo  Mo1  1  0.29137400  0.59483600  0.17433500  1
  Mo  Mo2  1  0.39067700  0.86991900  0.73880800  1
  Mo  Mo3  1  0.60932300  0.13008100  0.26119200  1
  Mo  Mo4  1  0.69574100  0.81439800  0.48610000  1
  Mo  Mo5  1  0.30425900  0.18560200  0.51390000  1
  Mo  Mo6  1  0.84478900  0.62575200  0.04104900  1
  Mo  Mo7  1  0.15521100  0.37424800  0.95895100  1
  P  P8  1  0.79685000  0.65522600  0.69693400  1
  P  P9  1  0.20315000  0.34477400  0.30306600  1
  P  P10  1  0.45570400  0.70340000  0.95711600  1
  P  P11  1  0.54429600  0.29660000  0.04288400  1
  P  P12  1  0.12016500  0.20868600  0.74955100  1
  P  P13  1  0.87983500  0.79131400  0.25044900  1
  O  O14  1  0.58255200  0.35861900  0.75551100  1
  O  O15  1  0.41744800  0.64138100  0.24448900  1
  O  O16  1  0.78407300  0.51234500  0.72929800  1
  O  O17  1  0.21592700  0.48765500  0.27070200  1
  O  O18  1  0.52942900  0.57142200  0.88894800  1
  O  O19  1  0.47057100  0.42857800  0.11105200  1
  O  O20  1  0.92452000  0.25183800  0.79219900  1
  O  O21  1  0.07548000  0.74816200  0.20780100  1
  O  O22  1  0.89620900  0.49205200  0.93612100  1
  O  O23  1  0.10379100  0.50794800  0.06387900  1
  O  O24  1  0.63234900  0.75462300  0.76448000  1
  O  O25  1  0.36765100  0.24537700  0.23552000  1
  O  O26  1  0.29650800  0.76514400  0.70257300  1
  O  O27  1  0.70349200  0.23485600  0.29742700  1
  O  O28  1  0.49435200  0.89552400  0.61927400  1
  O  O29  1  0.50564800  0.10447600  0.38072600  1
  O  O30  1  0.36096200  0.82669200  0.89646300  1
  O  O31  1  0.63903800  0.17330800  0.10353700  1
  O  O32  1  0.58585400  0.04449300  0.81046000  1
  O  O33  1  0.41414600  0.95550700  0.18954000  1
  O  O34  1  0.73900100  0.95633800  0.50539700  1
  O  O35  1  0.26099900  0.04366200  0.49460300  1
  O  O36  1  0.52844000  0.84108200  0.41419300  1
  O  O37  1  0.47156000  0.15891800  0.58580700  1
  O  O38  1  0.75404300  0.66320000  0.58147200  1
  O  O39  1  0.24595700  0.33680000  0.41852800  1
  O  O40  1  0.91541300  0.75508100  0.00389400  1
  O  O41  1  0.08458700  0.24491900  0.99610600  1
  O  O42  1  0.60555200  0.72147700  0.00506000  1
  O  O43  1  0.39444800  0.27852300  0.99494000  1
  O  O44  1  0.77776600  0.51695300  0.14512600  1
  O  O45  1  0.22223400  0.48304700  0.85487400  1
  O  O46  1  0.20970400  0.27870200  0.81027700  1
  O  O47  1  0.79029600  0.72129800  0.18972300  1
  O  O48  1  0.20470500  0.05271200  0.75960200  1
  O  O49  1  0.79529500  0.94728800  0.24039800  1
  O  O50  1  0.12156000  0.25101400  0.63596000  1
  O  O51  1  0.87844000  0.74898600  0.36404000  1
  O  O52  1  0.96184100  0.66648800  0.71127800  1
  O  O53  1  0.03815900  0.33351200  0.28872200  1
  O  O54  1  0.32440100  0.68377800  0.04387100  1
  O  O55  1  0.67559900  0.31622200  0.95612900  1
  O  O56  1  0.24431200  0.59575700  0.52999200  1
  O  O57  1  0.75568800  0.40424300  0.47000800  1
  O  O58  1  0.74110400  0.01101300  0.78149200  1
  O  O59  1  0.25889600  0.98898700  0.21850800  1
  O  O60  1  0.17089400  0.71330500  0.50636500  1
  O  O61  1  0.82910600  0.28669500  0.49363500  1
  O  O62  1  0.00000000  0.00000000  0.00000000  1
