# generated using pymatgen
data_Yb2Te(Mo3O23)2
_symmetry_space_group_name_H-M   'P 1'
_cell_length_a   8.98985900
_cell_length_b   9.52442206
_cell_length_c   11.63361394
_cell_angle_alpha   77.27348125
_cell_angle_beta   78.57930074
_cell_angle_gamma   68.74536459
_symmetry_Int_Tables_number   1
_chemical_formula_structural   Yb2Te(Mo3O23)2
_chemical_formula_sum   'Yb2 Te1 Mo6 O46'
_cell_volume   897.86310978
_cell_formula_units_Z   1
loop_
 _symmetry_equiv_pos_site_id
 _symmetry_equiv_pos_as_xyz
  1  'x, y, z'
loop_
 _atom_site_type_symbol
 _atom_site_label
 _atom_site_symmetry_multiplicity
 _atom_site_fract_x
 _atom_site_fract_y
 _atom_site_fract_z
 _atom_site_occupancy
  Yb  Yb0  1  0.99907600  0.00134300  0.24752800  1
  Yb  Yb1  1  0.00092400  0.99865700  0.75247200  1
  Te  Te2  1  0.00000000  0.50000000  0.50000000  1
  Mo  Mo3  1  0.24119600  0.21439400  0.33969800  1
  Mo  Mo4  1  0.75880400  0.78560600  0.66030200  1
  Mo  Mo5  1  0.87189600  0.43949500  0.24576000  1
  Mo  Mo6  1  0.12810400  0.56050500  0.75424000  1
  Mo  Mo7  1  0.64524800  0.70345100  0.40430200  1
  Mo  Mo8  1  0.35475200  0.29654900  0.59569800  1
  O  O9  1  0.97197400  0.29163400  0.48374200  1
  O  O10  1  0.02802600  0.70836600  0.51625800  1
  O  O11  1  0.91754700  0.58675100  0.34915800  1
  O  O12  1  0.08245300  0.41324900  0.65084200  1
  O  O13  1  0.22335400  0.40380100  0.43049400  1
  O  O14  1  0.77664600  0.59619900  0.56950600  1
  O  O15  1  0.11060200  0.36800800  0.23580500  1
  O  O16  1  0.88939800  0.63199200  0.76419500  1
  O  O17  1  0.67256100  0.51784600  0.34801400  1
  O  O18  1  0.32743900  0.48215400  0.65198600  1
  O  O19  1  0.27027400  0.13505100  0.52721200  1
  O  O20  1  0.72972600  0.86494900  0.47278800  1
  O  O21  1  0.43783200  0.17859100  0.27863700  1
  O  O22  1  0.56216800  0.82140900  0.72136300  1
  O  O23  1  0.18383500  0.06051200  0.32766800  1
  O  O24  1  0.81616500  0.93948800  0.67233200  1
  O  O25  1  0.83766100  0.55160000  0.11097500  1
  O  O26  1  0.16233900  0.44840000  0.88902500  1
  O  O27  1  0.86757900  0.25771400  0.23918000  1
  O  O28  1  0.13242100  0.74228600  0.76082000  1
  O  O29  1  0.46153400  0.74334500  0.49233500  1
  O  O30  1  0.53846600  0.25665500  0.50766500  1
  O  O31  1  0.61984600  0.83915700  0.27865000  1
  O  O32  1  0.38015400  0.16084300  0.72135000  1
  O  O33  1  0.83621000  0.05857600  0.08561600  1
  O  O34  1  0.16379000  0.94142400  0.91438400  1
  O  O35  1  0.05349500  0.80914800  0.42121600  1
  O  O36  1  0.94650500  0.19085200  0.57878400  1
  O  O37  1  0.80566600  0.95681200  0.40440900  1
  O  O38  1  0.19433400  0.04318800  0.59559100  1
  O  O39  1  0.04464000  0.76441500  0.16175100  1
  O  O40  1  0.95536000  0.23558500  0.83824900  1
  O  O41  1  0.34867100  0.75285600  0.22913800  1
  O  O42  1  0.65132900  0.24714400  0.77086200  1
  O  O43  1  0.18744500  0.02705100  0.07241500  1
  O  O44  1  0.81255500  0.97294900  0.92758500  1
  O  O45  1  0.38573300  0.61562000  0.22700900  1
  O  O46  1  0.61426700  0.38438000  0.77299100  1
  O  O47  1  0.45911900  0.30998000  0.03006800  1
  O  O48  1  0.54088100  0.69002000  0.96993200  1
  O  O49  1  0.78150000  0.97050700  0.04381300  1
  O  O50  1  0.21850000  0.02949300  0.95618700  1
  O  O51  1  0.10856600  0.69341100  0.07842900  1
  O  O52  1  0.89143400  0.30658900  0.92157100  1
  O  O53  1  0.55824700  0.34455100  0.06710600  1
  O  O54  1  0.44175300  0.65544900  0.93289400  1
