# generated using pymatgen
data_K2Pd(S4O13)2
_symmetry_space_group_name_H-M   'P 1'
_cell_length_a   7.58539400
_cell_length_b   8.94696380
_cell_length_c   9.30551478
_cell_angle_alpha   106.89890429
_cell_angle_beta   89.10166063
_cell_angle_gamma   107.93693954
_symmetry_Int_Tables_number   1
_chemical_formula_structural   K2Pd(S4O13)2
_chemical_formula_sum   'K2 Pd1 S8 O26'
_cell_volume   572.99630044
_cell_formula_units_Z   1
loop_
 _symmetry_equiv_pos_site_id
 _symmetry_equiv_pos_as_xyz
  1  'x, y, z'
loop_
 _atom_site_type_symbol
 _atom_site_label
 _atom_site_symmetry_multiplicity
 _atom_site_fract_x
 _atom_site_fract_y
 _atom_site_fract_z
 _atom_site_occupancy
  K  K0  1  0.12859800  0.26682300  0.88007700  1
  K  K1  1  0.87140200  0.73317700  0.11992300  1
  Pd  Pd2  1  0.50000000  0.50000000  0.50000000  1
  S  S3  1  0.66704900  0.35914700  0.71731500  1
  S  S4  1  0.33295100  0.64085300  0.28268500  1
  S  S5  1  0.86684700  0.18878800  0.48660700  1
  S  S6  1  0.13315300  0.81121200  0.51339300  1
  S  S7  1  0.37503600  0.15378200  0.22578900  1
  S  S8  1  0.62496400  0.84621800  0.77421100  1
  S  S9  1  0.78136600  0.23549400  0.19868400  1
  S  S10  1  0.21863400  0.76450600  0.80131600  1
  O  O11  1  0.68921700  0.18609600  0.57916600  1
  O  O12  1  0.31078300  0.81390400  0.42083400  1
  O  O13  1  0.69989900  0.48258300  0.63221800  1
  O  O14  1  0.30010100  0.51741700  0.36778200  1
  O  O15  1  0.81667300  0.40578200  0.83075900  1
  O  O16  1  0.18332700  0.59421800  0.16924100  1
  O  O17  1  0.84409500  0.30237000  0.38099900  1
  O  O18  1  0.15590500  0.69763000  0.61900100  1
  O  O19  1  0.03405900  0.28665400  0.57962700  1
  O  O20  1  0.96594100  0.71334600  0.42037300  1
  O  O21  1  0.47914900  0.29414000  0.75057500  1
  O  O22  1  0.52085100  0.70586000  0.24942500  1
  O  O23  1  0.83737500  0.02364100  0.39502600  1
  O  O24  1  0.16262500  0.97635900  0.60497400  1
  O  O25  1  0.41343500  0.25030800  0.38858700  1
  O  O26  1  0.58656500  0.74969200  0.61141300  1
  O  O27  1  0.58589200  0.10257000  0.18642600  1
  O  O28  1  0.41410800  0.89743000  0.81357400  1
  O  O29  1  0.77022100  0.38011500  0.16966900  1
  O  O30  1  0.22977900  0.61988500  0.83033100  1
  O  O31  1  0.90465500  0.14993100  0.12457600  1
  O  O32  1  0.09534500  0.85006900  0.87542400  1
  O  O33  1  0.36121600  0.24196800  0.12245200  1
  O  O34  1  0.63878400  0.75803200  0.87754800  1
  O  O35  1  0.25164900  0.99006300  0.20402700  1
  O  O36  1  0.74835100  0.00993700  0.79597300  1
