# generated using pymatgen
data_PtN3O4
_symmetry_space_group_name_H-M   'P 1'
_cell_length_a   9.00997200
_cell_length_b   10.04725889
_cell_length_c   10.85239810
_cell_angle_alpha   66.97742995
_cell_angle_beta   75.65045591
_cell_angle_gamma   79.21463857
_symmetry_Int_Tables_number   1
_chemical_formula_structural   PtN3O4
_chemical_formula_sum   'Pt6 N18 O24'
_cell_volume   871.46765781
_cell_formula_units_Z   6
loop_
 _symmetry_equiv_pos_site_id
 _symmetry_equiv_pos_as_xyz
  1  'x, y, z'
loop_
 _atom_site_type_symbol
 _atom_site_label
 _atom_site_symmetry_multiplicity
 _atom_site_fract_x
 _atom_site_fract_y
 _atom_site_fract_z
 _atom_site_occupancy
  Pt  Pt0  1  0.28261100  0.69912700  0.23842100  1
  Pt  Pt1  1  0.71738900  0.30087300  0.76157900  1
  Pt  Pt2  1  0.97372600  0.89864900  0.41054600  1
  Pt  Pt3  1  0.02627400  0.10135100  0.58945400  1
  Pt  Pt4  1  0.15638100  0.06342500  0.04558100  1
  Pt  Pt5  1  0.84361900  0.93657500  0.95441900  1
  N  N6  1  0.37428300  0.59924200  0.37624000  1
  N  N7  1  0.62571700  0.40075800  0.62376000  1
  N  N8  1  0.33885500  0.59772300  0.12225300  1
  N  N9  1  0.66114500  0.40227700  0.87774700  1
  N  N10  1  0.78396200  0.97496400  0.41150100  1
  N  N11  1  0.21603800  0.02503600  0.58849900  1
  N  N12  1  0.95246800  0.74675800  0.58543400  1
  N  N13  1  0.04753200  0.25324200  0.41456600  1
  N  N14  1  0.09276100  0.29584700  0.98744500  1
  N  N15  1  0.90723900  0.70415300  0.01255500  1
  N  N16  1  0.29195600  0.06363500  0.90247700  1
  N  N17  1  0.70804400  0.93636500  0.09752300  1
  N  N18  1  0.79805900  0.64301000  0.34226500  1
  N  N19  1  0.20194100  0.35699000  0.65773500  1
  N  N20  1  0.71413700  0.36972200  0.21410000  1
  N  N21  1  0.28586300  0.63027800  0.78590000  1
  N  N22  1  0.60321700  0.80956400  0.76096300  1
  N  N23  1  0.39678300  0.19043600  0.23903700  1
  O  O24  1  0.17694300  0.82014800  0.36238300  1
  O  O25  1  0.82305700  0.17985200  0.63761700  1
  O  O26  1  0.15759200  0.84261900  0.11480800  1
  O  O27  1  0.84240800  0.15738100  0.88519200  1
  O  O28  1  0.03095800  0.05876500  0.21075000  1
  O  O29  1  0.96904200  0.94123500  0.78925000  1
  O  O30  1  0.91945800  0.62257200  0.12114300  1
  O  O31  1  0.08054200  0.37742800  0.87885700  1
  O  O32  1  0.68332400  0.72658200  0.32748800  1
  O  O33  1  0.31667600  0.27341800  0.67251200  1
  O  O34  1  0.84448900  0.54753500  0.43738600  1
  O  O35  1  0.15551100  0.45246500  0.56261400  1
  O  O36  1  0.80331300  0.33311600  0.12133800  1
  O  O37  1  0.19668700  0.66688400  0.87866200  1
  O  O38  1  0.64562300  0.49672400  0.18531100  1
  O  O39  1  0.35437700  0.50327600  0.81468900  1
  O  O40  1  0.69296300  0.28204800  0.33530900  1
  O  O41  1  0.30703700  0.71795200  0.66469100  1
  O  O42  1  0.68898000  0.70645000  0.73066400  1
  O  O43  1  0.31102000  0.29355000  0.26933600  1
  O  O44  1  0.60407600  0.93663000  0.67562100  1
  O  O45  1  0.39592400  0.06337000  0.32437900  1
  O  O46  1  0.52002500  0.78120900  0.87765500  1
  O  O47  1  0.47997500  0.21879100  0.12234500  1
