# generated using pymatgen
data_SrAg2C4(N2O)2
_symmetry_space_group_name_H-M   'P 1'
_cell_length_a   7.15653500
_cell_length_b   8.27569200
_cell_length_c   18.50076900
_cell_angle_alpha   90.00000000
_cell_angle_beta   90.00000000
_cell_angle_gamma   90.00000000
_symmetry_Int_Tables_number   1
_chemical_formula_structural   SrAg2C4(N2O)2
_chemical_formula_sum   'Sr4 Ag8 C16 N16 O8'
_cell_volume   1095.71321401
_cell_formula_units_Z   4
loop_
 _symmetry_equiv_pos_site_id
 _symmetry_equiv_pos_as_xyz
  1  'x, y, z'
loop_
 _atom_site_type_symbol
 _atom_site_label
 _atom_site_symmetry_multiplicity
 _atom_site_fract_x
 _atom_site_fract_y
 _atom_site_fract_z
 _atom_site_occupancy
  Sr  Sr0  1  0.73342200  0.35336200  0.25000000  1
  Sr  Sr1  1  0.26657800  0.64663800  0.75000000  1
  Sr  Sr2  1  0.76657800  0.35336200  0.75000000  1
  Sr  Sr3  1  0.23342200  0.64663800  0.25000000  1
  Ag  Ag4  1  0.50000000  0.00000000  0.50000000  1
  Ag  Ag5  1  0.50000000  0.00000000  0.00000000  1
  Ag  Ag6  1  0.00000000  0.00000000  0.50000000  1
  Ag  Ag7  1  0.00000000  0.00000000  0.00000000  1
  Ag  Ag8  1  0.75000000  0.61189500  0.50000000  1
  Ag  Ag9  1  0.25000000  0.38810500  0.00000000  1
  Ag  Ag10  1  0.25000000  0.38810500  0.50000000  1
  Ag  Ag11  1  0.75000000  0.61189500  0.00000000  1
  C  C12  1  0.10920100  0.89807200  0.90878000  1
  C  C13  1  0.89079900  0.10192800  0.40878000  1
  C  C14  1  0.39079900  0.89807200  0.09122000  1
  C  C15  1  0.60920100  0.10192800  0.59122000  1
  C  C16  1  0.89079900  0.10192800  0.09122000  1
  C  C17  1  0.10920100  0.89807200  0.59122000  1
  C  C18  1  0.60920100  0.10192800  0.90878000  1
  C  C19  1  0.39079900  0.89807200  0.40878000  1
  C  C20  1  0.12127700  0.40084300  0.90052100  1
  C  C21  1  0.87872300  0.59915700  0.40052100  1
  C  C22  1  0.37872300  0.40084300  0.09947900  1
  C  C23  1  0.62127700  0.59915700  0.59947900  1
  C  C24  1  0.87872300  0.59915700  0.09947900  1
  C  C25  1  0.12127700  0.40084300  0.59947900  1
  C  C26  1  0.62127700  0.59915700  0.90052100  1
  C  C27  1  0.37872300  0.40084300  0.40052100  1
  N  N28  1  0.16983900  0.83504600  0.85721300  1
  N  N29  1  0.83016100  0.16495400  0.35721300  1
  N  N30  1  0.33016100  0.83504600  0.14278700  1
  N  N31  1  0.66983900  0.16495400  0.64278700  1
  N  N32  1  0.83016100  0.16495400  0.14278700  1
  N  N33  1  0.16983900  0.83504600  0.64278700  1
  N  N34  1  0.66983900  0.16495400  0.85721300  1
  N  N35  1  0.33016100  0.83504600  0.35721300  1
  N  N36  1  0.05185700  0.41879100  0.84366300  1
  N  N37  1  0.94814300  0.58120900  0.34366300  1
  N  N38  1  0.44814300  0.41879100  0.15633700  1
  N  N39  1  0.55185700  0.58120900  0.65633700  1
  N  N40  1  0.94814300  0.58120900  0.15633700  1
  N  N41  1  0.05185700  0.41879100  0.65633700  1
  N  N42  1  0.55185700  0.58120900  0.84366300  1
  N  N43  1  0.44814300  0.41879100  0.34366300  1
  O  O44  1  0.60011700  0.65983400  0.25000000  1
  O  O45  1  0.39988300  0.34016600  0.75000000  1
  O  O46  1  0.89988300  0.65983400  0.75000000  1
  O  O47  1  0.10011700  0.34016600  0.25000000  1
  O  O48  1  0.48601300  0.10922200  0.25000000  1
  O  O49  1  0.51398700  0.89077800  0.75000000  1
  O  O50  1  0.01398700  0.10922200  0.75000000  1
  O  O51  1  0.98601300  0.89077800  0.25000000  1
