# generated using pymatgen
data_W15I47
_symmetry_space_group_name_H-M   'P 1'
_cell_length_a   21.62318338
_cell_length_b   21.62318338
_cell_length_c   12.54633649
_cell_angle_alpha   76.22431726
_cell_angle_beta   76.22431726
_cell_angle_gamma   27.63187707
_symmetry_Int_Tables_number   1
_chemical_formula_structural   W15I47
_chemical_formula_sum   'W15 I47'
_cell_volume   2637.60860276
_cell_formula_units_Z   1
loop_
 _symmetry_equiv_pos_site_id
 _symmetry_equiv_pos_as_xyz
  1  'x, y, z'
loop_
 _atom_site_type_symbol
 _atom_site_label
 _atom_site_symmetry_multiplicity
 _atom_site_fract_x
 _atom_site_fract_y
 _atom_site_fract_z
 _atom_site_occupancy
  W  W0  1  0.34329700  0.65670300  0.50000000  1
  W  W1  1  0.11464800  0.80719200  0.60037000  1
  W  W2  1  0.19280800  0.88535200  0.39963000  1
  W  W3  1  0.13828700  0.81805900  0.38218600  1
  W  W4  1  0.18194100  0.86171300  0.61781400  1
  W  W5  1  0.99977800  0.31356700  0.87552900  1
  W  W6  1  0.68643300  0.00022200  0.12447100  1
  W  W7  1  0.85243200  0.54166000  0.91356900  1
  W  W8  1  0.45834000  0.14756800  0.08643100  1
  W  W9  1  0.83394900  0.52110200  0.72570000  1
  W  W10  1  0.47889800  0.16605100  0.27430000  1
  W  W11  1  0.77390500  0.45709600  0.83960500  1
  W  W12  1  0.54290400  0.22609500  0.16039500  1
  W  W13  1  0.79204700  0.47707500  0.02500600  1
  W  W14  1  0.52292500  0.20795300  0.97499400  1
  I  I15  1  0.61648200  0.38351800  0.50000000  1
  I  I16  1  0.37198400  0.66847700  0.26838900  1
  I  I17  1  0.33152300  0.62801600  0.73161100  1
  I  I18  1  0.98118700  0.05671600  0.27500800  1
  I  I19  1  0.94328400  0.01881300  0.72499200  1
  I  I20  1  0.28196000  0.58457200  0.49014800  1
  I  I21  1  0.41542800  0.71804000  0.50985200  1
  I  I22  1  0.89884700  0.97563900  0.48665400  1
  I  I23  1  0.02436100  0.10115300  0.51334600  1
  I  I24  1  0.04891000  0.74870900  0.76210100  1
  I  I25  1  0.25129100  0.95109000  0.23789900  1
  I  I26  1  0.99712400  0.69168000  0.63292600  1
  I  I27  1  0.30832000  0.00287600  0.36707400  1
  I  I28  1  0.95168600  0.64187200  0.50565700  1
  I  I29  1  0.35812800  0.04831400  0.49434300  1
  I  I30  1  0.09782400  0.79371500  0.20432200  1
  I  I31  1  0.20628500  0.90217600  0.79567800  1
  I  I32  1  0.15148200  0.84851800  0.00000000  1
  I  I33  1  0.27193400  0.04254100  0.87489100  1
  I  I34  1  0.95745800  0.72806600  0.12510900  1
  I  I35  1  0.91127500  0.60139600  0.97674000  1
  I  I36  1  0.39860400  0.08872500  0.02326000  1
  I  I37  1  0.06903700  0.37682200  0.75350500  1
  I  I38  1  0.62317800  0.93096300  0.24649500  1
  I  I39  1  0.68296300  0.75600500  0.76018000  1
  I  I40  1  0.24399500  0.31703700  0.23982000  1
  I  I41  1  0.98696100  0.28555300  0.67711000  1
  I  I42  1  0.71444700  0.01303900  0.32289000  1
  I  I43  1  0.59891100  0.67357900  0.68637900  1
  I  I44  1  0.32642100  0.40108900  0.31362100  1
  I  I45  1  0.94253900  0.23774600  0.99445000  1
  I  I46  1  0.76225400  0.05746100  0.00555000  1
  I  I47  1  0.55614600  0.62800400  0.99052900  1
  I  I48  1  0.37199600  0.44385400  0.00947100  1
  I  I49  1  0.02533700  0.32619200  0.07514300  1
  I  I50  1  0.67380800  0.97466300  0.92485700  1
  I  I51  1  0.63376800  0.71508200  0.06310000  1
  I  I52  1  0.28491800  0.36623200  0.93690000  1
  I  I53  1  0.85848000  0.55966700  0.49304700  1
  I  I54  1  0.44033300  0.14152000  0.50695300  1
  I  I55  1  0.80576700  0.50453000  0.37696700  1
  I  I56  1  0.49547000  0.19423300  0.62303300  1
  I  I57  1  0.75271000  0.45038400  0.25437100  1
  I  I58  1  0.54961600  0.24729000  0.74562900  1
  I  I59  1  0.70474200  0.39956000  0.78694200  1
  I  I60  1  0.60044000  0.29525800  0.21305800  1
  I  I61  1  0.65430300  0.34569700  0.00000000  1
