# generated using pymatgen
data_Eu10Mn6Sb13
_symmetry_space_group_name_H-M   'P 1'
_cell_length_a   12.08766795
_cell_length_b   12.08766795
_cell_length_c   12.22779773
_cell_angle_alpha   101.14124358
_cell_angle_beta   101.14124358
_cell_angle_gamma   102.63710382
_symmetry_Int_Tables_number   1
_chemical_formula_structural   Eu10Mn6Sb13
_chemical_formula_sum   'Eu20 Mn12 Sb26'
_cell_volume   1657.93189534
_cell_formula_units_Z   2
loop_
 _symmetry_equiv_pos_site_id
 _symmetry_equiv_pos_as_xyz
  1  'x, y, z'
loop_
 _atom_site_type_symbol
 _atom_site_label
 _atom_site_symmetry_multiplicity
 _atom_site_fract_x
 _atom_site_fract_y
 _atom_site_fract_z
 _atom_site_occupancy
  Eu  Eu0  1  0.62133115  0.37866885  0.50000000  1
  Eu  Eu1  1  0.37866885  0.62133115  0.50000000  1
  Eu  Eu2  1  0.61043355  0.38956645  -0.00000000  1
  Eu  Eu3  1  0.38956645  0.61043355  -0.00000000  1
  Eu  Eu4  1  0.93869489  0.70152793  0.17225522  1
  Eu  Eu5  1  0.70152793  0.93869489  0.17225522  1
  Eu  Eu6  1  0.06130511  0.29847207  0.82774478  1
  Eu  Eu7  1  0.29847207  0.06130511  0.82774478  1
  Eu  Eu8  1  0.85311823  0.61714590  0.83200962  1
  Eu  Eu9  1  0.61714590  0.85311823  0.83200962  1
  Eu  Eu10  1  0.14688177  0.38285410  0.16799038  1
  Eu  Eu11  1  0.38285410  0.14688177  0.16799038  1
  Eu  Eu12  1  0.87593369  0.62844494  0.50107544  1
  Eu  Eu13  1  0.62844494  0.87593369  0.50107544  1
  Eu  Eu14  1  0.12406631  0.37155506  0.49892456  1
  Eu  Eu15  1  0.37155506  0.12406631  0.49892456  1
  Eu  Eu16  1  0.15205061  0.84794939  0.00000000  1
  Eu  Eu17  1  0.84794939  0.15205061  0.00000000  1
  Eu  Eu18  1  0.12767247  0.87232753  0.50000000  1
  Eu  Eu19  1  0.87232753  0.12767247  0.50000000  1
  Mn  Mn20  1  0.66323046  0.66323046  0.22966377  1
  Mn  Mn21  1  0.33676954  0.33676954  0.77033623  1
  Mn  Mn22  1  0.54824770  0.54824770  0.77523770  1
  Mn  Mn23  1  0.45175230  0.45175230  0.22476230  1
  Mn  Mn24  1  0.77346337  0.31410113  0.77550912  1
  Mn  Mn25  1  0.31410113  0.77346337  0.77550912  1
  Mn  Mn26  1  0.22653663  0.68589887  0.22449088  1
  Mn  Mn27  1  0.68589887  0.22653663  0.22449088  1
  Mn  Mn28  1  0.88607676  0.42484146  0.22403230  1
  Mn  Mn29  1  0.42484146  0.88607676  0.22403230  1
  Mn  Mn30  1  0.11392324  0.57515854  0.77596770  1
  Mn  Mn31  1  0.57515854  0.11392324  0.77596770  1
  Sb  Sb32  1  0.65365094  0.65365094  0.62908543  1
  Sb  Sb33  1  0.34634906  0.34634906  0.37091457  1
  Sb  Sb34  1  0.68441622  0.45518857  0.27651801  1
  Sb  Sb35  1  0.45518857  0.68441622  0.27651801  1
  Sb  Sb36  1  0.31558378  0.54481143  0.72348199  1
  Sb  Sb37  1  0.54481143  0.31558378  0.72348199  1
  Sb  Sb38  1  0.66660812  0.66660812  0.00273697  1
  Sb  Sb39  1  0.33339188  0.33339188  0.99726303  1
  Sb  Sb40  1  0.88706179  0.41834124  -0.00003273  1
  Sb  Sb41  1  0.41834124  0.88706179  -0.00003273  1
  Sb  Sb42  1  0.11293821  0.58165876  0.00003273  1
  Sb  Sb43  1  0.58165876  0.11293821  0.00003273  1
  Sb  Sb44  1  0.08944962  0.77384493  0.72266195  1
  Sb  Sb45  1  0.77384493  0.08944962  0.72266195  1
  Sb  Sb46  1  0.91055038  0.22615507  0.27733805  1
  Sb  Sb47  1  0.22615507  0.91055038  0.27733805  1
  Sb  Sb48  1  0.84203531  0.84203531  0.37816004  1
  Sb  Sb49  1  0.15796469  0.15796469  0.62183996  1
  Sb  Sb50  1  0.93299938  0.93299938  0.75204880  1
  Sb  Sb51  1  0.06700062  0.06700062  0.24795120  1
  Sb  Sb52  1  0.89768806  0.89768806  0.99970562  1
  Sb  Sb53  1  0.10231194  0.10231194  0.00029438  1
  Sb  Sb54  1  0.90888431  0.41227016  0.63991999  1
  Sb  Sb55  1  0.41227016  0.90888431  0.63991999  1
  Sb  Sb56  1  0.09111569  0.58772984  0.36008001  1
  Sb  Sb57  1  0.58772984  0.09111569  0.36008001  1
