# generated using pymatgen
data_AgH7CN8O7
_symmetry_space_group_name_H-M   'P 1'
_cell_length_a   22.49511900
_cell_length_b   6.52003500
_cell_length_c   7.38262579
_cell_angle_alpha   88.02067914
_cell_angle_beta   90.00000000
_cell_angle_gamma   90.00000000
_symmetry_Int_Tables_number   1
_chemical_formula_structural   AgH7CN8O7
_chemical_formula_sum   'Ag4 H28 C4 N32 O28'
_cell_volume   1082.15602440
_cell_formula_units_Z   4
loop_
 _symmetry_equiv_pos_site_id
 _symmetry_equiv_pos_as_xyz
  1  'x, y, z'
loop_
 _atom_site_type_symbol
 _atom_site_label
 _atom_site_symmetry_multiplicity
 _atom_site_fract_x
 _atom_site_fract_y
 _atom_site_fract_z
 _atom_site_occupancy
  Ag  Ag0  1  0.71783200  0.74911800  0.58113700  1
  Ag  Ag1  1  0.21783200  0.75088200  0.41886300  1
  Ag  Ag2  1  0.28216800  0.25088200  0.41886300  1
  Ag  Ag3  1  0.78216800  0.24911800  0.58113700  1
  H  H4  1  0.68485700  0.90778000  0.93233800  1
  H  H5  1  0.18485700  0.59222000  0.06766200  1
  H  H6  1  0.31514300  0.09222000  0.06766200  1
  H  H7  1  0.81514300  0.40778000  0.93233800  1
  H  H8  1  0.69365500  0.65866000  0.96424300  1
  H  H9  1  0.19365500  0.84134000  0.03575700  1
  H  H10  1  0.30634500  0.34134000  0.03575700  1
  H  H11  1  0.80634500  0.15866000  0.96424300  1
  H  H12  1  0.59360500  0.73271400  0.99616500  1
  H  H13  1  0.09360500  0.76728600  0.00383500  1
  H  H14  1  0.40639500  0.26728600  0.00383500  1
  H  H15  1  0.90639500  0.23271400  0.99616500  1
  H  H16  1  0.41869500  0.73602900  0.09558400  1
  H  H17  1  0.91869500  0.76397100  0.90441600  1
  H  H18  1  0.58130500  0.26397100  0.90441600  1
  H  H19  1  0.08130500  0.23602900  0.09558400  1
  H  H20  1  0.50040600  0.72625400  0.61239100  1
  H  H21  1  0.00040600  0.77374600  0.38760900  1
  H  H22  1  0.49959400  0.27374600  0.38760900  1
  H  H23  1  0.99959400  0.22625400  0.61239100  1
  H  H24  1  0.48230400  0.77295800  0.17305000  1
  H  H25  1  0.98230400  0.72704200  0.82695000  1
  H  H26  1  0.51769600  0.22704200  0.82695000  1
  H  H27  1  0.01769600  0.27295800  0.17305000  1
  H  H28  1  0.50162800  0.73300900  0.85280200  1
  H  H29  1  0.00162800  0.76699100  0.14719800  1
  H  H30  1  0.49837200  0.26699100  0.14719800  1
  H  H31  1  0.99837200  0.23300900  0.85280200  1
  C  C32  1  0.58247700  0.74314300  0.71772500  1
  C  C33  1  0.08247700  0.75685700  0.28227500  1
  C  C34  1  0.41752300  0.25685700  0.28227500  1
  C  C35  1  0.91752300  0.24314300  0.71772500  1
  N  N36  1  0.61438400  0.73842600  0.87296400  1
  N  N37  1  0.11438400  0.76157400  0.12703600  1
  N  N38  1  0.38561600  0.26157400  0.12703600  1
  N  N39  1  0.88561600  0.23842600  0.87296400  1
  N  N40  1  0.85316600  0.75549900  0.54931700  1
  N  N41  1  0.35316600  0.74450100  0.45068300  1
  N  N42  1  0.14683400  0.24450100  0.45068300  1
  N  N43  1  0.64683400  0.25549900  0.54931700  1
  N  N44  1  0.52382500  0.72817900  0.73012300  1
  N  N45  1  0.02382500  0.77182100  0.26987700  1
  N  N46  1  0.47617500  0.27182100  0.26987700  1
  N  N47  1  0.97617500  0.22817900  0.73012300  1
  N  N48  1  0.61572800  0.76273600  0.56252700  1
  N  N49  1  0.11572800  0.73726400  0.43747300  1
  N  N50  1  0.38427200  0.23726400  0.43747300  1
  N  N51  1  0.88427200  0.26273600  0.56252700  1
  N  N52  1  0.67614100  0.76844500  0.87731100  1
  N  N53  1  0.17614100  0.73155500  0.12268900  1
  N  N54  1  0.32385900  0.23155500  0.12268900  1
  N  N55  1  0.82385900  0.26844500  0.87731100  1
  N  N56  1  0.80996700  0.72672000  0.25693700  1
  N  N57  1  0.30996700  0.77328000  0.74306300  1
  N  N58  1  0.19003300  0.27328000  0.74306300  1
  N  N59  1  0.69003300  0.22672000  0.25693700  1
  N  N60  1  0.58910300  0.76611000  0.39868900  1
  N  N61  1  0.08910300  0.73389000  0.60131100  1
  N  N62  1  0.41089700  0.23389000  0.60131100  1
  N  N63  1  0.91089700  0.26611000  0.39868900  1
  N  N64  1  0.80253500  0.72369000  0.44687600  1
  N  N65  1  0.30253500  0.77631000  0.55312400  1
  N  N66  1  0.19746500  0.27631000  0.55312400  1
  N  N67  1  0.69746500  0.22369000  0.44687600  1
  O  O68  1  0.53378900  0.74116500  0.38114800  1
  O  O69  1  0.03378900  0.75883500  0.61885200  1
  O  O70  1  0.46621100  0.25883500  0.61885200  1
  O  O71  1  0.96621100  0.24116500  0.38114800  1
  O  O72  1  0.62274000  0.79384300  0.26551800  1
  O  O73  1  0.12274000  0.70615700  0.73448200  1
  O  O74  1  0.37726000  0.20615700  0.73448200  1
  O  O75  1  0.87726000  0.29384300  0.26551800  1
  O  O76  1  0.90410300  0.74863800  0.48684600  1
  O  O77  1  0.40410300  0.75136200  0.51315400  1
  O  O78  1  0.09589700  0.25136200  0.51315400  1
  O  O79  1  0.59589700  0.24863800  0.48684600  1
  O  O80  1  0.77054800  0.62990100  0.17812100  1
  O  O81  1  0.27054800  0.87009900  0.82187900  1
  O  O82  1  0.22945200  0.37009900  0.82187900  1
  O  O83  1  0.72945200  0.12990100  0.17812100  1
  O  O84  1  0.84154000  0.77859200  0.71403400  1
  O  O85  1  0.34154000  0.72140800  0.28596600  1
  O  O86  1  0.15846000  0.22140800  0.28596600  1
  O  O87  1  0.65846000  0.27859200  0.71403400  1
  O  O88  1  0.85027400  0.82627200  0.18232400  1
  O  O89  1  0.35027400  0.67372800  0.81767600  1
  O  O90  1  0.14972600  0.17372800  0.81767600  1
  O  O91  1  0.64972600  0.32627200  0.18232400  1
  O  O92  1  0.45960000  0.76797500  0.05991900  1
  O  O93  1  0.95960000  0.73202500  0.94008100  1
  O  O94  1  0.54040000  0.23202500  0.94008100  1
  O  O95  1  0.04040000  0.26797500  0.05991900  1
