# generated using pymatgen
data_TiAsH18C6N3Cl4
_symmetry_space_group_name_H-M   'P 1'
_cell_length_a   16.43056100
_cell_length_b   10.27958300
_cell_length_c   14.39135939
_cell_angle_alpha   45.93959923
_cell_angle_beta   90.00000000
_cell_angle_gamma   90.00000000
_symmetry_Int_Tables_number   1
_chemical_formula_structural   TiAsH18C6N3Cl4
_chemical_formula_sum   'Ti4 As4 H72 C24 N12 Cl16'
_cell_volume   1746.71162516
_cell_formula_units_Z   4
loop_
 _symmetry_equiv_pos_site_id
 _symmetry_equiv_pos_as_xyz
  1  'x, y, z'
loop_
 _atom_site_type_symbol
 _atom_site_label
 _atom_site_symmetry_multiplicity
 _atom_site_fract_x
 _atom_site_fract_y
 _atom_site_fract_z
 _atom_site_occupancy
  Ti  Ti0  1  0.68475400  0.04885600  0.80927800  1
  Ti  Ti1  1  0.81524600  0.04885600  0.30927800  1
  Ti  Ti2  1  0.31524600  0.95114400  0.19072200  1
  Ti  Ti3  1  0.18475400  0.95114400  0.69072200  1
  As  As4  1  0.61466900  0.07832200  0.58716100  1
  As  As5  1  0.88533100  0.07832200  0.08716100  1
  As  As6  1  0.38533100  0.92167800  0.41283900  1
  As  As7  1  0.11466900  0.92167800  0.91283900  1
  H  H8  1  0.51031400  0.74756300  0.79356400  1
  H  H9  1  0.98968600  0.74756300  0.29356400  1
  H  H10  1  0.48968600  0.25243700  0.20643600  1
  H  H11  1  0.01031400  0.25243700  0.70643600  1
  H  H12  1  0.61660000  0.71677500  0.83369600  1
  H  H13  1  0.88340000  0.71677500  0.33369600  1
  H  H14  1  0.38340000  0.28322500  0.16630400  1
  H  H15  1  0.11660000  0.28322500  0.66630400  1
  H  H16  1  0.54291200  0.70182000  0.93223900  1
  H  H17  1  0.95708800  0.70182000  0.43223900  1
  H  H18  1  0.45708800  0.29818000  0.06776100  1
  H  H19  1  0.04291200  0.29818000  0.56776100  1
  H  H20  1  0.47234300  0.96998300  0.85111900  1
  H  H21  1  0.02765700  0.96998300  0.35111900  1
  H  H22  1  0.52765700  0.03001700  0.14888100  1
  H  H23  1  0.97234300  0.03001700  0.64888100  1
  H  H24  1  0.48722100  0.18110300  0.68962400  1
  H  H25  1  0.01277900  0.18110300  0.18962400  1
  H  H26  1  0.51277900  0.81889700  0.31037600  1
  H  H27  1  0.98722100  0.81889700  0.81037600  1
  H  H28  1  0.43950900  0.99801600  0.72029800  1
  H  H29  1  0.06049100  0.99801600  0.22029800  1
  H  H30  1  0.56049100  0.00198400  0.27970200  1
  H  H31  1  0.93950900  0.00198400  0.77970200  1
  H  H32  1  0.60327300  0.50942600  0.40208200  1
  H  H33  1  0.89672700  0.50942600  0.90208200  1
  H  H34  1  0.39672700  0.49057400  0.59791800  1
  H  H35  1  0.10327300  0.49057400  0.09791800  1
  H  H36  1  0.56330300  0.40129800  0.55678400  1
  H  H37  1  0.93669700  0.40129800  0.05678400  1
  H  H38  1  0.43669700  0.59870200  0.44321600  1
  H  H39  1  0.06330300  0.59870200  0.94321600  1
  H  H40  1  0.65701200  0.52029500  0.50410700  1
  H  H41  1  0.84298800  0.52029500  0.00410700  1
  H  H42  1  0.34298800  0.47970500  0.49589300  1
  H  H43  1  0.15701200  0.47970500  0.99589300  1
  H  H44  1  0.77778900  0.40823400  0.48989300  1
  H  H45  1  0.72221100  0.40823400  0.98989300  1
  H  H46  1  0.22221100  0.59176600  0.51010700  1
  H  H47  1  0.27778900  0.59176600  0.01010700  1
  H  H48  1  0.77625200  0.20369500  0.52543000  1
  H  H49  1  0.72374800  0.20369500  0.02543000  1
  H  H50  1  0.22374800  0.79630500  0.47457000  1
  H  H51  1  0.27625200  0.79630500  0.97457000  1
  H  H52  1  0.72607800  0.40111300  0.38407100  1
  H  H53  1  0.77392200  0.40111300  0.88407100  1
  H  H54  1  0.27392200  0.59888700  0.61592900  1
  H  H55  1  0.22607800  0.59888700  0.11592900  1
  H  H56  1  0.74652900  0.59998800  0.10634000  1
  H  H57  1  0.75347100  0.59998800  0.60634000  1
  H  H58  1  0.25347100  0.40001200  0.89366000  1
  H  H59  1  0.24652900  0.40001200  0.39366000  1
  H  H60  1  0.80998900  0.79630600  0.99884600  1
  H  H61  1  0.69001100  0.79630600  0.49884600  1
  H  H62  1  0.19001100  0.20369400  0.00115400  1
  H  H63  1  0.30998900  0.20369400  0.50115400  1
  H  H64  1  0.76986900  0.73384100  0.13997600  1
  H  H65  1  0.73013100  0.73384100  0.63997600  1
  H  H66  1  0.23013100  0.26615900  0.86002400  1
  H  H67  1  0.26986900  0.26615900  0.36002400  1
  H  H68  1  0.62839300  0.79946000  0.14513600  1
  H  H69  1  0.87160700  0.79946000  0.64513600  1
  H  H70  1  0.37160700  0.20054000  0.85486400  1
  H  H71  1  0.12839300  0.20054000  0.35486400  1
  H  H72  1  0.56059400  0.86414200  0.02267200  1
  H  H73  1  0.93940600  0.86414200  0.52267200  1
  H  H74  1  0.43940600  0.13585800  0.97732800  1
  H  H75  1  0.06059400  0.13585800  0.47732800  1
  H  H76  1  0.60382600  0.64173200  0.13354400  1
  H  H77  1  0.89617400  0.64173200  0.63354400  1
  H  H78  1  0.39617400  0.35826800  0.86645600  1
  H  H79  1  0.10382600  0.35826800  0.36645600  1
  C  C80  1  0.55920100  0.77175200  0.83259500  1
  C  C81  1  0.94079900  0.77175200  0.33259500  1
  C  C82  1  0.44079900  0.22824800  0.16740500  1
  C  C83  1  0.05920100  0.22824800  0.66740500  1
  C  C84  1  0.48724300  0.03496200  0.75214700  1
  C  C85  1  0.01275700  0.03496200  0.25214700  1
  C  C86  1  0.51275700  0.96503800  0.24785300  1
  C  C87  1  0.98724300  0.96503800  0.74785300  1
  C  C88  1  0.61899900  0.43302200  0.50331700  1
  C  C89  1  0.88100100  0.43302200  0.00331700  1
  C  C90  1  0.38100100  0.56697800  0.49668300  1
  C  C91  1  0.11899900  0.56697800  0.99668300  1
  C  C92  1  0.74082900  0.32305100  0.48583200  1
  C  C93  1  0.75917100  0.32305100  0.98583200  1
  C  C94  1  0.25917100  0.67694900  0.51416800  1
  C  C95  1  0.24082900  0.67694900  0.01416800  1
  C  C96  1  0.75664700  0.73983300  0.06172400  1
  C  C97  1  0.74335300  0.73983300  0.56172400  1
  C  C98  1  0.24335300  0.26016700  0.93827600  1
  C  C99  1  0.25664700  0.26016700  0.43827600  1
  C  C100  1  0.61552700  0.78636000  0.07649700  1
  C  C101  1  0.88447300  0.78636000  0.57649700  1
  C  C102  1  0.38447300  0.21364000  0.92350300  1
  C  C103  1  0.11552700  0.21364000  0.42350300  1
  N  N104  1  0.56819000  0.96841800  0.75490700  1
  N  N105  1  0.93181000  0.96841800  0.25490700  1
  N  N106  1  0.43181000  0.03158200  0.24509300  1
  N  N107  1  0.06819000  0.03158200  0.74509300  1
  N  N108  1  0.66624400  0.26835900  0.56396500  1
  N  N109  1  0.83375600  0.26835900  0.06396500  1
  N  N110  1  0.33375600  0.73164100  0.43603500  1
  N  N111  1  0.16624400  0.73164100  0.93603500  1
  N  N112  1  0.68443800  0.85005200  0.99076400  1
  N  N113  1  0.81556200  0.85005200  0.49076400  1
  N  N114  1  0.31556200  0.14994800  0.00923600  1
  N  N115  1  0.18443800  0.14994800  0.50923600  1
  Cl  Cl116  1  0.80280600  0.19622000  0.77780000  1
  Cl  Cl117  1  0.69719400  0.19622000  0.27780000  1
  Cl  Cl118  1  0.19719400  0.80378000  0.22220000  1
  Cl  Cl119  1  0.30280600  0.80378000  0.72220000  1
  Cl  Cl120  1  0.75287700  0.88759300  0.76809200  1
  Cl  Cl121  1  0.74712300  0.88759300  0.26809200  1
  Cl  Cl122  1  0.24712300  0.11240700  0.23190800  1
  Cl  Cl123  1  0.25287700  0.11240700  0.73190800  1
  Cl  Cl124  1  0.60135800  0.22979500  0.80722600  1
  Cl  Cl125  1  0.89864200  0.22979500  0.30722600  1
  Cl  Cl126  1  0.39864200  0.77020500  0.19277400  1
  Cl  Cl127  1  0.10135800  0.77020500  0.69277400  1
  Cl  Cl128  1  0.50523100  0.22878800  0.46087800  1
  Cl  Cl129  1  0.99476900  0.22878800  0.96087800  1
  Cl  Cl130  1  0.49476900  0.77121200  0.53912200  1
  Cl  Cl131  1  0.00523100  0.77121200  0.03912200  1
