# generated using pymatgen
data_Na2O9
_symmetry_space_group_name_H-M   'P 1'
_cell_length_a   11.25989800
_cell_length_b   5.20280400
_cell_length_c   12.77579791
_cell_angle_alpha   71.80262856
_cell_angle_beta   90.00000000
_cell_angle_gamma   90.00000000
_symmetry_Int_Tables_number   1
_chemical_formula_structural   Na2O9
_chemical_formula_sum   'Na8 O36'
_cell_volume   711.01266027
_cell_formula_units_Z   4
loop_
 _symmetry_equiv_pos_site_id
 _symmetry_equiv_pos_as_xyz
  1  'x, y, z'
loop_
 _atom_site_type_symbol
 _atom_site_label
 _atom_site_symmetry_multiplicity
 _atom_site_fract_x
 _atom_site_fract_y
 _atom_site_fract_z
 _atom_site_occupancy
  Na  Na0  1  0.11631400  0.81879500  0.59938300  1
  Na  Na1  1  0.61631400  0.18120500  0.90061700  1
  Na  Na2  1  0.88368600  0.18120500  0.40061700  1
  Na  Na3  1  0.38368600  0.81879500  0.09938300  1
  Na  Na4  1  0.67580100  0.87928800  0.66993800  1
  Na  Na5  1  0.17580100  0.12071200  0.83006200  1
  Na  Na6  1  0.32419900  0.12071200  0.33006200  1
  Na  Na7  1  0.82419900  0.87928800  0.16993800  1
  O  O8  1  0.92016300  0.96905700  0.59827400  1
  O  O9  1  0.42016300  0.03094300  0.90172600  1
  O  O10  1  0.07983700  0.03094300  0.40172600  1
  O  O11  1  0.57983700  0.96905700  0.09827400  1
  O  O12  1  0.41360300  0.01472000  0.80232200  1
  O  O13  1  0.91360300  0.98528000  0.69767800  1
  O  O14  1  0.58639700  0.98528000  0.19767800  1
  O  O15  1  0.08639700  0.01472000  0.30232200  1
  O  O16  1  0.76786400  0.74718600  0.87958200  1
  O  O17  1  0.26786400  0.25281400  0.62041800  1
  O  O18  1  0.23213600  0.25281400  0.12041800  1
  O  O19  1  0.73213600  0.74718600  0.37958200  1
  O  O20  1  0.04922600  0.32054600  0.57226100  1
  O  O21  1  0.54922600  0.67945400  0.92773900  1
  O  O22  1  0.95077400  0.67945400  0.42773900  1
  O  O23  1  0.45077400  0.32054600  0.07226100  1
  O  O24  1  0.44300600  0.99847100  0.50368400  1
  O  O25  1  0.94300600  0.00152900  0.99631600  1
  O  O26  1  0.55699400  0.00152900  0.49631600  1
  O  O27  1  0.05699400  0.99847100  0.00368400  1
  O  O28  1  0.21251800  0.69301400  0.80382600  1
  O  O29  1  0.71251800  0.30698600  0.69617400  1
  O  O30  1  0.78748200  0.30698600  0.19617400  1
  O  O31  1  0.28748200  0.69301400  0.30382600  1
  O  O32  1  0.61080000  0.43409100  0.68198400  1
  O  O33  1  0.11080000  0.56590900  0.81801600  1
  O  O34  1  0.38920000  0.56590900  0.31801600  1
  O  O35  1  0.88920000  0.43409100  0.18198400  1
  O  O36  1  0.86704900  0.66833300  0.92192400  1
  O  O37  1  0.36704900  0.33166700  0.57807600  1
  O  O38  1  0.13295100  0.33166700  0.07807600  1
  O  O39  1  0.63295100  0.66833300  0.42192400  1
  O  O40  1  0.52302500  0.70184800  0.82738900  1
  O  O41  1  0.02302500  0.29815200  0.67261100  1
  O  O42  1  0.47697500  0.29815200  0.17261100  1
  O  O43  1  0.97697500  0.70184800  0.32738900  1
