# generated using pymatgen
data_Ca2Si3O11
_symmetry_space_group_name_H-M   'P 1'
_cell_length_a   23.39576588
_cell_length_b   23.03724359
_cell_length_c   6.70754898
_cell_angle_alpha   84.73777653
_cell_angle_beta   78.67402670
_cell_angle_gamma   16.58819677
_symmetry_Int_Tables_number   1
_chemical_formula_structural   Ca2Si3O11
_chemical_formula_sum   'Ca8 Si12 O44'
_cell_volume   949.96847300
_cell_formula_units_Z   4
loop_
 _symmetry_equiv_pos_site_id
 _symmetry_equiv_pos_as_xyz
  1  'x, y, z'
loop_
 _atom_site_type_symbol
 _atom_site_label
 _atom_site_symmetry_multiplicity
 _atom_site_fract_x
 _atom_site_fract_y
 _atom_site_fract_z
 _atom_site_occupancy
  Ca  Ca0  1  0.35640600  0.34602300  0.15061100  1
  Ca  Ca1  1  0.15061100  0.14696100  0.35640600  1
  Ca  Ca2  1  0.90397700  0.89359400  0.10303900  1
  Ca  Ca3  1  0.10303900  0.09938900  0.90397700  1
  Ca  Ca4  1  0.85031500  0.85754300  0.63891900  1
  Ca  Ca5  1  0.63891900  0.65322400  0.85031500  1
  Ca  Ca6  1  0.39245700  0.39968500  0.59677600  1
  Ca  Ca7  1  0.59677600  0.61108100  0.39245700  1
  Si  Si8  1  0.86757600  0.78957100  0.12675200  1
  Si  Si9  1  0.12675200  0.21610100  0.86757600  1
  Si  Si10  1  0.46042900  0.38242400  0.03389900  1
  Si  Si11  1  0.03389900  0.12324800  0.46042900  1
  Si  Si12  1  0.45508600  0.11455600  0.38609000  1
  Si  Si13  1  0.38609000  0.04426800  0.45508600  1
  Si  Si14  1  0.13544400  0.79491400  0.20573200  1
  Si  Si15  1  0.20573200  0.86391000  0.13544400  1
  Si  Si16  1  0.28349200  0.37209100  0.71124300  1
  Si  Si17  1  0.71124300  0.63317400  0.28349200  1
  Si  Si18  1  0.87790900  0.96650800  0.61682600  1
  Si  Si19  1  0.61682600  0.53875700  0.87790900  1
  O  O20  1  0.73926200  0.96144600  0.02682700  1
  O  O21  1  0.02682700  0.27246600  0.73926200  1
  O  O22  1  0.28855400  0.51073800  0.97753400  1
  O  O23  1  0.97753400  0.22317300  0.28855400  1
  O  O24  1  0.23023800  0.46940100  0.53718500  1
  O  O25  1  0.53718500  0.76317600  0.23023800  1
  O  O26  1  0.78059900  0.01976200  0.48682400  1
  O  O27  1  0.48682400  0.71281500  0.78059900  1
  O  O28  1  0.52585200  0.27858800  0.21106400  1
  O  O29  1  0.21106400  0.98449600  0.52585200  1
  O  O30  1  0.97141200  0.72414800  0.26550400  1
  O  O31  1  0.26550400  0.03893600  0.97141200  1
  O  O32  1  0.01997300  0.78651900  0.71770800  1
  O  O33  1  0.71770800  0.47580000  0.01997300  1
  O  O34  1  0.46348100  0.23002700  0.77420000  1
  O  O35  1  0.77420000  0.53229200  0.46348100  1
  O  O36  1  0.44163700  0.05836300  0.44163700  1
  O  O37  1  0.19163700  0.80836300  0.19163700  1
  O  O38  1  0.05973200  0.57377800  0.92743000  1
  O  O39  1  0.92743000  0.43906000  0.05973200  1
  O  O40  1  0.67622200  0.19026800  0.81094000  1
  O  O41  1  0.81094000  0.32257000  0.67622200  1
  O  O42  1  0.71151500  0.88582600  0.27040500  1
  O  O43  1  0.27040500  0.13225400  0.71151500  1
  O  O44  1  0.36417400  0.53848500  0.11774600  1
  O  O45  1  0.11774600  0.97959500  0.36417400  1
  O  O46  1  0.36124000  0.23393200  0.61821300  1
  O  O47  1  0.61821300  0.78661600  0.36124000  1
  O  O48  1  0.01606800  0.88876000  0.46338400  1
  O  O49  1  0.46338400  0.63178700  0.01606800  1
  O  O50  1  0.32566200  0.26434900  0.23275400  1
  O  O51  1  0.23275400  0.17723500  0.32566200  1
  O  O52  1  0.98565100  0.92433800  0.07276500  1
  O  O53  1  0.07276500  0.01724600  0.98565100  1
  O  O54  1  0.80906800  0.78811200  0.69191800  1
  O  O55  1  0.69191800  0.71090300  0.80906800  1
  O  O56  1  0.46188800  0.44093200  0.53909700  1
  O  O57  1  0.53909700  0.55808200  0.46188800  1
  O  O58  1  0.01503600  0.48496400  0.01503600  1
  O  O59  1  0.76503600  0.23496400  0.76503600  1
  O  O60  1  0.02416300  0.47955900  0.31963000  1
  O  O61  1  0.31963000  0.17664800  0.02416300  1
  O  O62  1  0.77044100  0.22583700  0.07335200  1
  O  O63  1  0.07335200  0.93037000  0.77044100  1
