# generated using pymatgen
data_Al(NO6)3
_symmetry_space_group_name_H-M   'P 1'
_cell_length_a   9.70588700
_cell_length_b   11.28811200
_cell_length_c   16.61141280
_cell_angle_alpha   84.61439520
_cell_angle_beta   90.00000000
_cell_angle_gamma   90.00000000
_symmetry_Int_Tables_number   1
_chemical_formula_structural   Al(NO6)3
_chemical_formula_sum   'Al4 N12 O72'
_cell_volume   1811.93121888
_cell_formula_units_Z   4
loop_
 _symmetry_equiv_pos_site_id
 _symmetry_equiv_pos_as_xyz
  1  'x, y, z'
loop_
 _atom_site_type_symbol
 _atom_site_label
 _atom_site_symmetry_multiplicity
 _atom_site_fract_x
 _atom_site_fract_y
 _atom_site_fract_z
 _atom_site_occupancy
  Al  Al0  1  0.50490500  0.75032600  0.74674900  1
  Al  Al1  1  0.00490500  0.74967400  0.25325100  1
  Al  Al2  1  0.49509500  0.24967400  0.25325100  1
  Al  Al3  1  0.99509500  0.25032600  0.74674900  1
  N  N4  1  0.16088300  0.81153800  0.94092500  1
  N  N5  1  0.66088300  0.68846200  0.05907500  1
  N  N6  1  0.83911700  0.18846200  0.05907500  1
  N  N7  1  0.33911700  0.31153800  0.94092500  1
  N  N8  1  0.14087900  0.56369900  0.66405700  1
  N  N9  1  0.64087900  0.93630100  0.33594300  1
  N  N10  1  0.85912100  0.43630100  0.33594300  1
  N  N11  1  0.35912100  0.06369900  0.66405700  1
  N  N12  1  0.83382300  0.94580200  0.57315000  1
  N  N13  1  0.33382300  0.55419800  0.42685000  1
  N  N14  1  0.16617700  0.05419800  0.42685000  1
  N  N15  1  0.66617700  0.44580200  0.57315000  1
  O  O16  1  0.22548800  0.86708500  0.99072300  1
  O  O17  1  0.72548800  0.63291500  0.00927700  1
  O  O18  1  0.77451200  0.13291500  0.00927700  1
  O  O19  1  0.27451200  0.36708500  0.99072300  1
  O  O20  1  0.19083100  0.70525600  0.93295300  1
  O  O21  1  0.69083100  0.79474400  0.06704700  1
  O  O22  1  0.80916900  0.29474400  0.06704700  1
  O  O23  1  0.30916900  0.20525600  0.93295300  1
  O  O24  1  0.06609000  0.86148000  0.89945000  1
  O  O25  1  0.56609000  0.63852000  0.10055000  1
  O  O26  1  0.93391000  0.13852000  0.10055000  1
  O  O27  1  0.43391000  0.36148000  0.89945000  1
  O  O28  1  0.24143400  0.50440800  0.64224400  1
  O  O29  1  0.74143400  0.99559200  0.35775600  1
  O  O30  1  0.75856600  0.49559200  0.35775600  1
  O  O31  1  0.25856600  0.00440800  0.64224400  1
  O  O32  1  0.12447900  0.57738700  0.73753500  1
  O  O33  1  0.62447900  0.92261300  0.26246500  1
  O  O34  1  0.87552100  0.42261300  0.26246500  1
  O  O35  1  0.37552100  0.07738700  0.73753500  1
  O  O36  1  0.05671600  0.60898100  0.61308000  1
  O  O37  1  0.55671600  0.89101900  0.38692000  1
  O  O38  1  0.94328400  0.39101900  0.38692000  1
  O  O39  1  0.44328400  0.10898100  0.61308000  1
  O  O40  1  0.79589100  0.05001300  0.55220900  1
  O  O41  1  0.29589100  0.44998700  0.44779100  1
  O  O42  1  0.20410900  0.94998700  0.44779100  1
  O  O43  1  0.70410900  0.55001300  0.55220900  1
  O  O44  1  0.76068800  0.85994000  0.55682000  1
  O  O45  1  0.26068800  0.64006000  0.44318000  1
  O  O46  1  0.23931200  0.14006000  0.44318000  1
  O  O47  1  0.73931200  0.35994000  0.55682000  1
  O  O48  1  0.94560700  0.92713000  0.60970000  1
  O  O49  1  0.44560700  0.57287000  0.39030000  1
  O  O50  1  0.05439300  0.07287000  0.39030000  1
  O  O51  1  0.55439300  0.42713000  0.60970000  1
  O  O52  1  0.47470900  0.83278200  0.83366200  1
  O  O53  1  0.97470900  0.66721800  0.16633800  1
  O  O54  1  0.52529100  0.16721800  0.16633800  1
  O  O55  1  0.02529100  0.33278200  0.83366200  1
  O  O56  1  0.40024300  0.63495100  0.79456200  1
  O  O57  1  0.90024300  0.86504900  0.20543800  1
  O  O58  1  0.59975700  0.36504900  0.20543800  1
  O  O59  1  0.09975700  0.13495100  0.79456200  1
  O  O60  1  0.59940300  0.86707000  0.69368500  1
  O  O61  1  0.09940300  0.63293000  0.30631500  1
  O  O62  1  0.40059700  0.13293000  0.30631500  1
  O  O63  1  0.90059700  0.36707000  0.69368500  1
  O  O64  1  0.63017300  0.64165500  0.72680900  1
  O  O65  1  0.13017300  0.85834500  0.27319100  1
  O  O66  1  0.36982700  0.35834500  0.27319100  1
  O  O67  1  0.86982700  0.14165500  0.72680900  1
  O  O68  1  0.63293400  0.81634600  0.87617600  1
  O  O69  1  0.13293400  0.68365400  0.12382400  1
  O  O70  1  0.36706600  0.18365400  0.12382400  1
  O  O71  1  0.86706600  0.31634600  0.87617600  1
  O  O72  1  0.39243900  0.75362500  0.62054300  1
  O  O73  1  0.89243900  0.74637500  0.37945700  1
  O  O74  1  0.60756100  0.24637500  0.37945700  1
  O  O75  1  0.10756100  0.25362500  0.62054300  1
  O  O76  1  0.99383300  0.51571900  0.96382400  1
  O  O77  1  0.49383300  0.98428100  0.03617600  1
  O  O78  1  0.00616700  0.48428100  0.03617600  1
  O  O79  1  0.50616700  0.01571900  0.96382400  1
  O  O80  1  0.69648500  0.91110500  0.87283300  1
  O  O81  1  0.19648500  0.58889500  0.12716700  1
  O  O82  1  0.30351500  0.08889500  0.12716700  1
  O  O83  1  0.80351500  0.41110500  0.87283300  1
  O  O84  1  0.45851700  0.72914900  0.56076000  1
  O  O85  1  0.95851700  0.77085100  0.43924000  1
  O  O86  1  0.54148300  0.27085100  0.43924000  1
  O  O87  1  0.04148300  0.22914900  0.56076000  1
