# generated using pymatgen
data_KLu(SO5)2
_symmetry_space_group_name_H-M   'P 1'
_cell_length_a   8.17421300
_cell_length_b   10.00125900
_cell_length_c   10.86231902
_cell_angle_alpha   81.26401829
_cell_angle_beta   90.00000000
_cell_angle_gamma   90.00000000
_symmetry_Int_Tables_number   1
_chemical_formula_structural   KLu(SO5)2
_chemical_formula_sum   'K4 Lu4 S8 O40'
_cell_volume   877.71868467
_cell_formula_units_Z   4
loop_
 _symmetry_equiv_pos_site_id
 _symmetry_equiv_pos_as_xyz
  1  'x, y, z'
loop_
 _atom_site_type_symbol
 _atom_site_label
 _atom_site_symmetry_multiplicity
 _atom_site_fract_x
 _atom_site_fract_y
 _atom_site_fract_z
 _atom_site_occupancy
  K  K0  1  0.26804500  0.58552800  0.36630100  1
  K  K1  1  0.76804500  0.91447200  0.63369900  1
  K  K2  1  0.73195500  0.41447200  0.63369900  1
  K  K3  1  0.23195500  0.08552800  0.36630100  1
  Lu  Lu4  1  0.76506000  0.53331800  0.18242800  1
  Lu  Lu5  1  0.26506000  0.96668200  0.81757200  1
  Lu  Lu6  1  0.23494000  0.46668200  0.81757200  1
  Lu  Lu7  1  0.73494000  0.03331800  0.18242800  1
  S  S8  1  0.72719100  0.20861700  0.38300000  1
  S  S9  1  0.22719100  0.29138300  0.61700000  1
  S  S10  1  0.27280900  0.79138300  0.61700000  1
  S  S11  1  0.77280900  0.70861700  0.38300000  1
  S  S12  1  0.85246600  0.31087400  0.96940600  1
  S  S13  1  0.35246600  0.18912600  0.03059400  1
  S  S14  1  0.14753400  0.68912600  0.03059400  1
  S  S15  1  0.64753400  0.81087400  0.96940600  1
  O  O16  1  0.58867300  0.14904800  0.31704700  1
  O  O17  1  0.08867300  0.35095200  0.68295300  1
  O  O18  1  0.41132700  0.85095200  0.68295300  1
  O  O19  1  0.91132700  0.64904800  0.31704700  1
  O  O20  1  0.71145700  0.18133900  0.51848200  1
  O  O21  1  0.21145700  0.31866100  0.48151800  1
  O  O22  1  0.28854300  0.81866100  0.48151800  1
  O  O23  1  0.78854300  0.68133900  0.51848200  1
  O  O24  1  0.72679400  0.36038500  0.34161600  1
  O  O25  1  0.22679400  0.13961500  0.65838400  1
  O  O26  1  0.27320600  0.63961500  0.65838400  1
  O  O27  1  0.77320600  0.86038500  0.34161600  1
  O  O28  1  0.87890000  0.14783400  0.33679500  1
  O  O29  1  0.37890000  0.35216600  0.66320500  1
  O  O30  1  0.12110000  0.85216600  0.66320500  1
  O  O31  1  0.62110000  0.64783400  0.33679500  1
  O  O32  1  0.02013300  0.37220800  0.93820000  1
  O  O33  1  0.52013300  0.12779200  0.06180000  1
  O  O34  1  0.97986700  0.62779200  0.06180000  1
  O  O35  1  0.47986700  0.87220800  0.93820000  1
  O  O36  1  0.88112300  0.18837200  0.06369800  1
  O  O37  1  0.38112300  0.31162800  0.93630200  1
  O  O38  1  0.11887700  0.81162800  0.93630200  1
  O  O39  1  0.61887700  0.68837200  0.06369800  1
  O  O40  1  0.75585200  0.40902800  0.03106000  1
  O  O41  1  0.25585200  0.09097200  0.96894000  1
  O  O42  1  0.24414800  0.59097200  0.96894000  1
  O  O43  1  0.74414800  0.90902800  0.03106000  1
  O  O44  1  0.77203500  0.27866000  0.85892900  1
  O  O45  1  0.27203500  0.22134000  0.14107100  1
  O  O46  1  0.22796500  0.72134000  0.14107100  1
  O  O47  1  0.72796500  0.77866000  0.85892900  1
  O  O48  1  0.50679900  0.53072600  0.79954000  1
  O  O49  1  0.00679900  0.96927400  0.20046000  1
  O  O50  1  0.49320100  0.46927400  0.20046000  1
  O  O51  1  0.99320100  0.03072600  0.79954000  1
  O  O52  1  0.52263600  0.05399900  0.78898500  1
  O  O53  1  0.02263600  0.44600100  0.21101500  1
  O  O54  1  0.47736400  0.94600100  0.21101500  1
  O  O55  1  0.97736400  0.55399900  0.78898500  1
