# generated using pymatgen
data_Cr3(NO5)2
_symmetry_space_group_name_H-M   'P 1'
_cell_length_a   12.61904428
_cell_length_b   12.61904428
_cell_length_c   13.40314900
_cell_angle_alpha   90.00000000
_cell_angle_beta   90.00000000
_cell_angle_gamma   120.00000147
_symmetry_Int_Tables_number   1
_chemical_formula_structural   Cr3(NO5)2
_chemical_formula_sum   'Cr18 N12 O60'
_cell_volume   1848.37633465
_cell_formula_units_Z   6
loop_
 _symmetry_equiv_pos_site_id
 _symmetry_equiv_pos_as_xyz
  1  'x, y, z'
loop_
 _atom_site_type_symbol
 _atom_site_label
 _atom_site_symmetry_multiplicity
 _atom_site_fract_x
 _atom_site_fract_y
 _atom_site_fract_z
 _atom_site_occupancy
  Cr  Cr0  1  0.94905200  0.63132500  0.57688100  1
  Cr  Cr1  1  0.36867500  0.31772700  0.57688100  1
  Cr  Cr2  1  0.68227300  0.05094800  0.57688100  1
  Cr  Cr3  1  0.05094800  0.36867500  0.07688100  1
  Cr  Cr4  1  0.63132500  0.68227300  0.07688100  1
  Cr  Cr5  1  0.31772700  0.94905200  0.07688100  1
  Cr  Cr6  1  0.05094800  0.36867500  0.42311900  1
  Cr  Cr7  1  0.63132500  0.68227300  0.42311900  1
  Cr  Cr8  1  0.31772700  0.94905200  0.42311900  1
  Cr  Cr9  1  0.94905200  0.63132500  0.92311900  1
  Cr  Cr10  1  0.36867500  0.31772700  0.92311900  1
  Cr  Cr11  1  0.68227300  0.05094800  0.92311900  1
  Cr  Cr12  1  0.15972300  0.76119100  0.75000000  1
  Cr  Cr13  1  0.23880900  0.39853200  0.75000000  1
  Cr  Cr14  1  0.60146800  0.84027700  0.75000000  1
  Cr  Cr15  1  0.84027700  0.23880900  0.25000000  1
  Cr  Cr16  1  0.76119100  0.60146800  0.25000000  1
  Cr  Cr17  1  0.39853200  0.15972300  0.25000000  1
  N  N18  1  0.67111000  0.57250600  0.75000000  1
  N  N19  1  0.42749400  0.09860400  0.75000000  1
  N  N20  1  0.90139600  0.32889000  0.75000000  1
  N  N21  1  0.32889000  0.42749400  0.25000000  1
  N  N22  1  0.57250600  0.90139600  0.25000000  1
  N  N23  1  0.09860400  0.67111000  0.25000000  1
  N  N24  1  0.66666700  0.33333300  0.44716800  1
  N  N25  1  0.33333300  0.66666700  0.94716800  1
  N  N26  1  0.33333300  0.66666700  0.55283200  1
  N  N27  1  0.66666700  0.33333300  0.05283200  1
  N  N28  1  0.00000000  0.00000000  0.50000000  1
  N  N29  1  0.00000000  0.00000000  0.00000000  1
  O  O30  1  0.90922100  0.73532400  0.58783400  1
  O  O31  1  0.26467600  0.17389700  0.58783400  1
  O  O32  1  0.82610300  0.09077900  0.58783400  1
  O  O33  1  0.09077900  0.26467600  0.08783400  1
  O  O34  1  0.73532400  0.82610300  0.08783400  1
  O  O35  1  0.17389700  0.90922100  0.08783400  1
  O  O36  1  0.09077900  0.26467600  0.41216600  1
  O  O37  1  0.73532400  0.82610300  0.41216600  1
  O  O38  1  0.17389700  0.90922100  0.41216600  1
  O  O39  1  0.90922100  0.73532400  0.91216600  1
  O  O40  1  0.26467600  0.17389700  0.91216600  1
  O  O41  1  0.82610300  0.09077900  0.91216600  1
  O  O42  1  0.83735700  0.50293700  0.62123100  1
  O  O43  1  0.49706300  0.33441900  0.62123100  1
  O  O44  1  0.66558100  0.16264300  0.62123100  1
  O  O45  1  0.16264300  0.49706300  0.12123100  1
  O  O46  1  0.50293700  0.66558100  0.12123100  1
  O  O47  1  0.33441900  0.83735700  0.12123100  1
  O  O48  1  0.16264300  0.49706300  0.37876900  1
  O  O49  1  0.50293700  0.66558100  0.37876900  1
  O  O50  1  0.33441900  0.83735700  0.37876900  1
  O  O51  1  0.83735700  0.50293700  0.87876900  1
  O  O52  1  0.49706300  0.33441900  0.87876900  1
  O  O53  1  0.66558100  0.16264300  0.87876900  1
  O  O54  1  0.96149700  0.60959100  0.45758600  1
  O  O55  1  0.39040900  0.35190700  0.45758600  1
  O  O56  1  0.64809300  0.03850300  0.45758600  1
  O  O57  1  0.03850300  0.39040900  0.95758600  1
  O  O58  1  0.60959100  0.64809300  0.95758600  1
  O  O59  1  0.35190700  0.96149700  0.95758600  1
  O  O60  1  0.03850300  0.39040900  0.54241400  1
  O  O61  1  0.60959100  0.64809300  0.54241400  1
  O  O62  1  0.35190700  0.96149700  0.54241400  1
  O  O63  1  0.96149700  0.60959100  0.04241400  1
  O  O64  1  0.39040900  0.35190700  0.04241400  1
  O  O65  1  0.64809300  0.03850300  0.04241400  1
  O  O66  1  0.08786000  0.67339000  0.64184400  1
  O  O67  1  0.32661000  0.41447000  0.64184400  1
  O  O68  1  0.58553000  0.91214000  0.64184400  1
  O  O69  1  0.91214000  0.32661000  0.14184400  1
  O  O70  1  0.67339000  0.58553000  0.14184400  1
  O  O71  1  0.41447000  0.08786000  0.14184400  1
  O  O72  1  0.91214000  0.32661000  0.35815600  1
  O  O73  1  0.67339000  0.58553000  0.35815600  1
  O  O74  1  0.41447000  0.08786000  0.35815600  1
  O  O75  1  0.08786000  0.67339000  0.85815600  1
  O  O76  1  0.32661000  0.41447000  0.85815600  1
  O  O77  1  0.58553000  0.91214000  0.85815600  1
  O  O78  1  0.14464400  0.87917400  0.75000000  1
  O  O79  1  0.12082600  0.26547000  0.75000000  1
  O  O80  1  0.73453000  0.85535600  0.75000000  1
  O  O81  1  0.85535600  0.12082600  0.25000000  1
  O  O82  1  0.87917400  0.73453000  0.25000000  1
  O  O83  1  0.26547000  0.14464400  0.25000000  1
  O  O84  1  0.30086300  0.80036100  0.75000000  1
  O  O85  1  0.19963900  0.50050200  0.75000000  1
  O  O86  1  0.49949800  0.69913700  0.75000000  1
  O  O87  1  0.69913700  0.19963900  0.25000000  1
  O  O88  1  0.80036100  0.49949800  0.25000000  1
  O  O89  1  0.50050200  0.30086300  0.25000000  1
