# generated using pymatgen
data_ZnH7C3NO6
_symmetry_space_group_name_H-M   'P 1'
_cell_length_a   12.81431447
_cell_length_b   12.81431447
_cell_length_c   8.28117500
_cell_angle_alpha   90.00000000
_cell_angle_beta   90.00000000
_cell_angle_gamma   120.00000243
_symmetry_Int_Tables_number   1
_chemical_formula_structural   ZnH7C3NO6
_chemical_formula_sum   'Zn6 H42 C18 N6 O36'
_cell_volume   1177.64214245
_cell_formula_units_Z   6
loop_
 _symmetry_equiv_pos_site_id
 _symmetry_equiv_pos_as_xyz
  1  'x, y, z'
loop_
 _atom_site_type_symbol
 _atom_site_label
 _atom_site_symmetry_multiplicity
 _atom_site_fract_x
 _atom_site_fract_y
 _atom_site_fract_z
 _atom_site_occupancy
  Zn  Zn0  1  0.66469400  0.99646800  0.91315200  1
  Zn  Zn1  1  0.00353200  0.66822600  0.91315200  1
  Zn  Zn2  1  0.33177400  0.33530600  0.91315200  1
  Zn  Zn3  1  0.33530600  0.00353200  0.41315200  1
  Zn  Zn4  1  0.99646800  0.33177400  0.41315200  1
  Zn  Zn5  1  0.66822600  0.66469400  0.41315200  1
  H  H6  1  0.72226800  0.86695000  0.17797900  1
  H  H7  1  0.13305000  0.85531800  0.17797900  1
  H  H8  1  0.14468200  0.27773200  0.17797900  1
  H  H9  1  0.27773200  0.13305000  0.67797900  1
  H  H10  1  0.86695000  0.14468200  0.67797900  1
  H  H11  1  0.85531800  0.72226800  0.67797900  1
  H  H12  1  0.48972000  0.94592300  0.19301000  1
  H  H13  1  0.05407700  0.54379600  0.19301000  1
  H  H14  1  0.45620400  0.51028000  0.19301000  1
  H  H15  1  0.51028000  0.05407700  0.69301000  1
  H  H16  1  0.94592300  0.45620400  0.69301000  1
  H  H17  1  0.54379600  0.48972000  0.69301000  1
  H  H18  1  0.82655800  0.21221300  0.12415300  1
  H  H19  1  0.78778700  0.61434500  0.12415300  1
  H  H20  1  0.38565500  0.17344200  0.12415300  1
  H  H21  1  0.17344200  0.78778700  0.62415300  1
  H  H22  1  0.21221300  0.38565500  0.62415300  1
  H  H23  1  0.61434500  0.82655800  0.62415300  1
  H  H24  1  0.42082600  0.72686000  0.00365800  1
  H  H25  1  0.27314000  0.69396600  0.00365800  1
  H  H26  1  0.30603400  0.57917400  0.00365800  1
  H  H27  1  0.57917400  0.27314000  0.50365800  1
  H  H28  1  0.72686000  0.30603400  0.50365800  1
  H  H29  1  0.69396600  0.42082600  0.50365800  1
  H  H30  1  0.33333300  0.66666700  0.84015300  1
  H  H31  1  0.66666700  0.33333300  0.34015300  1
  H  H32  1  0.63623100  0.24516500  0.00490900  1
  H  H33  1  0.75483500  0.39106600  0.00490900  1
  H  H34  1  0.60893400  0.36376900  0.00490900  1
  H  H35  1  0.36376900  0.75483500  0.50490900  1
  H  H36  1  0.24516500  0.60893400  0.50490900  1
  H  H37  1  0.39106600  0.63623100  0.50490900  1
  H  H38  1  0.66666700  0.33333300  0.84135800  1
  H  H39  1  0.33333300  0.66666700  0.34135800  1
  H  H40  1  0.97005100  0.05833100  0.32852600  1
  H  H41  1  0.94166900  0.91172000  0.32852600  1
  H  H42  1  0.08828000  0.02994900  0.32852600  1
  H  H43  1  0.02994900  0.94166900  0.82852600  1
  H  H44  1  0.05833100  0.08828000  0.82852600  1
  H  H45  1  0.91172000  0.97005100  0.82852600  1
  H  H46  1  0.00000000  0.00000000  0.49118300  1
  H  H47  1  0.00000000  0.00000000  0.99118300  1
  C  C48  1  0.62329400  0.81061200  0.16961200  1
  C  C49  1  0.18938800  0.81268200  0.16961200  1
  C  C50  1  0.18731800  0.37670600  0.16961200  1
  C  C51  1  0.37670600  0.18938800  0.66961200  1
  C  C52  1  0.81061200  0.18731800  0.66961200  1
  C  C53  1  0.81268200  0.62329400  0.66961200  1
  C  C54  1  0.52784900  0.04381600  0.17573900  1
  C  C55  1  0.95618400  0.48403300  0.17573900  1
  C  C56  1  0.51596700  0.47215100  0.17573900  1
  C  C57  1  0.47215100  0.95618400  0.67573900  1
  C  C58  1  0.04381600  0.51596700  0.67573900  1
  C  C59  1  0.48403300  0.52784900  0.67573900  1
  C  C60  1  0.86002000  0.14904100  0.14722100  1
  C  C61  1  0.85095900  0.71097800  0.14722100  1
  C  C62  1  0.28902200  0.13998000  0.14722100  1
  C  C63  1  0.13998000  0.85095900  0.64722100  1
  C  C64  1  0.14904100  0.28902200  0.64722100  1
  C  C65  1  0.71097800  0.86002000  0.64722100  1
  N  N66  1  0.33333300  0.66666700  0.96346500  1
  N  N67  1  0.66666700  0.33333300  0.46346500  1
  N  N68  1  0.66666700  0.33333300  0.96480400  1
  N  N69  1  0.33333300  0.66666700  0.46480400  1
  N  N70  1  0.00000000  0.00000000  0.36788200  1
  N  N71  1  0.00000000  0.00000000  0.86788200  1
  O  O72  1  0.57104200  0.83689000  0.05886400  1
  O  O73  1  0.16311000  0.73415100  0.05886400  1
  O  O74  1  0.26584900  0.42895800  0.05886400  1
  O  O75  1  0.42895800  0.16311000  0.55886400  1
  O  O76  1  0.83689000  0.26584900  0.55886400  1
  O  O77  1  0.73415100  0.57104200  0.55886400  1
  O  O78  1  0.56857400  0.72491500  0.26864100  1
  O  O79  1  0.27508500  0.84365900  0.26864100  1
  O  O80  1  0.15634100  0.43142600  0.26864100  1
  O  O81  1  0.43142600  0.27508500  0.76864100  1
  O  O82  1  0.72491500  0.15634100  0.76864100  1
  O  O83  1  0.84365900  0.56857400  0.76864100  1
  O  O84  1  0.60226200  0.09369600  0.05997100  1
  O  O85  1  0.90630400  0.50856600  0.05997100  1
  O  O86  1  0.49143400  0.39773800  0.05997100  1
  O  O87  1  0.39773800  0.90630400  0.55997100  1
  O  O88  1  0.09369600  0.49143400  0.55997100  1
  O  O89  1  0.50856600  0.60226200  0.55997100  1
  O  O90  1  0.49495800  0.09978500  0.26976700  1
  O  O91  1  0.90021500  0.39517300  0.26976700  1
  O  O92  1  0.60482700  0.50504200  0.26976700  1
  O  O93  1  0.50504200  0.90021500  0.76976700  1
  O  O94  1  0.09978500  0.60482700  0.76976700  1
  O  O95  1  0.39517300  0.49495800  0.76976700  1
  O  O96  1  0.82533200  0.05855800  0.05588700  1
  O  O97  1  0.94144200  0.76677400  0.05588700  1
  O  O98  1  0.23322600  0.17466800  0.05588700  1
  O  O99  1  0.17466800  0.94144200  0.55588700  1
  O  O100  1  0.05855800  0.23322600  0.55588700  1
  O  O101  1  0.76677400  0.82533200  0.55588700  1
  O  O102  1  0.93159700  0.17229900  0.26612300  1
  O  O103  1  0.82770100  0.75929800  0.26612300  1
  O  O104  1  0.24070200  0.06840300  0.26612300  1
  O  O105  1  0.06840300  0.82770100  0.76612300  1
  O  O106  1  0.17229900  0.24070200  0.76612300  1
  O  O107  1  0.75929800  0.93159700  0.76612300  1
