# generated using pymatgen
data_Tm15C19
_symmetry_space_group_name_H-M   'P 1'
_cell_length_a   8.01453500
_cell_length_b   8.01453500
_cell_length_c   15.26521200
_cell_angle_alpha   90.00000000
_cell_angle_beta   90.00000000
_cell_angle_gamma   90.00000000
_symmetry_Int_Tables_number   1
_chemical_formula_structural   Tm15C19
_chemical_formula_sum   'Tm30 C38'
_cell_volume   980.52687073
_cell_formula_units_Z   2
loop_
 _symmetry_equiv_pos_site_id
 _symmetry_equiv_pos_as_xyz
  1  'x, y, z'
loop_
 _atom_site_type_symbol
 _atom_site_label
 _atom_site_symmetry_multiplicity
 _atom_site_fract_x
 _atom_site_fract_y
 _atom_site_fract_z
 _atom_site_occupancy
  Tm  Tm0  1  0.70249100  0.90696700  0.50000000  1
  Tm  Tm1  1  0.20249100  0.59303300  0.00000000  1
  Tm  Tm2  1  0.29750900  0.09303300  0.50000000  1
  Tm  Tm3  1  0.79750900  0.40696700  0.00000000  1
  Tm  Tm4  1  0.90696700  0.29750900  0.50000000  1
  Tm  Tm5  1  0.59303300  0.79750900  0.00000000  1
  Tm  Tm6  1  0.09303300  0.70249100  0.50000000  1
  Tm  Tm7  1  0.40696700  0.20249100  0.00000000  1
  Tm  Tm8  1  0.78421100  0.59850100  0.64951100  1
  Tm  Tm9  1  0.28421100  0.90149900  0.85048900  1
  Tm  Tm10  1  0.21578900  0.40149900  0.64951100  1
  Tm  Tm11  1  0.71578900  0.09850100  0.85048900  1
  Tm  Tm12  1  0.59850100  0.21578900  0.35048900  1
  Tm  Tm13  1  0.90149900  0.71578900  0.14951100  1
  Tm  Tm14  1  0.40149900  0.78421100  0.35048900  1
  Tm  Tm15  1  0.09850100  0.28421100  0.14951100  1
  Tm  Tm16  1  0.59850100  0.21578900  0.64951100  1
  Tm  Tm17  1  0.09850100  0.28421100  0.85048900  1
  Tm  Tm18  1  0.40149900  0.78421100  0.64951100  1
  Tm  Tm19  1  0.90149900  0.71578900  0.85048900  1
  Tm  Tm20  1  0.21578900  0.40149900  0.35048900  1
  Tm  Tm21  1  0.28421100  0.90149900  0.14951100  1
  Tm  Tm22  1  0.78421100  0.59850100  0.35048900  1
  Tm  Tm23  1  0.71578900  0.09850100  0.14951100  1
  Tm  Tm24  1  0.00000000  0.00000000  0.33124800  1
  Tm  Tm25  1  0.50000000  0.50000000  0.16875200  1
  Tm  Tm26  1  0.00000000  0.00000000  0.66875200  1
  Tm  Tm27  1  0.50000000  0.50000000  0.83124800  1
  Tm  Tm28  1  0.50000000  0.50000000  0.50000000  1
  Tm  Tm29  1  0.00000000  0.00000000  0.00000000  1
  C  C30  1  0.60168100  0.19727200  0.50000000  1
  C  C31  1  0.10168100  0.30272800  0.00000000  1
  C  C32  1  0.39831900  0.80272800  0.50000000  1
  C  C33  1  0.89831900  0.69727200  0.00000000  1
  C  C34  1  0.19727200  0.39831900  0.50000000  1
  C  C35  1  0.30272800  0.89831900  0.00000000  1
  C  C36  1  0.80272800  0.60168100  0.50000000  1
  C  C37  1  0.69727200  0.10168100  0.00000000  1
  C  C38  1  0.69791700  0.90558000  0.66845200  1
  C  C39  1  0.19791700  0.59442000  0.83154800  1
  C  C40  1  0.30208300  0.09442000  0.66845200  1
  C  C41  1  0.80208300  0.40558000  0.83154800  1
  C  C42  1  0.90558000  0.30208300  0.33154800  1
  C  C43  1  0.59442000  0.80208300  0.16845200  1
  C  C44  1  0.09442000  0.69791700  0.33154800  1
  C  C45  1  0.40558000  0.19791700  0.16845200  1
  C  C46  1  0.65106700  0.84893300  0.75000000  1
  C  C47  1  0.15106700  0.65106700  0.75000000  1
  C  C48  1  0.34893300  0.15106700  0.75000000  1
  C  C49  1  0.84893300  0.34893300  0.75000000  1
  C  C50  1  0.84893300  0.34893300  0.25000000  1
  C  C51  1  0.65106700  0.84893300  0.25000000  1
  C  C52  1  0.15106700  0.65106700  0.25000000  1
  C  C53  1  0.34893300  0.15106700  0.25000000  1
  C  C54  1  0.90558000  0.30208300  0.66845200  1
  C  C55  1  0.40558000  0.19791700  0.83154800  1
  C  C56  1  0.09442000  0.69791700  0.66845200  1
  C  C57  1  0.59442000  0.80208300  0.83154800  1
  C  C58  1  0.30208300  0.09442000  0.33154800  1
  C  C59  1  0.19791700  0.59442000  0.16845200  1
  C  C60  1  0.69791700  0.90558000  0.33154800  1
  C  C61  1  0.80208300  0.40558000  0.16845200  1
  C  C62  1  0.50000000  0.50000000  0.66313900  1
  C  C63  1  0.00000000  0.00000000  0.83686100  1
  C  C64  1  0.50000000  0.50000000  0.33686100  1
  C  C65  1  0.00000000  0.00000000  0.16313900  1
  C  C66  1  0.50000000  0.50000000  0.00000000  1
  C  C67  1  0.00000000  0.00000000  0.50000000  1
