# generated using pymatgen
data_HgAsC4Se3N
_symmetry_space_group_name_H-M   'P 1'
_cell_length_a   7.55983400
_cell_length_b   16.68832700
_cell_length_c   10.70614364
_cell_angle_alpha   90.00000000
_cell_angle_beta   133.68566087
_cell_angle_gamma   90.00000000
_symmetry_Int_Tables_number   1
_chemical_formula_structural   HgAsC4Se3N
_chemical_formula_sum   'Hg4 As4 C16 Se12 N4'
_cell_volume   976.74349414
_cell_formula_units_Z   4
loop_
 _symmetry_equiv_pos_site_id
 _symmetry_equiv_pos_as_xyz
  1  'x, y, z'
loop_
 _atom_site_type_symbol
 _atom_site_label
 _atom_site_symmetry_multiplicity
 _atom_site_fract_x
 _atom_site_fract_y
 _atom_site_fract_z
 _atom_site_occupancy
  Hg  Hg0  1  0.68898000  0.94768400  0.80375600  1
  Hg  Hg1  1  0.68898000  0.55231600  0.30375600  1
  Hg  Hg2  1  0.31102000  0.05231600  0.19624400  1
  Hg  Hg3  1  0.31102000  0.44768400  0.69624400  1
  As  As4  1  0.17864500  0.95078100  0.83873200  1
  As  As5  1  0.17864500  0.54921900  0.33873200  1
  As  As6  1  0.82135500  0.04921900  0.16126800  1
  As  As7  1  0.82135500  0.45078100  0.66126800  1
  C  C8  1  0.90853500  0.11546400  0.57301300  1
  C  C9  1  0.90853500  0.38453600  0.07301300  1
  C  C10  1  0.09146500  0.88453600  0.42698700  1
  C  C11  1  0.09146500  0.61546400  0.92698700  1
  C  C12  1  0.15285800  0.15444500  0.72221900  1
  C  C13  1  0.15285800  0.34555500  0.22221900  1
  C  C14  1  0.84714200  0.84555500  0.27778100  1
  C  C15  1  0.84714200  0.65444500  0.77778100  1
  C  C16  1  0.99216700  0.21358200  0.57384300  1
  C  C17  1  0.99216700  0.28641800  0.07384300  1
  C  C18  1  0.00783300  0.78641800  0.42615700  1
  C  C19  1  0.00783300  0.71358200  0.92615700  1
  C  C20  1  0.81058000  0.16380300  0.42507600  1
  C  C21  1  0.81058000  0.33619700  0.92507600  1
  C  C22  1  0.18942000  0.83619700  0.57492400  1
  C  C23  1  0.18942000  0.66380300  0.07492400  1
  Se  Se24  1  0.41858600  0.83746500  0.81346300  1
  Se  Se25  1  0.41858600  0.66253500  0.31346300  1
  Se  Se26  1  0.58141400  0.16253500  0.18653700  1
  Se  Se27  1  0.58141400  0.33746500  0.68653700  1
  Se  Se28  1  0.77088500  0.90863200  0.61007400  1
  Se  Se29  1  0.77088500  0.59136800  0.11007400  1
  Se  Se30  1  0.22911500  0.09136800  0.38992600  1
  Se  Se31  1  0.22911500  0.40863200  0.88992600  1
  Se  Se32  1  0.25113900  0.90662000  0.08232900  1
  Se  Se33  1  0.25113900  0.59338000  0.58232900  1
  Se  Se34  1  0.74886100  0.09338000  0.91767100  1
  Se  Se35  1  0.74886100  0.40662000  0.41767100  1
  N  N36  1  0.92715600  0.18526100  0.67374300  1
  N  N37  1  0.92715600  0.31473900  0.17374300  1
  N  N38  1  0.07284400  0.81473900  0.32625700  1
  N  N39  1  0.07284400  0.68526100  0.82625700  1
