# generated using pymatgen
data_CdH14C8(NO3)2
_symmetry_space_group_name_H-M   'P 1'
_cell_length_a   16.21396700
_cell_length_b   8.14120100
_cell_length_c   10.62876200
_cell_angle_alpha   90.00000000
_cell_angle_beta   90.00000000
_cell_angle_gamma   90.00000000
_symmetry_Int_Tables_number   1
_chemical_formula_structural   CdH14C8(NO3)2
_chemical_formula_sum   'Cd4 H56 C32 N8 O24'
_cell_volume   1403.00895965
_cell_formula_units_Z   4
loop_
 _symmetry_equiv_pos_site_id
 _symmetry_equiv_pos_as_xyz
  1  'x, y, z'
loop_
 _atom_site_type_symbol
 _atom_site_label
 _atom_site_symmetry_multiplicity
 _atom_site_fract_x
 _atom_site_fract_y
 _atom_site_fract_z
 _atom_site_occupancy
  Cd  Cd0  1  0.50000000  0.83329600  0.75000000  1
  Cd  Cd1  1  0.00000000  0.66670400  0.25000000  1
  Cd  Cd2  1  0.50000000  0.16670400  0.25000000  1
  Cd  Cd3  1  0.00000000  0.33329600  0.75000000  1
  H  H4  1  0.41802900  0.51667300  0.62201800  1
  H  H5  1  0.08197100  0.98332700  0.12201800  1
  H  H6  1  0.91802900  0.98332700  0.37798200  1
  H  H7  1  0.58197100  0.51667300  0.87798200  1
  H  H8  1  0.58197100  0.48332700  0.37798200  1
  H  H9  1  0.91802900  0.01667300  0.87798200  1
  H  H10  1  0.08197100  0.01667300  0.62201800  1
  H  H11  1  0.41802900  0.48332700  0.12201800  1
  H  H12  1  0.35802200  0.30667400  0.54848800  1
  H  H13  1  0.14197800  0.19332600  0.04848800  1
  H  H14  1  0.85802200  0.19332600  0.45151200  1
  H  H15  1  0.64197800  0.30667400  0.95151200  1
  H  H16  1  0.64197800  0.69332600  0.45151200  1
  H  H17  1  0.85802200  0.80667400  0.95151200  1
  H  H18  1  0.14197800  0.80667400  0.54848800  1
  H  H19  1  0.35802200  0.69332600  0.04848800  1
  H  H20  1  0.33533300  0.15381400  0.66528600  1
  H  H21  1  0.16466700  0.34618600  0.16528600  1
  H  H22  1  0.83533300  0.34618600  0.33471400  1
  H  H23  1  0.66466700  0.15381400  0.83471400  1
  H  H24  1  0.66466700  0.84618600  0.33471400  1
  H  H25  1  0.83533300  0.65381400  0.83471400  1
  H  H26  1  0.16466700  0.65381400  0.66528600  1
  H  H27  1  0.33533300  0.84618600  0.16528600  1
  H  H28  1  0.25443300  0.27970700  0.60283400  1
  H  H29  1  0.24556700  0.22029300  0.10283400  1
  H  H30  1  0.75443300  0.22029300  0.39716600  1
  H  H31  1  0.74556700  0.27970700  0.89716600  1
  H  H32  1  0.74556700  0.72029300  0.39716600  1
  H  H33  1  0.75443300  0.77970700  0.89716600  1
  H  H34  1  0.24556700  0.77970700  0.60283400  1
  H  H35  1  0.25443300  0.72029300  0.10283400  1
  H  H36  1  0.29929300  0.47047600  0.91109000  1
  H  H37  1  0.20070700  0.02952400  0.41109000  1
  H  H38  1  0.79929300  0.02952400  0.08891000  1
  H  H39  1  0.70070700  0.47047600  0.58891000  1
  H  H40  1  0.70070700  0.52952400  0.08891000  1
  H  H41  1  0.79929300  0.97047600  0.58891000  1
  H  H42  1  0.20070700  0.97047600  0.91109000  1
  H  H43  1  0.29929300  0.52952400  0.41109000  1
  H  H44  1  0.22258700  0.35763500  0.82525200  1
  H  H45  1  0.27741300  0.14236500  0.32525200  1
  H  H46  1  0.72258700  0.14236500  0.17474800  1
  H  H47  1  0.77741300  0.35763500  0.67474800  1
  H  H48  1  0.77741300  0.64236500  0.17474800  1
  H  H49  1  0.72258700  0.85763500  0.67474800  1
  H  H50  1  0.27741300  0.85763500  0.82525200  1
  H  H51  1  0.22258700  0.64236500  0.32525200  1
  H  H52  1  0.31034800  0.25278200  0.88963400  1
  H  H53  1  0.18965200  0.24721800  0.38963400  1
  H  H54  1  0.81034800  0.24721800  0.11036600  1
  H  H55  1  0.68965200  0.25278200  0.61036600  1
  H  H56  1  0.68965200  0.74721800  0.11036600  1
  H  H57  1  0.81034800  0.75278200  0.61036600  1
  H  H58  1  0.18965200  0.75278200  0.88963400  1
  H  H59  1  0.31034800  0.74721800  0.38963400  1
  C  C60  1  0.45896000  0.95297900  0.48223800  1
  C  C61  1  0.04104000  0.54702100  0.98223800  1
  C  C62  1  0.95896000  0.54702100  0.51776200  1
  C  C63  1  0.54104000  0.95297900  0.01776200  1
  C  C64  1  0.54104000  0.04702100  0.51776200  1
  C  C65  1  0.95896000  0.45297900  0.01776200  1
  C  C66  1  0.04104000  0.45297900  0.48223800  1
  C  C67  1  0.45896000  0.04702100  0.98223800  1
  C  C68  1  0.38865700  0.51664800  0.71574800  1
  C  C69  1  0.11134300  0.98335200  0.21574800  1
  C  C70  1  0.88865700  0.98335200  0.28425200  1
  C  C71  1  0.61134300  0.51664800  0.78425200  1
  C  C72  1  0.61134300  0.48335200  0.28425200  1
  C  C73  1  0.88865700  0.01664800  0.78425200  1
  C  C74  1  0.11134300  0.01664800  0.71574800  1
  C  C75  1  0.38865700  0.48335200  0.21574800  1
  C  C76  1  0.31976100  0.27712400  0.63054900  1
  C  C77  1  0.18023900  0.22287600  0.13054900  1
  C  C78  1  0.81976100  0.22287600  0.36945100  1
  C  C79  1  0.68023900  0.27712400  0.86945100  1
  C  C80  1  0.68023900  0.72287600  0.36945100  1
  C  C81  1  0.81976100  0.77712400  0.86945100  1
  C  C82  1  0.18023900  0.77712400  0.63054900  1
  C  C83  1  0.31976100  0.72287600  0.13054900  1
  C  C84  1  0.28867700  0.36793200  0.84660400  1
  C  C85  1  0.21132300  0.13206800  0.34660400  1
  C  C86  1  0.78867700  0.13206800  0.15339600  1
  C  C87  1  0.71132300  0.36793200  0.65339600  1
  C  C88  1  0.71132300  0.63206800  0.15339600  1
  C  C89  1  0.78867700  0.86793200  0.65339600  1
  C  C90  1  0.21132300  0.86793200  0.84660400  1
  C  C91  1  0.28867700  0.63206800  0.34660400  1
  N  N92  1  0.33388400  0.39608300  0.73027600  1
  N  N93  1  0.16611600  0.10391700  0.23027600  1
  N  N94  1  0.83388400  0.10391700  0.26972400  1
  N  N95  1  0.66611600  0.39608300  0.76972400  1
  N  N96  1  0.66611600  0.60391700  0.26972400  1
  N  N97  1  0.83388400  0.89608300  0.76972400  1
  N  N98  1  0.16611600  0.89608300  0.73027600  1
  N  N99  1  0.33388400  0.60391700  0.23027600  1
  O  O100  1  0.42893000  0.85498400  0.56301000  1
  O  O101  1  0.07107000  0.64501600  0.06301000  1
  O  O102  1  0.92893000  0.64501600  0.43699000  1
  O  O103  1  0.57107000  0.85498400  0.93699000  1
  O  O104  1  0.57107000  0.14501600  0.43699000  1
  O  O105  1  0.92893000  0.35498400  0.93699000  1
  O  O106  1  0.07107000  0.35498400  0.56301000  1
  O  O107  1  0.42893000  0.14501600  0.06301000  1
  O  O108  1  0.57261700  0.01915400  0.62484700  1
  O  O109  1  0.92738300  0.48084600  0.12484700  1
  O  O110  1  0.07261700  0.48084600  0.37515300  1
  O  O111  1  0.42738300  0.01915400  0.87515300  1
  O  O112  1  0.42738300  0.98084600  0.37515300  1
  O  O113  1  0.07261700  0.51915400  0.87515300  1
  O  O114  1  0.92738300  0.51915400  0.62484700  1
  O  O115  1  0.57261700  0.98084600  0.12484700  1
  O  O116  1  0.40610500  0.62194000  0.79872400  1
  O  O117  1  0.09389500  0.87806000  0.29872400  1
  O  O118  1  0.90610500  0.87806000  0.20127600  1
  O  O119  1  0.59389500  0.62194000  0.70127600  1
  O  O120  1  0.59389500  0.37806000  0.20127600  1
  O  O121  1  0.90610500  0.12194000  0.70127600  1
  O  O122  1  0.09389500  0.12194000  0.79872400  1
  O  O123  1  0.40610500  0.37806000  0.29872400  1
