# generated using pymatgen
data_CsVSO6
_symmetry_space_group_name_H-M   'P 1'
_cell_length_a   6.66243200
_cell_length_b   10.74227000
_cell_length_c   17.97035600
_cell_angle_alpha   90.00000000
_cell_angle_beta   90.00000000
_cell_angle_gamma   90.00000000
_symmetry_Int_Tables_number   1
_chemical_formula_structural   CsVSO6
_chemical_formula_sum   'Cs8 V8 S8 O48'
_cell_volume   1286.13197070
_cell_formula_units_Z   8
loop_
 _symmetry_equiv_pos_site_id
 _symmetry_equiv_pos_as_xyz
  1  'x, y, z'
loop_
 _atom_site_type_symbol
 _atom_site_label
 _atom_site_symmetry_multiplicity
 _atom_site_fract_x
 _atom_site_fract_y
 _atom_site_fract_z
 _atom_site_occupancy
  Cs  Cs0  1  0.74941500  0.47661400  0.41161700  1
  Cs  Cs1  1  0.24941500  0.02338600  0.58838300  1
  Cs  Cs2  1  0.25058500  0.97661400  0.08838300  1
  Cs  Cs3  1  0.75058500  0.52338600  0.91161700  1
  Cs  Cs4  1  0.25058500  0.52338600  0.58838300  1
  Cs  Cs5  1  0.75058500  0.97661400  0.41161700  1
  Cs  Cs6  1  0.74941500  0.02338600  0.91161700  1
  Cs  Cs7  1  0.24941500  0.47661400  0.08838300  1
  V  V8  1  0.50608400  0.22399300  0.24774600  1
  V  V9  1  0.00608400  0.27600700  0.75225400  1
  V  V10  1  0.49391600  0.72399300  0.25225400  1
  V  V11  1  0.99391600  0.77600700  0.74774600  1
  V  V12  1  0.49391600  0.77600700  0.75225400  1
  V  V13  1  0.99391600  0.72399300  0.24774600  1
  V  V14  1  0.50608400  0.27600700  0.74774600  1
  V  V15  1  0.00608400  0.22399300  0.25225400  1
  S  S16  1  0.76234000  0.27960600  0.59752400  1
  S  S17  1  0.26234000  0.22039400  0.40247600  1
  S  S18  1  0.23766000  0.77960600  0.90247600  1
  S  S19  1  0.73766000  0.72039400  0.09752400  1
  S  S20  1  0.23766000  0.72039400  0.40247600  1
  S  S21  1  0.73766000  0.77960600  0.59752400  1
  S  S22  1  0.76234000  0.22039400  0.09752400  1
  S  S23  1  0.26234000  0.27960600  0.90247600  1
  O  O24  1  0.76963300  0.20645800  0.52968800  1
  O  O25  1  0.26963300  0.29354200  0.47031200  1
  O  O26  1  0.23036700  0.70645800  0.97031200  1
  O  O27  1  0.73036700  0.79354200  0.02968800  1
  O  O28  1  0.23036700  0.79354200  0.47031200  1
  O  O29  1  0.73036700  0.70645800  0.52968800  1
  O  O30  1  0.76963300  0.29354200  0.02968800  1
  O  O31  1  0.26963300  0.20645800  0.97031200  1
  O  O32  1  0.75714000  0.41425200  0.58708100  1
  O  O33  1  0.25714000  0.08574800  0.41291900  1
  O  O34  1  0.24286000  0.91425200  0.91291900  1
  O  O35  1  0.74286000  0.58574800  0.08708100  1
  O  O36  1  0.24286000  0.58574800  0.41291900  1
  O  O37  1  0.74286000  0.91425200  0.58708100  1
  O  O38  1  0.75714000  0.08574800  0.08708100  1
  O  O39  1  0.25714000  0.41425200  0.91291900  1
  O  O40  1  0.25812300  0.28304100  0.22754900  1
  O  O41  1  0.75812300  0.21695900  0.77245100  1
  O  O42  1  0.74187700  0.78304100  0.27245100  1
  O  O43  1  0.24187700  0.71695900  0.72754900  1
  O  O44  1  0.74187700  0.71695900  0.77245100  1
  O  O45  1  0.24187700  0.78304100  0.22754900  1
  O  O46  1  0.25812300  0.21695900  0.72754900  1
  O  O47  1  0.75812300  0.28304100  0.27245100  1
  O  O48  1  0.57680900  0.23842700  0.64277500  1
  O  O49  1  0.07680900  0.26157300  0.35722500  1
  O  O50  1  0.42319100  0.73842700  0.85722500  1
  O  O51  1  0.92319100  0.76157300  0.14277500  1
  O  O52  1  0.42319100  0.76157300  0.35722500  1
  O  O53  1  0.92319100  0.73842700  0.64277500  1
  O  O54  1  0.57680900  0.26157300  0.14277500  1
  O  O55  1  0.07680900  0.23842700  0.85722500  1
  O  O56  1  0.94643600  0.24461300  0.64509800  1
  O  O57  1  0.44643600  0.25538700  0.35490200  1
  O  O58  1  0.05356400  0.74461300  0.85490200  1
  O  O59  1  0.55356400  0.75538700  0.14509800  1
  O  O60  1  0.05356400  0.75538700  0.35490200  1
  O  O61  1  0.55356400  0.74461300  0.64509800  1
  O  O62  1  0.94643600  0.25538700  0.14509800  1
  O  O63  1  0.44643600  0.24461300  0.85490200  1
  O  O64  1  0.50268500  0.07328700  0.24573400  1
  O  O65  1  0.00268500  0.42671300  0.75426600  1
  O  O66  1  0.49731500  0.57328700  0.25426600  1
  O  O67  1  0.99731500  0.92671300  0.74573400  1
  O  O68  1  0.49731500  0.92671300  0.75426600  1
  O  O69  1  0.99731500  0.57328700  0.24573400  1
  O  O70  1  0.50268500  0.42671300  0.74573400  1
  O  O71  1  0.00268500  0.07328700  0.25426600  1
