# generated using pymatgen
data_NaDyP2H2CO7
_symmetry_space_group_name_H-M   'P 1'
_cell_length_a   15.16064100
_cell_length_b   6.61542000
_cell_length_c   6.71855826
_cell_angle_alpha   88.60080198
_cell_angle_beta   90.00000000
_cell_angle_gamma   90.00000000
_symmetry_Int_Tables_number   1
_chemical_formula_structural   NaDyP2H2CO7
_chemical_formula_sum   'Na4 Dy4 P8 H8 C4 O28'
_cell_volume   673.63021878
_cell_formula_units_Z   4
loop_
 _symmetry_equiv_pos_site_id
 _symmetry_equiv_pos_as_xyz
  1  'x, y, z'
loop_
 _atom_site_type_symbol
 _atom_site_label
 _atom_site_symmetry_multiplicity
 _atom_site_fract_x
 _atom_site_fract_y
 _atom_site_fract_z
 _atom_site_occupancy
  Na  Na0  1  0.52770400  0.86072700  0.20385500  1
  Na  Na1  1  0.02770400  0.63927300  0.79614500  1
  Na  Na2  1  0.47229600  0.13927300  0.79614500  1
  Na  Na3  1  0.97229600  0.36072700  0.20385500  1
  Dy  Dy4  1  0.39758400  0.40322800  0.32528300  1
  Dy  Dy5  1  0.89758400  0.09677200  0.67471700  1
  Dy  Dy6  1  0.60241600  0.59677200  0.67471700  1
  Dy  Dy7  1  0.10241600  0.90322800  0.32528300  1
  P  P8  1  0.59210000  0.36866700  0.18164500  1
  P  P9  1  0.09210000  0.13133300  0.81835500  1
  P  P10  1  0.40790000  0.63133300  0.81835500  1
  P  P11  1  0.90790000  0.86866700  0.18164500  1
  P  P12  1  0.33899400  0.89755500  0.46748200  1
  P  P13  1  0.83899400  0.60244500  0.53251800  1
  P  P14  1  0.66100600  0.10244500  0.53251800  1
  P  P15  1  0.16100600  0.39755500  0.46748200  1
  H  H16  1  0.70052400  0.10610900  0.17774000  1
  H  H17  1  0.20052400  0.39389100  0.82226000  1
  H  H18  1  0.29947600  0.89389100  0.82226000  1
  H  H19  1  0.79947600  0.60610900  0.17774000  1
  H  H20  1  0.73876600  0.32140300  0.30274900  1
  H  H21  1  0.23876600  0.17859700  0.69725100  1
  H  H22  1  0.26123400  0.67859700  0.69725100  1
  H  H23  1  0.76123400  0.82140300  0.30274900  1
  C  C24  1  0.68183600  0.22053000  0.28681500  1
  C  C25  1  0.18183600  0.27947000  0.71318500  1
  C  C26  1  0.31816400  0.77947000  0.71318500  1
  C  C27  1  0.81816400  0.72053000  0.28681500  1
  O  O28  1  0.39608800  0.75307600  0.34765000  1
  O  O29  1  0.89608800  0.74692400  0.65235000  1
  O  O30  1  0.60391200  0.24692400  0.65235000  1
  O  O31  1  0.10391200  0.25307600  0.34765000  1
  O  O32  1  0.55778000  0.52322200  0.33368800  1
  O  O33  1  0.05778000  0.97677800  0.66631200  1
  O  O34  1  0.44222000  0.47677800  0.66631200  1
  O  O35  1  0.94222000  0.02322200  0.33368800  1
  O  O36  1  0.38781700  0.09838600  0.50249000  1
  O  O37  1  0.88781700  0.40161400  0.49751000  1
  O  O38  1  0.61218300  0.90161400  0.49751000  1
  O  O39  1  0.11218300  0.59838600  0.50249000  1
  O  O40  1  0.24710900  0.93379300  0.37568300  1
  O  O41  1  0.74710900  0.56620700  0.62431700  1
  O  O42  1  0.75289100  0.06620700  0.62431700  1
  O  O43  1  0.25289100  0.43379300  0.37568300  1
  O  O44  1  0.51413000  0.22258900  0.14040700  1
  O  O45  1  0.01413000  0.27741100  0.85959300  1
  O  O46  1  0.48587000  0.77741100  0.85959300  1
  O  O47  1  0.98587000  0.72258900  0.14040700  1
  O  O48  1  0.62631600  0.47874300  0.99285300  1
  O  O49  1  0.12631600  0.02125700  0.00714700  1
  O  O50  1  0.37368400  0.52125700  0.00714700  1
  O  O51  1  0.87368400  0.97874300  0.99285300  1
  O  O52  1  0.33872000  0.17004800  0.08967600  1
  O  O53  1  0.83872000  0.32995200  0.91032400  1
  O  O54  1  0.66128000  0.82995200  0.91032400  1
  O  O55  1  0.16128000  0.67004800  0.08967600  1
