# generated using pymatgen
data_K2BiBr5O2
_symmetry_space_group_name_H-M   'P 1'
_cell_length_a   8.56053800
_cell_length_b   14.06513200
_cell_length_c   21.36925100
_cell_angle_alpha   90.00000000
_cell_angle_beta   90.00000000
_cell_angle_gamma   90.00000000
_symmetry_Int_Tables_number   1
_chemical_formula_structural   K2BiBr5O2
_chemical_formula_sum   'K16 Bi8 Br40 O16'
_cell_volume   2572.96673864
_cell_formula_units_Z   8
loop_
 _symmetry_equiv_pos_site_id
 _symmetry_equiv_pos_as_xyz
  1  'x, y, z'
loop_
 _atom_site_type_symbol
 _atom_site_label
 _atom_site_symmetry_multiplicity
 _atom_site_fract_x
 _atom_site_fract_y
 _atom_site_fract_z
 _atom_site_occupancy
  K  K0  1  0.98952200  0.34862400  0.75000000  1
  K  K1  1  0.48952200  0.15137600  0.75000000  1
  K  K2  1  0.01047800  0.65137600  0.25000000  1
  K  K3  1  0.51047800  0.84862400  0.25000000  1
  K  K4  1  0.82461600  0.65686800  0.75000000  1
  K  K5  1  0.32461600  0.84313200  0.75000000  1
  K  K6  1  0.17538400  0.34313200  0.25000000  1
  K  K7  1  0.67538400  0.15686800  0.25000000  1
  K  K8  1  0.04065200  0.30354600  0.52063400  1
  K  K9  1  0.54065200  0.19645400  0.97936600  1
  K  K10  1  0.95934800  0.69645400  0.02063400  1
  K  K11  1  0.45934800  0.80354600  0.47936600  1
  K  K12  1  0.95934800  0.69645400  0.47936600  1
  K  K13  1  0.45934800  0.80354600  0.02063400  1
  K  K14  1  0.04065200  0.30354600  0.97936600  1
  K  K15  1  0.54065200  0.19645400  0.52063400  1
  Bi  Bi16  1  0.90263700  0.01432100  0.64140300  1
  Bi  Bi17  1  0.40263700  0.48567900  0.85859700  1
  Bi  Bi18  1  0.09736300  0.98567900  0.14140300  1
  Bi  Bi19  1  0.59736300  0.51432100  0.35859700  1
  Bi  Bi20  1  0.09736300  0.98567900  0.35859700  1
  Bi  Bi21  1  0.59736300  0.51432100  0.14140300  1
  Bi  Bi22  1  0.90263700  0.01432100  0.85859700  1
  Bi  Bi23  1  0.40263700  0.48567900  0.64140300  1
  Br  Br24  1  0.61765000  0.97274800  0.57718000  1
  Br  Br25  1  0.11765000  0.52725200  0.92282000  1
  Br  Br26  1  0.38235000  0.02725200  0.07718000  1
  Br  Br27  1  0.88235000  0.47274800  0.42282000  1
  Br  Br28  1  0.38235000  0.02725200  0.42282000  1
  Br  Br29  1  0.88235000  0.47274800  0.07718000  1
  Br  Br30  1  0.61765000  0.97274800  0.92282000  1
  Br  Br31  1  0.11765000  0.52725200  0.57718000  1
  Br  Br32  1  0.12149400  0.07187300  0.55845400  1
  Br  Br33  1  0.62149400  0.42812700  0.94154600  1
  Br  Br34  1  0.87850600  0.92812700  0.05845400  1
  Br  Br35  1  0.37850600  0.57187300  0.44154600  1
  Br  Br36  1  0.87850600  0.92812700  0.44154600  1
  Br  Br37  1  0.37850600  0.57187300  0.05845400  1
  Br  Br38  1  0.12149400  0.07187300  0.94154600  1
  Br  Br39  1  0.62149400  0.42812700  0.55845400  1
  Br  Br40  1  0.79000200  0.20279400  0.65088400  1
  Br  Br41  1  0.29000200  0.29720600  0.84911600  1
  Br  Br42  1  0.20999800  0.79720600  0.15088400  1
  Br  Br43  1  0.70999800  0.70279400  0.34911600  1
  Br  Br44  1  0.20999800  0.79720600  0.34911600  1
  Br  Br45  1  0.70999800  0.70279400  0.15088400  1
  Br  Br46  1  0.79000200  0.20279400  0.84911600  1
  Br  Br47  1  0.29000200  0.29720600  0.65088400  1
  Br  Br48  1  0.02307400  0.81457600  0.63290100  1
  Br  Br49  1  0.52307400  0.68542400  0.86709900  1
  Br  Br50  1  0.97692600  0.18542400  0.13290100  1
  Br  Br51  1  0.47692600  0.31457600  0.36709900  1
  Br  Br52  1  0.97692600  0.18542400  0.36709900  1
  Br  Br53  1  0.47692600  0.31457600  0.13290100  1
  Br  Br54  1  0.02307400  0.81457600  0.86709900  1
  Br  Br55  1  0.52307400  0.68542400  0.63290100  1
  Br  Br56  1  0.69919000  0.93441100  0.75000000  1
  Br  Br57  1  0.19919000  0.56558900  0.75000000  1
  Br  Br58  1  0.30081000  0.06558900  0.25000000  1
  Br  Br59  1  0.80081000  0.43441100  0.25000000  1
  Br  Br60  1  0.11141000  0.05238400  0.75000000  1
  Br  Br61  1  0.61141000  0.44761600  0.75000000  1
  Br  Br62  1  0.88859000  0.94761600  0.25000000  1
  Br  Br63  1  0.38859000  0.55238400  0.25000000  1
  O  O64  1  0.96620600  0.51300900  0.67677700  1
  O  O65  1  0.46620600  0.98699100  0.82322300  1
  O  O66  1  0.03379400  0.48699100  0.17677700  1
  O  O67  1  0.53379400  0.01300900  0.32322300  1
  O  O68  1  0.03379400  0.48699100  0.32322300  1
  O  O69  1  0.53379400  0.01300900  0.17677700  1
  O  O70  1  0.96620600  0.51300900  0.82322300  1
  O  O71  1  0.46620600  0.98699100  0.67677700  1
  O  O72  1  0.68230200  0.70278400  0.54315700  1
  O  O73  1  0.18230200  0.79721600  0.95684300  1
  O  O74  1  0.31769800  0.29721600  0.04315700  1
  O  O75  1  0.81769800  0.20278400  0.45684300  1
  O  O76  1  0.31769800  0.29721600  0.45684300  1
  O  O77  1  0.81769800  0.20278400  0.04315700  1
  O  O78  1  0.68230200  0.70278400  0.95684300  1
  O  O79  1  0.18230200  0.79721600  0.54315700  1
