# generated using pymatgen
data_KMgV5(H8O11)2
_symmetry_space_group_name_H-M   'P 1'
_cell_length_a   8.97803741
_cell_length_b   10.83612570
_cell_length_c   11.21788013
_cell_angle_alpha   66.22247357
_cell_angle_beta   73.28692753
_cell_angle_gamma   73.75503953
_symmetry_Int_Tables_number   1
_chemical_formula_structural   KMgV5(H8O11)2
_chemical_formula_sum   'K2 Mg2 V10 H32 O44'
_cell_volume   939.67776128
_cell_formula_units_Z   2
loop_
 _symmetry_equiv_pos_site_id
 _symmetry_equiv_pos_as_xyz
  1  'x, y, z'
loop_
 _atom_site_type_symbol
 _atom_site_label
 _atom_site_symmetry_multiplicity
 _atom_site_fract_x
 _atom_site_fract_y
 _atom_site_fract_z
 _atom_site_occupancy
  K  K0  1  0.66322400  0.10524900  0.20291600  1
  K  K1  1  0.33677600  0.89475100  0.79708400  1
  Mg  Mg2  1  0.21891500  0.26927200  0.21162200  1
  Mg  Mg3  1  0.78108500  0.73072800  0.78837800  1
  V  V4  1  0.32944000  0.48831600  0.48404400  1
  V  V5  1  0.67056000  0.51168400  0.51595600  1
  V  V6  1  0.60772300  0.22121400  0.54812200  1
  V  V7  1  0.39227700  0.77878600  0.45187800  1
  V  V8  1  0.65152900  0.45019400  0.26876900  1
  V  V9  1  0.34847100  0.54980600  0.73123100  1
  V  V10  1  0.29823800  0.25848700  0.76166700  1
  V  V11  1  0.70176200  0.74151300  0.23833300  1
  V  V12  1  0.37536400  0.71610700  0.20267100  1
  V  V13  1  0.62463600  0.28389300  0.79732900  1
  H  H14  1  0.13757700  0.49203600  0.30261800  1
  H  H15  1  0.86242300  0.50796400  0.69738200  1
  H  H16  1  0.98615300  0.47552300  0.26880800  1
  H  H17  1  0.01384700  0.52447700  0.73119200  1
  H  H18  1  0.32972100  0.01974100  0.18330700  1
  H  H19  1  0.67027900  0.98025900  0.81669300  1
  H  H20  1  0.38777700  0.13022300  0.04160100  1
  H  H21  1  0.61222300  0.86977700  0.95839900  1
  H  H22  1  0.07628400  0.83475300  0.37244400  1
  H  H23  1  0.92371600  0.16524700  0.62755600  1
  H  H24  1  0.92965000  0.76217600  0.42808300  1
  H  H25  1  0.07035000  0.23782400  0.57191700  1
  H  H26  1  0.04416100  0.11098000  0.03716200  1
  H  H27  1  0.95583900  0.88902000  0.96283800  1
  H  H28  1  0.01546100  0.97067000  0.14486500  1
  H  H29  1  0.98453900  0.02933000  0.85513500  1
  H  H30  1  0.12025800  0.38186000  0.96768400  1
  H  H31  1  0.87974200  0.61814000  0.03231600  1
  H  H32  1  0.97148200  0.34321300  0.08740700  1
  H  H33  1  0.02851800  0.65678700  0.91259300  1
  H  H34  1  0.39223200  0.24276900  0.39174000  1
  H  H35  1  0.60776800  0.75723100  0.60826000  1
  H  H36  1  0.32536100  0.10308200  0.43902100  1
  H  H37  1  0.67463900  0.89691800  0.56097900  1
  H  H38  1  0.42152900  0.44717200  0.12502300  1
  H  H39  1  0.57847100  0.55282800  0.87497700  1
  H  H40  1  0.42952800  0.40547000  0.00108700  1
  H  H41  1  0.57047200  0.59453000  0.99891300  1
  H  H42  1  0.98771900  0.11400500  0.31945200  1
  H  H43  1  0.01228100  0.88599500  0.68054800  1
  H  H44  1  0.03511200  0.14365900  0.43374000  1
  H  H45  1  0.96488800  0.85634100  0.56626000  1
  O  O46  1  0.69490000  0.10457200  0.47905800  1
  O  O47  1  0.30510000  0.89542800  0.52094200  1
  O  O48  1  0.70782500  0.17581300  0.68828600  1
  O  O49  1  0.29217500  0.82418700  0.31171400  1
  O  O50  1  0.47915900  0.35255800  0.40947200  1
  O  O51  1  0.52084100  0.64744200  0.59052800  1
  O  O52  1  0.24495800  0.58116900  0.34285900  1
  O  O53  1  0.75504200  0.41883100  0.65714100  1
  O  O54  1  0.20717000  0.37547600  0.59489500  1
  O  O55  1  0.79283000  0.62452400  0.40510500  1
  O  O56  1  0.48037000  0.40463100  0.61918600  1
  O  O57  1  0.51963000  0.59536900  0.38081400  1
  O  O58  1  0.74754500  0.33568100  0.19829400  1
  O  O59  1  0.25245500  0.66431900  0.80170600  1
  O  O60  1  0.78370800  0.57608200  0.19678900  1
  O  O61  1  0.21629200  0.42391800  0.80321100  1
  O  O62  1  0.50215700  0.55475900  0.16375100  1
  O  O63  1  0.49784300  0.44524100  0.83624900  1
  O  O64  1  0.42895000  0.15684800  0.65684800  1
  O  O65  1  0.57105000  0.84315200  0.34315200  1
  O  O66  1  0.55500000  0.79716000  0.13038900  1
  O  O67  1  0.44500000  0.20284000  0.86961100  1
  O  O68  1  0.16301500  0.16512400  0.85426200  1
  O  O69  1  0.83698500  0.83487600  0.14573800  1
  O  O70  1  0.26564400  0.62754400  0.56141100  1
  O  O71  1  0.73435600  0.37245600  0.43858900  1
  O  O72  1  0.27249300  0.79005500  0.08560300  1
  O  O73  1  0.72750700  0.20994500  0.91439700  1
  O  O74  1  0.09356100  0.42942400  0.28369000  1
  O  O75  1  0.90643900  0.57057600  0.71631000  1
  O  O76  1  0.36065800  0.11016800  0.13919300  1
  O  O77  1  0.63934200  0.88983200  0.86080700  1
  O  O78  1  0.96260600  0.84647000  0.41433200  1
  O  O79  1  0.03739400  0.15353000  0.58566800  1
  O  O80  1  0.98838400  0.06896300  0.12857800  1
  O  O81  1  0.01161600  0.93103700  0.87142200  1
  O  O82  1  0.08395400  0.34816800  0.06587700  1
  O  O83  1  0.91604600  0.65183200  0.93412300  1
  O  O84  1  0.35468700  0.18320500  0.36218400  1
  O  O85  1  0.64531300  0.81679500  0.63781600  1
  O  O86  1  0.39763900  0.37803200  0.09974300  1
  O  O87  1  0.60236100  0.62196800  0.90025700  1
  O  O88  1  0.06666300  0.14334500  0.34098700  1
  O  O89  1  0.93333700  0.85665500  0.65901300  1
