# generated using pymatgen
data_Na6Te(W3O23)2
_symmetry_space_group_name_H-M   'P 1'
_cell_length_a   9.50452800
_cell_length_b   9.77594829
_cell_length_c   11.23383522
_cell_angle_alpha   81.20178657
_cell_angle_beta   84.17504242
_cell_angle_gamma   69.68281417
_symmetry_Int_Tables_number   1
_chemical_formula_structural   Na6Te(W3O23)2
_chemical_formula_sum   'Na6 Te1 W6 O46'
_cell_volume   966.02308775
_cell_formula_units_Z   1
loop_
 _symmetry_equiv_pos_site_id
 _symmetry_equiv_pos_as_xyz
  1  'x, y, z'
loop_
 _atom_site_type_symbol
 _atom_site_label
 _atom_site_symmetry_multiplicity
 _atom_site_fract_x
 _atom_site_fract_y
 _atom_site_fract_z
 _atom_site_occupancy
  Na  Na0  1  0.14560500  0.57103700  0.91788300  1
  Na  Na1  1  0.85439500  0.42896300  0.08211700  1
  Na  Na2  1  0.30898900  0.05644800  0.20489300  1
  Na  Na3  1  0.69101100  0.94355200  0.79510700  1
  Na  Na4  1  0.70277900  0.46418300  0.42034500  1
  Na  Na5  1  0.29722100  0.53581700  0.57965500  1
  Te  Te6  1  0.00000000  0.00000000  0.00000000  1
  W  W7  1  0.02279900  0.81860600  0.28546700  1
  W  W8  1  0.97720100  0.18139400  0.71453300  1
  W  W9  1  0.30500400  0.71524400  0.07431800  1
  W  W10  1  0.69499600  0.28475600  0.92568200  1
  W  W11  1  0.28646500  0.89487800  0.78568800  1
  W  W12  1  0.71353500  0.10512200  0.21431200  1
  O  O13  1  0.04985800  0.79478500  0.07207200  1
  O  O14  1  0.95014200  0.20521500  0.92792800  1
  O  O15  1  0.97123400  0.04767000  0.16571700  1
  O  O16  1  0.02876600  0.95233000  0.83428300  1
  O  O17  1  0.22117900  0.95661400  0.98882300  1
  O  O18  1  0.77882100  0.04338600  0.01117700  1
  O  O19  1  0.80577500  0.89679000  0.26727800  1
  O  O20  1  0.19422500  0.10321000  0.73272200  1
  O  O21  1  0.23294900  0.80217600  0.22361900  1
  O  O22  1  0.76705100  0.19782400  0.77638100  1
  O  O23  1  0.04179500  0.63165600  0.32840000  1
  O  O24  1  0.95820500  0.36834400  0.67160000  1
  O  O25  1  0.03812100  0.88163500  0.41993500  1
  O  O26  1  0.96187900  0.11836500  0.58006500  1
  O  O27  1  0.49934300  0.70110800  0.08577000  1
  O  O28  1  0.50065700  0.29889200  0.91423000  1
  O  O29  1  0.29722100  0.53648000  0.11171800  1
  O  O30  1  0.70277900  0.46352000  0.88828200  1
  O  O31  1  0.47347400  0.89391400  0.78928200  1
  O  O32  1  0.52652600  0.10608600  0.21071800  1
  O  O33  1  0.29739100  0.71566000  0.90056800  1
  O  O34  1  0.70260900  0.28434000  0.09943200  1
  O  O35  1  0.28491300  0.81294300  0.65640900  1
  O  O36  1  0.71508700  0.18705700  0.34359100  1
  O  O37  1  0.01226200  0.23471200  0.35156300  1
  O  O38  1  0.98773800  0.76528800  0.64843700  1
  O  O39  1  0.30618500  0.15761900  0.98611400  1
  O  O40  1  0.69381500  0.84238100  0.01388600  1
  O  O41  1  0.45215700  0.63635700  0.44385900  1
  O  O42  1  0.54784300  0.36364300  0.55614100  1
  O  O43  1  0.04455600  0.62961300  0.65962200  1
  O  O44  1  0.95544400  0.37038700  0.34037800  1
  O  O45  1  0.86755200  0.67813800  0.91350600  1
  O  O46  1  0.13244800  0.32186200  0.08649400  1
  O  O47  1  0.80266900  0.72141500  0.01945800  1
  O  O48  1  0.19733100  0.27858500  0.98054200  1
  O  O49  1  0.58677100  0.23246900  0.61775100  1
  O  O50  1  0.41322900  0.76753100  0.38224900  1
  O  O51  1  0.71137800  0.72570900  0.60887200  1
  O  O52  1  0.28862200  0.27429100  0.39112800  1
  O  O53  1  0.35392300  0.45058900  0.79066000  1
  O  O54  1  0.64607700  0.54941100  0.20934000  1
  O  O55  1  0.33548800  0.37829600  0.38147200  1
  O  O56  1  0.66451200  0.62170400  0.61852800  1
  O  O57  1  0.48074300  0.19896600  0.68139800  1
  O  O58  1  0.51925700  0.80103400  0.31860200  1
