# generated using pymatgen
data_Na3IrS2N2(Cl2O5)2
_symmetry_space_group_name_H-M   'P 1'
_cell_length_a   9.67699600
_cell_length_b   7.32737100
_cell_length_c   12.98257072
_cell_angle_alpha   72.17395731
_cell_angle_beta   90.00000000
_cell_angle_gamma   90.00000000
_symmetry_Int_Tables_number   1
_chemical_formula_structural   Na3IrS2N2(Cl2O5)2
_chemical_formula_sum   'Na6 Ir2 S4 N4 Cl8 O20'
_cell_volume   876.35886546
_cell_formula_units_Z   2
loop_
 _symmetry_equiv_pos_site_id
 _symmetry_equiv_pos_as_xyz
  1  'x, y, z'
loop_
 _atom_site_type_symbol
 _atom_site_label
 _atom_site_symmetry_multiplicity
 _atom_site_fract_x
 _atom_site_fract_y
 _atom_site_fract_z
 _atom_site_occupancy
  Na  Na0  1  0.20208700  0.04582900  0.23791600  1
  Na  Na1  1  0.70208700  0.95417100  0.26208400  1
  Na  Na2  1  0.79791300  0.95417100  0.76208400  1
  Na  Na3  1  0.29791300  0.04582900  0.73791600  1
  Na  Na4  1  0.00000000  0.50000000  0.50000000  1
  Na  Na5  1  0.50000000  0.50000000  0.00000000  1
  Ir  Ir6  1  0.00000000  0.00000000  0.50000000  1
  Ir  Ir7  1  0.50000000  0.00000000  0.00000000  1
  S  S8  1  0.23426500  0.83176700  0.52097100  1
  S  S9  1  0.73426500  0.16823300  0.97902900  1
  S  S10  1  0.76573500  0.16823300  0.47902900  1
  S  S11  1  0.26573500  0.83176700  0.02097100  1
  N  N12  1  0.04227900  0.51976700  0.87624800  1
  N  N13  1  0.54227900  0.48023300  0.62375200  1
  N  N14  1  0.95772100  0.48023300  0.12375200  1
  N  N15  1  0.45772100  0.51976700  0.37624800  1
  Cl  Cl16  1  0.89732500  0.73232900  0.62030000  1
  Cl  Cl17  1  0.39732500  0.26767100  0.87970000  1
  Cl  Cl18  1  0.10267500  0.26767100  0.37970000  1
  Cl  Cl19  1  0.60267500  0.73232900  0.12030000  1
  Cl  Cl20  1  0.03477000  0.13024900  0.64401700  1
  Cl  Cl21  1  0.53477000  0.86975100  0.85598300  1
  Cl  Cl22  1  0.96523000  0.86975100  0.35598300  1
  Cl  Cl23  1  0.46523000  0.13024900  0.14401700  1
  O  O24  1  0.29891100  0.90876500  0.41419000  1
  O  O25  1  0.79891100  0.09123500  0.08581000  1
  O  O26  1  0.70108900  0.09123500  0.58581000  1
  O  O27  1  0.20108900  0.90876500  0.91419000  1
  O  O28  1  0.30173800  0.88674100  0.60816200  1
  O  O29  1  0.80173800  0.11325900  0.89183800  1
  O  O30  1  0.69826200  0.11325900  0.39183800  1
  O  O31  1  0.19826200  0.88674100  0.10816200  1
  O  O32  1  0.19921100  0.62668100  0.54977200  1
  O  O33  1  0.69921100  0.37331900  0.95022800  1
  O  O34  1  0.80078900  0.37331900  0.45022800  1
  O  O35  1  0.30078900  0.62668100  0.04977200  1
  O  O36  1  0.45036500  0.37043600  0.61797300  1
  O  O37  1  0.95036500  0.62956400  0.88202700  1
  O  O38  1  0.54963500  0.62956400  0.38202700  1
  O  O39  1  0.04963500  0.37043600  0.11797300  1
  O  O40  1  0.55242600  0.65289000  0.59113200  1
  O  O41  1  0.05242600  0.34711000  0.90886800  1
  O  O42  1  0.44757400  0.34711000  0.40886800  1
  O  O43  1  0.94757400  0.65289000  0.09113200  1
