# generated using pymatgen
data_Cd2Cl4O5
_symmetry_space_group_name_H-M   'P 1'
_cell_length_a   11.65937000
_cell_length_b   9.98567100
_cell_length_c   14.42346126
_cell_angle_alpha   51.19070115
_cell_angle_beta   90.00000000
_cell_angle_gamma   90.00000000
_symmetry_Int_Tables_number   1
_chemical_formula_structural   Cd2Cl4O5
_chemical_formula_sum   'Cd8 Cl16 O20'
_cell_volume   1308.55199218
_cell_formula_units_Z   4
loop_
 _symmetry_equiv_pos_site_id
 _symmetry_equiv_pos_as_xyz
  1  'x, y, z'
loop_
 _atom_site_type_symbol
 _atom_site_label
 _atom_site_symmetry_multiplicity
 _atom_site_fract_x
 _atom_site_fract_y
 _atom_site_fract_z
 _atom_site_occupancy
  Cd  Cd0  1  0.82703900  0.54146300  0.54521700  1
  Cd  Cd1  1  0.67296100  0.54146300  0.04521700  1
  Cd  Cd2  1  0.17296100  0.45853700  0.45478300  1
  Cd  Cd3  1  0.32703900  0.45853700  0.95478300  1
  Cd  Cd4  1  0.91629300  0.49513600  0.30341000  1
  Cd  Cd5  1  0.58370700  0.49513600  0.80341000  1
  Cd  Cd6  1  0.08370700  0.50486400  0.69659000  1
  Cd  Cd7  1  0.41629300  0.50486400  0.19659000  1
  Cl  Cl8  1  0.74258300  0.50514900  0.40288300  1
  Cl  Cl9  1  0.75741700  0.50514900  0.90288300  1
  Cl  Cl10  1  0.25741700  0.49485100  0.59711700  1
  Cl  Cl11  1  0.24258300  0.49485100  0.09711700  1
  Cl  Cl12  1  0.93702500  0.74066600  0.56202700  1
  Cl  Cl13  1  0.56297500  0.74066600  0.06202700  1
  Cl  Cl14  1  0.06297500  0.25933400  0.43797300  1
  Cl  Cl15  1  0.43702500  0.25933400  0.93797300  1
  Cl  Cl16  1  0.87471500  0.51962500  0.12642300  1
  Cl  Cl17  1  0.62528500  0.51962500  0.62642300  1
  Cl  Cl18  1  0.12528500  0.48037500  0.87357700  1
  Cl  Cl19  1  0.37471500  0.48037500  0.37357700  1
  Cl  Cl20  1  0.02821200  0.70089600  0.32008700  1
  Cl  Cl21  1  0.47178800  0.70089600  0.82008700  1
  Cl  Cl22  1  0.97178800  0.29910400  0.67991300  1
  Cl  Cl23  1  0.52821200  0.29910400  0.17991300  1
  O  O24  1  0.75740600  0.01729000  0.24102200  1
  O  O25  1  0.74259400  0.01729000  0.74102200  1
  O  O26  1  0.24259400  0.98271000  0.75897800  1
  O  O27  1  0.25740600  0.98271000  0.25897800  1
  O  O28  1  0.85367300  0.01227300  0.99303000  1
  O  O29  1  0.64632700  0.01227300  0.49303000  1
  O  O30  1  0.14632700  0.98772700  0.00697000  1
  O  O31  1  0.35367300  0.98772700  0.50697000  1
  O  O32  1  0.11183200  0.84453600  0.04558000  1
  O  O33  1  0.38816800  0.84453600  0.54558000  1
  O  O34  1  0.88816800  0.15546400  0.95442000  1
  O  O35  1  0.61183200  0.15546400  0.45442000  1
  O  O36  1  0.19512600  0.99626000  0.32639800  1
  O  O37  1  0.30487400  0.99626000  0.82639800  1
  O  O38  1  0.80487400  0.00374000  0.67360200  1
  O  O39  1  0.69512600  0.00374000  0.17360200  1
  O  O40  1  0.85778300  0.08406400  0.20411600  1
  O  O41  1  0.64221700  0.08406400  0.70411600  1
  O  O42  1  0.14221700  0.91593600  0.79588400  1
  O  O43  1  0.35778300  0.91593600  0.29588400  1
