# generated using pymatgen
data_AlH12(CN)3
_symmetry_space_group_name_H-M   'P 1'
_cell_length_a   9.64346954
_cell_length_b   9.64346954
_cell_length_c   17.25226090
_cell_angle_alpha   84.01278669
_cell_angle_beta   84.01278669
_cell_angle_gamma   82.48657774
_symmetry_Int_Tables_number   1
_chemical_formula_structural   AlH12(CN)3
_chemical_formula_sum   'Al8 H96 C24 N24'
_cell_volume   1575.24609385
_cell_formula_units_Z   8
loop_
 _symmetry_equiv_pos_site_id
 _symmetry_equiv_pos_as_xyz
  1  'x, y, z'
loop_
 _atom_site_type_symbol
 _atom_site_label
 _atom_site_symmetry_multiplicity
 _atom_site_fract_x
 _atom_site_fract_y
 _atom_site_fract_z
 _atom_site_occupancy
  Al  Al0  1  0.69587800  0.30412200  0.75000000  1
  Al  Al1  1  0.30412200  0.69587800  0.25000000  1
  Al  Al2  1  0.46372200  0.53627800  0.75000000  1
  Al  Al3  1  0.53627800  0.46372200  0.25000000  1
  Al  Al4  1  0.77839100  0.11069500  0.62704600  1
  Al  Al5  1  0.88930500  0.22160900  0.87295400  1
  Al  Al6  1  0.22160900  0.88930500  0.37295400  1
  Al  Al7  1  0.11069500  0.77839100  0.12704500  1
  H  H8  1  0.31948600  0.46241800  0.64515600  1
  H  H9  1  0.53758200  0.68051400  0.85484400  1
  H  H10  1  0.68051400  0.53758200  0.35484400  1
  H  H11  1  0.46241800  0.31948600  0.14515600  1
  H  H12  1  0.25356100  0.63320800  0.67079900  1
  H  H13  1  0.36679200  0.74643900  0.82920100  1
  H  H14  1  0.74643900  0.36679200  0.32920100  1
  H  H15  1  0.63320800  0.25356100  0.17079900  1
  H  H16  1  0.20883700  0.48575000  0.73267500  1
  H  H17  1  0.51425000  0.79116300  0.76732500  1
  H  H18  1  0.79116300  0.51425000  0.26732500  1
  H  H19  1  0.48575000  0.20883700  0.23267500  1
  H  H20  1  0.93649000  0.89833700  0.69438300  1
  H  H21  1  0.10166300  0.06351000  0.80561700  1
  H  H22  1  0.06351000  0.10166300  0.30561700  1
  H  H23  1  0.89833700  0.93649000  0.19438300  1
  H  H24  1  0.84123600  0.84475000  0.62348700  1
  H  H25  1  0.15525000  0.15876400  0.87651300  1
  H  H26  1  0.15876400  0.15525000  0.37651300  1
  H  H27  1  0.84475000  0.84123600  0.12348700  1
  H  H28  1  0.75612600  0.87505900  0.71740000  1
  H  H29  1  0.12494100  0.24387400  0.78260000  1
  H  H30  1  0.24387400  0.12494100  0.28260000  1
  H  H31  1  0.87505900  0.75612600  0.21740000  1
  H  H32  1  0.77934300  0.24749500  0.48639700  1
  H  H33  1  0.75250500  0.22065700  0.01360300  1
  H  H34  1  0.22065700  0.75250500  0.51360300  1
  H  H35  1  0.24749500  0.77934300  0.98639700  1
  H  H36  1  0.70127700  0.09056300  0.49053100  1
  H  H37  1  0.90943700  0.29872300  0.00946900  1
  H  H38  1  0.29872300  0.90943700  0.50946900  1
  H  H39  1  0.09056300  0.70127700  0.99053100  1
  H  H40  1  0.88557300  0.08318600  0.48508900  1
  H  H41  1  0.91681400  0.11442700  0.01491100  1
  H  H42  1  0.11442700  0.91681400  0.51491100  1
  H  H43  1  0.08318600  0.88557300  0.98508900  1
  H  H44  1  0.43632700  0.29279600  0.81168500  1
  H  H45  1  0.70720400  0.56367300  0.68831500  1
  H  H46  1  0.56367300  0.70720400  0.18831500  1
  H  H47  1  0.29279600  0.43632700  0.31168500  1
  H  H48  1  0.55715300  0.27450700  0.92065900  1
  H  H49  1  0.72549300  0.44284700  0.57934100  1
  H  H50  1  0.44284700  0.72549300  0.07934100  1
  H  H51  1  0.27450700  0.55715300  0.42065900  1
  H  H52  1  0.55838500  0.26966300  0.63690000  1
  H  H53  1  0.73033700  0.44161500  0.86310000  1
  H  H54  1  0.44161500  0.73033700  0.36310000  1
  H  H55  1  0.26966300  0.55838500  0.13690000  1
  H  H56  1  0.41307500  0.15891800  0.73560100  1
  H  H57  1  0.84108200  0.58692500  0.76439900  1
  H  H58  1  0.58692500  0.84108200  0.26439900  1
  H  H59  1  0.15891800  0.41307500  0.23560100  1
  H  H60  1  0.80779400  0.04876700  0.79276900  1
  H  H61  1  0.95123300  0.19220600  0.70723100  1
  H  H62  1  0.19220600  0.95123300  0.20723100  1
  H  H63  1  0.04876700  0.80779400  0.29276900  1
  H  H64  1  0.57327900  0.04856700  0.83858800  1
  H  H65  1  0.95143300  0.42672100  0.66141200  1
  H  H66  1  0.42672100  0.95143300  0.16141200  1
  H  H67  1  0.04856700  0.57327900  0.33858800  1
  H  H68  1  0.33814600  0.51980600  0.91685300  1
  H  H69  1  0.48019400  0.66185400  0.58314700  1
  H  H70  1  0.66185400  0.48019400  0.08314700  1
  H  H71  1  0.51980600  0.33814600  0.41685300  1
  H  H72  1  0.39120800  0.41316700  0.00128400  1
  H  H73  1  0.58683300  0.60879200  0.49871600  1
  H  H74  1  0.60879200  0.58683300  0.99871600  1
  H  H75  1  0.41316700  0.39120800  0.50128400  1
  H  H76  1  0.30290800  0.34066400  0.93087200  1
  H  H77  1  0.65933600  0.69709200  0.56912800  1
  H  H78  1  0.69709200  0.65933600  0.06912800  1
  H  H79  1  0.34066400  0.30290800  0.43087200  1
  H  H80  1  0.41523000  0.10496500  0.59858100  1
  H  H81  1  0.89503500  0.58477000  0.90141900  1
  H  H82  1  0.58477000  0.89503500  0.40141900  1
  H  H83  1  0.10496500  0.41523000  0.09858100  1
  H  H84  1  0.36092000  0.97453400  0.67335000  1
  H  H85  1  0.02546600  0.63908000  0.82665000  1
  H  H86  1  0.63908000  0.02546600  0.32665000  1
  H  H87  1  0.97453400  0.36092000  0.17335000  1
  H  H88  1  0.53386100  0.95260000  0.62593800  1
  H  H89  1  0.04740000  0.46613900  0.87406200  1
  H  H90  1  0.46613900  0.04740000  0.37406200  1
  H  H91  1  0.95260000  0.53386100  0.12593800  1
  H  H92  1  0.75154900  0.86256800  0.88554400  1
  H  H93  1  0.13743200  0.24845100  0.61445600  1
  H  H94  1  0.24845100  0.13743200  0.11445600  1
  H  H95  1  0.86256800  0.75154900  0.38554400  1
  H  H96  1  0.60031900  0.89868200  0.95331500  1
  H  H97  1  0.10131800  0.39968100  0.54668500  1
  H  H98  1  0.39968100  0.10131800  0.04668500  1
  H  H99  1  0.89868200  0.60031900  0.45331500  1
  H  H100  1  0.75930200  0.96623600  0.96520400  1
  H  H101  1  0.03376400  0.24069800  0.53479600  1
  H  H102  1  0.24069800  0.03376400  0.03479600  1
  H  H103  1  0.96623600  0.75930200  0.46520400  1
  C  C104  1  0.38007600  0.41293100  0.93847400  1
  C  C105  1  0.58706900  0.61992400  0.56152600  1
  C  C106  1  0.61992400  0.58706900  0.06152600  1
  C  C107  1  0.41293100  0.38007600  0.43847400  1
  C  C108  1  0.44950600  0.03066800  0.64837500  1
  C  C109  1  0.96933200  0.55049400  0.85162500  1
  C  C110  1  0.55049400  0.96933200  0.35162500  1
  C  C111  1  0.03066800  0.44950600  0.14837500  1
  C  C112  1  0.69194400  0.94272400  0.92183000  1
  C  C113  1  0.05727600  0.30805600  0.57817000  1
  C  C114  1  0.30805600  0.05727600  0.07817000  1
  C  C115  1  0.94272400  0.69194400  0.42183000  1
  C  C116  1  0.29585700  0.52748700  0.69475700  1
  C  C117  1  0.47251300  0.70414300  0.80524300  1
  C  C118  1  0.70414300  0.47251300  0.30524300  1
  C  C119  1  0.52748700  0.29585700  0.19475700  1
  C  C120  1  0.83283000  0.91416700  0.67111700  1
  C  C121  1  0.08583300  0.16717000  0.82888300  1
  C  C122  1  0.16717000  0.08583300  0.32888300  1
  C  C123  1  0.91416700  0.83283000  0.17111700  1
  C  C124  1  0.78707200  0.13748100  0.51157400  1
  C  C125  1  0.86251900  0.21292800  0.98842600  1
  C  C126  1  0.21292800  0.86251900  0.48842600  1
  C  C127  1  0.13748100  0.78707200  0.01157400  1
  N  N128  1  0.50914900  0.36069400  0.81563800  1
  N  N129  1  0.63930600  0.49085100  0.68436200  1
  N  N130  1  0.49085100  0.63930600  0.18436200  1
  N  N131  1  0.36069400  0.50914900  0.31563800  1
  N  N132  1  0.51840300  0.37316100  0.89811300  1
  N  N133  1  0.62683900  0.48159700  0.60188700  1
  N  N134  1  0.48159700  0.62683900  0.10188700  1
  N  N135  1  0.37316100  0.51840300  0.39811300  1
  N  N136  1  0.60090200  0.19465300  0.67832900  1
  N  N137  1  0.80534700  0.39909800  0.82167100  1
  N  N138  1  0.39909800  0.80534700  0.32167100  1
  N  N139  1  0.19465300  0.60090200  0.17832900  1
  N  N140  1  0.49889200  0.10055900  0.70996500  1
  N  N141  1  0.89944100  0.50110800  0.79003500  1
  N  N142  1  0.50110800  0.89944100  0.29003500  1
  N  N143  1  0.10055900  0.49889200  0.20996500  1
  N  N144  1  0.75630400  0.12811200  0.82460400  1
  N  N145  1  0.87188800  0.24369600  0.67539600  1
  N  N146  1  0.24369600  0.87188800  0.17539600  1
  N  N147  1  0.12811200  0.75630400  0.32460400  1
  N  N148  1  0.64239900  0.07194500  0.87527200  1
  N  N149  1  0.92805500  0.35760100  0.62472800  1
  N  N150  1  0.35760100  0.92805500  0.12472800  1
  N  N151  1  0.07194500  0.64239900  0.37527200  1
