# generated using pymatgen
data_H16PdC4S4(N4Cl)2
_symmetry_space_group_name_H-M   'P 1'
_cell_length_a   8.43135000
_cell_length_b   13.23605100
_cell_length_c   15.44128200
_cell_angle_alpha   90.00000000
_cell_angle_beta   90.00000000
_cell_angle_gamma   90.00000000
_symmetry_Int_Tables_number   1
_chemical_formula_structural   H16PdC4S4(N4Cl)2
_chemical_formula_sum   'H64 Pd4 C16 S16 N32 Cl8'
_cell_volume   1723.21276992
_cell_formula_units_Z   4
loop_
 _symmetry_equiv_pos_site_id
 _symmetry_equiv_pos_as_xyz
  1  'x, y, z'
loop_
 _atom_site_type_symbol
 _atom_site_label
 _atom_site_symmetry_multiplicity
 _atom_site_fract_x
 _atom_site_fract_y
 _atom_site_fract_z
 _atom_site_occupancy
  H  H0  1  0.51365900  0.70068500  0.78177700  1
  H  H1  1  0.48634100  0.29931500  0.28177700  1
  H  H2  1  0.01365900  0.79931500  0.28177700  1
  H  H3  1  0.98634100  0.20068500  0.78177700  1
  H  H4  1  0.59271800  0.64636900  0.68897300  1
  H  H5  1  0.40728200  0.35363100  0.18897300  1
  H  H6  1  0.09271800  0.85363100  0.18897300  1
  H  H7  1  0.90728200  0.14636900  0.68897300  1
  H  H8  1  0.11357000  0.63070200  0.72804800  1
  H  H9  1  0.88643000  0.36929800  0.22804800  1
  H  H10  1  0.61357000  0.86929800  0.22804800  1
  H  H11  1  0.38643000  0.13070200  0.72804800  1
  H  H12  1  0.23559200  0.66877000  0.81469500  1
  H  H13  1  0.76440800  0.33123000  0.31469500  1
  H  H14  1  0.73559200  0.83123000  0.31469500  1
  H  H15  1  0.26440800  0.16877000  0.81469500  1
  H  H16  1  0.67976900  0.34938900  0.64405400  1
  H  H17  1  0.32023100  0.65061100  0.14405400  1
  H  H18  1  0.17976900  0.15061100  0.14405400  1
  H  H19  1  0.82023100  0.84938900  0.64405400  1
  H  H20  1  0.69481900  0.47044100  0.60280200  1
  H  H21  1  0.30518100  0.52955900  0.10280200  1
  H  H22  1  0.19481900  0.02955900  0.10280200  1
  H  H23  1  0.80518100  0.97044100  0.60280200  1
  H  H24  1  0.41485600  0.26006500  0.48449100  1
  H  H25  1  0.58514400  0.73993500  0.98449100  1
  H  H26  1  0.91485600  0.23993500  0.98449100  1
  H  H27  1  0.08514400  0.76006500  0.48449100  1
  H  H28  1  0.52817000  0.22637400  0.57509900  1
  H  H29  1  0.47183000  0.77362600  0.07509900  1
  H  H30  1  0.02817000  0.27362600  0.07509900  1
  H  H31  1  0.97183000  0.72637400  0.57509900  1
  H  H32  1  0.35206100  0.77477000  0.38058500  1
  H  H33  1  0.64793900  0.22523000  0.88058500  1
  H  H34  1  0.85206100  0.72523000  0.88058500  1
  H  H35  1  0.14793900  0.27477000  0.38058500  1
  H  H36  1  0.37557700  0.89450000  0.33688400  1
  H  H37  1  0.62442300  0.10550000  0.83688400  1
  H  H38  1  0.87557700  0.60550000  0.83688400  1
  H  H39  1  0.12442300  0.39450000  0.33688400  1
  H  H40  1  0.43964800  0.02880400  0.43236800  1
  H  H41  1  0.56035200  0.97119600  0.93236800  1
  H  H42  1  0.93964800  0.47119600  0.93236800  1
  H  H43  1  0.06035200  0.52880400  0.43236800  1
  H  H44  1  0.53591200  0.00118900  0.52968100  1
  H  H45  1  0.46408800  0.99881100  0.02968100  1
  H  H46  1  0.03591200  0.49881100  0.02968100  1
  H  H47  1  0.96408800  0.50118900  0.52968100  1
  H  H48  1  0.45405000  0.61224900  0.31114700  1
  H  H49  1  0.54595000  0.38775100  0.81114700  1
  H  H50  1  0.95405000  0.88775100  0.81114700  1
  H  H51  1  0.04595000  0.11224900  0.31114700  1
  H  H52  1  0.54267000  0.56933500  0.21580300  1
  H  H53  1  0.45733000  0.43066500  0.71580300  1
  H  H54  1  0.04267000  0.93066500  0.71580300  1
  H  H55  1  0.95733000  0.06933500  0.21580300  1
  H  H56  1  0.81894700  0.58919400  0.19640500  1
  H  H57  1  0.18105300  0.41080600  0.69640500  1
  H  H58  1  0.31894700  0.91080600  0.69640500  1
  H  H59  1  0.68105300  0.08919400  0.19640500  1
  H  H60  1  0.93822200  0.61808100  0.28639100  1
  H  H61  1  0.06177800  0.38191900  0.78639100  1
  H  H62  1  0.43822200  0.88191900  0.78639100  1
  H  H63  1  0.56177800  0.11808100  0.28639100  1
  Pd  Pd64  1  0.50988000  0.62629800  0.50134000  1
  Pd  Pd65  1  0.49012000  0.37370200  0.00134000  1
  Pd  Pd66  1  0.00988000  0.87370200  0.00134000  1
  Pd  Pd67  1  0.99012000  0.12629800  0.50134000  1
  C  C68  1  0.34989300  0.63397500  0.69998700  1
  C  C69  1  0.65010700  0.36602500  0.19998700  1
  C  C70  1  0.84989300  0.86602500  0.19998700  1
  C  C71  1  0.15010700  0.13397500  0.69998700  1
  C  C72  1  0.54302200  0.37585000  0.53692100  1
  C  C73  1  0.45697800  0.62415000  0.03692100  1
  C  C74  1  0.04302200  0.12415000  0.03692100  1
  C  C75  1  0.95697800  0.87585000  0.53692100  1
  C  C76  1  0.45931300  0.87725600  0.46151200  1
  C  C77  1  0.54068700  0.12274400  0.96151200  1
  C  C78  1  0.95931300  0.62274400  0.96151200  1
  C  C79  1  0.04068700  0.37725600  0.46151200  1
  C  C80  1  0.69787600  0.61954600  0.30920500  1
  C  C81  1  0.30212400  0.38045400  0.80920500  1
  C  C82  1  0.19787600  0.88045400  0.80920500  1
  C  C83  1  0.80212400  0.11954600  0.30920500  1
  S  S84  1  0.31433300  0.57779200  0.60073500  1
  S  S85  1  0.68566700  0.42220800  0.10073500  1
  S  S86  1  0.81433300  0.92220800  0.10073500  1
  S  S87  1  0.18566700  0.07779200  0.60073500  1
  S  S88  1  0.49950200  0.45655500  0.45269000  1
  S  S89  1  0.50049800  0.54344500  0.95269000  1
  S  S90  1  0.99950200  0.04344500  0.95269000  1
  S  S91  1  0.00049800  0.95655500  0.45269000  1
  S  S92  1  0.49711200  0.79670900  0.54733000  1
  S  S93  1  0.50288800  0.20329100  0.04733000  1
  S  S94  1  0.99711200  0.70329100  0.04733000  1
  S  S95  1  0.00288800  0.29670900  0.54733000  1
  S  S96  1  0.72265700  0.66899000  0.41157100  1
  S  S97  1  0.27734300  0.33101000  0.91157100  1
  S  S98  1  0.22265700  0.83101000  0.91157100  1
  S  S99  1  0.77734300  0.16899000  0.41157100  1
  N  N100  1  0.49422500  0.66221000  0.72542900  1
  N  N101  1  0.50577500  0.33779000  0.22542900  1
  N  N102  1  0.99422500  0.83779000  0.22542900  1
  N  N103  1  0.00577500  0.16221000  0.72542900  1
  N  N104  1  0.22478100  0.64414900  0.75229300  1
  N  N105  1  0.77521900  0.35585100  0.25229300  1
  N  N106  1  0.72478100  0.85585100  0.25229300  1
  N  N107  1  0.27521900  0.14414900  0.75229300  1
  N  N108  1  0.63377100  0.40372600  0.60464000  1
  N  N109  1  0.36622900  0.59627400  0.10464000  1
  N  N110  1  0.13377100  0.09627400  0.10464000  1
  N  N111  1  0.86622900  0.90372600  0.60464000  1
  N  N112  1  0.48515600  0.28226600  0.53475100  1
  N  N113  1  0.51484400  0.71773400  0.03475100  1
  N  N114  1  0.98515600  0.21773400  0.03475100  1
  N  N115  1  0.01484400  0.78226600  0.53475100  1
  N  N116  1  0.40198500  0.84513100  0.38555600  1
  N  N117  1  0.59801500  0.15486900  0.88555600  1
  N  N118  1  0.90198500  0.65486900  0.88555600  1
  N  N119  1  0.09801500  0.34513100  0.38555600  1
  N  N120  1  0.48776500  0.97541900  0.47309000  1
  N  N121  1  0.51223500  0.02458100  0.97309000  1
  N  N122  1  0.98776500  0.52458100  0.97309000  1
  N  N123  1  0.01223500  0.47541900  0.47309000  1
  N  N124  1  0.55528100  0.59733000  0.27700400  1
  N  N125  1  0.44471900  0.40267000  0.77700400  1
  N  N126  1  0.05528100  0.90267000  0.77700400  1
  N  N127  1  0.94471900  0.09733000  0.27700400  1
  N  N128  1  0.82720200  0.60731000  0.26034800  1
  N  N129  1  0.17279800  0.39269000  0.76034800  1
  N  N130  1  0.32720200  0.89269000  0.76034800  1
  N  N131  1  0.67279800  0.10731000  0.26034800  1
  Cl  Cl132  1  0.17440600  0.65118200  0.34716300  1
  Cl  Cl133  1  0.82559400  0.34881800  0.84716300  1
  Cl  Cl134  1  0.67440600  0.84881800  0.84716300  1
  Cl  Cl135  1  0.32559400  0.15118200  0.34716300  1
  Cl  Cl136  1  0.86376700  0.60635700  0.65763300  1
  Cl  Cl137  1  0.13623300  0.39364300  0.15763300  1
  Cl  Cl138  1  0.36376700  0.89364300  0.15763300  1
  Cl  Cl139  1  0.63623300  0.10635700  0.65763300  1
