# generated using pymatgen
data_Ga40CuMo8
_symmetry_space_group_name_H-M   'P 1'
_cell_length_a   9.59731154
_cell_length_b   9.59731154
_cell_length_c   9.59731134
_cell_angle_alpha   94.65270138
_cell_angle_beta   94.65270138
_cell_angle_gamma   94.65270341
_symmetry_Int_Tables_number   1
_chemical_formula_structural   Ga40CuMo8
_chemical_formula_sum   'Ga40 Cu1 Mo8'
_cell_volume   874.74803778
_cell_formula_units_Z   1
loop_
 _symmetry_equiv_pos_site_id
 _symmetry_equiv_pos_as_xyz
  1  'x, y, z'
loop_
 _atom_site_type_symbol
 _atom_site_label
 _atom_site_symmetry_multiplicity
 _atom_site_fract_x
 _atom_site_fract_y
 _atom_site_fract_z
 _atom_site_occupancy
  Ga  Ga0  1  0.50000000  0.50000000  0.50000000  1
  Ga  Ga1  1  0.50000000  0.00000000  0.50000000  1
  Ga  Ga2  1  0.00000000  0.50000000  0.50000000  1
  Ga  Ga3  1  0.50000000  0.50000000  0.00000000  1
  Ga  Ga4  1  0.36520100  0.73422100  0.38852200  1
  Ga  Ga5  1  0.73422100  0.38852200  0.36520100  1
  Ga  Ga6  1  0.38852200  0.36520100  0.73422100  1
  Ga  Ga7  1  0.63479900  0.26577900  0.61147800  1
  Ga  Ga8  1  0.26577900  0.61147800  0.63479900  1
  Ga  Ga9  1  0.61147800  0.63479900  0.26577900  1
  Ga  Ga10  1  0.22056600  0.32454700  0.46227400  1
  Ga  Ga11  1  0.32454700  0.46227400  0.22056600  1
  Ga  Ga12  1  0.46227400  0.22056600  0.32454700  1
  Ga  Ga13  1  0.77943400  0.67545300  0.53772600  1
  Ga  Ga14  1  0.67545300  0.53772600  0.77943400  1
  Ga  Ga15  1  0.53772600  0.77943400  0.67545300  1
  Ga  Ga16  1  0.92567300  0.22100600  0.54985100  1
  Ga  Ga17  1  0.22100600  0.54985100  0.92567300  1
  Ga  Ga18  1  0.54985100  0.92567300  0.22100600  1
  Ga  Ga19  1  0.07432700  0.77899400  0.45014900  1
  Ga  Ga20  1  0.77899400  0.45014900  0.07432700  1
  Ga  Ga21  1  0.45014900  0.07432700  0.77899400  1
  Ga  Ga22  1  0.21324600  0.03188500  0.40022000  1
  Ga  Ga23  1  0.03188500  0.40022000  0.21324600  1
  Ga  Ga24  1  0.40022000  0.21324600  0.03188500  1
  Ga  Ga25  1  0.78675400  0.96811500  0.59978000  1
  Ga  Ga26  1  0.96811500  0.59978000  0.78675400  1
  Ga  Ga27  1  0.59978000  0.78675400  0.96811500  1
  Ga  Ga28  1  0.25538800  0.94514700  0.12435800  1
  Ga  Ga29  1  0.94514700  0.12435800  0.25538800  1
  Ga  Ga30  1  0.12435800  0.25538800  0.94514700  1
  Ga  Ga31  1  0.74461200  0.05485300  0.87564200  1
  Ga  Ga32  1  0.05485300  0.87564200  0.74461200  1
  Ga  Ga33  1  0.87564200  0.74461200  0.05485300  1
  Ga  Ga34  1  0.82326400  0.87470900  0.32036000  1
  Ga  Ga35  1  0.87470900  0.32036000  0.82326400  1
  Ga  Ga36  1  0.32036000  0.82326400  0.87470900  1
  Ga  Ga37  1  0.17673600  0.12529100  0.67964000  1
  Ga  Ga38  1  0.12529100  0.67964000  0.17673600  1
  Ga  Ga39  1  0.67964000  0.17673600  0.12529100  1
  Cu  Cu40  1  0.00000000  0.00000000  0.00000000  1
  Mo  Mo41  1  0.19877400  0.19877400  0.19877400  1
  Mo  Mo42  1  0.80122600  0.80122600  0.80122600  1
  Mo  Mo43  1  0.38756800  0.70891400  0.11231100  1
  Mo  Mo44  1  0.70891400  0.11231100  0.38756800  1
  Mo  Mo45  1  0.11231100  0.38756800  0.70891400  1
  Mo  Mo46  1  0.61243200  0.29108600  0.88768900  1
  Mo  Mo47  1  0.29108600  0.88768900  0.61243200  1
  Mo  Mo48  1  0.88768900  0.61243200  0.29108600  1
