# generated using pymatgen
data_Na3Zn4P3O19
_symmetry_space_group_name_H-M   'P 1'
_cell_length_a   10.47208974
_cell_length_b   10.47208974
_cell_length_c   10.47208923
_cell_angle_alpha   63.08916558
_cell_angle_beta   63.08916558
_cell_angle_gamma   63.08916628
_symmetry_Int_Tables_number   1
_chemical_formula_structural   Na3Zn4P3O19
_chemical_formula_sum   'Na6 Zn8 P6 O38'
_cell_volume   867.70727666
_cell_formula_units_Z   2
loop_
 _symmetry_equiv_pos_site_id
 _symmetry_equiv_pos_as_xyz
  1  'x, y, z'
loop_
 _atom_site_type_symbol
 _atom_site_label
 _atom_site_symmetry_multiplicity
 _atom_site_fract_x
 _atom_site_fract_y
 _atom_site_fract_z
 _atom_site_occupancy
  Na  Na0  1  0.98773200  0.10089900  0.44947400  1
  Na  Na1  1  0.94947400  0.60089900  0.48773200  1
  Na  Na2  1  0.10089900  0.44947400  0.98773200  1
  Na  Na3  1  0.60089900  0.48773200  0.94947400  1
  Na  Na4  1  0.44947400  0.98773200  0.10089900  1
  Na  Na5  1  0.48773200  0.94947400  0.60089900  1
  Zn  Zn6  1  0.27506400  0.57053300  0.57534500  1
  Zn  Zn7  1  0.07534500  0.07053300  0.77506400  1
  Zn  Zn8  1  0.57053300  0.57534500  0.27506400  1
  Zn  Zn9  1  0.07053300  0.77506400  0.07534500  1
  Zn  Zn10  1  0.57534500  0.27506400  0.57053300  1
  Zn  Zn11  1  0.77506400  0.07534500  0.07053300  1
  Zn  Zn12  1  0.57540700  0.57540700  0.57540700  1
  Zn  Zn13  1  0.07540700  0.07540700  0.07540700  1
  P  P14  1  0.23612600  0.76681700  0.26485300  1
  P  P15  1  0.76485300  0.26681700  0.73612600  1
  P  P16  1  0.76681700  0.26485300  0.23612600  1
  P  P17  1  0.26681700  0.73612600  0.76485300  1
  P  P18  1  0.26485300  0.23612600  0.76681700  1
  P  P19  1  0.73612600  0.76485300  0.26681700  1
  O  O20  1  0.49687700  0.49687700  0.49687700  1
  O  O21  1  0.99687700  0.99687700  0.99687700  1
  O  O22  1  0.17245900  0.65866200  0.42342600  1
  O  O23  1  0.92342600  0.15866200  0.67245900  1
  O  O24  1  0.65866200  0.42342600  0.17245900  1
  O  O25  1  0.15866200  0.67245900  0.92342600  1
  O  O26  1  0.42342600  0.17245900  0.65866200  1
  O  O27  1  0.67245900  0.92342600  0.15866200  1
  O  O28  1  0.21932200  0.74003000  0.64306000  1
  O  O29  1  0.14306000  0.24003000  0.71932200  1
  O  O30  1  0.74003000  0.64306000  0.21932200  1
  O  O31  1  0.24003000  0.71932200  0.14306000  1
  O  O32  1  0.64306000  0.21932200  0.74003000  1
  O  O33  1  0.71932200  0.14306000  0.24003000  1
  O  O34  1  0.23530600  0.39974400  0.75767600  1
  O  O35  1  0.25767600  0.89974400  0.73530600  1
  O  O36  1  0.39974400  0.75767600  0.23530600  1
  O  O37  1  0.89974400  0.73530600  0.25767600  1
  O  O38  1  0.75767600  0.23530600  0.39974400  1
  O  O39  1  0.73530600  0.25767600  0.89974400  1
  O  O40  1  0.43330200  0.63641200  0.75862600  1
  O  O41  1  0.25862600  0.13641200  0.93330200  1
  O  O42  1  0.63641200  0.75862600  0.43330200  1
  O  O43  1  0.13641200  0.93330200  0.25862600  1
  O  O44  1  0.75862600  0.43330200  0.63641200  1
  O  O45  1  0.93330200  0.25862600  0.13641200  1
  O  O46  1  0.36843800  0.30844900  0.06859000  1
  O  O47  1  0.56859000  0.80844900  0.86843800  1
  O  O48  1  0.30844900  0.06859000  0.36843800  1
  O  O49  1  0.80844900  0.86843800  0.56859000  1
  O  O50  1  0.06859000  0.36843800  0.30844900  1
  O  O51  1  0.86843800  0.56859000  0.80844900  1
  O  O52  1  0.38404900  0.38917900  0.11432200  1
  O  O53  1  0.61432200  0.88917900  0.88404900  1
  O  O54  1  0.38917900  0.11432200  0.38404900  1
  O  O55  1  0.88917900  0.88404900  0.61432200  1
  O  O56  1  0.11432200  0.38404900  0.38917900  1
  O  O57  1  0.88404900  0.61432200  0.88917900  1
