# generated using pymatgen
data_Cu2Bi8Pb6S19
_symmetry_space_group_name_H-M   'P 1'
_cell_length_a   13.87345770
_cell_length_b   13.87345770
_cell_length_c   20.74335478
_cell_angle_alpha   49.76109996
_cell_angle_beta   49.76109996
_cell_angle_gamma   17.49509140
_symmetry_Int_Tables_number   1
_chemical_formula_structural   Cu2Bi8Pb6S19
_chemical_formula_sum   'Cu2 Bi8 Pb6 S19'
_cell_volume   908.42071042
_cell_formula_units_Z   1
loop_
 _symmetry_equiv_pos_site_id
 _symmetry_equiv_pos_as_xyz
  1  'x, y, z'
loop_
 _atom_site_type_symbol
 _atom_site_label
 _atom_site_symmetry_multiplicity
 _atom_site_fract_x
 _atom_site_fract_y
 _atom_site_fract_z
 _atom_site_occupancy
  Cu  Cu0  1  0.45032600  0.45032600  0.08896200  1
  Cu  Cu1  1  0.54967400  0.54967400  0.91103800  1
  Bi  Bi2  1  0.83688200  0.83688200  0.46100500  1
  Bi  Bi3  1  0.16311800  0.16311800  0.53899500  1
  Bi  Bi4  1  0.80112800  0.80112800  0.29253200  1
  Bi  Bi5  1  0.19887200  0.19887200  0.70746800  1
  Bi  Bi6  1  0.85577300  0.85577300  0.04223500  1
  Bi  Bi7  1  0.14422700  0.14422700  0.95776500  1
  Bi  Bi8  1  0.67541600  0.67541600  0.10455300  1
  Bi  Bi9  1  0.32458400  0.32458400  0.89544700  1
  Pb  Pb10  1  0.46721200  0.46721200  0.22316200  1
  Pb  Pb11  1  0.53278800  0.53278800  0.77683800  1
  Pb  Pb12  1  0.49143400  0.49143400  0.40747100  1
  Pb  Pb13  1  0.50856600  0.50856600  0.59252900  1
  Pb  Pb14  1  0.14492400  0.14492400  0.34544000  1
  Pb  Pb15  1  0.85507600  0.85507600  0.65456000  1
  S  S16  1  0.00000000  0.00000000  0.50000000  1
  S  S17  1  0.28611200  0.28611200  0.22624400  1
  S  S18  1  0.71388800  0.71388800  0.77375600  1
  S  S19  1  0.65683100  0.65683100  0.45598900  1
  S  S20  1  0.34316900  0.34316900  0.54401100  1
  S  S21  1  0.92712500  0.92712500  0.16100000  1
  S  S22  1  0.07287500  0.07287500  0.83900000  1
  S  S23  1  0.56475300  0.56475300  0.00707300  1
  S  S24  1  0.43524700  0.43524700  0.99292700  1
  S  S25  1  0.32585500  0.32585500  0.37489100  1
  S  S26  1  0.67414500  0.67414500  0.62510900  1
  S  S27  1  0.09989700  0.09989700  0.11470600  1
  S  S28  1  0.90010300  0.90010300  0.88529400  1
  S  S29  1  0.96119800  0.96119800  0.33447600  1
  S  S30  1  0.03880200  0.03880200  0.66552400  1
  S  S31  1  0.62831000  0.62831000  0.27349100  1
  S  S32  1  0.37169000  0.37169000  0.72650900  1
  S  S33  1  0.26019700  0.26019700  0.06859500  1
  S  S34  1  0.73980300  0.73980300  0.93140500  1
