# generated using pymatgen
data_VIr
_symmetry_space_group_name_H-M   'P 1'
_cell_length_a   6.63669232
_cell_length_b   6.63669232
_cell_length_c   11.10078500
_cell_angle_alpha   90.00000000
_cell_angle_beta   90.00000000
_cell_angle_gamma   114.33698276
_symmetry_Int_Tables_number   1
_chemical_formula_structural   VIr
_chemical_formula_sum   'V16 Ir16'
_cell_volume   445.49308236
_cell_formula_units_Z   16
loop_
 _symmetry_equiv_pos_site_id
 _symmetry_equiv_pos_as_xyz
  1  'x, y, z'
loop_
 _atom_site_type_symbol
 _atom_site_label
 _atom_site_symmetry_multiplicity
 _atom_site_fract_x
 _atom_site_fract_y
 _atom_site_fract_z
 _atom_site_occupancy
  V  V0  1  0.64190900  0.35809100  0.86625900  1
  V  V1  1  0.35809100  0.64190900  0.13374100  1
  V  V2  1  0.64190900  0.35809100  0.63374100  1
  V  V3  1  0.35809100  0.64190900  0.36625900  1
  V  V4  1  0.36824900  0.63175100  0.88311800  1
  V  V5  1  0.63175100  0.36824900  0.11688200  1
  V  V6  1  0.36824900  0.63175100  0.61688200  1
  V  V7  1  0.63175100  0.36824900  0.38311800  1
  V  V8  1  0.87689600  0.12310400  0.86814200  1
  V  V9  1  0.12310400  0.87689600  0.13185800  1
  V  V10  1  0.87689600  0.12310400  0.63185800  1
  V  V11  1  0.12310400  0.87689600  0.36814200  1
  V  V12  1  0.10515500  0.89484500  0.88329200  1
  V  V13  1  0.89484500  0.10515500  0.11670800  1
  V  V14  1  0.10515500  0.89484500  0.61670800  1
  V  V15  1  0.89484500  0.10515500  0.38329200  1
  Ir  Ir16  1  0.50000000  0.00000000  0.00000000  1
  Ir  Ir17  1  0.00000000  0.50000000  0.00000000  1
  Ir  Ir18  1  0.50000000  0.00000000  0.50000000  1
  Ir  Ir19  1  0.00000000  0.50000000  0.50000000  1
  Ir  Ir20  1  0.73090900  0.73090900  0.00000000  1
  Ir  Ir21  1  0.73090900  0.73090900  0.50000000  1
  Ir  Ir22  1  0.26909100  0.26909100  0.00000000  1
  Ir  Ir23  1  0.26909100  0.26909100  0.50000000  1
  Ir  Ir24  1  0.47307800  0.98115300  0.75000000  1
  Ir  Ir25  1  0.98115300  0.47307800  0.25000000  1
  Ir  Ir26  1  0.52692200  0.01884700  0.25000000  1
  Ir  Ir27  1  0.01884700  0.52692200  0.75000000  1
  Ir  Ir28  1  0.72980900  0.73422500  0.75000000  1
  Ir  Ir29  1  0.73422500  0.72980900  0.25000000  1
  Ir  Ir30  1  0.27019100  0.26577500  0.25000000  1
  Ir  Ir31  1  0.26577500  0.27019100  0.75000000  1
