# generated using pymatgen
data_TiH30C10S5(ClO3)2
_symmetry_space_group_name_H-M   'P 1'
_cell_length_a   9.83493100
_cell_length_b   10.72226524
_cell_length_c   12.92952875
_cell_angle_alpha   108.92743381
_cell_angle_beta   96.59884822
_cell_angle_gamma   89.94334686
_symmetry_Int_Tables_number   1
_chemical_formula_structural   TiH30C10S5(ClO3)2
_chemical_formula_sum   'Ti2 H60 C20 S10 Cl4 O12'
_cell_volume   1280.23242637
_cell_formula_units_Z   2
loop_
 _symmetry_equiv_pos_site_id
 _symmetry_equiv_pos_as_xyz
  1  'x, y, z'
loop_
 _atom_site_type_symbol
 _atom_site_label
 _atom_site_symmetry_multiplicity
 _atom_site_fract_x
 _atom_site_fract_y
 _atom_site_fract_z
 _atom_site_occupancy
  Ti  Ti0  1  0.25742300  0.59376700  0.68447600  1
  Ti  Ti1  1  0.74257700  0.40623300  0.31552400  1
  H  H2  1  0.91674500  0.33978700  0.83914400  1
  H  H3  1  0.08325500  0.66021300  0.16085600  1
  H  H4  1  0.08514500  0.41340000  0.89297900  1
  H  H5  1  0.91485500  0.58660000  0.10702100  1
  H  H6  1  0.93726500  0.51844300  0.90032400  1
  H  H7  1  0.06273500  0.48155700  0.09967600  1
  H  H8  1  0.77323900  0.36934300  0.66614000  1
  H  H9  1  0.22676100  0.63065700  0.33386000  1
  H  H10  1  0.79381900  0.54488200  0.74235800  1
  H  H11  1  0.20618100  0.45511800  0.25764200  1
  H  H12  1  0.82662200  0.48138500  0.59898400  1
  H  H13  1  0.17337800  0.51861500  0.40101600  1
  H  H14  1  0.64837000  0.33295500  0.84774900  1
  H  H15  1  0.35163000  0.66704500  0.15225100  1
  H  H16  1  0.62816400  0.50918400  0.90718500  1
  H  H17  1  0.37183600  0.49081600  0.09281500  1
  H  H18  1  0.51250700  0.39231600  0.93309500  1
  H  H19  1  0.48749300  0.60768400  0.06690500  1
  H  H20  1  0.29588200  0.24087900  0.66092600  1
  H  H21  1  0.70411800  0.75912100  0.33907400  1
  H  H22  1  0.44971500  0.17553700  0.71073500  1
  H  H23  1  0.55028500  0.82446300  0.28926500  1
  H  H24  1  0.33039200  0.25762500  0.80676200  1
  H  H25  1  0.66960800  0.74237500  0.19323800  1
  H  H26  1  0.40528500  0.82017700  0.50804100  1
  H  H27  1  0.59471500  0.17982300  0.49195900  1
  H  H28  1  0.56792000  0.90966300  0.56203600  1
  H  H29  1  0.43208000  0.09033700  0.43796400  1
  H  H30  1  0.56224900  0.73066800  0.50189600  1
  H  H31  1  0.43775100  0.26933200  0.49810400  1
  H  H32  1  0.72267200  0.89110500  0.72746700  1
  H  H33  1  0.27732800  0.10889500  0.27253300  1
  H  H34  1  0.68835500  0.78048200  0.80330100  1
  H  H35  1  0.31164500  0.21951800  0.19669900  1
  H  H36  1  0.71490300  0.71424500  0.65854000  1
  H  H37  1  0.28509700  0.28575500  0.34146000  1
  H  H38  1  0.37581600  0.89805200  0.12776600  1
  H  H39  1  0.62418400  0.10194800  0.87223400  1
  H  H40  1  0.49069900  0.84607500  0.02333300  1
  H  H41  1  0.50930100  0.15392500  0.97666700  1
  H  H42  1  0.38062500  0.98464800  0.02892200  1
  H  H43  1  0.61937500  0.01535200  0.97107800  1
  H  H44  1  0.02220700  0.82365100  0.95119200  1
  H  H45  1  0.97779300  0.17634900  0.04880800  1
  H  H46  1  0.11567900  0.89212900  0.08574300  1
  H  H47  1  0.88432100  0.10787100  0.91425700  1
  H  H48  1  0.13182800  0.97201200  0.98356900  1
  H  H49  1  0.86817200  0.02798800  0.01643100  1
  H  H50  1  0.89484200  0.74374800  0.50450500  1
  H  H51  1  0.10515800  0.25625200  0.49549500  1
  H  H52  1  0.88745300  0.92100600  0.56872400  1
  H  H53  1  0.11254700  0.07899400  0.43127600  1
  H  H54  1  0.02469600  0.85192900  0.48568000  1
  H  H55  1  0.97530400  0.14807100  0.51432000  1
  H  H56  1  0.06879200  0.05965000  0.72201500  1
  H  H57  1  0.93120800  0.94035000  0.27798500  1
  H  H58  1  0.21677200  0.99222500  0.77744400  1
  H  H59  1  0.78322800  0.00777500  0.22255600  1
  H  H60  1  0.20014000  0.98834600  0.63501300  1
  H  H61  1  0.79986000  0.01165400  0.36498700  1
  C  C62  1  0.98385700  0.42731200  0.85350500  1
  C  C63  1  0.01614300  0.57268800  0.14649500  1
  C  C64  1  0.83038900  0.46204500  0.67758200  1
  C  C65  1  0.16961100  0.53795500  0.32241800  1
  C  C66  1  0.57500400  0.41118000  0.87434100  1
  C  C67  1  0.42499600  0.58882000  0.12565900  1
  C  C68  1  0.37458200  0.25323100  0.73112000  1
  C  C69  1  0.62541800  0.74676900  0.26888000  1
  C  C70  1  0.50905200  0.81721400  0.54854200  1
  C  C71  1  0.49094800  0.18278600  0.45145800  1
  C  C72  1  0.67532900  0.79584900  0.72254200  1
  C  C73  1  0.32467100  0.20415100  0.27745800  1
  C  C74  1  0.39123400  0.88908500  0.04272100  1
  C  C75  1  0.60876600  0.11091500  0.95727900  1
  C  C76  1  0.11662800  0.87750100  0.99763300  1
  C  C77  1  0.88337200  0.12249900  0.00236700  1
  C  C78  1  0.95504300  0.83724700  0.54174500  1
  C  C79  1  0.04495700  0.16275300  0.45825500  1
  C  C80  1  0.14596800  0.98384200  0.70341300  1
  C  C81  1  0.85403200  0.01615800  0.29658700  1
  S  S82  1  0.25879200  0.77678200  0.95470500  1
  S  S83  1  0.74120800  0.22321800  0.04529500  1
  S  S84  1  0.00405100  0.43536600  0.72037000  1
  S  S85  1  0.99594900  0.56463400  0.27963000  1
  S  S86  1  0.49663400  0.80454900  0.68187200  1
  S  S87  1  0.50336600  0.19545100  0.31812800  1
  S  S88  1  0.46714000  0.40501200  0.75217400  1
  S  S89  1  0.53286000  0.59498800  0.24782600  1
  S  S90  1  0.05572900  0.82722600  0.66269500  1
  S  S91  1  0.94427100  0.17277400  0.33730500  1
  Cl  Cl92  1  0.25724400  0.26004200  0.00508000  1
  Cl  Cl93  1  0.74275600  0.73995800  0.99492000  1
  Cl  Cl94  1  0.24576300  0.87909100  0.31407000  1
  Cl  Cl95  1  0.75423700  0.12090900  0.68593000  1
  O  O96  1  0.07971100  0.57151900  0.74591300  1
  O  O97  1  0.92028900  0.42848100  0.25408700  1
  O  O98  1  0.27272000  0.77785300  0.83790500  1
  O  O99  1  0.72728000  0.22214700  0.16209500  1
  O  O100  1  0.43919800  0.66196600  0.65622600  1
  O  O101  1  0.56080200  0.33803400  0.34377400  1
  O  O102  1  0.36349900  0.51470000  0.79283200  1
  O  O103  1  0.63650100  0.48530000  0.20716800  1
  O  O104  1  0.24039100  0.45471600  0.57632900  1
  O  O105  1  0.75960900  0.54528400  0.42367100  1
  O  O106  1  0.16199300  0.72406300  0.61496300  1
  O  O107  1  0.83800700  0.27593700  0.38503700  1
