# generated using pymatgen
data_FeH12C4(S2N5)2
_symmetry_space_group_name_H-M   'P 1'
_cell_length_a   5.50433465
_cell_length_b   8.29084983
_cell_length_c   8.98015508
_cell_angle_alpha   79.10766111
_cell_angle_beta   83.81255462
_cell_angle_gamma   86.96717545
_symmetry_Int_Tables_number   1
_chemical_formula_structural   FeH12C4(S2N5)2
_chemical_formula_sum   'Fe1 H12 C4 S4 N10'
_cell_volume   399.86500005
_cell_formula_units_Z   1
loop_
 _symmetry_equiv_pos_site_id
 _symmetry_equiv_pos_as_xyz
  1  'x, y, z'
loop_
 _atom_site_type_symbol
 _atom_site_label
 _atom_site_symmetry_multiplicity
 _atom_site_fract_x
 _atom_site_fract_y
 _atom_site_fract_z
 _atom_site_occupancy
  Fe  Fe0  1  0.00000000  0.50000000  0.00000000  1
  H  H1  1  0.15670500  0.80539900  0.28618700  1
  H  H2  1  0.84329500  0.19460100  0.71381300  1
  H  H3  1  0.20690400  0.78549700  0.02119100  1
  H  H4  1  0.79309600  0.21450300  0.97880900  1
  H  H5  1  0.36941300  0.63441000  0.11769200  1
  H  H6  1  0.63058700  0.36559000  0.88230800  1
  H  H7  1  0.99172300  0.76516900  0.59735000  1
  H  H8  1  0.00827700  0.23483100  0.40265000  1
  H  H9  1  0.65778100  0.62997600  0.51223700  1
  H  H10  1  0.34221900  0.37002400  0.48776300  1
  H  H11  1  0.79229200  0.90343700  0.51496900  1
  H  H12  1  0.20770800  0.09656300  0.48503100  1
  C  C13  1  0.88706900  0.64020400  0.31552100  1
  C  C14  1  0.11293100  0.35979600  0.68447900  1
  C  C15  1  0.65722600  0.80730700  0.85184800  1
  C  C16  1  0.34277400  0.19269300  0.14815200  1
  S  S17  1  0.74415500  0.49014700  0.25440600  1
  S  S18  1  0.25584500  0.50985300  0.74559400  1
  S  S19  1  0.48465500  0.96052200  0.78077200  1
  S  S20  1  0.51534500  0.03947800  0.21922800  1
  N  N21  1  0.08394800  0.71718200  0.23935500  1
  N  N22  1  0.91605200  0.28281800  0.76064500  1
  N  N23  1  0.19390200  0.67862600  0.10083000  1
  N  N24  1  0.80609800  0.32137400  0.89917000  1
  N  N25  1  0.91959100  0.81262900  0.49677500  1
  N  N26  1  0.08040900  0.18737100  0.50322500  1
  N  N27  1  0.80436200  0.68727200  0.44831700  1
  N  N28  1  0.19563800  0.31272800  0.55168300  1
  N  N29  1  0.78105900  0.69283700  0.90454700  1
  N  N30  1  0.21894100  0.30716300  0.09545300  1
