# generated using pymatgen
data_TlHg6S4Br5
_symmetry_space_group_name_H-M   'P 1'
_cell_length_a   11.24555046
_cell_length_b   11.24555046
_cell_length_c   11.24555046
_cell_angle_alpha   99.37374461
_cell_angle_beta   99.37374461
_cell_angle_gamma   132.39611306
_symmetry_Int_Tables_number   1
_chemical_formula_structural   TlHg6S4Br5
_chemical_formula_sum   'Tl2 Hg12 S8 Br10'
_cell_volume   960.92334745
_cell_formula_units_Z   2
loop_
 _symmetry_equiv_pos_site_id
 _symmetry_equiv_pos_as_xyz
  1  'x, y, z'
loop_
 _atom_site_type_symbol
 _atom_site_label
 _atom_site_symmetry_multiplicity
 _atom_site_fract_x
 _atom_site_fract_y
 _atom_site_fract_z
 _atom_site_occupancy
  Tl  Tl0  1  0.75000000  0.25000000  0.50000000  1
  Tl  Tl1  1  0.25000000  0.75000000  0.50000000  1
  Hg  Hg2  1  0.30014800  0.43887900  0.21429100  1
  Hg  Hg3  1  0.22458800  0.08585700  0.78570900  1
  Hg  Hg4  1  0.08585700  0.30014800  0.86126900  1
  Hg  Hg5  1  0.43887900  0.22458800  0.13873100  1
  Hg  Hg6  1  0.69985200  0.56112100  0.78570900  1
  Hg  Hg7  1  0.77541200  0.91414300  0.21429100  1
  Hg  Hg8  1  0.91414300  0.69985200  0.13873100  1
  Hg  Hg9  1  0.56112100  0.77541200  0.86126900  1
  Hg  Hg10  1  0.23055700  0.14123600  0.37179300  1
  Hg  Hg11  1  0.76944300  0.85876400  0.62820700  1
  Hg  Hg12  1  0.85876400  0.23055700  0.08932100  1
  Hg  Hg13  1  0.14123600  0.76944300  0.91067900  1
  S  S14  1  0.46413600  0.39421800  0.32810600  1
  S  S15  1  0.06611300  0.13603100  0.67189400  1
  S  S16  1  0.13603100  0.46413600  0.06991800  1
  S  S17  1  0.39421800  0.06611300  0.93008200  1
  S  S18  1  0.53586400  0.60578200  0.67189400  1
  S  S19  1  0.93388700  0.86396900  0.32810600  1
  S  S20  1  0.86396900  0.53586400  0.93008200  1
  S  S21  1  0.60578200  0.93388700  0.06991800  1
  Br  Br22  1  0.50000000  0.50000000  0.00000000  1
  Br  Br23  1  0.00000000  0.00000000  0.00000000  1
  Br  Br24  1  0.42830600  0.17264000  0.60094500  1
  Br  Br25  1  0.57169400  0.82736000  0.39905500  1
  Br  Br26  1  0.82736000  0.42830600  0.25566600  1
  Br  Br27  1  0.17264000  0.57169400  0.74433400  1
  Br  Br28  1  0.06928600  0.31349000  0.38277600  1
  Br  Br29  1  0.93071400  0.68651000  0.61722400  1
  Br  Br30  1  0.68651000  0.06928600  0.75579600  1
  Br  Br31  1  0.31349000  0.93071400  0.24420400  1
