# generated using pymatgen
data_Cs6Mo4C10S2O27
_symmetry_space_group_name_H-M   'P 1'
_cell_length_a   12.41240968
_cell_length_b   12.41240968
_cell_length_c   13.22368600
_cell_angle_alpha   90.00000000
_cell_angle_beta   90.00000000
_cell_angle_gamma   110.89709025
_symmetry_Int_Tables_number   1
_chemical_formula_structural   Cs6Mo4C10S2O27
_chemical_formula_sum   'Cs12 Mo8 C20 S4 O54'
_cell_volume   1903.33439437
_cell_formula_units_Z   2
loop_
 _symmetry_equiv_pos_site_id
 _symmetry_equiv_pos_as_xyz
  1  'x, y, z'
loop_
 _atom_site_type_symbol
 _atom_site_label
 _atom_site_symmetry_multiplicity
 _atom_site_fract_x
 _atom_site_fract_y
 _atom_site_fract_z
 _atom_site_occupancy
  Cs  Cs0  1  0.33176500  0.06357400  0.32003500  1
  Cs  Cs1  1  0.93642600  0.66823500  0.32003500  1
  Cs  Cs2  1  0.66823500  0.93642600  0.82003500  1
  Cs  Cs3  1  0.06357400  0.33176500  0.82003500  1
  Cs  Cs4  1  0.68294700  0.94473400  0.35325900  1
  Cs  Cs5  1  0.05526500  0.31705300  0.35325900  1
  Cs  Cs6  1  0.31705300  0.05526500  0.85325900  1
  Cs  Cs7  1  0.94473500  0.68294700  0.85325900  1
  Cs  Cs8  1  0.64516000  0.35484000  0.05898300  1
  Cs  Cs9  1  0.35484000  0.64516000  0.55898300  1
  Cs  Cs10  1  0.48209200  0.51790800  0.29707900  1
  Cs  Cs11  1  0.51790800  0.48209200  0.79707900  1
  Mo  Mo12  1  0.86010000  0.94826100  0.09050800  1
  Mo  Mo13  1  0.05173900  0.13990000  0.09050800  1
  Mo  Mo14  1  0.13990000  0.05173900  0.59050800  1
  Mo  Mo15  1  0.94826100  0.86010000  0.59050800  1
  Mo  Mo16  1  0.41330800  0.78315500  0.11802800  1
  Mo  Mo17  1  0.21684500  0.58669200  0.11802800  1
  Mo  Mo18  1  0.58669200  0.21684500  0.61802800  1
  Mo  Mo19  1  0.78315500  0.41330800  0.61802800  1
  C  C20  1  0.74015100  0.69798500  0.13533600  1
  C  C21  1  0.30201500  0.25984900  0.13533600  1
  C  C22  1  0.25984900  0.30201500  0.63533600  1
  C  C23  1  0.69798500  0.74015100  0.63533600  1
  C  C24  1  0.73276700  0.70661000  0.01846500  1
  C  C25  1  0.29339000  0.26723300  0.01846500  1
  C  C26  1  0.26723300  0.29339000  0.51846500  1
  C  C27  1  0.70661000  0.73276700  0.51846500  1
  C  C28  1  0.09803400  0.90196600  0.07902000  1
  C  C29  1  0.90196600  0.09803400  0.57902000  1
  C  C30  1  0.17363900  0.82636100  0.09355300  1
  C  C31  1  0.82636100  0.17363900  0.59355300  1
  C  C32  1  0.52854900  0.01570400  0.03096300  1
  C  C33  1  0.98429600  0.47145100  0.03096300  1
  C  C34  1  0.47145100  0.98429600  0.53096300  1
  C  C35  1  0.01570400  0.52854900  0.53096300  1
  C  C36  1  0.53408000  0.03429400  0.14699400  1
  C  C37  1  0.96570600  0.46592000  0.14699400  1
  C  C38  1  0.46592000  0.96570600  0.64699400  1
  C  C39  1  0.03429400  0.53408000  0.64699400  1
  S  S40  1  0.97093200  0.02906800  0.23421500  1
  S  S41  1  0.02906800  0.97093200  0.73421500  1
  S  S42  1  0.29809300  0.70190700  0.26102900  1
  S  S43  1  0.70190700  0.29809300  0.76102900  1
  O  O44  1  0.95591100  0.04408900  0.98142400  1
  O  O45  1  0.04408900  0.95591100  0.48142400  1
  O  O46  1  0.74592300  0.99649600  0.09892800  1
  O  O47  1  0.00350400  0.25407700  0.09892800  1
  O  O48  1  0.25407700  0.00350400  0.59892800  1
  O  O49  1  0.99649600  0.74592300  0.59892800  1
  O  O50  1  0.31469300  0.68530700  0.01462300  1
  O  O51  1  0.68530700  0.31469300  0.51462300  1
  O  O52  1  0.52199500  0.72766400  0.13099200  1
  O  O53  1  0.27233600  0.47800500  0.13099200  1
  O  O54  1  0.47800500  0.27233600  0.63099200  1
  O  O55  1  0.72766400  0.52199500  0.63099200  1
  O  O56  1  0.77907400  0.81103500  0.98256300  1
  O  O57  1  0.18896500  0.22092600  0.98256300  1
  O  O58  1  0.22092600  0.18896500  0.48256300  1
  O  O59  1  0.81103500  0.77907400  0.48256300  1
  O  O60  1  0.78665100  0.79602500  0.18170100  1
  O  O61  1  0.20397500  0.21334900  0.18170100  1
  O  O62  1  0.21334900  0.20397500  0.68170100  1
  O  O63  1  0.79602500  0.78665100  0.68170100  1
  O  O64  1  0.68916500  0.61869400  0.96613500  1
  O  O65  1  0.38130600  0.31083500  0.96613500  1
  O  O66  1  0.31083500  0.38130600  0.46613500  1
  O  O67  1  0.61869400  0.68916500  0.46613500  1
  O  O68  1  0.70675100  0.60274100  0.17846900  1
  O  O69  1  0.39725900  0.29324900  0.17846900  1
  O  O70  1  0.29324900  0.39725900  0.67846900  1
  O  O71  1  0.60274100  0.70675100  0.67846900  1
  O  O72  1  0.98975000  0.84921600  0.07568400  1
  O  O73  1  0.15078400  0.01025000  0.07568400  1
  O  O74  1  0.01025000  0.15078400  0.57568400  1
  O  O75  1  0.84921600  0.98975000  0.57568400  1
  O  O76  1  0.28157500  0.87957600  0.10069200  1
  O  O77  1  0.12042400  0.71842500  0.10069200  1
  O  O78  1  0.71842500  0.12042400  0.60069200  1
  O  O79  1  0.87957600  0.28157500  0.60069200  1
  O  O80  1  0.48704500  0.90738700  0.00364000  1
  O  O81  1  0.09261300  0.51295500  0.00364000  1
  O  O82  1  0.51295500  0.09261300  0.50364000  1
  O  O83  1  0.90738700  0.48704500  0.50364000  1
  O  O84  1  0.49114100  0.93814000  0.19911800  1
  O  O85  1  0.06186000  0.50885900  0.19911800  1
  O  O86  1  0.50885900  0.06186000  0.69911800  1
  O  O87  1  0.93814000  0.49114100  0.69911800  1
  O  O88  1  0.55969900  0.09802600  0.97133300  1
  O  O89  1  0.90197400  0.44030100  0.97133300  1
  O  O90  1  0.44030100  0.90197400  0.47133300  1
  O  O91  1  0.09802600  0.55969900  0.47133300  1
  O  O92  1  0.57237600  0.13100600  0.18540600  1
  O  O93  1  0.86899400  0.42762400  0.18540600  1
  O  O94  1  0.42762400  0.86899400  0.68540600  1
  O  O95  1  0.13100600  0.57237600  0.68540600  1
  O  O96  1  0.79320200  0.20679800  0.35361700  1
  O  O97  1  0.20679800  0.79320200  0.85361700  1
