# generated using pymatgen
data_Yb2Mn3Si5
_symmetry_space_group_name_H-M   'P 1'
_cell_length_a   10.55931900
_cell_length_b   10.55931900
_cell_length_c   5.45659500
_cell_angle_alpha   90.00000000
_cell_angle_beta   90.00000000
_cell_angle_gamma   90.00000000
_symmetry_Int_Tables_number   1
_chemical_formula_structural   Yb2Mn3Si5
_chemical_formula_sum   'Yb8 Mn12 Si20'
_cell_volume   608.40607404
_cell_formula_units_Z   4
loop_
 _symmetry_equiv_pos_site_id
 _symmetry_equiv_pos_as_xyz
  1  'x, y, z'
loop_
 _atom_site_type_symbol
 _atom_site_label
 _atom_site_symmetry_multiplicity
 _atom_site_fract_x
 _atom_site_fract_y
 _atom_site_fract_z
 _atom_site_occupancy
  Yb  Yb0  1  0.57493500  0.73525100  0.50000000  1
  Yb  Yb1  1  0.42506500  0.26474900  0.50000000  1
  Yb  Yb2  1  0.07493500  0.76474900  0.00000000  1
  Yb  Yb3  1  0.92506500  0.23525100  0.00000000  1
  Yb  Yb4  1  0.26474900  0.57493500  0.50000000  1
  Yb  Yb5  1  0.73525100  0.42506500  0.50000000  1
  Yb  Yb6  1  0.23525100  0.07493500  0.00000000  1
  Yb  Yb7  1  0.76474900  0.92506500  0.00000000  1
  Mn  Mn8  1  0.88283700  0.85832000  0.50000000  1
  Mn  Mn9  1  0.11716300  0.14168000  0.50000000  1
  Mn  Mn10  1  0.38283700  0.64168000  0.00000000  1
  Mn  Mn11  1  0.61716300  0.35832000  0.00000000  1
  Mn  Mn12  1  0.14168000  0.88283700  0.50000000  1
  Mn  Mn13  1  0.85832000  0.11716300  0.50000000  1
  Mn  Mn14  1  0.35832000  0.38283700  0.00000000  1
  Mn  Mn15  1  0.64168000  0.61716300  0.00000000  1
  Mn  Mn16  1  0.50000000  0.00000000  0.25000000  1
  Mn  Mn17  1  0.00000000  0.50000000  0.75000000  1
  Mn  Mn18  1  0.00000000  0.50000000  0.25000000  1
  Mn  Mn19  1  0.50000000  0.00000000  0.75000000  1
  Si  Si20  1  0.67320800  0.17320800  0.25000000  1
  Si  Si21  1  0.32679200  0.82679200  0.25000000  1
  Si  Si22  1  0.17320800  0.32679200  0.75000000  1
  Si  Si23  1  0.82679200  0.67320800  0.75000000  1
  Si  Si24  1  0.82679200  0.67320800  0.25000000  1
  Si  Si25  1  0.17320800  0.32679200  0.25000000  1
  Si  Si26  1  0.67320800  0.17320800  0.75000000  1
  Si  Si27  1  0.32679200  0.82679200  0.75000000  1
  Si  Si28  1  0.50000000  0.50000000  0.25156800  1
  Si  Si29  1  0.00000000  0.00000000  0.75156800  1
  Si  Si30  1  0.50000000  0.50000000  0.74843200  1
  Si  Si31  1  0.00000000  0.00000000  0.24843200  1
  Si  Si32  1  0.68161000  0.97526900  0.50000000  1
  Si  Si33  1  0.31839000  0.02473100  0.50000000  1
  Si  Si34  1  0.18161000  0.52473100  0.00000000  1
  Si  Si35  1  0.81839000  0.47526900  0.00000000  1
  Si  Si36  1  0.02473100  0.68161000  0.50000000  1
  Si  Si37  1  0.97526900  0.31839000  0.50000000  1
  Si  Si38  1  0.47526900  0.18161000  0.00000000  1
  Si  Si39  1  0.52473100  0.81839000  0.00000000  1
