# generated using pymatgen
data_CaMg2MnFe2(P2O13)2
_symmetry_space_group_name_H-M   'P 1'
_cell_length_a   6.91403100
_cell_length_b   10.31335900
_cell_length_c   14.63862367
_cell_angle_alpha   69.91570763
_cell_angle_beta   90.00000000
_cell_angle_gamma   90.00000000
_symmetry_Int_Tables_number   1
_chemical_formula_structural   CaMg2MnFe2(P2O13)2
_chemical_formula_sum   'Ca2 Mg4 Mn2 Fe4 P8 O52'
_cell_volume   980.35741577
_cell_formula_units_Z   2
loop_
 _symmetry_equiv_pos_site_id
 _symmetry_equiv_pos_as_xyz
  1  'x, y, z'
loop_
 _atom_site_type_symbol
 _atom_site_label
 _atom_site_symmetry_multiplicity
 _atom_site_fract_x
 _atom_site_fract_y
 _atom_site_fract_z
 _atom_site_occupancy
  Ca  Ca0  1  0.02511600  0.00000000  0.25000000  1
  Ca  Ca1  1  0.97488400  0.00000000  0.75000000  1
  Mg  Mg2  1  0.00000000  0.50000000  0.00000000  1
  Mg  Mg3  1  0.00000000  0.50000000  0.50000000  1
  Mg  Mg4  1  0.50714000  0.50000000  0.25000000  1
  Mg  Mg5  1  0.49286000  0.50000000  0.75000000  1
  Mn  Mn6  1  0.52542500  0.00000000  0.25000000  1
  Mn  Mn7  1  0.47457500  0.00000000  0.75000000  1
  Fe  Fe8  1  0.00000000  0.00000000  0.50000000  1
  Fe  Fe9  1  0.00000000  0.00000000  0.00000000  1
  Fe  Fe10  1  0.50000000  0.00000000  0.50000000  1
  Fe  Fe11  1  0.50000000  0.00000000  0.00000000  1
  P  P12  1  0.72282200  0.18663700  0.30120100  1
  P  P13  1  0.72282200  0.81336300  0.19879900  1
  P  P14  1  0.27717800  0.81336300  0.69879900  1
  P  P15  1  0.27717800  0.18663700  0.80120100  1
  P  P16  1  0.25671500  0.80016600  0.42323200  1
  P  P17  1  0.25671500  0.19983400  0.07676800  1
  P  P18  1  0.74328500  0.19983400  0.57676800  1
  P  P19  1  0.74328500  0.80016600  0.92323200  1
  O  O20  1  0.72811900  0.13925300  0.20745300  1
  O  O21  1  0.72811900  0.86074700  0.29254700  1
  O  O22  1  0.27188100  0.86074700  0.79254700  1
  O  O23  1  0.27188100  0.13925300  0.70745300  1
  O  O24  1  0.67379600  0.33516200  0.27883800  1
  O  O25  1  0.67379600  0.66483800  0.22116200  1
  O  O26  1  0.32620400  0.66483800  0.72116200  1
  O  O27  1  0.32620400  0.33516200  0.77883800  1
  O  O28  1  0.91297100  0.13725400  0.35615900  1
  O  O29  1  0.91297100  0.86274600  0.14384100  1
  O  O30  1  0.08702900  0.86274600  0.64384100  1
  O  O31  1  0.08702900  0.13725400  0.85615900  1
  O  O32  1  0.54862200  0.08160300  0.35113300  1
  O  O33  1  0.54862200  0.91839700  0.14886700  1
  O  O34  1  0.45137800  0.91839700  0.64886700  1
  O  O35  1  0.45137800  0.08160300  0.85113300  1
  O  O36  1  0.32323400  0.87072900  0.31279900  1
  O  O37  1  0.32323400  0.12927100  0.18720100  1
  O  O38  1  0.67676600  0.12927100  0.68720100  1
  O  O39  1  0.67676600  0.87072900  0.81279900  1
  O  O40  1  0.20697800  0.65034000  0.44465100  1
  O  O41  1  0.20697800  0.34966000  0.05534900  1
  O  O42  1  0.79302200  0.34966000  0.55534900  1
  O  O43  1  0.79302200  0.65034000  0.94465100  1
  O  O44  1  0.06433800  0.88018400  0.42585100  1
  O  O45  1  0.06433800  0.11981600  0.07414900  1
  O  O46  1  0.93566200  0.11981600  0.57414900  1
  O  O47  1  0.93566200  0.88018400  0.92585100  1
  O  O48  1  0.41174100  0.82459400  0.49122300  1
  O  O49  1  0.41174100  0.17540600  0.00877700  1
  O  O50  1  0.58825900  0.17540600  0.50877700  1
  O  O51  1  0.58825900  0.82459400  0.99122300  1
  O  O52  1  0.24937400  0.06875000  0.48016500  1
  O  O53  1  0.24937400  0.93125000  0.01983500  1
  O  O54  1  0.75062600  0.93125000  0.51983500  1
  O  O55  1  0.75062600  0.06875000  0.98016500  1
  O  O56  1  0.24029400  0.37948600  0.29780700  1
  O  O57  1  0.24029400  0.62051400  0.20219300  1
  O  O58  1  0.75970600  0.62051400  0.70219300  1
  O  O59  1  0.75970600  0.37948600  0.79780700  1
  O  O60  1  0.76365600  0.36321100  0.00359700  1
  O  O61  1  0.76365600  0.63678900  0.49640300  1
  O  O62  1  0.23634400  0.63678900  0.99640300  1
  O  O63  1  0.23634400  0.36321100  0.50359700  1
  O  O64  1  0.93958600  0.45252100  0.87200100  1
  O  O65  1  0.93958600  0.54747900  0.62799900  1
  O  O66  1  0.06041400  0.54747900  0.12799900  1
  O  O67  1  0.06041400  0.45252100  0.37200100  1
  O  O68  1  0.40741000  0.54113100  0.10399800  1
  O  O69  1  0.40741000  0.45886900  0.39600200  1
  O  O70  1  0.59259000  0.45886900  0.89600200  1
  O  O71  1  0.59259000  0.54113100  0.60399800  1
