# generated using pymatgen
data_Na3VP3NO9
_symmetry_space_group_name_H-M   'P 1'
_cell_length_a   9.57255100
_cell_length_b   9.57255100
_cell_length_c   9.57255100
_cell_angle_alpha   90.00000000
_cell_angle_beta   90.00000000
_cell_angle_gamma   90.00000000
_symmetry_Int_Tables_number   1
_chemical_formula_structural   Na3VP3NO9
_chemical_formula_sum   'Na12 V4 P12 N4 O36'
_cell_volume   877.16857909
_cell_formula_units_Z   4
loop_
 _symmetry_equiv_pos_site_id
 _symmetry_equiv_pos_as_xyz
  1  'x, y, z'
loop_
 _atom_site_type_symbol
 _atom_site_label
 _atom_site_symmetry_multiplicity
 _atom_site_fract_x
 _atom_site_fract_y
 _atom_site_fract_z
 _atom_site_occupancy
  Na  Na0  1  0.48763200  0.98763200  0.51236800  1
  Na  Na1  1  0.98763200  0.51236800  0.48763200  1
  Na  Na2  1  0.51236800  0.48763200  0.98763200  1
  Na  Na3  1  0.01236800  0.01236800  0.01236800  1
  Na  Na4  1  0.10744600  0.60744600  0.89255400  1
  Na  Na5  1  0.60744600  0.89255400  0.10744600  1
  Na  Na6  1  0.89255400  0.10744600  0.60744600  1
  Na  Na7  1  0.39255400  0.39255400  0.39255400  1
  Na  Na8  1  0.19876400  0.30123600  0.69876400  1
  Na  Na9  1  0.30123600  0.69876400  0.19876400  1
  Na  Na10  1  0.80123600  0.80123600  0.80123600  1
  Na  Na11  1  0.69876400  0.19876400  0.30123600  1
  V  V12  1  0.08028800  0.91971200  0.41971200  1
  V  V13  1  0.58028800  0.58028800  0.58028800  1
  V  V14  1  0.41971200  0.08028800  0.91971200  1
  V  V15  1  0.91971200  0.41971200  0.08028800  1
  P  P16  1  0.25511900  0.66784200  0.58499900  1
  P  P17  1  0.41500100  0.75511900  0.83215800  1
  P  P18  1  0.16784200  0.91500100  0.74488100  1
  P  P19  1  0.75511900  0.83215800  0.41500100  1
  P  P20  1  0.91500100  0.74488100  0.16784200  1
  P  P21  1  0.66784200  0.58499900  0.25511900  1
  P  P22  1  0.74488100  0.16784200  0.91500100  1
  P  P23  1  0.58499900  0.25511900  0.66784200  1
  P  P24  1  0.83215800  0.41500100  0.75511900  1
  P  P25  1  0.24488100  0.33215800  0.08499900  1
  P  P26  1  0.08499900  0.24488100  0.33215800  1
  P  P27  1  0.33215800  0.08499900  0.24488100  1
  N  N28  1  0.30291800  0.80291800  0.69708200  1
  N  N29  1  0.80291800  0.69708200  0.30291800  1
  N  N30  1  0.69708200  0.30291800  0.80291800  1
  N  N31  1  0.19708200  0.19708200  0.19708200  1
  O  O32  1  0.15083500  0.72833000  0.47766300  1
  O  O33  1  0.52233700  0.65083500  0.77167000  1
  O  O34  1  0.22833000  0.02233700  0.84916500  1
  O  O35  1  0.65083500  0.77167000  0.52233700  1
  O  O36  1  0.02233700  0.84916500  0.22833000  1
  O  O37  1  0.72833000  0.47766300  0.15083500  1
  O  O38  1  0.84916500  0.22833000  0.02233700  1
  O  O39  1  0.47766300  0.15083500  0.72833000  1
  O  O40  1  0.77167000  0.52233700  0.65083500  1
  O  O41  1  0.34916500  0.27167000  0.97766300  1
  O  O42  1  0.97766300  0.34916500  0.27167000  1
  O  O43  1  0.27167000  0.97766300  0.34916500  1
  O  O44  1  0.38851200  0.62714500  0.50505800  1
  O  O45  1  0.49494200  0.88851200  0.87285500  1
  O  O46  1  0.12714500  0.99494200  0.61148800  1
  O  O47  1  0.88851200  0.87285500  0.49494200  1
  O  O48  1  0.99494200  0.61148800  0.12714500  1
  O  O49  1  0.62714500  0.50505800  0.38851200  1
  O  O50  1  0.61148800  0.12714500  0.99494200  1
  O  O51  1  0.50505800  0.38851200  0.62714500  1
  O  O52  1  0.87285500  0.49494200  0.88851200  1
  O  O53  1  0.11148800  0.37285500  0.00505800  1
  O  O54  1  0.00505800  0.11148800  0.37285500  1
  O  O55  1  0.37285500  0.00505800  0.11148800  1
  O  O56  1  0.19076300  0.54979700  0.66784900  1
  O  O57  1  0.33215100  0.69076300  0.95020300  1
  O  O58  1  0.04979700  0.83215100  0.80923700  1
  O  O59  1  0.69076300  0.95020300  0.33215100  1
  O  O60  1  0.83215100  0.80923700  0.04979700  1
  O  O61  1  0.54979700  0.66784900  0.19076300  1
  O  O62  1  0.80923700  0.04979700  0.83215100  1
  O  O63  1  0.66784900  0.19076300  0.54979700  1
  O  O64  1  0.95020300  0.33215100  0.69076300  1
  O  O65  1  0.30923700  0.45020300  0.16784900  1
  O  O66  1  0.16784900  0.30923700  0.45020300  1
  O  O67  1  0.45020300  0.16784900  0.30923700  1
