# generated using pymatgen
data_Pr11C11Cl7
_symmetry_space_group_name_H-M   'P 1'
_cell_length_a   46.99642900
_cell_length_b   6.84919300
_cell_length_c   7.70540294
_cell_angle_alpha   76.09722598
_cell_angle_beta   90.00000000
_cell_angle_gamma   90.00000000
_symmetry_Int_Tables_number   1
_chemical_formula_structural   Pr11C11Cl7
_chemical_formula_sum   'Pr44 C44 Cl28'
_cell_volume   2407.61376260
_cell_formula_units_Z   4
loop_
 _symmetry_equiv_pos_site_id
 _symmetry_equiv_pos_as_xyz
  1  'x, y, z'
loop_
 _atom_site_type_symbol
 _atom_site_label
 _atom_site_symmetry_multiplicity
 _atom_site_fract_x
 _atom_site_fract_y
 _atom_site_fract_z
 _atom_site_occupancy
  Pr  Pr0  1  0.95053900  0.86711900  0.39021500  1
  Pr  Pr1  1  0.45053900  0.63288100  0.60978500  1
  Pr  Pr2  1  0.04946100  0.13288100  0.60978500  1
  Pr  Pr3  1  0.54946200  0.36711900  0.39021500  1
  Pr  Pr4  1  0.91139100  0.36402800  0.39529100  1
  Pr  Pr5  1  0.41139100  0.13597200  0.60470900  1
  Pr  Pr6  1  0.08860900  0.63597200  0.60470900  1
  Pr  Pr7  1  0.58860900  0.86402800  0.39529100  1
  Pr  Pr8  1  0.82267500  0.35541300  0.24726900  1
  Pr  Pr9  1  0.32267500  0.14458700  0.75273100  1
  Pr  Pr10  1  0.17732500  0.64458700  0.75273100  1
  Pr  Pr11  1  0.67732500  0.85541300  0.24726900  1
  Pr  Pr12  1  0.95960300  0.13924200  0.76834000  1
  Pr  Pr13  1  0.45960300  0.36075800  0.23166000  1
  Pr  Pr14  1  0.04039700  0.86075800  0.23166000  1
  Pr  Pr15  1  0.54039700  0.63924200  0.76834000  1
  Pr  Pr16  1  0.99724800  0.37408900  0.31084700  1
  Pr  Pr17  1  0.49724800  0.12591100  0.68915300  1
  Pr  Pr18  1  0.00275200  0.62591100  0.68915300  1
  Pr  Pr19  1  0.50275200  0.87408900  0.31084700  1
  Pr  Pr20  1  0.85886400  0.12144200  0.69922600  1
  Pr  Pr21  1  0.35886400  0.37855800  0.30077400  1
  Pr  Pr22  1  0.14113600  0.87855800  0.30077400  1
  Pr  Pr23  1  0.64113600  0.62144200  0.69922600  1
  Pr  Pr24  1  0.76974500  0.11398300  0.54787700  1
  Pr  Pr25  1  0.26974500  0.38601700  0.45212300  1
  Pr  Pr26  1  0.23025500  0.88601700  0.45212300  1
  Pr  Pr27  1  0.73025500  0.61398300  0.54787700  1
  Pr  Pr28  1  0.81522300  0.61558800  0.62566700  1
  Pr  Pr29  1  0.31522300  0.88441200  0.37433300  1
  Pr  Pr30  1  0.18477700  0.38441200  0.37433300  1
  Pr  Pr31  1  0.68477700  0.11558800  0.62566700  1
  Pr  Pr32  1  0.86570600  0.86245500  0.32069700  1
  Pr  Pr33  1  0.36570600  0.63754500  0.67930300  1
  Pr  Pr34  1  0.13429400  0.13754500  0.67930300  1
  Pr  Pr35  1  0.63429400  0.36245500  0.32069700  1
  Pr  Pr36  1  0.90428400  0.63345100  0.77119100  1
  Pr  Pr37  1  0.40428400  0.86654900  0.22880900  1
  Pr  Pr38  1  0.09571600  0.36654900  0.22880900  1
  Pr  Pr39  1  0.59571600  0.13345100  0.77119100  1
  Pr  Pr40  1  0.77788500  0.84414500  0.17239600  1
  Pr  Pr41  1  0.27788500  0.65585500  0.82760400  1
  Pr  Pr42  1  0.22211500  0.15585500  0.82760400  1
  Pr  Pr43  1  0.72211500  0.34414500  0.17239600  1
  C  C44  1  0.80981900  0.96143500  0.37510700  1
  C  C45  1  0.30981900  0.53856500  0.62489300  1
  C  C46  1  0.19018100  0.03856500  0.62489300  1
  C  C47  1  0.69018100  0.46143500  0.37510700  1
  C  C48  1  0.96379700  0.47492800  0.50964800  1
  C  C49  1  0.46379700  0.02507200  0.49035200  1
  C  C50  1  0.03620300  0.52507200  0.49035200  1
  C  C51  1  0.53620300  0.97492800  0.50964800  1
  C  C52  1  0.87151500  0.51719900  0.57236300  1
  C  C53  1  0.37151500  0.98280100  0.42763700  1
  C  C54  1  0.12848500  0.48280100  0.42763700  1
  C  C55  1  0.62848500  0.01719900  0.57236300  1
  C  C56  1  0.89886200  0.97197100  0.51871800  1
  C  C57  1  0.39886200  0.52802900  0.48128200  1
  C  C58  1  0.10113800  0.02802900  0.48128200  1
  C  C59  1  0.60113800  0.47197100  0.51871800  1
  C  C60  1  0.82657300  0.01685800  0.49668500  1
  C  C61  1  0.32657300  0.48314200  0.50331500  1
  C  C62  1  0.17342700  0.98314200  0.50331500  1
  C  C63  1  0.67342700  0.51685800  0.49668500  1
  C  C64  1  0.91882300  0.02090800  0.62758000  1
  C  C65  1  0.41882300  0.47909200  0.37242000  1
  C  C66  1  0.08117700  0.97909200  0.37242000  1
  C  C67  1  0.58117700  0.52090800  0.62758000  1
  C  C68  1  0.78269800  0.50545100  0.42455900  1
  C  C69  1  0.28269800  0.99454900  0.57544100  1
  C  C70  1  0.21730200  0.49454900  0.57544100  1
  C  C71  1  0.71730200  0.00545100  0.42455900  1
  C  C72  1  0.73719500  0.95676400  0.31530800  1
  C  C73  1  0.23719500  0.54323600  0.68469200  1
  C  C74  1  0.26280500  0.04323600  0.68469200  1
  C  C75  1  0.76280500  0.45676400  0.31530800  1
  C  C76  1  0.99190400  0.02619500  0.56144300  1
  C  C77  1  0.49190400  0.47380500  0.43855700  1
  C  C78  1  0.00809600  0.97380500  0.43855700  1
  C  C79  1  0.50809600  0.52619500  0.56144300  1
  C  C80  1  0.94412400  0.52182000  0.62227600  1
  C  C81  1  0.44412400  0.97818000  0.37772400  1
  C  C82  1  0.05587600  0.47818000  0.37772400  1
  C  C83  1  0.55587600  0.02182000  0.62227600  1
  C  C84  1  0.85465800  0.46196200  0.45139900  1
  C  C85  1  0.35465800  0.03803800  0.54860100  1
  C  C86  1  0.14534200  0.53803800  0.54860100  1
  C  C87  1  0.64534200  0.96196200  0.45139900  1
  Cl  Cl88  1  0.94744100  0.26005500  0.11885000  1
  Cl  Cl89  1  0.44744100  0.23994500  0.88115000  1
  Cl  Cl90  1  0.05255900  0.73994500  0.88115000  1
  Cl  Cl91  1  0.55255900  0.76005500  0.11885000  1
  Cl  Cl92  1  0.91312800  0.75678000  0.12016400  1
  Cl  Cl93  1  0.41312800  0.74322000  0.87983600  1
  Cl  Cl94  1  0.08687200  0.24322000  0.87983600  1
  Cl  Cl95  1  0.58687200  0.25678000  0.12016400  1
  Cl  Cl96  1  0.76680600  0.72036400  0.82442600  1
  Cl  Cl97  1  0.26680600  0.77963600  0.17557400  1
  Cl  Cl98  1  0.23319400  0.27963600  0.17557400  1
  Cl  Cl99  1  0.73319400  0.22036400  0.82442600  1
  Cl  Cl100  1  0.84007900  0.73871300  0.97390700  1
  Cl  Cl101  1  0.34007900  0.76128700  0.02609300  1
  Cl  Cl102  1  0.15992100  0.26128700  0.02609300  1
  Cl  Cl103  1  0.65992100  0.23871300  0.97390700  1
  Cl  Cl104  1  0.80543400  0.21993800  0.88773900  1
  Cl  Cl105  1  0.30543400  0.28006200  0.11226100  1
  Cl  Cl106  1  0.19456600  0.78006200  0.11226100  1
  Cl  Cl107  1  0.69456600  0.71993800  0.88773900  1
  Cl  Cl108  1  0.87547600  0.25815300  0.05632000  1
  Cl  Cl109  1  0.37547600  0.24184700  0.94368000  1
  Cl  Cl110  1  0.12452400  0.74184700  0.94368000  1
  Cl  Cl111  1  0.62452400  0.75815300  0.05632000  1
  Cl  Cl112  1  0.98416700  0.75902500  0.04766000  1
  Cl  Cl113  1  0.48416700  0.74097500  0.95234000  1
  Cl  Cl114  1  0.01583300  0.24097500  0.95234000  1
  Cl  Cl115  1  0.51583300  0.25902500  0.04766000  1
