# generated using pymatgen
data_MoN2Cl5O
_symmetry_space_group_name_H-M   'P 1'
_cell_length_a   6.85093100
_cell_length_b   10.02446300
_cell_length_c   14.96335700
_cell_angle_alpha   90.00000000
_cell_angle_beta   90.00000000
_cell_angle_gamma   90.00000000
_symmetry_Int_Tables_number   1
_chemical_formula_structural   MoN2Cl5O
_chemical_formula_sum   'Mo4 N8 Cl20 O4'
_cell_volume   1027.63703707
_cell_formula_units_Z   4
loop_
 _symmetry_equiv_pos_site_id
 _symmetry_equiv_pos_as_xyz
  1  'x, y, z'
loop_
 _atom_site_type_symbol
 _atom_site_label
 _atom_site_symmetry_multiplicity
 _atom_site_fract_x
 _atom_site_fract_y
 _atom_site_fract_z
 _atom_site_occupancy
  Mo  Mo0  1  0.32583200  0.25000000  0.41686600  1
  Mo  Mo1  1  0.17416800  0.25000000  0.91686600  1
  Mo  Mo2  1  0.67416800  0.75000000  0.58313400  1
  Mo  Mo3  1  0.82583200  0.75000000  0.08313400  1
  N  N4  1  0.33171700  0.97124600  0.16086000  1
  N  N5  1  0.16828300  0.52875400  0.66086000  1
  N  N6  1  0.66828300  0.47124600  0.83914000  1
  N  N7  1  0.83171700  0.02875400  0.33914000  1
  N  N8  1  0.66828300  0.02875400  0.83914000  1
  N  N9  1  0.83171700  0.47124600  0.33914000  1
  N  N10  1  0.33171700  0.52875400  0.16086000  1
  N  N11  1  0.16828300  0.97124600  0.66086000  1
  Cl  Cl12  1  0.31205200  0.02093100  0.39830500  1
  Cl  Cl13  1  0.18794800  0.47906900  0.89830500  1
  Cl  Cl14  1  0.68794800  0.52093100  0.60169500  1
  Cl  Cl15  1  0.81205200  0.97906900  0.10169500  1
  Cl  Cl16  1  0.68794800  0.97906900  0.60169500  1
  Cl  Cl17  1  0.81205200  0.52093100  0.10169500  1
  Cl  Cl18  1  0.31205200  0.47906900  0.39830500  1
  Cl  Cl19  1  0.18794800  0.02093100  0.89830500  1
  Cl  Cl20  1  0.46086600  0.25000000  0.99411700  1
  Cl  Cl21  1  0.03913400  0.25000000  0.49411700  1
  Cl  Cl22  1  0.53913400  0.75000000  0.00588300  1
  Cl  Cl23  1  0.96086600  0.75000000  0.50588300  1
  Cl  Cl24  1  0.14689400  0.25000000  0.25781500  1
  Cl  Cl25  1  0.35310600  0.25000000  0.75781500  1
  Cl  Cl26  1  0.85310600  0.75000000  0.74218500  1
  Cl  Cl27  1  0.64689400  0.75000000  0.24218500  1
  Cl  Cl28  1  0.53569400  0.25000000  0.28292900  1
  Cl  Cl29  1  0.96430600  0.25000000  0.78292900  1
  Cl  Cl30  1  0.46430600  0.75000000  0.71707100  1
  Cl  Cl31  1  0.03569400  0.75000000  0.21707100  1
  O  O32  1  0.99517100  0.25000000  0.99560200  1
  O  O33  1  0.50482900  0.25000000  0.49560200  1
  O  O34  1  0.00482900  0.75000000  0.00439800  1
  O  O35  1  0.49517100  0.75000000  0.50439800  1
