# generated using pymatgen
data_Ba4Ga2Fe(S3F2)2
_symmetry_space_group_name_H-M   'P 1'
_cell_length_a   6.19338800
_cell_length_b   12.87266600
_cell_length_c   19.06479000
_cell_angle_alpha   90.00000000
_cell_angle_beta   90.00000000
_cell_angle_gamma   90.00000000
_symmetry_Int_Tables_number   1
_chemical_formula_structural   Ba4Ga2Fe(S3F2)2
_chemical_formula_sum   'Ba16 Ga8 Fe4 S24 F16'
_cell_volume   1519.94829716
_cell_formula_units_Z   4
loop_
 _symmetry_equiv_pos_site_id
 _symmetry_equiv_pos_as_xyz
  1  'x, y, z'
loop_
 _atom_site_type_symbol
 _atom_site_label
 _atom_site_symmetry_multiplicity
 _atom_site_fract_x
 _atom_site_fract_y
 _atom_site_fract_z
 _atom_site_occupancy
  Ba  Ba0  1  0.26594800  0.75088300  0.07896500  1
  Ba  Ba1  1  0.23405200  0.25088300  0.42103500  1
  Ba  Ba2  1  0.73405200  0.24911700  0.57896500  1
  Ba  Ba3  1  0.76594800  0.74911700  0.92103500  1
  Ba  Ba4  1  0.73405200  0.24911700  0.92103500  1
  Ba  Ba5  1  0.76594800  0.74911700  0.57896500  1
  Ba  Ba6  1  0.26594800  0.75088300  0.42103500  1
  Ba  Ba7  1  0.23405200  0.25088300  0.07896500  1
  Ba  Ba8  1  0.75656200  0.99793600  0.07852700  1
  Ba  Ba9  1  0.74343800  0.49793600  0.42147300  1
  Ba  Ba10  1  0.24343800  0.00206400  0.57852700  1
  Ba  Ba11  1  0.25656200  0.50206400  0.92147300  1
  Ba  Ba12  1  0.24343800  0.00206400  0.92147300  1
  Ba  Ba13  1  0.25656200  0.50206400  0.57852700  1
  Ba  Ba14  1  0.75656200  0.99793600  0.42147300  1
  Ba  Ba15  1  0.74343800  0.49793600  0.07852700  1
  Ga  Ga16  1  0.64188000  0.79591200  0.25000000  1
  Ga  Ga17  1  0.85812000  0.29591200  0.25000000  1
  Ga  Ga18  1  0.35812000  0.20408800  0.75000000  1
  Ga  Ga19  1  0.14188000  0.70408800  0.75000000  1
  Ga  Ga20  1  0.13949300  0.95137900  0.25000000  1
  Ga  Ga21  1  0.36050700  0.45137900  0.25000000  1
  Ga  Ga22  1  0.86050700  0.04862100  0.75000000  1
  Ga  Ga23  1  0.63949300  0.54862100  0.75000000  1
  Fe  Fe24  1  0.49845100  0.12423400  0.25000000  1
  Fe  Fe25  1  0.00154900  0.62423400  0.25000000  1
  Fe  Fe26  1  0.50154900  0.87576600  0.75000000  1
  Fe  Fe27  1  0.99845100  0.37576600  0.75000000  1
  S  S28  1  0.27346400  0.02181400  0.34906600  1
  S  S29  1  0.22653600  0.52181400  0.15093400  1
  S  S30  1  0.72653600  0.97818600  0.84906600  1
  S  S31  1  0.77346400  0.47818600  0.65093400  1
  S  S32  1  0.72653600  0.97818600  0.65093400  1
  S  S33  1  0.77346400  0.47818600  0.84906600  1
  S  S34  1  0.27346400  0.02181400  0.15093400  1
  S  S35  1  0.22653600  0.52181400  0.34906600  1
  S  S36  1  0.77746400  0.72584700  0.15100000  1
  S  S37  1  0.72253600  0.22584700  0.34900000  1
  S  S38  1  0.22253600  0.27415300  0.65100000  1
  S  S39  1  0.27746400  0.77415300  0.84900000  1
  S  S40  1  0.22253600  0.27415300  0.84900000  1
  S  S41  1  0.27746400  0.77415300  0.65100000  1
  S  S42  1  0.77746400  0.72584700  0.34900000  1
  S  S43  1  0.72253600  0.22584700  0.15100000  1
  S  S44  1  0.26446000  0.77983200  0.25000000  1
  S  S45  1  0.23554000  0.27983200  0.25000000  1
  S  S46  1  0.73554000  0.22016800  0.75000000  1
  S  S47  1  0.76446000  0.72016800  0.75000000  1
  S  S48  1  0.76213400  0.96765200  0.25000000  1
  S  S49  1  0.73786600  0.46765200  0.25000000  1
  S  S50  1  0.23786600  0.03234800  0.75000000  1
  S  S51  1  0.26213400  0.53234800  0.75000000  1
  F  F52  1  0.01183800  0.87477900  0.00204800  1
  F  F53  1  0.48816200  0.37477900  0.49795200  1
  F  F54  1  0.98816200  0.12522100  0.50204800  1
  F  F55  1  0.51183800  0.62522100  0.99795200  1
  F  F56  1  0.98816200  0.12522100  0.99795200  1
  F  F57  1  0.51183800  0.62522100  0.50204800  1
  F  F58  1  0.01183800  0.87477900  0.49795200  1
  F  F59  1  0.48816200  0.37477900  0.00204800  1
  F  F60  1  0.00702200  0.62442800  0.00041000  1
  F  F61  1  0.49297800  0.12442800  0.49959000  1
  F  F62  1  0.99297800  0.37557200  0.50041000  1
  F  F63  1  0.50702200  0.87557200  0.99959000  1
  F  F64  1  0.99297800  0.37557200  0.99959000  1
  F  F65  1  0.50702200  0.87557200  0.50041000  1
  F  F66  1  0.00702200  0.62442800  0.49959000  1
  F  F67  1  0.49297800  0.12442800  0.00041000  1
