# generated using pymatgen
data_HfH14C4NOF5
_symmetry_space_group_name_H-M   'P 1'
_cell_length_a   9.84248646
_cell_length_b   10.04340180
_cell_length_c   20.02688384
_cell_angle_alpha   90.00000000
_cell_angle_beta   90.00000000
_cell_angle_gamma   90.00000000
_symmetry_Int_Tables_number   1
_chemical_formula_structural   HfH14C4NOF5
_chemical_formula_sum   'Hf8 H112 C32 N8 O8 F40'
_cell_volume   1979.69844717
_cell_formula_units_Z   8
loop_
 _symmetry_equiv_pos_site_id
 _symmetry_equiv_pos_as_xyz
  1  'x, y, z'
loop_
 _atom_site_type_symbol
 _atom_site_label
 _atom_site_symmetry_multiplicity
 _atom_site_fract_x
 _atom_site_fract_y
 _atom_site_fract_z
 _atom_site_occupancy
  Hf  Hf0  1  0.40381241  0.96184309  0.92462495  1
  Hf  Hf1  1  0.09618759  0.46184309  0.07537505  1
  Hf  Hf2  1  0.90381241  0.03815691  0.57537505  1
  Hf  Hf3  1  0.59618759  0.53815691  0.42462495  1
  Hf  Hf4  1  0.59618759  0.03815691  0.07537505  1
  Hf  Hf5  1  0.90381241  0.53815691  0.92462495  1
  Hf  Hf6  1  0.09618759  0.96184309  0.42462495  1
  Hf  Hf7  1  0.40381241  0.46184309  0.57537505  1
  H  H8  1  0.26957657  0.73753503  0.99791147  1
  H  H9  1  0.23042343  0.23753503  0.00208853  1
  H  H10  1  0.76957657  0.26246497  0.50208853  1
  H  H11  1  0.73042343  0.76246497  0.49791147  1
  H  H12  1  0.73042343  0.26246497  0.00208853  1
  H  H13  1  0.76957657  0.76246497  0.99791147  1
  H  H14  1  0.23042343  0.73753503  0.49791147  1
  H  H15  1  0.26957657  0.23753503  0.50208853  1
  H  H16  1  0.18942730  0.76067531  0.93087020  1
  H  H17  1  0.31057270  0.26067531  0.06912980  1
  H  H18  1  0.68942730  0.23932469  0.56912980  1
  H  H19  1  0.81057270  0.73932469  0.43087020  1
  H  H20  1  0.81057270  0.23932469  0.06912980  1
  H  H21  1  0.68942730  0.73932469  0.93087020  1
  H  H22  1  0.31057270  0.76067531  0.43087020  1
  H  H23  1  0.18942730  0.26067531  0.56912980  1
  H  H24  1  0.36693382  0.58546298  0.75822721  1
  H  H25  1  0.13306618  0.08546298  0.24177279  1
  H  H26  1  0.86693382  0.41453702  0.74177279  1
  H  H27  1  0.63306618  0.91453702  0.25822721  1
  H  H28  1  0.63306618  0.41453702  0.24177279  1
  H  H29  1  0.86693382  0.91453702  0.75822721  1
  H  H30  1  0.13306618  0.58546298  0.25822721  1
  H  H31  1  0.36693382  0.08546298  0.74177279  1
  H  H32  1  0.29560281  0.62738968  0.83881120  1
  H  H33  1  0.20439719  0.12738968  0.16118880  1
  H  H34  1  0.79560281  0.37261032  0.66118880  1
  H  H35  1  0.70439719  0.87261032  0.33881120  1
  H  H36  1  0.70439719  0.37261032  0.16118880  1
  H  H37  1  0.79560281  0.87261032  0.83881120  1
  H  H38  1  0.20439719  0.62738968  0.33881120  1
  H  H39  1  0.29560281  0.12738968  0.66118880  1
  H  H40  1  0.47366306  0.64874148  0.82404992  1
  H  H41  1  0.02633694  0.14874148  0.17595008  1
  H  H42  1  0.97366306  0.35125852  0.67595008  1
  H  H43  1  0.52633694  0.85125852  0.32404992  1
  H  H44  1  0.52633694  0.35125852  0.17595008  1
  H  H45  1  0.97366306  0.85125852  0.82404992  1
  H  H46  1  0.02633694  0.64874148  0.32404992  1
  H  H47  1  0.47366306  0.14874148  0.67595008  1
  H  H48  1  0.26947307  0.36688469  0.76733954  1
  H  H49  1  0.23052693  0.86688469  0.23266046  1
  H  H50  1  0.76947307  0.63311531  0.73266046  1
  H  H51  1  0.73052693  0.13311531  0.26733954  1
  H  H52  1  0.73052693  0.63311531  0.23266046  1
  H  H53  1  0.76947307  0.13311531  0.76733954  1
  H  H54  1  0.23052693  0.36688469  0.26733954  1
  H  H55  1  0.26947307  0.86688469  0.73266046  1
  H  H56  1  0.31010915  0.26360876  0.83844476  1
  H  H57  1  0.18989085  0.76360876  0.16155524  1
  H  H58  1  0.81010915  0.73639124  0.66155524  1
  H  H59  1  0.68989085  0.23639124  0.33844476  1
  H  H60  1  0.68989085  0.73639124  0.16155524  1
  H  H61  1  0.81010915  0.23639124  0.83844476  1
  H  H62  1  0.18989085  0.26360876  0.33844476  1
  H  H63  1  0.31010915  0.76360876  0.66155524  1
  H  H64  1  0.20025085  0.40567340  0.84835959  1
  H  H65  1  0.29974915  0.90567340  0.15164041  1
  H  H66  1  0.70025085  0.59432660  0.65164041  1
  H  H67  1  0.79974915  0.09432660  0.34835959  1
  H  H68  1  0.79974915  0.59432660  0.15164041  1
  H  H69  1  0.70025085  0.09432660  0.84835959  1
  H  H70  1  0.29974915  0.40567340  0.34835959  1
  H  H71  1  0.20025085  0.90567340  0.65164041  1
  H  H72  1  0.50631079  0.39693727  0.74481611  1
  H  H73  1  0.99368921  0.89693727  0.25518389  1
  H  H74  1  0.00631079  0.60306273  0.75518389  1
  H  H75  1  0.49368921  0.10306273  0.24481611  1
  H  H76  1  0.49368921  0.60306273  0.25518389  1
  H  H77  1  0.00631079  0.10306273  0.74481611  1
  H  H78  1  0.99368921  0.39693727  0.24481611  1
  H  H79  1  0.50631079  0.89693727  0.75518389  1
  H  H80  1  0.61845666  0.45476341  0.80995416  1
  H  H81  1  0.88154334  0.95476341  0.19004584  1
  H  H82  1  0.11845666  0.54523659  0.69004584  1
  H  H83  1  0.38154334  0.04523659  0.30995416  1
  H  H84  1  0.38154334  0.54523659  0.19004584  1
  H  H85  1  0.11845666  0.04523659  0.80995416  1
  H  H86  1  0.88154334  0.45476341  0.30995416  1
  H  H87  1  0.61845666  0.95476341  0.69004584  1
  H  H88  1  0.54364821  0.29056483  0.81512413  1
  H  H89  1  0.95635179  0.79056483  0.18487587  1
  H  H90  1  0.04364821  0.70943517  0.68487587  1
  H  H91  1  0.45635179  0.20943517  0.31512413  1
  H  H92  1  0.45635179  0.70943517  0.18487587  1
  H  H93  1  0.04364821  0.20943517  0.81512413  1
  H  H94  1  0.95635179  0.29056483  0.31512413  1
  H  H95  1  0.54364821  0.79056483  0.68487587  1
  H  H96  1  0.52935332  0.50888187  0.91785720  1
  H  H97  1  0.97064668  0.00888187  0.08214280  1
  H  H98  1  0.02935332  0.49111813  0.58214280  1
  H  H99  1  0.47064668  0.99111813  0.41785720  1
  H  H100  1  0.47064668  0.49111813  0.08214280  1
  H  H101  1  0.02935332  0.99111813  0.91785720  1
  H  H102  1  0.97064668  0.50888187  0.41785720  1
  H  H103  1  0.52935332  0.00888187  0.58214280  1
  H  H104  1  0.35073661  0.48881637  0.93513176  1
  H  H105  1  0.14926339  0.98881637  0.06486824  1
  H  H106  1  0.85073661  0.51118363  0.56486824  1
  H  H107  1  0.64926339  0.01118363  0.43513176  1
  H  H108  1  0.64926339  0.51118363  0.06486824  1
  H  H109  1  0.85073661  0.01118363  0.93513176  1
  H  H110  1  0.14926339  0.48881637  0.43513176  1
  H  H111  1  0.35073661  0.98881637  0.56486824  1
  H  H112  1  0.45768202  0.34522945  0.92418329  1
  H  H113  1  0.04231798  0.84522945  0.07581671  1
  H  H114  1  0.95768202  0.65477055  0.57581671  1
  H  H115  1  0.54231798  0.15477055  0.42418329  1
  H  H116  1  0.54231798  0.65477055  0.07581671  1
  H  H117  1  0.95768202  0.15477055  0.92418329  1
  H  H118  1  0.04231798  0.34522945  0.42418329  1
  H  H119  1  0.45768202  0.84522945  0.57581671  1
  C  C120  1  0.38422929  0.58843870  0.81225895  1
  C  C121  1  0.11577071  0.08843870  0.18774105  1
  C  C122  1  0.88422929  0.41156130  0.68774105  1
  C  C123  1  0.61577071  0.91156130  0.31225895  1
  C  C124  1  0.61577071  0.41156130  0.18774105  1
  C  C125  1  0.88422929  0.91156130  0.81225895  1
  C  C126  1  0.11577071  0.58843870  0.31225895  1
  C  C127  1  0.38422929  0.08843870  0.68774105  1
  C  C128  1  0.28758689  0.36478191  0.82133668  1
  C  C129  1  0.21241311  0.86478191  0.17866332  1
  C  C130  1  0.78758689  0.63521809  0.67866332  1
  C  C131  1  0.71241311  0.13521809  0.32133668  1
  C  C132  1  0.71241311  0.63521809  0.17866332  1
  C  C133  1  0.78758689  0.13521809  0.82133668  1
  C  C134  1  0.21241311  0.36478191  0.32133668  1
  C  C135  1  0.28758689  0.86478191  0.67866332  1
  C  C136  1  0.52950678  0.39331452  0.79826764  1
  C  C137  1  0.97049322  0.89331452  0.20173236  1
  C  C138  1  0.02950678  0.60668548  0.70173236  1
  C  C139  1  0.47049322  0.10668548  0.29826764  1
  C  C140  1  0.47049322  0.60668548  0.20173236  1
  C  C141  1  0.02950678  0.10668548  0.79826764  1
  C  C142  1  0.97049322  0.39331452  0.29826764  1
  C  C143  1  0.52950678  0.89331452  0.70173236  1
  C  C144  1  0.43894812  0.44826775  0.90876287  1
  C  C145  1  0.06105188  0.94826775  0.09123713  1
  C  C146  1  0.93894812  0.55173225  0.59123713  1
  C  C147  1  0.56105188  0.05173225  0.40876287  1
  C  C148  1  0.56105188  0.55173225  0.09123713  1
  C  C149  1  0.93894812  0.05173225  0.90876287  1
  C  C150  1  0.06105188  0.44826775  0.40876287  1
  C  C151  1  0.43894812  0.94826775  0.59123713  1
  N  N152  1  0.40996255  0.44894160  0.83531761  1
  N  N153  1  0.09003745  0.94894160  0.16468239  1
  N  N154  1  0.90996255  0.55105840  0.66468239  1
  N  N155  1  0.59003745  0.05105840  0.33531761  1
  N  N156  1  0.59003745  0.55105840  0.16468239  1
  N  N157  1  0.90996255  0.05105840  0.83531761  1
  N  N158  1  0.09003745  0.44894160  0.33531761  1
  N  N159  1  0.40996255  0.94894160  0.66468239  1
  O  O160  1  0.26363674  0.79716523  0.95856329  1
  O  O161  1  0.23636326  0.29716523  0.04143671  1
  O  O162  1  0.76363674  0.20283477  0.54143671  1
  O  O163  1  0.73636326  0.70283477  0.45856329  1
  O  O164  1  0.73636326  0.20283477  0.04143671  1
  O  O165  1  0.76363674  0.70283477  0.95856329  1
  O  O166  1  0.23636326  0.79716523  0.45856329  1
  O  O167  1  0.26363674  0.29716523  0.54143671  1
  F  F168  1  0.44055022  0.91443880  0.02770255  1
  F  F169  1  0.05944978  0.41443880  0.97229745  1
  F  F170  1  0.94055022  0.08556120  0.47229745  1
  F  F171  1  0.55944978  0.58556120  0.52770255  1
  F  F172  1  0.55944978  0.08556120  0.97229745  1
  F  F173  1  0.94055022  0.58556120  0.02770255  1
  F  F174  1  0.05944978  0.91443880  0.52770255  1
  F  F175  1  0.44055022  0.41443880  0.47229745  1
  F  F176  1  0.47088395  0.08616670  0.85405608  1
  F  F177  1  0.02911605  0.58616670  0.14594392  1
  F  F178  1  0.97088395  0.91383330  0.64594392  1
  F  F179  1  0.52911605  0.41383330  0.35405608  1
  F  F180  1  0.52911605  0.91383330  0.14594392  1
  F  F181  1  0.97088395  0.41383330  0.85405608  1
  F  F182  1  0.02911605  0.08616670  0.35405608  1
  F  F183  1  0.47088395  0.58616670  0.64594392  1
  F  F184  1  0.28617405  0.90747391  0.84742432  1
  F  F185  1  0.21382595  0.40747391  0.15257568  1
  F  F186  1  0.78617405  0.09252609  0.65257568  1
  F  F187  1  0.71382595  0.59252609  0.34742432  1
  F  F188  1  0.71382595  0.09252609  0.15257568  1
  F  F189  1  0.78617405  0.59252609  0.84742432  1
  F  F190  1  0.21382595  0.90747391  0.34742432  1
  F  F191  1  0.28617405  0.40747391  0.65257568  1
  F  F192  1  0.26620106  0.09573875  0.95619222  1
  F  F193  1  0.23379894  0.59573875  0.04380778  1
  F  F194  1  0.76620106  0.90426125  0.54380778  1
  F  F195  1  0.73379894  0.40426125  0.45619222  1
  F  F196  1  0.73379894  0.90426125  0.04380778  1
  F  F197  1  0.76620106  0.40426125  0.95619222  1
  F  F198  1  0.23379894  0.09573875  0.45619222  1
  F  F199  1  0.26620106  0.59573875  0.54380778  1
  F  F200  1  0.55084530  0.82880286  0.90289326  1
  F  F201  1  0.94915470  0.32880286  0.09710674  1
  F  F202  1  0.05084530  0.17119714  0.59710674  1
  F  F203  1  0.44915470  0.67119714  0.40289326  1
  F  F204  1  0.44915470  0.17119714  0.09710674  1
  F  F205  1  0.05084530  0.67119714  0.90289326  1
  F  F206  1  0.94915470  0.82880286  0.40289326  1
  F  F207  1  0.55084530  0.32880286  0.59710674  1
