# generated using pymatgen
data_CoBr3N5
_symmetry_space_group_name_H-M   'P 1'
_cell_length_a   6.66706600
_cell_length_b   7.12823600
_cell_length_c   15.67730600
_cell_angle_alpha   90.00000000
_cell_angle_beta   90.00000000
_cell_angle_gamma   90.00000000
_symmetry_Int_Tables_number   1
_chemical_formula_structural   CoBr3N5
_chemical_formula_sum   'Co4 Br12 N20'
_cell_volume   745.05487286
_cell_formula_units_Z   4
loop_
 _symmetry_equiv_pos_site_id
 _symmetry_equiv_pos_as_xyz
  1  'x, y, z'
loop_
 _atom_site_type_symbol
 _atom_site_label
 _atom_site_symmetry_multiplicity
 _atom_site_fract_x
 _atom_site_fract_y
 _atom_site_fract_z
 _atom_site_occupancy
  Co  Co0  1  0.28466100  0.75000000  0.13707100  1
  Co  Co1  1  0.21533900  0.75000000  0.63707100  1
  Co  Co2  1  0.71533900  0.25000000  0.86292900  1
  Co  Co3  1  0.78466100  0.25000000  0.36292900  1
  Br  Br4  1  0.67289200  0.75000000  0.92290100  1
  Br  Br5  1  0.82710800  0.75000000  0.42290100  1
  Br  Br6  1  0.32710800  0.25000000  0.07709900  1
  Br  Br7  1  0.17289200  0.25000000  0.57709900  1
  Br  Br8  1  0.54951200  0.47567000  0.63095900  1
  Br  Br9  1  0.95048800  0.02433000  0.13095900  1
  Br  Br10  1  0.45048800  0.97567000  0.36904100  1
  Br  Br11  1  0.04951200  0.52433000  0.86904100  1
  Br  Br12  1  0.45048800  0.52433000  0.36904100  1
  Br  Br13  1  0.04951200  0.97567000  0.86904100  1
  Br  Br14  1  0.54951200  0.02433000  0.63095900  1
  Br  Br15  1  0.95048800  0.47567000  0.13095900  1
  N  N16  1  0.14739300  0.75000000  0.91397900  1
  N  N17  1  0.35260700  0.75000000  0.41397900  1
  N  N18  1  0.85260700  0.25000000  0.08602100  1
  N  N19  1  0.64739300  0.25000000  0.58602100  1
  N  N20  1  0.10178100  0.75000000  0.20970300  1
  N  N21  1  0.39821900  0.75000000  0.70970300  1
  N  N22  1  0.89821900  0.25000000  0.79029700  1
  N  N23  1  0.60178100  0.25000000  0.29029700  1
  N  N24  1  0.50978500  0.75000000  0.17109300  1
  N  N25  1  0.99021500  0.75000000  0.67109300  1
  N  N26  1  0.49021500  0.25000000  0.82890700  1
  N  N27  1  0.00978500  0.25000000  0.32890700  1
  N  N28  1  0.21510100  0.96338600  0.07934400  1
  N  N29  1  0.28489900  0.53661400  0.57934400  1
  N  N30  1  0.78489900  0.46338600  0.92065600  1
  N  N31  1  0.71510100  0.03661400  0.42065600  1
  N  N32  1  0.78489900  0.03661400  0.92065600  1
  N  N33  1  0.71510100  0.46338600  0.42065600  1
  N  N34  1  0.21510100  0.53661400  0.07934400  1
  N  N35  1  0.28489900  0.96338600  0.57934400  1
