# generated using pymatgen
data_Yb2Mn2Co15
_symmetry_space_group_name_H-M   'P 1'
_cell_length_a   8.15026000
_cell_length_b   8.27734013
_cell_length_c   8.27734013
_cell_angle_alpha   119.91887313
_cell_angle_beta   90.00000000
_cell_angle_gamma   90.00000000
_symmetry_Int_Tables_number   1
_chemical_formula_structural   Yb2Mn2Co15
_chemical_formula_sum   'Yb4 Mn4 Co30'
_cell_volume   483.99196171
_cell_formula_units_Z   2
loop_
 _symmetry_equiv_pos_site_id
 _symmetry_equiv_pos_as_xyz
  1  'x, y, z'
loop_
 _atom_site_type_symbol
 _atom_site_label
 _atom_site_symmetry_multiplicity
 _atom_site_fract_x
 _atom_site_fract_y
 _atom_site_fract_z
 _atom_site_occupancy
  Yb  Yb0  1  0.75000000  0.00011300  0.99988700  1
  Yb  Yb1  1  0.25000000  0.99988700  0.00011300  1
  Yb  Yb2  1  0.25000000  0.66671900  0.33328100  1
  Yb  Yb3  1  0.75000000  0.33328100  0.66671900  1
  Mn  Mn4  1  0.59386600  0.66671700  0.33328300  1
  Mn  Mn5  1  0.40613400  0.33328300  0.66671700  1
  Mn  Mn6  1  0.09386600  0.33328300  0.66671700  1
  Mn  Mn7  1  0.90613400  0.66671700  0.33328300  1
  Co  Co8  1  0.50000000  0.50000000  0.00000000  1
  Co  Co9  1  0.50000000  0.50000000  0.50000000  1
  Co  Co10  1  0.50000000  0.00000000  0.50000000  1
  Co  Co11  1  0.00000000  0.50000000  0.00000000  1
  Co  Co12  1  0.00000000  0.50000000  0.50000000  1
  Co  Co13  1  0.00000000  0.00000000  0.50000000  1
  Co  Co14  1  0.75000000  0.67210700  0.04590900  1
  Co  Co15  1  0.75000000  0.37363800  0.32786600  1
  Co  Co16  1  0.75000000  0.95397300  0.62606000  1
  Co  Co17  1  0.75000000  0.37394000  0.04602700  1
  Co  Co18  1  0.75000000  0.95409100  0.32789300  1
  Co  Co19  1  0.75000000  0.67213400  0.62636200  1
  Co  Co20  1  0.25000000  0.32789300  0.95409100  1
  Co  Co21  1  0.25000000  0.62636200  0.67213400  1
  Co  Co22  1  0.25000000  0.04602700  0.37394000  1
  Co  Co23  1  0.25000000  0.62606000  0.95397300  1
  Co  Co24  1  0.25000000  0.04590900  0.67210700  1
  Co  Co25  1  0.25000000  0.32786600  0.37363800  1
  Co  Co26  1  0.47786000  0.83684800  0.67389500  1
  Co  Co27  1  0.47772200  0.83679600  0.16320400  1
  Co  Co28  1  0.47786000  0.32610500  0.16315200  1
  Co  Co29  1  0.52214000  0.16315200  0.32610500  1
  Co  Co30  1  0.52227800  0.16320400  0.83679600  1
  Co  Co31  1  0.52214000  0.67389500  0.83684800  1
  Co  Co32  1  0.97786000  0.16315200  0.32610500  1
  Co  Co33  1  0.97772200  0.16320400  0.83679600  1
  Co  Co34  1  0.97786000  0.67389500  0.83684800  1
  Co  Co35  1  0.02214000  0.83684800  0.67389500  1
  Co  Co36  1  0.02227800  0.83679600  0.16320400  1
  Co  Co37  1  0.02214000  0.32610500  0.16315200  1
