# generated using pymatgen
data_CeSbMo2O9
_symmetry_space_group_name_H-M   'P 1'
_cell_length_a   9.90141728
_cell_length_b   9.90141728
_cell_length_c   11.06958381
_cell_angle_alpha   68.31912749
_cell_angle_beta   68.31912749
_cell_angle_gamma   95.85267418
_symmetry_Int_Tables_number   1
_chemical_formula_structural   CeSbMo2O9
_chemical_formula_sum   'Ce4 Sb4 Mo8 O36'
_cell_volume   900.68464477
_cell_formula_units_Z   4
loop_
 _symmetry_equiv_pos_site_id
 _symmetry_equiv_pos_as_xyz
  1  'x, y, z'
loop_
 _atom_site_type_symbol
 _atom_site_label
 _atom_site_symmetry_multiplicity
 _atom_site_fract_x
 _atom_site_fract_y
 _atom_site_fract_z
 _atom_site_occupancy
  Ce  Ce0  1  0.67574100  0.32425900  0.75000000  1
  Ce  Ce1  1  0.32425900  0.67574100  0.25000000  1
  Ce  Ce2  1  0.12351300  0.87648700  0.75000000  1
  Ce  Ce3  1  0.87648700  0.12351300  0.25000000  1
  Sb  Sb4  1  0.64733700  0.62074600  0.96269900  1
  Sb  Sb5  1  0.37925400  0.35266300  0.53730100  1
  Sb  Sb6  1  0.35266300  0.37925400  0.03730100  1
  Sb  Sb7  1  0.62074600  0.64733700  0.46269900  1
  Mo  Mo8  1  0.04874000  0.26007600  0.47218400  1
  Mo  Mo9  1  0.73992400  0.95126000  0.02781600  1
  Mo  Mo10  1  0.95126000  0.73992400  0.52781600  1
  Mo  Mo11  1  0.26007600  0.04874000  0.97218400  1
  Mo  Mo12  1  0.06218600  0.43491100  0.80348400  1
  Mo  Mo13  1  0.56508900  0.93781400  0.69651600  1
  Mo  Mo14  1  0.93781400  0.56508900  0.19651600  1
  Mo  Mo15  1  0.43491100  0.06218600  0.30348400  1
  O  O16  1  0.06166700  0.09500000  0.59886800  1
  O  O17  1  0.90500000  0.93833300  0.90113200  1
  O  O18  1  0.93833300  0.90500000  0.40113200  1
  O  O19  1  0.09500000  0.06166700  0.09886800  1
  O  O20  1  0.87439600  0.29753200  0.56063300  1
  O  O21  1  0.70246800  0.12560400  0.93936700  1
  O  O22  1  0.12560400  0.70246800  0.43936700  1
  O  O23  1  0.29753200  0.87439600  0.06063300  1
  O  O24  1  0.05237800  0.22831500  0.32101100  1
  O  O25  1  0.77168500  0.94762200  0.17898900  1
  O  O26  1  0.94762200  0.77168500  0.67898900  1
  O  O27  1  0.22831500  0.05237800  0.82101100  1
  O  O28  1  0.78125400  0.59624800  0.57546700  1
  O  O29  1  0.40375200  0.21874600  0.92453300  1
  O  O30  1  0.21874600  0.40375200  0.42453300  1
  O  O31  1  0.59624800  0.78125400  0.07546700  1
  O  O32  1  0.98588600  0.30470100  0.98943700  1
  O  O33  1  0.69529900  0.01411400  0.51056300  1
  O  O34  1  0.01411400  0.69529900  0.01056300  1
  O  O35  1  0.30470100  0.98588600  0.48943700  1
  O  O36  1  0.14142500  0.61783300  0.77777000  1
  O  O37  1  0.38216700  0.85857500  0.72223000  1
  O  O38  1  0.85857500  0.38216700  0.22223000  1
  O  O39  1  0.61783300  0.14142500  0.27777000  1
  O  O40  1  0.91415200  0.44161900  0.74735700  1
  O  O41  1  0.55838100  0.08584800  0.75264300  1
  O  O42  1  0.08584800  0.55838100  0.25264300  1
  O  O43  1  0.44161900  0.91415200  0.24735700  1
  O  O44  1  0.21541100  0.37444400  0.69695500  1
  O  O45  1  0.62555600  0.78458900  0.80304500  1
  O  O46  1  0.78458900  0.62555600  0.30304500  1
  O  O47  1  0.37444400  0.21541100  0.19695500  1
  O  O48  1  0.57561000  0.45989400  0.90070300  1
  O  O49  1  0.54010600  0.42439000  0.59929700  1
  O  O50  1  0.42439000  0.54010600  0.09929700  1
  O  O51  1  0.45989400  0.57561000  0.40070300  1
