# generated using pymatgen
data_Sr3TiSi4O15
_symmetry_space_group_name_H-M   'P 1'
_cell_length_a   7.70312100
_cell_length_b   7.82007000
_cell_length_c   11.24332660
_cell_angle_alpha   76.67225230
_cell_angle_beta   90.00000000
_cell_angle_gamma   90.00000000
_symmetry_Int_Tables_number   1
_chemical_formula_structural   Sr3TiSi4O15
_chemical_formula_sum   'Sr6 Ti2 Si8 O30'
_cell_volume   659.04502591
_cell_formula_units_Z   2
loop_
 _symmetry_equiv_pos_site_id
 _symmetry_equiv_pos_as_xyz
  1  'x, y, z'
loop_
 _atom_site_type_symbol
 _atom_site_label
 _atom_site_symmetry_multiplicity
 _atom_site_fract_x
 _atom_site_fract_y
 _atom_site_fract_z
 _atom_site_occupancy
  Sr  Sr0  1  0.25000000  0.64495200  0.10608300  1
  Sr  Sr1  1  0.75000000  0.35504800  0.89391700  1
  Sr  Sr2  1  0.25000000  0.29242100  0.41195000  1
  Sr  Sr3  1  0.75000000  0.70757900  0.58805000  1
  Sr  Sr4  1  0.75000000  0.60414400  0.25935800  1
  Sr  Sr5  1  0.25000000  0.39585600  0.74064200  1
  Ti  Ti6  1  0.50000000  0.00000000  0.00000000  1
  Ti  Ti7  1  0.00000000  0.00000000  0.00000000  1
  Si  Si8  1  0.04591000  0.87471500  0.30159900  1
  Si  Si9  1  0.54591000  0.12528500  0.69840100  1
  Si  Si10  1  0.95409000  0.12528500  0.69840100  1
  Si  Si11  1  0.45409000  0.87471500  0.30159900  1
  Si  Si12  1  0.96069200  0.25626100  0.19974000  1
  Si  Si13  1  0.46069200  0.74373900  0.80026000  1
  Si  Si14  1  0.03930800  0.74373900  0.80026000  1
  Si  Si15  1  0.53930800  0.25626100  0.19974000  1
  O  O16  1  0.25000000  0.80903600  0.30912400  1
  O  O17  1  0.75000000  0.19096400  0.69087600  1
  O  O18  1  0.97261400  0.85355300  0.16879900  1
  O  O19  1  0.47261400  0.14644700  0.83120100  1
  O  O20  1  0.02738600  0.14644700  0.83120100  1
  O  O21  1  0.52738600  0.85355300  0.16879900  1
  O  O22  1  0.93813000  0.74949200  0.40938900  1
  O  O23  1  0.43813000  0.25050800  0.59061100  1
  O  O24  1  0.06187000  0.25050800  0.59061100  1
  O  O25  1  0.56187000  0.74949200  0.40938900  1
  O  O26  1  0.04382200  0.08696400  0.30364200  1
  O  O27  1  0.54382200  0.91303600  0.69635800  1
  O  O28  1  0.95617800  0.91303600  0.69635800  1
  O  O29  1  0.45617800  0.08696400  0.30364200  1
  O  O30  1  0.04162000  0.43133100  0.22996400  1
  O  O31  1  0.54162000  0.56866900  0.77003600  1
  O  O32  1  0.95838000  0.56866900  0.77003600  1
  O  O33  1  0.45838000  0.43133100  0.22996400  1
  O  O34  1  0.98997200  0.22642300  0.06129000  1
  O  O35  1  0.48997200  0.77357700  0.93871000  1
  O  O36  1  0.01002800  0.77357700  0.93871000  1
  O  O37  1  0.51002800  0.22642300  0.06129000  1
  O  O38  1  0.75000000  0.26309900  0.22609700  1
  O  O39  1  0.25000000  0.73690100  0.77390300  1
  O  O40  1  0.25000000  0.98042400  0.02015700  1
  O  O41  1  0.75000000  0.01957600  0.97984300  1
  O  O42  1  0.75000000  0.59571800  0.02227400  1
  O  O43  1  0.25000000  0.40428200  0.97772600  1
  O  O44  1  0.25000000  0.56991800  0.50001100  1
  O  O45  1  0.75000000  0.43008200  0.49998900  1
