# generated using pymatgen
data_InP2PbO8
_symmetry_space_group_name_H-M   'P 1'
_cell_length_a   11.20524800
_cell_length_b   6.76897400
_cell_length_c   9.78386969
_cell_angle_alpha   68.22017223
_cell_angle_beta   90.00000000
_cell_angle_gamma   90.00000000
_symmetry_Int_Tables_number   1
_chemical_formula_structural   InP2PbO8
_chemical_formula_sum   'In4 P8 Pb4 O32'
_cell_volume   689.11449177
_cell_formula_units_Z   4
loop_
 _symmetry_equiv_pos_site_id
 _symmetry_equiv_pos_as_xyz
  1  'x, y, z'
loop_
 _atom_site_type_symbol
 _atom_site_label
 _atom_site_symmetry_multiplicity
 _atom_site_fract_x
 _atom_site_fract_y
 _atom_site_fract_z
 _atom_site_occupancy
  In  In0  1  0.07491500  0.62611100  0.70392900  1
  In  In1  1  0.57491500  0.37388900  0.79607100  1
  In  In2  1  0.92508500  0.37388900  0.29607100  1
  In  In3  1  0.42508500  0.62611100  0.20392900  1
  P  P4  1  0.53000400  0.84565700  0.84064200  1
  P  P5  1  0.03000400  0.15434300  0.65935800  1
  P  P6  1  0.46999600  0.15434300  0.15935800  1
  P  P7  1  0.96999600  0.84565700  0.34064200  1
  P  P8  1  0.14283100  0.61331900  0.04619300  1
  P  P9  1  0.64283100  0.38668100  0.45380700  1
  P  P10  1  0.85716900  0.38668100  0.95380700  1
  P  P11  1  0.35716900  0.61331900  0.54619300  1
  Pb  Pb12  1  0.34196900  0.10430500  0.53487500  1
  Pb  Pb13  1  0.84196900  0.89569500  0.96512500  1
  Pb  Pb14  1  0.65803100  0.89569500  0.46512500  1
  Pb  Pb15  1  0.15803100  0.10430500  0.03487500  1
  O  O16  1  0.55653400  0.19114600  0.50288800  1
  O  O17  1  0.05653400  0.80885400  0.99711200  1
  O  O18  1  0.44346600  0.80885400  0.49711200  1
  O  O19  1  0.94346600  0.19114600  0.00288800  1
  O  O20  1  0.76059200  0.30336900  0.41634600  1
  O  O21  1  0.26059200  0.69663100  0.08365400  1
  O  O22  1  0.23940800  0.69663100  0.58365400  1
  O  O23  1  0.73940800  0.30336900  0.91634600  1
  O  O24  1  0.52753300  0.71089000  0.00691300  1
  O  O25  1  0.02753300  0.28911000  0.49308700  1
  O  O26  1  0.47246700  0.28911000  0.99308700  1
  O  O27  1  0.97246700  0.71089000  0.50691300  1
  O  O28  1  0.40421700  0.91873300  0.78040100  1
  O  O29  1  0.90421700  0.08126700  0.71959900  1
  O  O30  1  0.59578300  0.08126700  0.21959900  1
  O  O31  1  0.09578300  0.91873300  0.28040100  1
  O  O32  1  0.10996900  0.95637100  0.68206600  1
  O  O33  1  0.60996900  0.04362900  0.81793400  1
  O  O34  1  0.89003100  0.04362900  0.31793400  1
  O  O35  1  0.39003100  0.95637100  0.18206600  1
  O  O36  1  0.83797400  0.46956300  0.08144800  1
  O  O37  1  0.33797400  0.53043700  0.41855200  1
  O  O38  1  0.16202600  0.53043700  0.91855200  1
  O  O39  1  0.66202600  0.46956300  0.58144800  1
  O  O40  1  0.09375500  0.42353900  0.17865400  1
  O  O41  1  0.59375500  0.57646100  0.32134600  1
  O  O42  1  0.90624500  0.57646100  0.82134600  1
  O  O43  1  0.40624500  0.42353900  0.67865400  1
  O  O44  1  0.40636400  0.28735300  0.23823400  1
  O  O45  1  0.90636400  0.71264700  0.26176600  1
  O  O46  1  0.59363600  0.71264700  0.76176600  1
  O  O47  1  0.09363600  0.28735300  0.73823400  1
