# generated using pymatgen
data_CsNaMoO6
_symmetry_space_group_name_H-M   'P 1'
_cell_length_a   7.01452500
_cell_length_b   7.86098600
_cell_length_c   12.97841000
_cell_angle_alpha   90.00000000
_cell_angle_beta   90.00000000
_cell_angle_gamma   90.00000000
_symmetry_Int_Tables_number   1
_chemical_formula_structural   CsNaMoO6
_chemical_formula_sum   'Cs4 Na4 Mo4 O24'
_cell_volume   715.64358070
_cell_formula_units_Z   4
loop_
 _symmetry_equiv_pos_site_id
 _symmetry_equiv_pos_as_xyz
  1  'x, y, z'
loop_
 _atom_site_type_symbol
 _atom_site_label
 _atom_site_symmetry_multiplicity
 _atom_site_fract_x
 _atom_site_fract_y
 _atom_site_fract_z
 _atom_site_occupancy
  Cs  Cs0  1  0.04428300  0.84368900  0.35174800  1
  Cs  Cs1  1  0.45571700  0.15631100  0.85174800  1
  Cs  Cs2  1  0.54428300  0.65631100  0.64825200  1
  Cs  Cs3  1  0.95571700  0.34368900  0.14825200  1
  Na  Na4  1  0.62841900  0.71937000  0.01206700  1
  Na  Na5  1  0.87158100  0.28063000  0.51206700  1
  Na  Na6  1  0.12841900  0.78063000  0.98793300  1
  Na  Na7  1  0.37158100  0.21937000  0.48793300  1
  Mo  Mo8  1  0.55055500  0.58635600  0.35273200  1
  Mo  Mo9  1  0.94944500  0.41364400  0.85273200  1
  Mo  Mo10  1  0.05055500  0.91364400  0.64726800  1
  Mo  Mo11  1  0.44944500  0.08635600  0.14726800  1
  O  O12  1  0.60367700  0.42359200  0.44676700  1
  O  O13  1  0.89632300  0.57640800  0.94676700  1
  O  O14  1  0.10367700  0.07640800  0.55323300  1
  O  O15  1  0.39632300  0.92359200  0.05323300  1
  O  O16  1  0.74803200  0.60358200  0.26552700  1
  O  O17  1  0.75196800  0.39641800  0.76552700  1
  O  O18  1  0.24803200  0.89641800  0.73447300  1
  O  O19  1  0.25196800  0.10358200  0.23447300  1
  O  O20  1  0.52601400  0.78094000  0.42243600  1
  O  O21  1  0.97398600  0.21906000  0.92243600  1
  O  O22  1  0.02601400  0.71906000  0.57756400  1
  O  O23  1  0.47398600  0.28094000  0.07756400  1
  O  O24  1  0.32646900  0.54356500  0.28594600  1
  O  O25  1  0.17353100  0.45643500  0.78594600  1
  O  O26  1  0.82646900  0.95643500  0.71405400  1
  O  O27  1  0.67353100  0.04356500  0.21405400  1
  O  O28  1  0.86140400  0.93698900  0.90626700  1
  O  O29  1  0.63859600  0.06301100  0.40626700  1
  O  O30  1  0.36140400  0.56301100  0.09373300  1
  O  O31  1  0.13859600  0.43698900  0.59373300  1
  O  O32  1  0.83669900  0.81572000  0.14489300  1
  O  O33  1  0.66330100  0.18428000  0.64489300  1
  O  O34  1  0.33669900  0.68428000  0.85510700  1
  O  O35  1  0.16330100  0.31572000  0.35510700  1
