# generated using pymatgen
data_BaLa2Ti3O10
_symmetry_space_group_name_H-M   'P 1'
_cell_length_a   14.67693057
_cell_length_b   14.67693057
_cell_length_c   7.74496700
_cell_angle_alpha   90.00000000
_cell_angle_beta   90.00000000
_cell_angle_gamma   164.65477793
_symmetry_Int_Tables_number   1
_chemical_formula_structural   BaLa2Ti3O10
_chemical_formula_sum   'Ba2 La4 Ti6 O20'
_cell_volume   441.50551415
_cell_formula_units_Z   2
loop_
 _symmetry_equiv_pos_site_id
 _symmetry_equiv_pos_as_xyz
  1  'x, y, z'
loop_
 _atom_site_type_symbol
 _atom_site_label
 _atom_site_symmetry_multiplicity
 _atom_site_fract_x
 _atom_site_fract_y
 _atom_site_fract_z
 _atom_site_occupancy
  Ba  Ba0  1  0.26587400  0.73412600  0.25889900  1
  Ba  Ba1  1  0.73412600  0.26587400  0.75889900  1
  La  La2  1  0.57459600  0.42540400  0.25759300  1
  La  La3  1  0.42540400  0.57459600  0.75759300  1
  La  La4  1  0.42639800  0.57360200  0.25748500  1
  La  La5  1  0.57360200  0.42639800  0.75748500  1
  Ti  Ti6  1  0.00002000  0.99998000  0.00872400  1
  Ti  Ti7  1  0.99998000  0.00002000  0.50872400  1
  Ti  Ti8  1  0.14455400  0.85544600  0.00936200  1
  Ti  Ti9  1  0.85544600  0.14455400  0.50936200  1
  Ti  Ti10  1  0.85531800  0.14468200  0.00829900  1
  Ti  Ti11  1  0.14468200  0.85531800  0.50829900  1
  O  O12  1  0.50000700  0.49999300  0.01654100  1
  O  O13  1  0.49999300  0.50000700  0.51654100  1
  O  O14  1  0.99662300  0.00337700  0.26056200  1
  O  O15  1  0.00337700  0.99662300  0.76056200  1
  O  O16  1  0.87170300  0.12829700  0.25770900  1
  O  O17  1  0.12829700  0.87170300  0.75770900  1
  O  O18  1  0.13314200  0.86685800  0.25804000  1
  O  O19  1  0.86685800  0.13314200  0.75804000  1
  O  O20  1  0.06654500  0.93345500  0.01806800  1
  O  O21  1  0.93345500  0.06654500  0.51806800  1
  O  O22  1  0.93352200  0.06647800  0.99608700  1
  O  O23  1  0.06647800  0.93352200  0.49608700  1
  O  O24  1  0.20582300  0.79417700  0.98814800  1
  O  O25  1  0.79417700  0.20582300  0.48814800  1
  O  O26  1  0.79403900  0.20596100  0.03070900  1
  O  O27  1  0.20596100  0.79403900  0.53070900  1
  O  O28  1  0.63028000  0.36972000  0.00529900  1
  O  O29  1  0.36972000  0.63028000  0.50529900  1
  O  O30  1  0.36953500  0.63046500  0.01107600  1
  O  O31  1  0.63046500  0.36953500  0.51107600  1
