# generated using pymatgen
data_Tb3InS6
_symmetry_space_group_name_H-M   'P 1'
_cell_length_a   3.87758800
_cell_length_b   13.47077500
_cell_length_c   16.65837800
_cell_angle_alpha   90.00000000
_cell_angle_beta   90.00000000
_cell_angle_gamma   90.00000000
_symmetry_Int_Tables_number   1
_chemical_formula_structural   Tb3InS6
_chemical_formula_sum   'Tb12 In4 S24'
_cell_volume   870.13564034
_cell_formula_units_Z   4
loop_
 _symmetry_equiv_pos_site_id
 _symmetry_equiv_pos_as_xyz
  1  'x, y, z'
loop_
 _atom_site_type_symbol
 _atom_site_label
 _atom_site_symmetry_multiplicity
 _atom_site_fract_x
 _atom_site_fract_y
 _atom_site_fract_z
 _atom_site_occupancy
  Tb  Tb0  1  0.25411500  0.03665600  0.77687200  1
  Tb  Tb1  1  0.25411500  0.96334400  0.22312800  1
  Tb  Tb2  1  0.74588500  0.46334400  0.27687200  1
  Tb  Tb3  1  0.74588500  0.53665600  0.72312800  1
  Tb  Tb4  1  0.26296900  0.24673600  0.61013500  1
  Tb  Tb5  1  0.26296900  0.75326400  0.38986500  1
  Tb  Tb6  1  0.73703100  0.25326400  0.11013500  1
  Tb  Tb7  1  0.73703100  0.74673600  0.88986500  1
  Tb  Tb8  1  0.74706800  0.30906400  0.85641000  1
  Tb  Tb9  1  0.74706800  0.69093600  0.14359000  1
  Tb  Tb10  1  0.25293200  0.19093600  0.35641000  1
  Tb  Tb11  1  0.25293200  0.80906400  0.64359000  1
  In  In12  1  0.75338900  0.00000000  0.50000000  1
  In  In13  1  0.24661100  0.50000000  0.00000000  1
  In  In14  1  0.39519600  0.50000000  0.50000000  1
  In  In15  1  0.60480400  0.00000000  0.00000000  1
  S  S16  1  0.76848700  0.39685800  0.59313400  1
  S  S17  1  0.76848700  0.60314200  0.40686600  1
  S  S18  1  0.23151300  0.10314200  0.09313400  1
  S  S19  1  0.23151300  0.89685800  0.90686600  1
  S  S20  1  0.24588900  0.30724200  0.98080200  1
  S  S21  1  0.24588900  0.69275800  0.01919800  1
  S  S22  1  0.75411100  0.19275800  0.48080200  1
  S  S23  1  0.75411100  0.80724200  0.51919800  1
  S  S24  1  0.75187600  0.10765000  0.88496100  1
  S  S25  1  0.75187600  0.89235000  0.11503900  1
  S  S26  1  0.24812400  0.39235000  0.38496100  1
  S  S27  1  0.24812400  0.60765000  0.61503900  1
  S  S28  1  0.75883500  0.17887100  0.71715900  1
  S  S29  1  0.75883500  0.82112900  0.28284100  1
  S  S30  1  0.24116500  0.32112900  0.21715900  1
  S  S31  1  0.24116500  0.67887100  0.78284100  1
  S  S32  1  0.24861300  0.38504700  0.75626300  1
  S  S33  1  0.24861300  0.61495300  0.24373700  1
  S  S34  1  0.75138700  0.11495300  0.25626300  1
  S  S35  1  0.75138700  0.88504700  0.74373700  1
  S  S36  1  0.25398500  0.02082300  0.60550000  1
  S  S37  1  0.25398500  0.97917700  0.39450000  1
  S  S38  1  0.74601500  0.47917700  0.10550000  1
  S  S39  1  0.74601500  0.52082300  0.89450000  1
