# generated using pymatgen
data_ThSe(IO7)2
_symmetry_space_group_name_H-M   'P 1'
_cell_length_a   8.75594200
_cell_length_b   8.36991700
_cell_length_c   19.46505764
_cell_angle_alpha   82.84622994
_cell_angle_beta   90.00000000
_cell_angle_gamma   90.00000000
_symmetry_Int_Tables_number   1
_chemical_formula_structural   ThSe(IO7)2
_chemical_formula_sum   'Th4 Se4 I8 O56'
_cell_volume   1415.42131350
_cell_formula_units_Z   4
loop_
 _symmetry_equiv_pos_site_id
 _symmetry_equiv_pos_as_xyz
  1  'x, y, z'
loop_
 _atom_site_type_symbol
 _atom_site_label
 _atom_site_symmetry_multiplicity
 _atom_site_fract_x
 _atom_site_fract_y
 _atom_site_fract_z
 _atom_site_occupancy
  Th  Th0  1  0.94028600  0.10985300  0.37733400  1
  Th  Th1  1  0.55971400  0.10985300  0.87733400  1
  Th  Th2  1  0.05971400  0.89014700  0.62266600  1
  Th  Th3  1  0.44028600  0.89014700  0.12266600  1
  Se  Se4  1  0.81464300  0.94428000  0.21630900  1
  Se  Se5  1  0.68535700  0.94428000  0.71630900  1
  Se  Se6  1  0.18535700  0.05572000  0.78369100  1
  Se  Se7  1  0.31464300  0.05572000  0.28369100  1
  I  I8  1  0.71725500  0.75801400  0.49637900  1
  I  I9  1  0.78274500  0.75801400  0.99637900  1
  I  I10  1  0.28274500  0.24198600  0.50362100  1
  I  I11  1  0.21725500  0.24198600  0.00362100  1
  I  I12  1  0.24032300  0.77410400  0.45720700  1
  I  I13  1  0.25967700  0.77410400  0.95720700  1
  I  I14  1  0.75967700  0.22589600  0.54279300  1
  I  I15  1  0.74032300  0.22589600  0.04279300  1
  O  O16  1  0.73691800  0.96284300  0.45202500  1
  O  O17  1  0.76308200  0.96284300  0.95202500  1
  O  O18  1  0.26308200  0.03715700  0.54797500  1
  O  O19  1  0.23691800  0.03715700  0.04797500  1
  O  O20  1  0.83870900  0.76724600  0.57120000  1
  O  O21  1  0.66129100  0.76724600  0.07120000  1
  O  O22  1  0.16129100  0.23275400  0.42880000  1
  O  O23  1  0.33870900  0.23275400  0.92880000  1
  O  O24  1  0.52578200  0.73918400  0.52797900  1
  O  O25  1  0.97421800  0.73918400  0.02797900  1
  O  O26  1  0.47421800  0.26081600  0.47202100  1
  O  O27  1  0.02578200  0.26081600  0.97202100  1
  O  O28  1  0.05795100  0.87976200  0.42571900  1
  O  O29  1  0.44204900  0.87976200  0.92571900  1
  O  O30  1  0.94204900  0.12023800  0.57428100  1
  O  O31  1  0.55795100  0.12023800  0.07428100  1
  O  O32  1  0.16190000  0.72628500  0.54729200  1
  O  O33  1  0.33810000  0.72628500  0.04729200  1
  O  O34  1  0.83810000  0.27371500  0.45270800  1
  O  O35  1  0.66190000  0.27371500  0.95270800  1
  O  O36  1  0.22733400  0.58473900  0.42512400  1
  O  O37  1  0.27266600  0.58473900  0.92512400  1
  O  O38  1  0.77266600  0.41526100  0.57487600  1
  O  O39  1  0.72733400  0.41526100  0.07487600  1
  O  O40  1  0.79658200  0.04337500  0.28830800  1
  O  O41  1  0.70341800  0.04337500  0.78830800  1
  O  O42  1  0.20341800  0.95662500  0.71169200  1
  O  O43  1  0.29658200  0.95662500  0.21169200  1
  O  O44  1  0.63072900  0.88657400  0.20260700  1
  O  O45  1  0.86927100  0.88657400  0.70260700  1
  O  O46  1  0.36927100  0.11342600  0.79739300  1
  O  O47  1  0.13072900  0.11342600  0.29739300  1
  O  O48  1  0.92484400  0.78844900  0.23418100  1
  O  O49  1  0.57515600  0.78844900  0.73418100  1
  O  O50  1  0.07515600  0.21155100  0.76581900  1
  O  O51  1  0.42484400  0.21155100  0.26581900  1
  O  O52  1  0.86708800  0.07895100  0.15031600  1
  O  O53  1  0.63291200  0.07895100  0.65031600  1
  O  O54  1  0.13291200  0.92104900  0.84968400  1
  O  O55  1  0.36708800  0.92104900  0.34968400  1
  O  O56  1  0.91481700  0.40906900  0.30672200  1
  O  O57  1  0.58518300  0.40906900  0.80672200  1
  O  O58  1  0.08518300  0.59093100  0.69327800  1
  O  O59  1  0.41481700  0.59093100  0.19327800  1
  O  O60  1  0.77384800  0.46275500  0.30673500  1
  O  O61  1  0.72615200  0.46275500  0.80673500  1
  O  O62  1  0.22615200  0.53724500  0.69326500  1
  O  O63  1  0.27384800  0.53724500  0.19326500  1
  O  O64  1  0.67376600  0.36474200  0.33366300  1
  O  O65  1  0.82623400  0.36474200  0.83366300  1
  O  O66  1  0.32623400  0.63525800  0.66633700  1
  O  O67  1  0.17376600  0.63525800  0.16633700  1
  O  O68  1  0.76631800  0.62232700  0.43691100  1
  O  O69  1  0.73368200  0.62232700  0.93691100  1
  O  O70  1  0.23368200  0.37767300  0.56308900  1
  O  O71  1  0.26631800  0.37767300  0.06308900  1
