# generated using pymatgen
data_CoH8Se2(ClO4)2
_symmetry_space_group_name_H-M   'P 1'
_cell_length_a   5.17426883
_cell_length_b   6.56039272
_cell_length_c   14.97059700
_cell_angle_alpha   90.00000000
_cell_angle_beta   90.00000000
_cell_angle_gamma   93.15144210
_symmetry_Int_Tables_number   1
_chemical_formula_structural   CoH8Se2(ClO4)2
_chemical_formula_sum   'Co2 H16 Se4 Cl4 O16'
_cell_volume   507.41192792
_cell_formula_units_Z   2
loop_
 _symmetry_equiv_pos_site_id
 _symmetry_equiv_pos_as_xyz
  1  'x, y, z'
loop_
 _atom_site_type_symbol
 _atom_site_label
 _atom_site_symmetry_multiplicity
 _atom_site_fract_x
 _atom_site_fract_y
 _atom_site_fract_z
 _atom_site_occupancy
  Co  Co0  1  0.00000000  0.50000000  0.00000000  1
  Co  Co1  1  0.00000000  0.00000000  0.50000000  1
  H  H2  1  0.08341200  0.21392900  0.69661100  1
  H  H3  1  0.91658800  0.28607100  0.19661100  1
  H  H4  1  0.91658800  0.78607100  0.30338900  1
  H  H5  1  0.08341200  0.71392900  0.80338900  1
  H  H6  1  0.70727800  0.33365700  0.76958600  1
  H  H7  1  0.29272200  0.16634300  0.26958600  1
  H  H8  1  0.29272200  0.66634300  0.23041400  1
  H  H9  1  0.70727800  0.83365700  0.73041400  1
  H  H10  1  0.42306200  0.33960700  0.07850000  1
  H  H11  1  0.57693800  0.16039300  0.57850000  1
  H  H12  1  0.57693800  0.66039300  0.92150000  1
  H  H13  1  0.42306200  0.83960700  0.42150000  1
  H  H14  1  0.22709800  0.15231000  0.05634300  1
  H  H15  1  0.77290200  0.34769000  0.55634300  1
  H  H16  1  0.77290200  0.84769000  0.94365700  1
  H  H17  1  0.22709800  0.65231000  0.44365700  1
  Se  Se18  1  0.29290600  0.29229600  0.83100800  1
  Se  Se19  1  0.70709400  0.20770400  0.33100800  1
  Se  Se20  1  0.70709400  0.70770400  0.16899200  1
  Se  Se21  1  0.29290600  0.79229600  0.66899200  1
  Cl  Cl22  1  0.76253900  0.19643100  0.94182200  1
  Cl  Cl23  1  0.23746100  0.30356900  0.44182200  1
  Cl  Cl24  1  0.23746100  0.80356900  0.05817800  1
  Cl  Cl25  1  0.76253900  0.69643100  0.55817800  1
  O  O26  1  0.04640900  0.31317200  0.74482100  1
  O  O27  1  0.95359100  0.18682800  0.24482100  1
  O  O28  1  0.95359100  0.68682800  0.25517900  1
  O  O29  1  0.04640900  0.81317200  0.75517900  1
  O  O30  1  0.23735900  0.51454700  0.88389100  1
  O  O31  1  0.76264100  0.98545300  0.38389100  1
  O  O32  1  0.76264100  0.48545300  0.11610900  1
  O  O33  1  0.23735900  0.01454700  0.61610900  1
  O  O34  1  0.53463600  0.38590800  0.75488800  1
  O  O35  1  0.46536400  0.11409200  0.25488800  1
  O  O36  1  0.46536400  0.61409200  0.24511200  1
  O  O37  1  0.53463600  0.88590800  0.74511200  1
  O  O38  1  0.23952600  0.30071500  0.06765000  1
  O  O39  1  0.76047400  0.19928500  0.56765000  1
  O  O40  1  0.76047400  0.69928500  0.93235000  1
  O  O41  1  0.23952600  0.80071500  0.43235000  1
