# generated using pymatgen
data_V6SbH35C12Cl8O19
_symmetry_space_group_name_H-M   'P 1'
_cell_length_a   10.49837700
_cell_length_b   13.61454266
_cell_length_c   15.73365676
_cell_angle_alpha   90.21248872
_cell_angle_beta   103.54624792
_cell_angle_gamma   92.19962743
_symmetry_Int_Tables_number   1
_chemical_formula_structural   V6SbH35C12Cl8O19
_chemical_formula_sum   'V12 Sb2 H70 C24 Cl16 O38'
_cell_volume   2184.46389362
_cell_formula_units_Z   2
loop_
 _symmetry_equiv_pos_site_id
 _symmetry_equiv_pos_as_xyz
  1  'x, y, z'
loop_
 _atom_site_type_symbol
 _atom_site_label
 _atom_site_symmetry_multiplicity
 _atom_site_fract_x
 _atom_site_fract_y
 _atom_site_fract_z
 _atom_site_occupancy
  V  V0  1  0.89906300  0.34960300  0.62229600  1
  V  V1  1  0.10093700  0.65039700  0.37770400  1
  V  V2  1  0.68690800  0.24397700  0.70455900  1
  V  V3  1  0.31309200  0.75602300  0.29544100  1
  V  V4  1  0.91336600  0.38571100  0.83142900  1
  V  V5  1  0.08663400  0.61428900  0.16857100  1
  V  V6  1  0.13843400  0.25842700  0.77365000  1
  V  V7  1  0.86156600  0.74157300  0.22635000  1
  V  V8  1  0.91538500  0.11122300  0.65399300  1
  V  V9  1  0.08461500  0.88877700  0.34600700  1
  V  V10  1  0.91872000  0.14817800  0.86033300  1
  V  V11  1  0.08128000  0.85182200  0.13966700  1
  Sb  Sb12  1  0.57725900  0.23615100  0.18691700  1
  Sb  Sb13  1  0.42274100  0.76384900  0.81308300  1
  H  H14  1  0.96519500  0.56582400  0.64222900  1
  H  H15  1  0.03480500  0.43417600  0.35777100  1
  H  H16  1  0.94005200  0.59711600  0.74815200  1
  H  H17  1  0.05994800  0.40288400  0.25184800  1
  H  H18  1  0.08721800  0.53854200  0.73897700  1
  H  H19  1  0.91278200  0.46145800  0.26102300  1
  H  H20  1  0.19131000  0.30614300  0.57200700  1
  H  H21  1  0.80869000  0.69385700  0.42799300  1
  H  H22  1  0.16242000  0.43413200  0.58428700  1
  H  H23  1  0.83758000  0.56586800  0.41571300  1
  H  H24  1  0.29035600  0.37623800  0.66203900  1
  H  H25  1  0.70964400  0.62376200  0.33796100  1
  H  H26  1  0.92028400  0.27981400  0.44597400  1
  H  H27  1  0.07971600  0.72018600  0.55402600  1
  H  H28  1  0.97658300  0.15651500  0.46647000  1
  H  H29  1  0.02341700  0.84348500  0.53353000  1
  H  H30  1  0.80456000  0.17949600  0.44331500  1
  H  H31  1  0.19544000  0.82050400  0.55668500  1
  H  H32  1  0.52141100  0.38969000  0.77425800  1
  H  H33  1  0.47858900  0.61031000  0.22574200  1
  H  H34  1  0.64245200  0.46998300  0.84413300  1
  H  H35  1  0.35754800  0.53001700  0.15586700  1
  H  H36  1  0.61636700  0.47742200  0.72741900  1
  H  H37  1  0.38363300  0.52257800  0.27258100  1
  H  H38  1  0.60599900  0.12467900  0.51198200  1
  H  H39  1  0.39400100  0.87532100  0.48801800  1
  H  H40  1  0.65609300  0.00782100  0.55818800  1
  H  H41  1  0.34390700  0.99217900  0.44181200  1
  H  H42  1  0.52966200  0.07203400  0.59292900  1
  H  H43  1  0.47033800  0.92796600  0.40707100  1
  H  H44  1  0.64300900  0.22232800  0.90733600  1
  H  H45  1  0.35699100  0.77767200  0.09266400  1
  H  H46  1  0.53850700  0.14009300  0.82891800  1
  H  H47  1  0.46149300  0.85990700  0.17108200  1
  H  H48  1  0.66403400  0.09204100  0.91463800  1
  H  H49  1  0.33596600  0.90795900  0.08536200  1
  H  H50  1  0.29492700  0.43400400  0.89158000  1
  H  H51  1  0.70507300  0.56599600  0.10842000  1
  H  H52  1  0.17164100  0.46901500  0.94738600  1
  H  H53  1  0.82835900  0.53098500  0.05261400  1
  H  H54  1  0.24489500  0.35176900  0.96751000  1
  H  H55  1  0.75510500  0.64823100  0.03249000  1
  H  H56  1  0.06095200  0.29488400  0.03576500  1
  H  H57  1  0.93904800  0.70511600  0.96423500  1
  H  H58  1  0.90761100  0.35137900  0.03003000  1
  H  H59  1  0.09238900  0.64862100  0.96997000  1
  H  H60  1  0.91864800  0.22039700  0.04252400  1
  H  H61  1  0.08135200  0.77960300  0.95747600  1
  H  H62  1  0.22216400  0.01726000  0.70975200  1
  H  H63  1  0.77783600  0.98274000  0.29024800  1
  H  H64  1  0.18182100  0.07019100  0.60324200  1
  H  H65  1  0.81817900  0.92980900  0.39675800  1
  H  H66  1  0.30558300  0.12948800  0.68899000  1
  H  H67  1  0.69441700  0.87051200  0.31101000  1
  H  H68  1  0.18257400  0.02715000  0.86281600  1
  H  H69  1  0.81742600  0.97285000  0.13718400  1
  H  H70  1  0.30027000  0.12332600  0.91089100  1
  H  H71  1  0.69973000  0.87667400  0.08910900  1
  H  H72  1  0.18660100  0.07349700  0.97050100  1
  H  H73  1  0.81339900  0.92650300  0.02949900  1
  H  H74  1  0.74922000  0.95354400  0.76178500  1
  H  H75  1  0.25078000  0.04645600  0.23821500  1
  H  H76  1  0.88624600  0.90269200  0.72903800  1
  H  H77  1  0.11375400  0.09730800  0.27096200  1
  H  H78  1  0.89179400  0.92279400  0.84334100  1
  H  H79  1  0.10820600  0.07720600  0.15665900  1
  H  H80  1  0.47097100  0.29738900  0.39881700  1
  H  H81  1  0.52902900  0.70261100  0.60118300  1
  H  H82  1  0.47902800  0.30684000  0.51525100  1
  H  H83  1  0.52097200  0.69316000  0.48474900  1
  C  C84  1  0.98141800  0.54353400  0.71081100  1
  C  C85  1  0.01858200  0.45646600  0.28918900  1
  C  C86  1  0.19175900  0.36603600  0.61923100  1
  C  C87  1  0.80824100  0.63396400  0.38076900  1
  C  C88  1  0.90340500  0.20885200  0.47509200  1
  C  C89  1  0.09659500  0.79114800  0.52490800  1
  C  C90  1  0.61788100  0.42769900  0.78256800  1
  C  C91  1  0.38211900  0.57230100  0.21743200  1
  C  C92  1  0.62191200  0.08020800  0.57162500  1
  C  C93  1  0.37808800  0.91979200  0.42837500  1
  C  C94  1  0.63790700  0.15336800  0.86974900  1
  C  C95  1  0.36209300  0.84663200  0.13025100  1
  C  C96  1  0.21184500  0.40778900  0.91790100  1
  C  C97  1  0.78815500  0.59221100  0.08209900  1
  C  C98  1  0.95372800  0.28567500  0.01270800  1
  C  C99  1  0.04627200  0.71432500  0.98729200  1
  C  C100  1  0.21215000  0.08660000  0.67371600  1
  C  C101  1  0.78785000  0.91340000  0.32628400  1
  C  C102  1  0.20036400  0.09291000  0.90551800  1
  C  C103  1  0.79963600  0.90709000  0.09448200  1
  C  C104  1  0.85680300  0.95050400  0.77682700  1
  C  C105  1  0.14319700  0.04949600  0.22317300  1
  C  C106  1  0.41668900  0.30941700  0.44912700  1
  C  C107  1  0.58331100  0.69058300  0.55087300  1
  Cl  Cl108  1  0.52744900  0.09800200  0.08569700  1
  Cl  Cl109  1  0.47255100  0.90199800  0.91430300  1
  Cl  Cl110  1  0.34732300  0.26964900  0.16365700  1
  Cl  Cl111  1  0.65267700  0.73035100  0.83634300  1
  Cl  Cl112  1  0.59452100  0.34360400  0.06825400  1
  Cl  Cl113  1  0.40547900  0.65639600  0.93174600  1
  Cl  Cl114  1  0.80828300  0.20229400  0.21433700  1
  Cl  Cl115  1  0.19171700  0.79770600  0.78566300  1
  Cl  Cl116  1  0.55551900  0.12713200  0.30516900  1
  Cl  Cl117  1  0.44448100  0.87286800  0.69483100  1
  Cl  Cl118  1  0.63205300  0.37312700  0.28965200  1
  Cl  Cl119  1  0.36794700  0.62687300  0.71034800  1
  Cl  Cl120  1  0.29329600  0.21327400  0.43825900  1
  Cl  Cl121  1  0.70670400  0.78672600  0.56174100  1
  Cl  Cl122  1  0.34957600  0.42711100  0.43450300  1
  Cl  Cl123  1  0.65042400  0.57288900  0.56549700  1
  O  O124  1  0.89920100  0.41956300  0.54000400  1
  O  O125  1  0.10079900  0.58043700  0.45999600  1
  O  O126  1  0.52835600  0.23653600  0.67867500  1
  O  O127  1  0.47164400  0.76346400  0.32132500  1
  O  O128  1  0.90795600  0.48049800  0.89296400  1
  O  O129  1  0.09204400  0.51950200  0.10703600  1
  O  O130  1  0.29658400  0.26430000  0.79725700  1
  O  O131  1  0.70341600  0.73570000  0.20274300  1
  O  O132  1  0.91751300  0.01467600  0.59354200  1
  O  O133  1  0.08248700  0.98532400  0.40645800  1
  O  O134  1  0.91746700  0.07832800  0.94254800  1
  O  O135  1  0.08253300  0.92167200  0.05745200  1
  O  O136  1  0.72678900  0.32389500  0.62015500  1
  O  O137  1  0.27321100  0.67610500  0.37984500  1
  O  O138  1  0.91450800  0.44957300  0.71411000  1
  O  O139  1  0.08549200  0.55042700  0.28589000  1
  O  O140  1  0.10019500  0.34259900  0.67244700  1
  O  O141  1  0.89980500  0.65740100  0.32755300  1
  O  O142  1  0.91442000  0.22397900  0.56741000  1
  O  O143  1  0.08558000  0.77602100  0.43259000  1
  O  O144  1  0.71508200  0.35423400  0.78656600  1
  O  O145  1  0.28491800  0.64576600  0.21343400  1
  O  O146  1  0.71946000  0.12704500  0.64098200  1
  O  O147  1  0.28054000  0.87295500  0.35901800  1
  O  O148  1  0.72805300  0.15877600  0.81300800  1
  O  O149  1  0.27194700  0.84122400  0.18699200  1
  O  O150  1  0.11066300  0.36610300  0.84717300  1
  O  O151  1  0.88933700  0.63389700  0.15282700  1
  O  O152  1  0.91822700  0.27258600  0.91905100  1
  O  O153  1  0.08177300  0.72741400  0.08094900  1
  O  O154  1  0.11312300  0.14330400  0.69857200  1
  O  O155  1  0.88687700  0.85669600  0.30142800  1
  O  O156  1  0.10954100  0.16774200  0.87032200  1
  O  O157  1  0.89045900  0.83225800  0.12967800  1
  O  O158  1  0.91587800  0.04720000  0.77250700  1
  O  O159  1  0.08412200  0.95280000  0.22749300  1
  O  O160  1  0.92107300  0.24590900  0.74593300  1
  O  O161  1  0.07892700  0.75409100  0.25406700  1
