# generated using pymatgen
data_CuH6(CN2)4
_symmetry_space_group_name_H-M   'P 1'
_cell_length_a   7.69990860
_cell_length_b   7.46266055
_cell_length_c   9.63161200
_cell_angle_alpha   90.00000000
_cell_angle_beta   90.00000000
_cell_angle_gamma   114.40149596
_symmetry_Int_Tables_number   1
_chemical_formula_structural   CuH6(CN2)4
_chemical_formula_sum   'Cu2 H12 C8 N16'
_cell_volume   504.01172211
_cell_formula_units_Z   2
loop_
 _symmetry_equiv_pos_site_id
 _symmetry_equiv_pos_as_xyz
  1  'x, y, z'
loop_
 _atom_site_type_symbol
 _atom_site_label
 _atom_site_symmetry_multiplicity
 _atom_site_fract_x
 _atom_site_fract_y
 _atom_site_fract_z
 _atom_site_occupancy
  Cu  Cu0  1  0.00000000  0.00000000  0.00000000  1
  Cu  Cu1  1  0.00000000  0.50000000  0.50000000  1
  H  H2  1  0.36494800  0.14345900  0.97779300  1
  H  H3  1  0.63505200  0.35654100  0.47779300  1
  H  H4  1  0.63505200  0.85654100  0.02220700  1
  H  H5  1  0.36494800  0.64345900  0.52220700  1
  H  H6  1  0.27749100  0.91398900  0.91985500  1
  H  H7  1  0.72250900  0.58601100  0.41985500  1
  H  H8  1  0.72250900  0.08601100  0.08014500  1
  H  H9  1  0.27749100  0.41398900  0.58014500  1
  H  H10  1  0.28173400  0.09287600  0.81589600  1
  H  H11  1  0.71826600  0.40712400  0.31589600  1
  H  H12  1  0.71826600  0.90712400  0.18410400  1
  H  H13  1  0.28173400  0.59287600  0.68410400  1
  C  C14  1  0.87694800  0.08185100  0.70962200  1
  C  C15  1  0.12305200  0.41814900  0.20962200  1
  C  C16  1  0.12305200  0.91814900  0.29037800  1
  C  C17  1  0.87694800  0.58185100  0.79037800  1
  C  C18  1  0.74312600  0.97376400  0.49491900  1
  C  C19  1  0.25687400  0.52623600  0.99491900  1
  C  C20  1  0.25687400  0.02623600  0.50508100  1
  C  C21  1  0.74312600  0.47376400  0.00508100  1
  N  N22  1  0.26009700  0.04346800  0.91679400  1
  N  N23  1  0.73990300  0.45653200  0.41679500  1
  N  N24  1  0.73990300  0.95653200  0.08320600  1
  N  N25  1  0.26009700  0.54346800  0.58320600  1
  N  N26  1  0.92000300  0.07788400  0.82671800  1
  N  N27  1  0.07999700  0.42211600  0.32671800  1
  N  N28  1  0.07999700  0.92211600  0.17328200  1
  N  N29  1  0.92000300  0.57788400  0.67328200  1
  N  N30  1  0.83918600  0.11061400  0.58349500  1
  N  N31  1  0.16081400  0.38938600  0.08349500  1
  N  N32  1  0.16081400  0.88938600  0.41650500  1
  N  N33  1  0.83918600  0.61061400  0.91650500  1
  N  N34  1  0.65879500  0.86157700  0.40658600  1
  N  N35  1  0.34120500  0.63842300  0.90658600  1
  N  N36  1  0.34120500  0.13842300  0.59341400  1
  N  N37  1  0.65879500  0.36157700  0.09341400  1
