# generated using pymatgen
data_SiAg5O4
_symmetry_space_group_name_H-M   'P 1'
_cell_length_a   6.39625600
_cell_length_b   9.23085200
_cell_length_c   10.04700500
_cell_angle_alpha   90.00000000
_cell_angle_beta   90.00000000
_cell_angle_gamma   90.00000000
_symmetry_Int_Tables_number   1
_chemical_formula_structural   SiAg5O4
_chemical_formula_sum   'Si4 Ag20 O16'
_cell_volume   593.20423606
_cell_formula_units_Z   4
loop_
 _symmetry_equiv_pos_site_id
 _symmetry_equiv_pos_as_xyz
  1  'x, y, z'
loop_
 _atom_site_type_symbol
 _atom_site_label
 _atom_site_symmetry_multiplicity
 _atom_site_fract_x
 _atom_site_fract_y
 _atom_site_fract_z
 _atom_site_occupancy
  Si  Si0  1  0.50000000  0.23906500  0.11658900  1
  Si  Si1  1  0.50000000  0.76093500  0.88341100  1
  Si  Si2  1  0.00000000  0.26093500  0.61658900  1
  Si  Si3  1  0.00000000  0.73906500  0.38341100  1
  Ag  Ag4  1  0.25514300  0.39220900  0.37667600  1
  Ag  Ag5  1  0.25514300  0.60779100  0.62332400  1
  Ag  Ag6  1  0.24485700  0.10779100  0.87667600  1
  Ag  Ag7  1  0.24485700  0.89220900  0.12332400  1
  Ag  Ag8  1  0.74485700  0.60779100  0.62332400  1
  Ag  Ag9  1  0.74485700  0.39220900  0.37667600  1
  Ag  Ag10  1  0.75514300  0.89220900  0.12332400  1
  Ag  Ag11  1  0.75514300  0.10779100  0.87667600  1
  Ag  Ag12  1  0.27882400  0.06644900  0.37718400  1
  Ag  Ag13  1  0.27882400  0.93355100  0.62281600  1
  Ag  Ag14  1  0.22117600  0.43355100  0.87718400  1
  Ag  Ag15  1  0.22117600  0.56644900  0.12281600  1
  Ag  Ag16  1  0.72117600  0.93355100  0.62281600  1
  Ag  Ag17  1  0.72117600  0.06644900  0.37718400  1
  Ag  Ag18  1  0.77882400  0.56644900  0.12281600  1
  Ag  Ag19  1  0.77882400  0.43355100  0.87718400  1
  Ag  Ag20  1  0.50000000  0.79823900  0.40387500  1
  Ag  Ag21  1  0.50000000  0.20176100  0.59612500  1
  Ag  Ag22  1  0.00000000  0.70176100  0.90387500  1
  Ag  Ag23  1  0.00000000  0.29823900  0.09612500  1
  O  O24  1  0.00000000  0.22859600  0.45263500  1
  O  O25  1  0.00000000  0.77140400  0.54736500  1
  O  O26  1  0.50000000  0.27140400  0.95263500  1
  O  O27  1  0.50000000  0.72859600  0.04736500  1
  O  O28  1  0.00000000  0.89368200  0.29808600  1
  O  O29  1  0.00000000  0.10631800  0.70191400  1
  O  O30  1  0.50000000  0.60631800  0.79808600  1
  O  O31  1  0.50000000  0.39368200  0.20191400  1
  O  O32  1  0.28320600  0.14661100  0.15122300  1
  O  O33  1  0.28320600  0.85338900  0.84877700  1
  O  O34  1  0.21679400  0.35338900  0.65122300  1
  O  O35  1  0.21679400  0.64661100  0.34877700  1
  O  O36  1  0.71679400  0.85338900  0.84877700  1
  O  O37  1  0.71679400  0.14661100  0.15122300  1
  O  O38  1  0.78320600  0.64661100  0.34877700  1
  O  O39  1  0.78320600  0.35338900  0.65122300  1
