# generated using pymatgen
data_KSb2Te2(HO2)2
_symmetry_space_group_name_H-M   'P 1'
_cell_length_a   5.83109800
_cell_length_b   16.16044363
_cell_length_c   16.16044312
_cell_angle_alpha   118.57448545
_cell_angle_beta   96.90797996
_cell_angle_gamma   96.90797974
_symmetry_Int_Tables_number   1
_chemical_formula_structural   KSb2Te2(HO2)2
_chemical_formula_sum   'K6 Sb12 Te12 H12 O24'
_cell_volume   1299.74779044
_cell_formula_units_Z   6
loop_
 _symmetry_equiv_pos_site_id
 _symmetry_equiv_pos_as_xyz
  1  'x, y, z'
loop_
 _atom_site_type_symbol
 _atom_site_label
 _atom_site_symmetry_multiplicity
 _atom_site_fract_x
 _atom_site_fract_y
 _atom_site_fract_z
 _atom_site_occupancy
  K  K0  1  0.58339400  0.82009300  0.74914800  1
  K  K1  1  0.83424600  0.25085200  0.07094500  1
  K  K2  1  0.76330100  0.92905500  0.17990700  1
  K  K3  1  0.41660600  0.17990700  0.25085200  1
  K  K4  1  0.16575400  0.74914800  0.92905500  1
  K  K5  1  0.23669900  0.07094500  0.82009300  1
  Sb  Sb6  1  0.61371600  0.97573300  0.62976100  1
  Sb  Sb7  1  0.98395500  0.37023900  0.34597200  1
  Sb  Sb8  1  0.63798300  0.65402800  0.02426700  1
  Sb  Sb9  1  0.38628400  0.02426700  0.37023900  1
  Sb  Sb10  1  0.01604500  0.62976100  0.65402800  1
  Sb  Sb11  1  0.36201700  0.34597200  0.97573300  1
  Sb  Sb12  1  0.04168000  0.81933200  0.58523600  1
  Sb  Sb13  1  0.45644300  0.41476400  0.23409600  1
  Sb  Sb14  1  0.22234700  0.76590400  0.18066800  1
  Sb  Sb15  1  0.95832000  0.18066800  0.41476400  1
  Sb  Sb16  1  0.54355700  0.58523600  0.76590400  1
  Sb  Sb17  1  0.77765300  0.23409600  0.81933200  1
  Te  Te18  1  0.96170700  0.90278500  0.42467700  1
  Te  Te19  1  0.53703000  0.57532300  0.47810700  1
  Te  Te20  1  0.05892300  0.52189300  0.09721500  1
  Te  Te21  1  0.03829300  0.09721500  0.57532300  1
  Te  Te22  1  0.46297000  0.42467700  0.52189300  1
  Te  Te23  1  0.94107700  0.47810700  0.90278500  1
  Te  Te24  1  0.50502100  0.75456400  0.39692300  1
  Te  Te25  1  0.10809800  0.60307700  0.35764100  1
  Te  Te26  1  0.75045800  0.64235900  0.24543600  1
  Te  Te27  1  0.49497900  0.24543600  0.60307700  1
  Te  Te28  1  0.89190200  0.39692300  0.64235900  1
  Te  Te29  1  0.24954200  0.35764100  0.75456400  1
  H  H30  1  0.10271900  0.84734900  0.80022600  1
  H  H31  1  0.30249300  0.19977400  0.04712300  1
  H  H32  1  0.25537000  0.95287700  0.15265100  1
  H  H33  1  0.89728100  0.15265100  0.19977400  1
  H  H34  1  0.69750700  0.80022600  0.95287700  1
  H  H35  1  0.74463000  0.04712300  0.84734900  1
  H  H36  1  0.08560700  0.94911500  0.88547900  1
  H  H37  1  0.20012800  0.11452100  0.06363600  1
  H  H38  1  0.13649300  0.93636400  0.05088500  1
  H  H39  1  0.91439300  0.05088500  0.11452100  1
  H  H40  1  0.79987200  0.88547900  0.93636400  1
  H  H41  1  0.86350700  0.06363600  0.94911500  1
  O  O42  1  0.85221500  0.91260600  0.66762200  1
  O  O43  1  0.18459300  0.33237800  0.24498400  1
  O  O44  1  0.93960900  0.75501600  0.08739400  1
  O  O45  1  0.14778500  0.08739400  0.33237800  1
  O  O46  1  0.81540700  0.66762200  0.75501600  1
  O  O47  1  0.06039100  0.24498400  0.91260600  1
  O  O48  1  0.07331000  0.76769900  0.68116200  1
  O  O49  1  0.39214800  0.31883800  0.08653700  1
  O  O50  1  0.30561000  0.91346300  0.23230100  1
  O  O51  1  0.92669000  0.23230100  0.31883800  1
  O  O52  1  0.60785200  0.68116200  0.91346300  1
  O  O53  1  0.69439000  0.08653700  0.76769900  1
  O  O54  1  0.35056200  0.91218700  0.66556600  1
  O  O55  1  0.68499600  0.33443400  0.24662100  1
  O  O56  1  0.43837500  0.75337900  0.08781300  1
  O  O57  1  0.64943800  0.08781300  0.33443400  1
  O  O58  1  0.31500400  0.66556600  0.75337900  1
  O  O59  1  0.56162500  0.24662100  0.91218700  1
  O  O60  1  0.12706500  0.88771200  0.87207500  1
  O  O61  1  0.25498900  0.12792500  0.01563600  1
  O  O62  1  0.23935300  0.98436400  0.11228800  1
  O  O63  1  0.87293500  0.11228800  0.12792500  1
  O  O64  1  0.74501100  0.87207500  0.98436400  1
  O  O65  1  0.76064700  0.01563600  0.88771200  1
