# generated using pymatgen
data_ReH(CO)4
_symmetry_space_group_name_H-M   'P 1'
_cell_length_a   15.45153626
_cell_length_b   15.45153626
_cell_length_c   7.19364500
_cell_angle_alpha   90.00000000
_cell_angle_beta   90.00000000
_cell_angle_gamma   120.00000110
_symmetry_Int_Tables_number   1
_chemical_formula_structural   ReH(CO)4
_chemical_formula_sum   'Re9 H9 C36 O36'
_cell_volume   1487.38350006
_cell_formula_units_Z   9
loop_
 _symmetry_equiv_pos_site_id
 _symmetry_equiv_pos_as_xyz
  1  'x, y, z'
loop_
 _atom_site_type_symbol
 _atom_site_label
 _atom_site_symmetry_multiplicity
 _atom_site_fract_x
 _atom_site_fract_y
 _atom_site_fract_z
 _atom_site_occupancy
  Re  Re0  1  0.09913900  0.01640900  0.47459500  1
  Re  Re1  1  0.98359100  0.08272900  0.80792900  1
  Re  Re2  1  0.91727100  0.90086100  0.14126200  1
  Re  Re3  1  0.43670000  0.69988500  0.72034100  1
  Re  Re4  1  0.30011500  0.73681600  0.05367400  1
  Re  Re5  1  0.26318400  0.56330000  0.38700800  1
  Re  Re6  1  0.56520200  0.31328000  0.94303500  1
  Re  Re7  1  0.68672000  0.25192200  0.27636800  1
  Re  Re8  1  0.74807800  0.43479800  0.60970100  1
  H  H9  1  0.00812800  0.00579500  0.29028500  1
  H  H10  1  0.99420500  0.00233300  0.62361800  1
  H  H11  1  0.99766700  0.99187200  0.95695100  1
  H  H12  1  0.34209500  0.67660500  0.53314800  1
  H  H13  1  0.32339500  0.66549000  0.86648100  1
  H  H14  1  0.33451000  0.65790500  0.19981400  1
  H  H15  1  0.67570100  0.33927400  0.79495100  1
  H  H16  1  0.66072600  0.33642700  0.12828500  1
  H  H17  1  0.66357300  0.32429900  0.46161800  1
  C  C18  1  0.19278600  0.01317200  0.29888600  1
  C  C19  1  0.98682800  0.17961300  0.63221900  1
  C  C20  1  0.82038700  0.80721400  0.96555200  1
  C  C21  1  0.04679200  0.87297000  0.54240000  1
  C  C22  1  0.12703000  0.17382200  0.87573400  1
  C  C23  1  0.82617800  0.95320800  0.20906700  1
  C  C24  1  0.19543100  0.04884800  0.67210200  1
  C  C25  1  0.95115200  0.14658300  0.00543500  1
  C  C26  1  0.85341700  0.80456900  0.33876900  1
  C  C27  1  0.15266400  0.16007400  0.40794800  1
  C  C28  1  0.83992600  0.99259000  0.74128100  1
  C  C29  1  0.00741000  0.84733600  0.07461500  1
  C  C30  1  0.53704100  0.74293100  0.91353600  1
  C  C31  1  0.25706900  0.79411000  0.24687000  1
  C  C32  1  0.20589000  0.46295900  0.58020300  1
  C  C33  1  0.53453300  0.71449700  0.53537800  1
  C  C34  1  0.28550300  0.82003700  0.86871200  1
  C  C35  1  0.17996300  0.46546700  0.20204500  1
  C  C36  1  0.40487500  0.56043300  0.77732200  1
  C  C37  1  0.43956700  0.84444200  0.11065500  1
  C  C38  1  0.15555800  0.59512500  0.44398900  1
  C  C39  1  0.47964600  0.84396000  0.67602300  1
  C  C40  1  0.15604000  0.63568600  0.00935600  1
  C  C41  1  0.36431400  0.52035400  0.34269000  1
  C  C42  1  0.47594300  0.30360400  0.74474200  1
  C  C43  1  0.69639600  0.17233900  0.07807500  1
  C  C44  1  0.82766100  0.52405700  0.41140900  1
  C  C45  1  0.45532500  0.27587800  0.11499400  1
  C  C46  1  0.72412200  0.17944700  0.44832800  1
  C  C47  1  0.82055300  0.54467500  0.78166100  1
  C  C48  1  0.51909100  0.16908300  0.89652500  1
  C  C49  1  0.83091700  0.35000800  0.22985800  1
  C  C50  1  0.64999200  0.48090900  0.56319200  1
  C  C51  1  0.60629500  0.45625900  0.99393000  1
  C  C52  1  0.54374100  0.15003600  0.32726400  1
  C  C53  1  0.84996400  0.39370500  0.66059700  1
  O  O54  1  0.25167500  0.01407700  0.19709900  1
  O  O55  1  0.98592300  0.23759800  0.53043300  1
  O  O56  1  0.76240200  0.74832500  0.86376600  1
  O  O57  1  0.02135700  0.79164500  0.58652200  1
  O  O58  1  0.20835500  0.22971200  0.91985500  1
  O  O59  1  0.77028800  0.97864300  0.25318800  1
  O  O60  1  0.25351500  0.06589200  0.78992200  1
  O  O61  1  0.93410800  0.18762300  0.12325500  1
  O  O62  1  0.81237700  0.74648500  0.45658800  1
  O  O63  1  0.18622100  0.24305800  0.36575400  1
  O  O64  1  0.75694200  0.94316300  0.69908700  1
  O  O65  1  0.05683700  0.81377900  0.03242100  1
  O  O66  1  0.59928400  0.76868100  0.02595400  1
  O  O67  1  0.23131900  0.83060300  0.35928800  1
  O  O68  1  0.16939700  0.40071600  0.69262100  1
  O  O69  1  0.59401400  0.72524600  0.42494900  1
  O  O70  1  0.27475400  0.86876800  0.75828300  1
  O  O71  1  0.13123200  0.40598600  0.09161600  1
  O  O72  1  0.39323200  0.48243000  0.81531200  1
  O  O73  1  0.51757000  0.91080300  0.14864500  1
  O  O74  1  0.08919700  0.60676800  0.48197800  1
  O  O75  1  0.51331600  0.92904400  0.65396400  1
  O  O76  1  0.07095600  0.58427200  0.98729700  1
  O  O77  1  0.41572800  0.48668400  0.32063100  1
  O  O78  1  0.41855300  0.29288900  0.62932700  1
  O  O79  1  0.70711100  0.12566400  0.96266000  1
  O  O80  1  0.87433600  0.58144700  0.29599300  1
  O  O81  1  0.38718400  0.25550200  0.21087000  1
  O  O82  1  0.74449800  0.13168200  0.54420400  1
  O  O83  1  0.86831800  0.61281600  0.87753700  1
  O  O84  1  0.48675900  0.08445900  0.87084000  1
  O  O85  1  0.91554100  0.40230000  0.20417400  1
  O  O86  1  0.59770000  0.51324100  0.53750700  1
  O  O87  1  0.62396700  0.53709200  0.02413500  1
  O  O88  1  0.46290800  0.08687500  0.35746900  1
  O  O89  1  0.91312500  0.37603300  0.69080200  1
