data_image0
_chemical_formula_structural       Al5Ni2Pr
_chemical_formula_sum              "Al5 Ni2 Pr1"
_cell_length_a       3.99336
_cell_length_b       6.29624
_cell_length_c       6.29624
_cell_angle_alpha    68.1104
_cell_angle_beta     108.489
_cell_angle_gamma    108.489

_space_group_name_H-M_alt    "P 1"
_space_group_IT_number       1

loop_
  _space_group_symop_operation_xyz
  'x, y, z'

loop_
  _atom_site_type_symbol
  _atom_site_label
  _atom_site_symmetry_multiplicity
  _atom_site_fract_x
  _atom_site_fract_y
  _atom_site_fract_z
  _atom_site_occupancy
  Al  Al1       1.0  0.34200  0.53300  0.15200  1.0000
  Al  Al2       1.0  0.65800  0.84800  0.46700  1.0000
  Al  Al3       1.0  0.00000  0.50000  0.50000  1.0000
  Al  Al4       1.0  0.34200  0.15200  0.53300  1.0000
  Al  Al5       1.0  0.65800  0.46700  0.84800  1.0000
  Ni  Ni1       1.0  0.76200  0.26200  0.26200  1.0000
  Ni  Ni2       1.0  0.23800  0.73800  0.73800  1.0000
  Pr  Pr1       1.0  0.00000  0.00000  0.00000  1.0000
