# generated using pymatgen
data_SrP3NO12
_symmetry_space_group_name_H-M   'P 1'
_cell_length_a   7.19883400
_cell_length_b   10.03059200
_cell_length_c   16.81212200
_cell_angle_alpha   90.00000000
_cell_angle_beta   90.00000000
_cell_angle_gamma   90.00000000
_symmetry_Int_Tables_number   1
_chemical_formula_structural   SrP3NO12
_chemical_formula_sum   'Sr4 P12 N4 O48'
_cell_volume   1213.97923331
_cell_formula_units_Z   4
loop_
 _symmetry_equiv_pos_site_id
 _symmetry_equiv_pos_as_xyz
  1  'x, y, z'
loop_
 _atom_site_type_symbol
 _atom_site_label
 _atom_site_symmetry_multiplicity
 _atom_site_fract_x
 _atom_site_fract_y
 _atom_site_fract_z
 _atom_site_occupancy
  Sr  Sr0  1  0.75000000  0.16130200  0.04298500  1
  Sr  Sr1  1  0.75000000  0.66130200  0.45701500  1
  Sr  Sr2  1  0.25000000  0.83869800  0.95701500  1
  Sr  Sr3  1  0.25000000  0.33869800  0.54298500  1
  P  P4  1  0.75000000  0.52078000  0.08348000  1
  P  P5  1  0.75000000  0.02078000  0.41652000  1
  P  P6  1  0.25000000  0.47922000  0.91652000  1
  P  P7  1  0.25000000  0.97922000  0.58348000  1
  P  P8  1  0.93986300  0.36002800  0.20011800  1
  P  P9  1  0.56013700  0.86002800  0.29988200  1
  P  P10  1  0.43986300  0.63997200  0.79988200  1
  P  P11  1  0.06013700  0.13997200  0.70011800  1
  P  P12  1  0.06013700  0.63997200  0.79988200  1
  P  P13  1  0.43986300  0.13997200  0.70011800  1
  P  P14  1  0.56013700  0.36002800  0.20011800  1
  P  P15  1  0.93986300  0.86002800  0.29988200  1
  N  N16  1  0.75000000  0.19164000  0.76684900  1
  N  N17  1  0.75000000  0.69164000  0.73315100  1
  N  N18  1  0.25000000  0.80836000  0.23315100  1
  N  N19  1  0.25000000  0.30836000  0.26684900  1
  O  O20  1  0.92695100  0.49113300  0.14875500  1
  O  O21  1  0.57304900  0.99113300  0.35124500  1
  O  O22  1  0.42695100  0.50886700  0.85124500  1
  O  O23  1  0.07304900  0.00886700  0.64875500  1
  O  O24  1  0.07304900  0.50886700  0.85124500  1
  O  O25  1  0.42695100  0.00886700  0.64875500  1
  O  O26  1  0.57304900  0.49113300  0.14875500  1
  O  O27  1  0.92695100  0.99113300  0.35124500  1
  O  O28  1  0.75000000  0.36450600  0.25296700  1
  O  O29  1  0.75000000  0.86450600  0.24703300  1
  O  O30  1  0.25000000  0.63549400  0.74703300  1
  O  O31  1  0.25000000  0.13549400  0.75296700  1
  O  O32  1  0.75000000  0.40685500  0.02602900  1
  O  O33  1  0.75000000  0.90685500  0.47397100  1
  O  O34  1  0.25000000  0.59314500  0.97397100  1
  O  O35  1  0.25000000  0.09314500  0.52602900  1
  O  O36  1  0.75000000  0.66321300  0.06443100  1
  O  O37  1  0.75000000  0.16321300  0.43556900  1
  O  O38  1  0.25000000  0.33678700  0.93556900  1
  O  O39  1  0.25000000  0.83678700  0.56443100  1
  O  O40  1  0.09670000  0.39724000  0.26513000  1
  O  O41  1  0.40330000  0.89724000  0.23487000  1
  O  O42  1  0.59670000  0.60276000  0.73487000  1
  O  O43  1  0.90330000  0.10276000  0.76513000  1
  O  O44  1  0.90330000  0.60276000  0.73487000  1
  O  O45  1  0.59670000  0.10276000  0.76513000  1
  O  O46  1  0.40330000  0.39724000  0.26513000  1
  O  O47  1  0.09670000  0.89724000  0.23487000  1
  O  O48  1  0.96439300  0.23262900  0.15768500  1
  O  O49  1  0.53560700  0.73262900  0.34231500  1
  O  O50  1  0.46439300  0.76737100  0.84231500  1
  O  O51  1  0.03560700  0.26737100  0.65768500  1
  O  O52  1  0.03560700  0.76737100  0.84231500  1
  O  O53  1  0.46439300  0.26737100  0.65768500  1
  O  O54  1  0.53560700  0.23262900  0.15768500  1
  O  O55  1  0.96439300  0.73262900  0.34231500  1
  O  O56  1  0.75000000  0.95989400  0.95207900  1
  O  O57  1  0.75000000  0.45989400  0.54792100  1
  O  O58  1  0.25000000  0.04010600  0.04792100  1
  O  O59  1  0.25000000  0.54010600  0.45207900  1
  O  O60  1  0.02583500  0.98322800  0.03903700  1
  O  O61  1  0.47416500  0.48322800  0.46096300  1
  O  O62  1  0.52583500  0.01677200  0.96096300  1
  O  O63  1  0.97416500  0.51677200  0.53903700  1
  O  O64  1  0.97416500  0.01677200  0.96096300  1
  O  O65  1  0.52583500  0.51677200  0.53903700  1
  O  O66  1  0.47416500  0.98322800  0.03903700  1
  O  O67  1  0.02583500  0.48322800  0.46096300  1
