# generated using pymatgen
data_H2RuN2Cl5O
_symmetry_space_group_name_H-M   'P 1'
_cell_length_a   6.65907700
_cell_length_b   10.26180700
_cell_length_c   13.47424900
_cell_angle_alpha   90.00000000
_cell_angle_beta   90.00000000
_cell_angle_gamma   90.00000000
_symmetry_Int_Tables_number   1
_chemical_formula_structural   H2RuN2Cl5O
_chemical_formula_sum   'H8 Ru4 N8 Cl20 O4'
_cell_volume   920.75152709
_cell_formula_units_Z   4
loop_
 _symmetry_equiv_pos_site_id
 _symmetry_equiv_pos_as_xyz
  1  'x, y, z'
loop_
 _atom_site_type_symbol
 _atom_site_label
 _atom_site_symmetry_multiplicity
 _atom_site_fract_x
 _atom_site_fract_y
 _atom_site_fract_z
 _atom_site_occupancy
  H  H0  1  0.95650000  0.75000000  0.92394700  1
  H  H1  1  0.54350000  0.75000000  0.42394700  1
  H  H2  1  0.04350000  0.25000000  0.07605300  1
  H  H3  1  0.45650000  0.25000000  0.57605300  1
  H  H4  1  0.15121300  0.75000000  0.99675300  1
  H  H5  1  0.34878700  0.75000000  0.49675300  1
  H  H6  1  0.84878700  0.25000000  0.00324700  1
  H  H7  1  0.65121300  0.25000000  0.50324700  1
  Ru  Ru8  1  0.80229300  0.75000000  0.11845000  1
  Ru  Ru9  1  0.69770700  0.75000000  0.61845000  1
  Ru  Ru10  1  0.19770700  0.25000000  0.88155000  1
  Ru  Ru11  1  0.30229300  0.25000000  0.38155000  1
  N  N12  1  0.34157900  0.49878100  0.14523100  1
  N  N13  1  0.15842100  0.00121900  0.64523100  1
  N  N14  1  0.65842100  0.99878100  0.85476900  1
  N  N15  1  0.84157900  0.50121900  0.35476900  1
  N  N16  1  0.65842100  0.50121900  0.85476900  1
  N  N17  1  0.84157900  0.99878100  0.35476900  1
  N  N18  1  0.34157900  0.00121900  0.14523100  1
  N  N19  1  0.15842100  0.49878100  0.64523100  1
  Cl  Cl20  1  0.54928100  0.75000000  0.00031500  1
  Cl  Cl21  1  0.95071900  0.75000000  0.50031500  1
  Cl  Cl22  1  0.45071900  0.25000000  0.99968500  1
  Cl  Cl23  1  0.04928100  0.25000000  0.49968500  1
  Cl  Cl24  1  0.58805700  0.75000000  0.24695500  1
  Cl  Cl25  1  0.91194300  0.75000000  0.74695500  1
  Cl  Cl26  1  0.41194300  0.25000000  0.75304500  1
  Cl  Cl27  1  0.08805700  0.25000000  0.25304500  1
  Cl  Cl28  1  0.08223400  0.75000000  0.21535300  1
  Cl  Cl29  1  0.41776600  0.75000000  0.71535300  1
  Cl  Cl30  1  0.91776600  0.25000000  0.78464700  1
  Cl  Cl31  1  0.58223400  0.25000000  0.28464700  1
  Cl  Cl32  1  0.80862100  0.52630400  0.11238600  1
  Cl  Cl33  1  0.69137900  0.97369600  0.61238600  1
  Cl  Cl34  1  0.19137900  0.02630400  0.88761400  1
  Cl  Cl35  1  0.30862100  0.47369600  0.38761400  1
  Cl  Cl36  1  0.19137900  0.47369600  0.88761400  1
  Cl  Cl37  1  0.30862100  0.02630400  0.38761400  1
  Cl  Cl38  1  0.80862100  0.97369600  0.11238600  1
  Cl  Cl39  1  0.69137900  0.52630400  0.61238600  1
  O  O40  1  0.00443300  0.75000000  0.99244800  1
  O  O41  1  0.49556700  0.75000000  0.49244800  1
  O  O42  1  0.99556700  0.25000000  0.00755200  1
  O  O43  1  0.50443300  0.25000000  0.50755200  1
