# generated using pymatgen
data_Zn4SO13
_symmetry_space_group_name_H-M   'P 1'
_cell_length_a   8.09235100
_cell_length_b   8.23453257
_cell_length_c   10.00759345
_cell_angle_alpha   103.14706218
_cell_angle_beta   100.15486728
_cell_angle_gamma   118.70861483
_symmetry_Int_Tables_number   1
_chemical_formula_structural   Zn4SO13
_chemical_formula_sum   'Zn8 S2 O26'
_cell_volume   536.78676569
_cell_formula_units_Z   2
loop_
 _symmetry_equiv_pos_site_id
 _symmetry_equiv_pos_as_xyz
  1  'x, y, z'
loop_
 _atom_site_type_symbol
 _atom_site_label
 _atom_site_symmetry_multiplicity
 _atom_site_fract_x
 _atom_site_fract_y
 _atom_site_fract_z
 _atom_site_occupancy
  Zn  Zn0  1  0.58198300  0.86179500  0.98769700  1
  Zn  Zn1  1  0.41801700  0.13820500  0.01230300  1
  Zn  Zn2  1  0.71166000  0.57345000  0.00087900  1
  Zn  Zn3  1  0.28834000  0.42655000  0.99912100  1
  Zn  Zn4  1  0.86118700  0.27599200  0.99199800  1
  Zn  Zn5  1  0.13881300  0.72400800  0.00800200  1
  Zn  Zn6  1  0.09117900  0.10185700  0.20103300  1
  Zn  Zn7  1  0.90882100  0.89814300  0.79896700  1
  S  S8  1  0.47164400  0.82934700  0.31473400  1
  S  S9  1  0.52835600  0.17065300  0.68526600  1
  O  O10  1  0.10865600  0.28038100  0.09880200  1
  O  O11  1  0.89134400  0.71961900  0.90119800  1
  O  O12  1  0.25661600  0.00531800  0.14525600  1
  O  O13  1  0.74338400  0.99468200  0.85474400  1
  O  O14  1  0.81922200  0.87640200  0.11014800  1
  O  O15  1  0.18077800  0.12359800  0.88985200  1
  O  O16  1  0.52865000  0.42749400  0.09846800  1
  O  O17  1  0.47135000  0.57250600  0.90153200  1
  O  O18  1  0.66754500  0.14437400  0.09003800  1
  O  O19  1  0.33245500  0.85562600  0.90996200  1
  O  O20  1  0.94061600  0.55598900  0.09356500  1
  O  O21  1  0.05938400  0.44401100  0.90643500  1
  O  O22  1  0.41192600  0.74058300  0.15032600  1
  O  O23  1  0.58807400  0.25941700  0.84967400  1
  O  O24  1  0.26293900  0.29273300  0.41559100  1
  O  O25  1  0.73706100  0.70726700  0.58440900  1
  O  O26  1  0.68290000  0.90441600  0.38395200  1
  O  O27  1  0.31710000  0.09558400  0.61604800  1
  O  O28  1  0.44190600  0.00000200  0.34621900  1
  O  O29  1  0.55809400  0.99999800  0.65378100  1
  O  O30  1  0.33820300  0.67915300  0.36629400  1
  O  O31  1  0.66179700  0.32084700  0.63370600  1
  O  O32  1  0.96964100  0.67654500  0.51155600  1
  O  O33  1  0.03035900  0.32345500  0.48844400  1
  O  O34  1  0.78958900  0.62252400  0.48362400  1
  O  O35  1  0.21041100  0.37747600  0.51637600  1
