# generated using pymatgen
data_TiH3CO5
_symmetry_space_group_name_H-M   'P 1'
_cell_length_a   9.68387710
_cell_length_b   9.68387710
_cell_length_c   9.45715700
_cell_angle_alpha   90.00000000
_cell_angle_beta   90.00000000
_cell_angle_gamma   111.13242470
_symmetry_Int_Tables_number   1
_chemical_formula_structural   TiH3CO5
_chemical_formula_sum   'Ti8 H24 C8 O40'
_cell_volume   827.22611251
_cell_formula_units_Z   8
loop_
 _symmetry_equiv_pos_site_id
 _symmetry_equiv_pos_as_xyz
  1  'x, y, z'
loop_
 _atom_site_type_symbol
 _atom_site_label
 _atom_site_symmetry_multiplicity
 _atom_site_fract_x
 _atom_site_fract_y
 _atom_site_fract_z
 _atom_site_occupancy
  Ti  Ti0  1  0.67200800  0.04041600  0.09933300  1
  Ti  Ti1  1  0.95958400  0.32799200  0.90066700  1
  Ti  Ti2  1  0.45958400  0.82799200  0.59933300  1
  Ti  Ti3  1  0.17200800  0.54041600  0.40066700  1
  Ti  Ti4  1  0.32799200  0.95958400  0.90066700  1
  Ti  Ti5  1  0.04041600  0.67200800  0.09933300  1
  Ti  Ti6  1  0.54041600  0.17200800  0.40066700  1
  Ti  Ti7  1  0.82799200  0.45958400  0.59933300  1
  H  H8  1  0.57162500  0.79008900  0.28578300  1
  H  H9  1  0.20991100  0.42837500  0.71421700  1
  H  H10  1  0.70991100  0.92837500  0.78578300  1
  H  H11  1  0.07162500  0.29008900  0.21421700  1
  H  H12  1  0.42837500  0.20991100  0.71421700  1
  H  H13  1  0.79008900  0.57162500  0.28578300  1
  H  H14  1  0.29008900  0.07162500  0.21421700  1
  H  H15  1  0.92837500  0.70991100  0.78578300  1
  H  H16  1  0.48358500  0.75067700  0.13367700  1
  H  H17  1  0.24932300  0.51641500  0.86632300  1
  H  H18  1  0.74932300  0.01641500  0.63367700  1
  H  H19  1  0.98358500  0.25067700  0.36632300  1
  H  H20  1  0.51641500  0.24932300  0.86632300  1
  H  H21  1  0.75067700  0.48358500  0.13367700  1
  H  H22  1  0.25067700  0.98358500  0.36632300  1
  H  H23  1  0.01641500  0.74932300  0.63367700  1
  H  H24  1  0.88680200  0.03018600  0.42893700  1
  H  H25  1  0.96981400  0.11319800  0.57106300  1
  H  H26  1  0.46981400  0.61319800  0.92893700  1
  H  H27  1  0.38680200  0.53018600  0.07106300  1
  H  H28  1  0.11319800  0.96981400  0.57106300  1
  H  H29  1  0.03018600  0.88680200  0.42893700  1
  H  H30  1  0.53018600  0.38680200  0.07106300  1
  H  H31  1  0.61319800  0.46981400  0.92893700  1
  C  C32  1  0.89532000  0.89532000  0.16287800  1
  C  C33  1  0.10468000  0.10468000  0.83712200  1
  C  C34  1  0.60468000  0.60468000  0.66287800  1
  C  C35  1  0.39532000  0.39532000  0.33712200  1
  C  C36  1  0.83665700  0.83665700  0.01466500  1
  C  C37  1  0.16334300  0.16334300  0.98533500  1
  C  C38  1  0.66334300  0.66334300  0.51466500  1
  C  C39  1  0.33665700  0.33665700  0.48533500  1
  O  O40  1  0.84738600  0.98861600  0.21793500  1
  O  O41  1  0.01138400  0.15261400  0.78206500  1
  O  O42  1  0.51138400  0.65261400  0.71793500  1
  O  O43  1  0.34738600  0.48861600  0.28206500  1
  O  O44  1  0.15261400  0.01138400  0.78206500  1
  O  O45  1  0.98861600  0.84738600  0.21793500  1
  O  O46  1  0.48861600  0.34738600  0.28206500  1
  O  O47  1  0.65261400  0.51138400  0.71793500  1
  O  O48  1  0.74492100  0.88708900  0.96031400  1
  O  O49  1  0.11291100  0.25507900  0.03968600  1
  O  O50  1  0.61291100  0.75507900  0.46031400  1
  O  O51  1  0.24492100  0.38708900  0.53968600  1
  O  O52  1  0.25507900  0.11291100  0.03968600  1
  O  O53  1  0.88708900  0.74492100  0.96031400  1
  O  O54  1  0.38708900  0.24492100  0.53968600  1
  O  O55  1  0.75507900  0.61291100  0.46031400  1
  O  O56  1  0.64404300  0.14404300  0.25000000  1
  O  O57  1  0.85595700  0.35595700  0.75000000  1
  O  O58  1  0.35595700  0.85595700  0.75000000  1
  O  O59  1  0.14404300  0.64404300  0.25000000  1
  O  O60  1  0.50000000  0.00000000  0.00000000  1
  O  O61  1  0.00000000  0.50000000  0.00000000  1
  O  O62  1  0.50000000  0.00000000  0.50000000  1
  O  O63  1  0.00000000  0.50000000  0.50000000  1
  O  O64  1  0.81200500  0.18799500  0.00000000  1
  O  O65  1  0.31200500  0.68799500  0.50000000  1
  O  O66  1  0.18799500  0.81200500  0.00000000  1
  O  O67  1  0.68799500  0.31200500  0.50000000  1
  O  O68  1  0.55416200  0.82823800  0.19351300  1
  O  O69  1  0.17176200  0.44583800  0.80648700  1
  O  O70  1  0.67176200  0.94583800  0.69351300  1
  O  O71  1  0.05416200  0.32823800  0.30648700  1
  O  O72  1  0.44583800  0.17176200  0.80648700  1
  O  O73  1  0.82823800  0.55416200  0.19351300  1
  O  O74  1  0.32823800  0.05416200  0.30648700  1
  O  O75  1  0.94583800  0.67176200  0.69351300  1
  O  O76  1  0.89368100  0.10631900  0.50000000  1
  O  O77  1  0.39368100  0.60631900  0.00000000  1
  O  O78  1  0.10631900  0.89368100  0.50000000  1
  O  O79  1  0.60631900  0.39368100  0.00000000  1
