# generated using pymatgen
data_Ba3NaSi2B7O20
_symmetry_space_group_name_H-M   'P 1'
_cell_length_a   8.54215583
_cell_length_b   8.54215583
_cell_length_c   13.71040163
_cell_angle_alpha   68.98241724
_cell_angle_beta   68.98241724
_cell_angle_gamma   59.97641127
_symmetry_Int_Tables_number   1
_chemical_formula_structural   Ba3NaSi2B7O20
_chemical_formula_sum   'Ba6 Na2 Si4 B14 O40'
_cell_volume   788.43637374
_cell_formula_units_Z   2
loop_
 _symmetry_equiv_pos_site_id
 _symmetry_equiv_pos_as_xyz
  1  'x, y, z'
loop_
 _atom_site_type_symbol
 _atom_site_label
 _atom_site_symmetry_multiplicity
 _atom_site_fract_x
 _atom_site_fract_y
 _atom_site_fract_z
 _atom_site_occupancy
  Ba  Ba0  1  0.57549500  0.42450500  0.25000000  1
  Ba  Ba1  1  0.42450500  0.57549500  0.75000000  1
  Ba  Ba2  1  0.85316300  0.72514400  0.69864100  1
  Ba  Ba3  1  0.27485600  0.14683700  0.80135900  1
  Ba  Ba4  1  0.14683700  0.27485600  0.30135900  1
  Ba  Ba5  1  0.72514400  0.85316300  0.19864100  1
  Na  Na6  1  0.50000000  0.00000000  0.50000000  1
  Na  Na7  1  0.00000000  0.50000000  0.00000000  1
  Si  Si8  1  0.74335400  0.52825600  0.49126000  1
  Si  Si9  1  0.47174400  0.25664600  0.00874000  1
  Si  Si10  1  0.25664600  0.47174400  0.50874000  1
  Si  Si11  1  0.52825600  0.74335400  0.99126000  1
  B  B12  1  0.36748900  0.74884100  0.46730300  1
  B  B13  1  0.25115900  0.63251100  0.03269700  1
  B  B14  1  0.63251100  0.25115900  0.53269700  1
  B  B15  1  0.74884100  0.36748900  0.96730300  1
  B  B16  1  0.00423200  0.68399000  0.37915700  1
  B  B17  1  0.31601000  0.99576800  0.12084300  1
  B  B18  1  0.99576800  0.31601000  0.62084300  1
  B  B19  1  0.68399000  0.00423200  0.87915700  1
  B  B20  1  0.86116300  0.97780000  0.44310100  1
  B  B21  1  0.02220000  0.13883700  0.05689900  1
  B  B22  1  0.13883700  0.02220000  0.55689900  1
  B  B23  1  0.97780000  0.86116300  0.94310100  1
  B  B24  1  0.01660700  0.98339300  0.25000000  1
  B  B25  1  0.98339300  0.01660700  0.75000000  1
  O  O26  1  0.26686500  0.63638100  0.53639400  1
  O  O27  1  0.36361900  0.73313500  0.96360600  1
  O  O28  1  0.73313500  0.36361900  0.46360600  1
  O  O29  1  0.63638100  0.26686500  0.03639400  1
  O  O30  1  0.53159500  0.69915900  0.51097000  1
  O  O31  1  0.30084100  0.46840500  0.98903000  1
  O  O32  1  0.46840500  0.30084100  0.48903000  1
  O  O33  1  0.69915900  0.53159500  0.01097000  1
  O  O34  1  0.75619500  0.05401900  0.53175900  1
  O  O35  1  0.94598100  0.24380500  0.96824100  1
  O  O36  1  0.24380500  0.94598100  0.46824100  1
  O  O37  1  0.05401900  0.75619500  0.03175900  1
  O  O38  1  0.89684800  0.07999400  0.34156300  1
  O  O39  1  0.92000600  0.10315200  0.15843700  1
  O  O40  1  0.10315200  0.92000600  0.65843700  1
  O  O41  1  0.07999400  0.89684800  0.84156300  1
  O  O42  1  0.81019100  0.46848500  0.60293200  1
  O  O43  1  0.53151500  0.18980900  0.89706800  1
  O  O44  1  0.18980900  0.53151500  0.39706800  1
  O  O45  1  0.46848500  0.81019100  0.10293200  1
  O  O46  1  0.91544600  0.78974900  0.46488800  1
  O  O47  1  0.21025100  0.08455400  0.03511200  1
  O  O48  1  0.08455400  0.21025100  0.53511200  1
  O  O49  1  0.78974900  0.91544600  0.96488800  1
  O  O50  1  0.11734500  0.40273200  0.61393600  1
  O  O51  1  0.59726800  0.88265500  0.88606400  1
  O  O52  1  0.88265500  0.59726800  0.38606400  1
  O  O53  1  0.40273200  0.11734500  0.11393600  1
  O  O54  1  0.01668000  0.80317200  0.27359400  1
  O  O55  1  0.19682800  0.98332000  0.22640600  1
  O  O56  1  0.98332000  0.19682800  0.72640600  1
  O  O57  1  0.80317200  0.01668000  0.77359400  1
  O  O58  1  0.51046200  0.11920100  0.31490900  1
  O  O59  1  0.88079900  0.48953800  0.18509100  1
  O  O60  1  0.48953800  0.88079900  0.68509100  1
  O  O61  1  0.11920100  0.51046200  0.81490900  1
  O  O62  1  0.45846400  0.71985000  0.35863900  1
  O  O63  1  0.28015000  0.54153600  0.14136100  1
  O  O64  1  0.54153600  0.28015000  0.64136100  1
  O  O65  1  0.71985000  0.45846400  0.85863900  1
