# generated using pymatgen
data_K2SeS3O7
_symmetry_space_group_name_H-M   'P 1'
_cell_length_a   19.29612100
_cell_length_b   5.68619000
_cell_length_c   9.62615010
_cell_angle_alpha   89.58368881
_cell_angle_beta   90.00000000
_cell_angle_gamma   90.00000000
_symmetry_Int_Tables_number   1
_chemical_formula_structural   K2SeS3O7
_chemical_formula_sum   'K8 Se4 S12 O28'
_cell_volume   1056.16688422
_cell_formula_units_Z   4
loop_
 _symmetry_equiv_pos_site_id
 _symmetry_equiv_pos_as_xyz
  1  'x, y, z'
loop_
 _atom_site_type_symbol
 _atom_site_label
 _atom_site_symmetry_multiplicity
 _atom_site_fract_x
 _atom_site_fract_y
 _atom_site_fract_z
 _atom_site_occupancy
  K  K0  1  0.10694200  0.85699900  0.99948800  1
  K  K1  1  0.60694200  0.14300100  0.50051200  1
  K  K2  1  0.89305800  0.14300100  0.00051200  1
  K  K3  1  0.39305800  0.85699900  0.49948800  1
  K  K4  1  0.25372400  0.29783500  0.15589400  1
  K  K5  1  0.75372400  0.70216500  0.34410600  1
  K  K6  1  0.74627600  0.70216500  0.84410600  1
  K  K7  1  0.24627600  0.29783500  0.65589400  1
  Se  Se8  1  0.10299700  0.72190600  0.46079300  1
  Se  Se9  1  0.60299700  0.27809400  0.03920700  1
  Se  Se10  1  0.89700300  0.27809400  0.53920700  1
  Se  Se11  1  0.39700300  0.72190600  0.96079300  1
  S  S12  1  0.07981500  0.36045400  0.40755600  1
  S  S13  1  0.57981500  0.63954600  0.09244400  1
  S  S14  1  0.92018500  0.63954600  0.59244400  1
  S  S15  1  0.42018500  0.36045400  0.90755600  1
  S  S16  1  0.21553500  0.77653100  0.36781000  1
  S  S17  1  0.71553500  0.22346900  0.13219000  1
  S  S18  1  0.78446500  0.22346900  0.63219000  1
  S  S19  1  0.28446500  0.77653100  0.86781000  1
  S  S20  1  0.05007000  0.36655800  0.18529800  1
  S  S21  1  0.55007000  0.63344200  0.31470200  1
  S  S22  1  0.94993000  0.63344200  0.81470200  1
  S  S23  1  0.44993000  0.36655800  0.68529800  1
  O  O24  1  0.25647800  0.56916600  0.40876000  1
  O  O25  1  0.75647800  0.43083400  0.09124000  1
  O  O26  1  0.74352200  0.43083400  0.59124000  1
  O  O27  1  0.24352200  0.56916600  0.90876000  1
  O  O28  1  0.20637700  0.79671400  0.21633200  1
  O  O29  1  0.70637700  0.20328600  0.28366800  1
  O  O30  1  0.79362300  0.20328600  0.78366800  1
  O  O31  1  0.29362300  0.79671400  0.71633200  1
  O  O32  1  0.23832800  0.99715900  0.43173000  1
  O  O33  1  0.73832800  0.00284100  0.06827000  1
  O  O34  1  0.76167200  0.00284100  0.56827000  1
  O  O35  1  0.26167200  0.99715900  0.93173000  1
  O  O36  1  0.00737300  0.15423700  0.17964200  1
  O  O37  1  0.50737300  0.84576300  0.32035800  1
  O  O38  1  0.99262700  0.84576300  0.82035800  1
  O  O39  1  0.49262700  0.15423700  0.67964200  1
  O  O40  1  0.11549700  0.34443400  0.10719800  1
  O  O41  1  0.61549700  0.65556600  0.39280200  1
  O  O42  1  0.88450300  0.65556600  0.89280200  1
  O  O43  1  0.38450300  0.34443400  0.60719800  1
  O  O44  1  0.01457900  0.58955400  0.16249300  1
  O  O45  1  0.51457900  0.41044600  0.33750700  1
  O  O46  1  0.98542100  0.41044600  0.83750700  1
  O  O47  1  0.48542100  0.58955400  0.66249300  1
  O  O48  1  0.61514700  0.84219800  0.74647000  1
  O  O49  1  0.11514700  0.15780200  0.75353000  1
  O  O50  1  0.38485300  0.15780200  0.25353000  1
  O  O51  1  0.88485300  0.84219800  0.24647000  1
