# generated using pymatgen
data_SnS6N2O21
_symmetry_space_group_name_H-M   'P 1'
_cell_length_a   10.25981215
_cell_length_b   10.25981215
_cell_length_c   11.58675000
_cell_angle_alpha   90.00000000
_cell_angle_beta   90.00000000
_cell_angle_gamma   120.00000095
_symmetry_Int_Tables_number   1
_chemical_formula_structural   SnS6N2O21
_chemical_formula_sum   'Sn2 S12 N4 O42'
_cell_volume   1056.26060489
_cell_formula_units_Z   2
loop_
 _symmetry_equiv_pos_site_id
 _symmetry_equiv_pos_as_xyz
  1  'x, y, z'
loop_
 _atom_site_type_symbol
 _atom_site_label
 _atom_site_symmetry_multiplicity
 _atom_site_fract_x
 _atom_site_fract_y
 _atom_site_fract_z
 _atom_site_occupancy
  Sn  Sn0  1  0.00000000  0.00000000  0.24013600  1
  Sn  Sn1  1  0.00000000  0.00000000  0.75986400  1
  S  S2  1  0.73793300  0.07657600  0.33807500  1
  S  S3  1  0.92342400  0.66135700  0.33807500  1
  S  S4  1  0.33864300  0.26206700  0.33807500  1
  S  S5  1  0.26206700  0.92342400  0.66192500  1
  S  S6  1  0.07657600  0.33864300  0.66192500  1
  S  S7  1  0.66135700  0.73793300  0.66192500  1
  S  S8  1  0.65094900  0.85900400  0.14948100  1
  S  S9  1  0.14099600  0.79194500  0.14948100  1
  S  S10  1  0.20805500  0.34905100  0.14948100  1
  S  S11  1  0.34905100  0.14099600  0.85051900  1
  S  S12  1  0.85900400  0.20805500  0.85051900  1
  S  S13  1  0.79194500  0.65094900  0.85051900  1
  N  N14  1  0.33333300  0.66666700  0.87496000  1
  N  N15  1  0.66666700  0.33333300  0.12504000  1
  N  N16  1  0.33333300  0.66666700  0.43839400  1
  N  N17  1  0.66666700  0.33333300  0.56160600  1
  O  O18  1  0.67998000  0.02249400  0.20611300  1
  O  O19  1  0.97750600  0.65748600  0.20611300  1
  O  O20  1  0.34251400  0.32002000  0.20611300  1
  O  O21  1  0.32002000  0.97750600  0.79388700  1
  O  O22  1  0.02249400  0.34251400  0.79388700  1
  O  O23  1  0.65748600  0.67998000  0.79388700  1
  O  O24  1  0.87662300  0.05924100  0.34986000  1
  O  O25  1  0.94075900  0.81738300  0.34986000  1
  O  O26  1  0.18261700  0.12337700  0.34986000  1
  O  O27  1  0.12337700  0.94075900  0.65014000  1
  O  O28  1  0.05924100  0.18261700  0.65014000  1
  O  O29  1  0.81738300  0.87662300  0.65014000  1
  O  O30  1  0.77803100  0.23250400  0.33654900  1
  O  O31  1  0.76749600  0.54552700  0.33654900  1
  O  O32  1  0.45447300  0.22196900  0.33654900  1
  O  O33  1  0.22196900  0.76749600  0.66345100  1
  O  O34  1  0.23250400  0.45447300  0.66345100  1
  O  O35  1  0.54552700  0.77803100  0.66345100  1
  O  O36  1  0.56860900  0.74180000  0.23171400  1
  O  O37  1  0.25820000  0.82681000  0.23171400  1
  O  O38  1  0.17319000  0.43139100  0.23171400  1
  O  O39  1  0.43139100  0.25820000  0.76828600  1
  O  O40  1  0.74180000  0.17319000  0.76828600  1
  O  O41  1  0.82681000  0.56860900  0.76828600  1
  O  O42  1  0.59066900  0.85868200  0.03843400  1
  O  O43  1  0.14131800  0.73198700  0.03843400  1
  O  O44  1  0.26801300  0.40933100  0.03843400  1
  O  O45  1  0.40933100  0.14131800  0.96156600  1
  O  O46  1  0.85868200  0.26801300  0.96156600  1
  O  O47  1  0.73198700  0.59066900  0.96156600  1
  O  O48  1  0.81288100  0.89052800  0.13496300  1
  O  O49  1  0.10947200  0.92235300  0.13496300  1
  O  O50  1  0.07764700  0.18711900  0.13496300  1
  O  O51  1  0.18711900  0.10947200  0.86503700  1
  O  O52  1  0.89052800  0.07764700  0.86503700  1
  O  O53  1  0.92235300  0.81288100  0.86503700  1
  O  O54  1  0.62521200  0.97984100  0.42002100  1
  O  O55  1  0.02015900  0.64537200  0.42002100  1
  O  O56  1  0.35462800  0.37478800  0.42002100  1
  O  O57  1  0.37478800  0.02015900  0.57997900  1
  O  O58  1  0.97984100  0.35462800  0.57997900  1
  O  O59  1  0.64537200  0.62521200  0.57997900  1
