# generated using pymatgen
data_CoSnN6Cl5
_symmetry_space_group_name_H-M   'P 1'
_cell_length_a   23.71820700
_cell_length_b   8.29014800
_cell_length_c   8.85870155
_cell_angle_alpha   81.25260890
_cell_angle_beta   90.00000000
_cell_angle_gamma   90.00000000
_symmetry_Int_Tables_number   1
_chemical_formula_structural   CoSnN6Cl5
_chemical_formula_sum   'Co4 Sn4 N24 Cl20'
_cell_volume   1721.60326331
_cell_formula_units_Z   4
loop_
 _symmetry_equiv_pos_site_id
 _symmetry_equiv_pos_as_xyz
  1  'x, y, z'
loop_
 _atom_site_type_symbol
 _atom_site_label
 _atom_site_symmetry_multiplicity
 _atom_site_fract_x
 _atom_site_fract_y
 _atom_site_fract_z
 _atom_site_occupancy
  Co  Co0  1  0.09375900  0.07224300  0.65264400  1
  Co  Co1  1  0.59375900  0.92775700  0.84735600  1
  Co  Co2  1  0.90624100  0.92775700  0.34735600  1
  Co  Co3  1  0.40624100  0.07224300  0.15264400  1
  Sn  Sn4  1  0.39394300  0.65693300  0.68739100  1
  Sn  Sn5  1  0.89394300  0.34306700  0.81260900  1
  Sn  Sn6  1  0.60605700  0.34306700  0.31260900  1
  Sn  Sn7  1  0.10605700  0.65693300  0.18739100  1
  N  N8  1  0.09592700  0.11531500  0.44043300  1
  N  N9  1  0.59592700  0.88468500  0.05956700  1
  N  N10  1  0.90407300  0.88468500  0.55956700  1
  N  N11  1  0.40407300  0.11531500  0.94043300  1
  N  N12  1  0.18152600  0.34104700  0.85651400  1
  N  N13  1  0.68152600  0.65895300  0.64348600  1
  N  N14  1  0.81847400  0.65895300  0.14348600  1
  N  N15  1  0.31847400  0.34104700  0.35651400  1
  N  N16  1  0.07215100  0.23877300  0.71745300  1
  N  N17  1  0.57215100  0.76122700  0.78254700  1
  N  N18  1  0.92784900  0.76122700  0.28254700  1
  N  N19  1  0.42784900  0.23877300  0.21745300  1
  N  N20  1  0.20000400  0.38832200  0.74280700  1
  N  N21  1  0.70000400  0.61167800  0.75719300  1
  N  N22  1  0.79999600  0.61167800  0.25719300  1
  N  N23  1  0.29999600  0.38832200  0.24280700  1
  N  N24  1  0.15770600  0.02675200  0.70157600  1
  N  N25  1  0.65770600  0.97324800  0.79842400  1
  N  N26  1  0.84229400  0.97324800  0.29842400  1
  N  N27  1  0.34229400  0.02675200  0.20157600  1
  N  N28  1  0.04965600  0.92466800  0.69275200  1
  N  N29  1  0.54965600  0.07533200  0.80724800  1
  N  N30  1  0.95034400  0.07533200  0.30724800  1
  N  N31  1  0.45034400  0.92466800  0.19275200  1
  Cl  Cl32  1  0.37866400  0.63300900  0.94843500  1
  Cl  Cl33  1  0.87866400  0.36699100  0.55156500  1
  Cl  Cl34  1  0.62133600  0.36699100  0.05156500  1
  Cl  Cl35  1  0.12133600  0.63300900  0.44843500  1
  Cl  Cl36  1  0.43887300  0.90268400  0.60771900  1
  Cl  Cl37  1  0.93887300  0.09731600  0.89228100  1
  Cl  Cl38  1  0.56112700  0.09731600  0.39228100  1
  Cl  Cl39  1  0.06112700  0.90268400  0.10771900  1
  Cl  Cl40  1  0.44696900  0.43818300  0.63544900  1
  Cl  Cl41  1  0.94696900  0.56181700  0.86455100  1
  Cl  Cl42  1  0.55303100  0.56181700  0.36455100  1
  Cl  Cl43  1  0.05303100  0.43818300  0.13544900  1
  Cl  Cl44  1  0.19206600  0.65915300  0.06320700  1
  Cl  Cl45  1  0.69206600  0.34084700  0.43679300  1
  Cl  Cl46  1  0.80793400  0.34084700  0.93679300  1
  Cl  Cl47  1  0.30793400  0.65915300  0.56320700  1
  Cl  Cl48  1  0.34554200  0.19335700  0.86362100  1
  Cl  Cl49  1  0.84554200  0.80664300  0.63637900  1
  Cl  Cl50  1  0.65445800  0.80664300  0.13637900  1
  Cl  Cl51  1  0.15445800  0.19335700  0.36362100  1
