# generated using pymatgen
data_CaMn2(H2O3)4
_symmetry_space_group_name_H-M   'P 1'
_cell_length_a   5.58953500
_cell_length_b   13.27888400
_cell_length_c   14.66958200
_cell_angle_alpha   90.00000000
_cell_angle_beta   90.00000000
_cell_angle_gamma   90.00000000
_symmetry_Int_Tables_number   1
_chemical_formula_structural   CaMn2(H2O3)4
_chemical_formula_sum   'Ca4 Mn8 H32 O48'
_cell_volume   1088.81725839
_cell_formula_units_Z   4
loop_
 _symmetry_equiv_pos_site_id
 _symmetry_equiv_pos_as_xyz
  1  'x, y, z'
loop_
 _atom_site_type_symbol
 _atom_site_label
 _atom_site_symmetry_multiplicity
 _atom_site_fract_x
 _atom_site_fract_y
 _atom_site_fract_z
 _atom_site_occupancy
  Ca  Ca0  1  0.25000000  0.84955800  0.25000000  1
  Ca  Ca1  1  0.75000000  0.65044200  0.75000000  1
  Ca  Ca2  1  0.75000000  0.15044200  0.75000000  1
  Ca  Ca3  1  0.25000000  0.34955800  0.25000000  1
  Mn  Mn4  1  0.98789200  0.59764000  0.13251800  1
  Mn  Mn5  1  0.51210800  0.59764000  0.36748200  1
  Mn  Mn6  1  0.01210800  0.90236000  0.63251800  1
  Mn  Mn7  1  0.48789200  0.90236000  0.86748200  1
  Mn  Mn8  1  0.01210800  0.40236000  0.86748200  1
  Mn  Mn9  1  0.48789200  0.40236000  0.63251800  1
  Mn  Mn10  1  0.98789200  0.09764000  0.36748200  1
  Mn  Mn11  1  0.51210800  0.09764000  0.13251800  1
  H  H12  1  0.54640100  0.97940700  0.38490500  1
  H  H13  1  0.95359900  0.97940700  0.11509500  1
  H  H14  1  0.45359900  0.52059300  0.88490500  1
  H  H15  1  0.04640100  0.52059300  0.61509500  1
  H  H16  1  0.45359900  0.02059300  0.61509500  1
  H  H17  1  0.04640100  0.02059300  0.88490500  1
  H  H18  1  0.54640100  0.47940700  0.11509500  1
  H  H19  1  0.95359900  0.47940700  0.38490500  1
  H  H20  1  0.41494200  0.89560100  0.43965600  1
  H  H21  1  0.08505800  0.89560100  0.06034400  1
  H  H22  1  0.58505800  0.60439900  0.93965600  1
  H  H23  1  0.91494200  0.60439900  0.56034400  1
  H  H24  1  0.58505800  0.10439900  0.56034400  1
  H  H25  1  0.91494200  0.10439900  0.93965600  1
  H  H26  1  0.41494200  0.39560100  0.06034400  1
  H  H27  1  0.08505800  0.39560100  0.43965600  1
  H  H28  1  0.93397300  0.72470800  0.37884000  1
  H  H29  1  0.56602700  0.72470800  0.12116000  1
  H  H30  1  0.06602700  0.77529200  0.87884000  1
  H  H31  1  0.43397300  0.77529200  0.62116000  1
  H  H32  1  0.06602700  0.27529200  0.62116000  1
  H  H33  1  0.43397300  0.27529200  0.87884000  1
  H  H34  1  0.93397300  0.22470800  0.12116000  1
  H  H35  1  0.56602700  0.22470800  0.37884000  1
  H  H36  1  0.85721700  0.83707600  0.38996600  1
  H  H37  1  0.64278300  0.83707600  0.11003400  1
  H  H38  1  0.14278300  0.66292400  0.88996600  1
  H  H39  1  0.35721700  0.66292400  0.61003400  1
  H  H40  1  0.14278300  0.16292400  0.61003400  1
  H  H41  1  0.35721700  0.16292400  0.88996600  1
  H  H42  1  0.85721700  0.33707600  0.11003400  1
  H  H43  1  0.64278300  0.33707600  0.38996600  1
  O  O44  1  0.71303300  0.60252500  0.09391500  1
  O  O45  1  0.78696700  0.60252500  0.40608500  1
  O  O46  1  0.28696700  0.89747500  0.59391500  1
  O  O47  1  0.21303300  0.89747500  0.90608500  1
  O  O48  1  0.28696700  0.39747500  0.90608500  1
  O  O49  1  0.21303300  0.39747500  0.59391500  1
  O  O50  1  0.71303300  0.10252500  0.40608500  1
  O  O51  1  0.78696700  0.10252500  0.09391500  1
  O  O52  1  0.17242800  0.59069000  0.04941100  1
  O  O53  1  0.32757200  0.59069000  0.45058900  1
  O  O54  1  0.82757200  0.90931000  0.54941100  1
  O  O55  1  0.67242800  0.90931000  0.95058900  1
  O  O56  1  0.82757200  0.40931000  0.95058900  1
  O  O57  1  0.67242800  0.40931000  0.54941100  1
  O  O58  1  0.17242800  0.09069000  0.45058900  1
  O  O59  1  0.32757200  0.09069000  0.04941100  1
  O  O60  1  0.01861600  0.49912000  0.19673900  1
  O  O61  1  0.48138400  0.49912000  0.30326100  1
  O  O62  1  0.98138400  0.00088000  0.69673900  1
  O  O63  1  0.51861600  0.00088000  0.80326100  1
  O  O64  1  0.98138400  0.50088000  0.80326100  1
  O  O65  1  0.51861600  0.50088000  0.69673900  1
  O  O66  1  0.01861600  0.99912000  0.30326100  1
  O  O67  1  0.48138400  0.99912000  0.19673900  1
  O  O68  1  0.04115200  0.69834000  0.19105000  1
  O  O69  1  0.45884800  0.69834000  0.30895000  1
  O  O70  1  0.95884800  0.80166000  0.69105000  1
  O  O71  1  0.54115200  0.80166000  0.80895000  1
  O  O72  1  0.95884800  0.30166000  0.80895000  1
  O  O73  1  0.54115200  0.30166000  0.69105000  1
  O  O74  1  0.04115200  0.19834000  0.30895000  1
  O  O75  1  0.45884800  0.19834000  0.19105000  1
  O  O76  1  0.49419200  0.90834700  0.38125300  1
  O  O77  1  0.00580800  0.90834700  0.11874700  1
  O  O78  1  0.50580800  0.59165300  0.88125300  1
  O  O79  1  0.99419200  0.59165300  0.61874700  1
  O  O80  1  0.50580800  0.09165300  0.61874700  1
  O  O81  1  0.99419200  0.09165300  0.88125300  1
  O  O82  1  0.49419200  0.40834700  0.11874700  1
  O  O83  1  0.00580800  0.40834700  0.38125300  1
  O  O84  1  0.99352800  0.79454800  0.37334100  1
  O  O85  1  0.50647200  0.79454800  0.12665900  1
  O  O86  1  0.00647200  0.70545200  0.87334100  1
  O  O87  1  0.49352800  0.70545200  0.62665900  1
  O  O88  1  0.00647200  0.20545200  0.62665900  1
  O  O89  1  0.49352800  0.20545200  0.87334100  1
  O  O90  1  0.99352800  0.29454800  0.12665900  1
  O  O91  1  0.50647200  0.29454800  0.37334100  1
