# generated using pymatgen
data_Mo2P4C14SNCl4
_symmetry_space_group_name_H-M   'P 1'
_cell_length_a   8.77672600
_cell_length_b   9.67409813
_cell_length_c   18.37479178
_cell_angle_alpha   99.12577696
_cell_angle_beta   102.25596835
_cell_angle_gamma   102.06171207
_symmetry_Int_Tables_number   1
_chemical_formula_structural   Mo2P4C14SNCl4
_chemical_formula_sum   'Mo4 P8 C28 S2 N2 Cl8'
_cell_volume   1456.91768552
_cell_formula_units_Z   2
loop_
 _symmetry_equiv_pos_site_id
 _symmetry_equiv_pos_as_xyz
  1  'x, y, z'
loop_
 _atom_site_type_symbol
 _atom_site_label
 _atom_site_symmetry_multiplicity
 _atom_site_fract_x
 _atom_site_fract_y
 _atom_site_fract_z
 _atom_site_occupancy
  Mo  Mo0  1  0.85304900  0.87000700  0.75021100  1
  Mo  Mo1  1  0.14695100  0.12999300  0.24978900  1
  Mo  Mo2  1  0.73979100  0.62672800  0.80787000  1
  Mo  Mo3  1  0.26020900  0.37327200  0.19213000  1
  P  P4  1  0.77614800  0.05084300  0.67245400  1
  P  P5  1  0.22385200  0.94915700  0.32754600  1
  P  P6  1  0.81821000  0.71817400  0.60209200  1
  P  P7  1  0.18179000  0.28182600  0.39790800  1
  P  P8  1  0.66464500  0.83085400  0.89591700  1
  P  P9  1  0.33535500  0.16914600  0.10408300  1
  P  P10  1  0.49906800  0.42981500  0.77936500  1
  P  P11  1  0.50093200  0.57018500  0.22063500  1
  C  C12  1  0.87132200  0.14192400  0.86593800  1
  C  C13  1  0.12867800  0.85807600  0.13406200  1
  C  C14  1  0.88430300  0.26684100  0.90729700  1
  C  C15  1  0.11569700  0.73315900  0.09270300  1
  C  C16  1  0.57330900  0.02572300  0.61293400  1
  C  C17  1  0.42669100  0.97427700  0.38706600  1
  C  C18  1  0.55023000  0.00049100  0.53493800  1
  C  C19  1  0.44977000  0.99950900  0.46506200  1
  C  C20  1  0.70263700  0.99286400  0.57238600  1
  C  C21  1  0.29736300  0.00713600  0.42761400  1
  C  C22  1  0.84187200  0.54728700  0.55853400  1
  C  C23  1  0.15812800  0.45271300  0.44146600  1
  C  C24  1  0.96607500  0.54122000  0.52307800  1
  C  C25  1  0.03392500  0.45878000  0.47692200  1
  C  C26  1  0.97149000  0.67950800  0.56043900  1
  C  C27  1  0.02851000  0.32049200  0.43956100  1
  C  C28  1  0.66333200  0.84095200  0.00408500  1
  C  C29  1  0.33666800  0.15904800  0.99591500  1
  C  C30  1  0.51612400  0.78514100  0.95451200  1
  C  C31  1  0.48387600  0.21485900  0.04548800  1
  C  C32  1  0.44932700  0.82378000  0.88848300  1
  C  C33  1  0.55067300  0.17622000  0.11151700  1
  C  C34  1  0.30269000  0.36124100  0.71472000  1
  C  C35  1  0.69731000  0.63875900  0.28528000  1
  C  C36  1  0.34887100  0.34173400  0.82134300  1
  C  C37  1  0.65112900  0.65826600  0.17865700  1
  C  C38  1  0.22359400  0.38066300  0.77388700  1
  C  C39  1  0.77640600  0.61933700  0.22611300  1
  S  S40  1  0.58885300  0.72313200  0.72022800  1
  S  S41  1  0.41114700  0.27686800  0.27977200  1
  N  N42  1  0.85698100  0.02102800  0.82371200  1
  N  N43  1  0.14301900  0.97897200  0.17628800  1
  Cl  Cl44  1  0.02151500  0.75885100  0.83138400  1
  Cl  Cl45  1  0.97848500  0.24114900  0.16861600  1
  Cl  Cl46  1  0.07663400  0.99983200  0.70770100  1
  Cl  Cl47  1  0.92336600  0.00016800  0.29229900  1
  Cl  Cl48  1  0.81658700  0.43356000  0.74136400  1
  Cl  Cl49  1  0.18341300  0.56644000  0.25863600  1
  Cl  Cl50  1  0.77489800  0.57952800  0.93127300  1
  Cl  Cl51  1  0.22510200  0.42047200  0.06872700  1
