# generated using pymatgen
data_Co2Br5N9O2
_symmetry_space_group_name_H-M   'P 1'
_cell_length_a   8.10937108
_cell_length_b   8.10937108
_cell_length_c   12.18487609
_cell_angle_alpha   94.21624855
_cell_angle_beta   94.21624855
_cell_angle_gamma   97.62519525
_symmetry_Int_Tables_number   1
_chemical_formula_structural   Co2Br5N9O2
_chemical_formula_sum   'Co4 Br10 N18 O4'
_cell_volume   789.24959733
_cell_formula_units_Z   2
loop_
 _symmetry_equiv_pos_site_id
 _symmetry_equiv_pos_as_xyz
  1  'x, y, z'
loop_
 _atom_site_type_symbol
 _atom_site_label
 _atom_site_symmetry_multiplicity
 _atom_site_fract_x
 _atom_site_fract_y
 _atom_site_fract_z
 _atom_site_occupancy
  Co  Co0  1  0.91258100  0.33583500  0.19296900  1
  Co  Co1  1  0.66416500  0.08741900  0.30703100  1
  Co  Co2  1  0.08741900  0.66416500  0.80703100  1
  Co  Co3  1  0.33583500  0.91258100  0.69296900  1
  Br  Br4  1  0.61733200  0.38266800  0.25000000  1
  Br  Br5  1  0.38266800  0.61733200  0.75000000  1
  Br  Br6  1  0.87705700  0.83356400  0.37760200  1
  Br  Br7  1  0.16643600  0.12294300  0.12239800  1
  Br  Br8  1  0.12294300  0.16643600  0.62239800  1
  Br  Br9  1  0.83356400  0.87705700  0.87760200  1
  Br  Br10  1  0.27830400  0.61021800  0.03803800  1
  Br  Br11  1  0.38978200  0.72169600  0.46196200  1
  Br  Br12  1  0.72169600  0.38978200  0.96196200  1
  Br  Br13  1  0.61021800  0.27830400  0.53803800  1
  N  N14  1  0.84788700  0.15211300  0.25000000  1
  N  N15  1  0.15211300  0.84788700  0.75000000  1
  N  N16  1  0.88273300  0.30217700  0.04313700  1
  N  N17  1  0.69782300  0.11726700  0.45686300  1
  N  N18  1  0.11726700  0.69782300  0.95686300  1
  N  N19  1  0.30217700  0.88273300  0.54313700  1
  N  N20  1  0.01219400  0.48310000  0.45643400  1
  N  N21  1  0.51690000  0.98780600  0.04356600  1
  N  N22  1  0.98780600  0.51690000  0.54356600  1
  N  N23  1  0.48310000  0.01219400  0.95643400  1
  N  N24  1  0.12269100  0.31099200  0.19877200  1
  N  N25  1  0.68900800  0.87730900  0.30122800  1
  N  N26  1  0.87730900  0.68900800  0.80122800  1
  N  N27  1  0.31099200  0.12269100  0.69877200  1
  N  N28  1  0.95018100  0.57459300  0.17349000  1
  N  N29  1  0.42540700  0.04981900  0.32651000  1
  N  N30  1  0.04981900  0.42540700  0.82651000  1
  N  N31  1  0.57459300  0.95018100  0.67349000  1
  O  O32  1  0.88762400  0.66115200  0.11605100  1
  O  O33  1  0.33884800  0.11237600  0.38394900  1
  O  O34  1  0.11237600  0.33884800  0.88394900  1
  O  O35  1  0.66115200  0.88762400  0.61605100  1
