# generated using pymatgen
data_KAl(SO7)2
_symmetry_space_group_name_H-M   'P 1'
_cell_length_a   15.13807000
_cell_length_b   15.13807000
_cell_length_c   15.13807000
_cell_angle_alpha   90.00000000
_cell_angle_beta   90.00000000
_cell_angle_gamma   90.00000000
_symmetry_Int_Tables_number   1
_chemical_formula_structural   KAl(SO7)2
_chemical_formula_sum   'K4 Al4 S8 O56'
_cell_volume   3469.05773169
_cell_formula_units_Z   4
loop_
 _symmetry_equiv_pos_site_id
 _symmetry_equiv_pos_as_xyz
  1  'x, y, z'
loop_
 _atom_site_type_symbol
 _atom_site_label
 _atom_site_symmetry_multiplicity
 _atom_site_fract_x
 _atom_site_fract_y
 _atom_site_fract_z
 _atom_site_occupancy
  K  K0  1  0.50000000  0.50000000  0.00000000  1
  K  K1  1  0.50000000  0.00000000  0.50000000  1
  K  K2  1  0.00000000  0.50000000  0.50000000  1
  K  K3  1  0.00000000  0.00000000  0.00000000  1
  Al  Al4  1  0.00000000  0.00000000  0.50000000  1
  Al  Al5  1  0.00000000  0.50000000  0.00000000  1
  Al  Al6  1  0.50000000  0.00000000  0.00000000  1
  Al  Al7  1  0.50000000  0.50000000  0.50000000  1
  S  S8  1  0.32471500  0.67528500  0.17528500  1
  S  S9  1  0.67528500  0.17528500  0.32471500  1
  S  S10  1  0.17528500  0.32471500  0.67528500  1
  S  S11  1  0.82471500  0.82471500  0.82471500  1
  S  S12  1  0.67528500  0.32471500  0.82471500  1
  S  S13  1  0.32471500  0.82471500  0.67528500  1
  S  S14  1  0.82471500  0.67528500  0.32471500  1
  S  S15  1  0.17528500  0.17528500  0.17528500  1
  O  O16  1  0.26773400  0.73226600  0.23226600  1
  O  O17  1  0.73226600  0.23226600  0.26773400  1
  O  O18  1  0.23226600  0.26773400  0.73226600  1
  O  O19  1  0.76773400  0.76773400  0.76773400  1
  O  O20  1  0.73226600  0.26773400  0.76773400  1
  O  O21  1  0.26773400  0.76773400  0.73226600  1
  O  O22  1  0.76773400  0.73226600  0.26773400  1
  O  O23  1  0.23226600  0.23226600  0.23226600  1
  O  O24  1  0.11827700  0.81384700  0.31405100  1
  O  O25  1  0.88172300  0.31384700  0.18594900  1
  O  O26  1  0.38172300  0.18615300  0.81405100  1
  O  O27  1  0.61827700  0.68615300  0.68594900  1
  O  O28  1  0.31405100  0.11827700  0.81384700  1
  O  O29  1  0.18594900  0.88172300  0.31384700  1
  O  O30  1  0.81405100  0.38172300  0.18615300  1
  O  O31  1  0.68594900  0.61827700  0.68615300  1
  O  O32  1  0.81384700  0.31405100  0.11827700  1
  O  O33  1  0.31384700  0.18594900  0.88172300  1
  O  O34  1  0.18615300  0.81405100  0.38172300  1
  O  O35  1  0.68615300  0.68594900  0.61827700  1
  O  O36  1  0.88172300  0.18615300  0.68594900  1
  O  O37  1  0.11827700  0.68615300  0.81405100  1
  O  O38  1  0.61827700  0.81384700  0.18594900  1
  O  O39  1  0.38172300  0.31384700  0.31405100  1
  O  O40  1  0.68594900  0.88172300  0.18615300  1
  O  O41  1  0.81405100  0.11827700  0.68615300  1
  O  O42  1  0.18594900  0.61827700  0.81384700  1
  O  O43  1  0.31405100  0.38172300  0.31384700  1
  O  O44  1  0.18615300  0.68594900  0.88172300  1
  O  O45  1  0.68615300  0.81405100  0.11827700  1
  O  O46  1  0.81384700  0.18594900  0.61827700  1
  O  O47  1  0.31384700  0.31405100  0.38172300  1
  O  O48  1  0.11610300  0.97557600  0.47618000  1
  O  O49  1  0.88389700  0.47557600  0.02382000  1
  O  O50  1  0.38389700  0.02442400  0.97618000  1
  O  O51  1  0.61610300  0.52442400  0.52382000  1
  O  O52  1  0.47618000  0.11610300  0.97557600  1
  O  O53  1  0.02382000  0.88389700  0.47557600  1
  O  O54  1  0.97618000  0.38389700  0.02442400  1
  O  O55  1  0.52382000  0.61610300  0.52442400  1
  O  O56  1  0.97557600  0.47618000  0.11610300  1
  O  O57  1  0.47557600  0.02382000  0.88389700  1
  O  O58  1  0.02442400  0.97618000  0.38389700  1
  O  O59  1  0.52442400  0.52382000  0.61610300  1
  O  O60  1  0.88389700  0.02442400  0.52382000  1
  O  O61  1  0.11610300  0.52442400  0.97618000  1
  O  O62  1  0.61610300  0.97557600  0.02382000  1
  O  O63  1  0.38389700  0.47557600  0.47618000  1
  O  O64  1  0.52382000  0.88389700  0.02442400  1
  O  O65  1  0.97618000  0.11610300  0.52442400  1
  O  O66  1  0.02382000  0.61610300  0.97557600  1
  O  O67  1  0.47618000  0.38389700  0.47557600  1
  O  O68  1  0.02442400  0.52382000  0.88389700  1
  O  O69  1  0.52442400  0.97618000  0.11610300  1
  O  O70  1  0.97557600  0.02382000  0.61610300  1
  O  O71  1  0.47557600  0.47618000  0.38389700  1
