# generated using pymatgen
data_AlB6H6(CCl3)2
_symmetry_space_group_name_H-M   'P 1'
_cell_length_a   10.88039300
_cell_length_b   9.30490600
_cell_length_c   14.65827998
_cell_angle_alpha   83.80473694
_cell_angle_beta   90.00000000
_cell_angle_gamma   90.00000000
_symmetry_Int_Tables_number   1
_chemical_formula_structural   AlB6H6(CCl3)2
_chemical_formula_sum   'Al4 B24 H24 C8 Cl24'
_cell_volume   1475.35258548
_cell_formula_units_Z   4
loop_
 _symmetry_equiv_pos_site_id
 _symmetry_equiv_pos_as_xyz
  1  'x, y, z'
loop_
 _atom_site_type_symbol
 _atom_site_label
 _atom_site_symmetry_multiplicity
 _atom_site_fract_x
 _atom_site_fract_y
 _atom_site_fract_z
 _atom_site_occupancy
  Al  Al0  1  0.21967200  0.15635800  0.65679300  1
  Al  Al1  1  0.71967200  0.84364200  0.84320700  1
  Al  Al2  1  0.78032800  0.84364200  0.34320700  1
  Al  Al3  1  0.28032800  0.15635800  0.15679300  1
  B  B4  1  0.45196800  0.32881700  0.51767400  1
  B  B5  1  0.95196800  0.67118300  0.98232600  1
  B  B6  1  0.54803200  0.67118300  0.48232600  1
  B  B7  1  0.04803200  0.32881700  0.01767400  1
  B  B8  1  0.38423100  0.46617800  0.57365200  1
  B  B9  1  0.88423100  0.53382200  0.92634800  1
  B  B10  1  0.61576900  0.53382200  0.42634800  1
  B  B11  1  0.11576900  0.46617800  0.07365200  1
  B  B12  1  0.53687200  0.40824300  0.60433300  1
  B  B13  1  0.03687200  0.59175700  0.89566700  1
  B  B14  1  0.46312800  0.59175700  0.39566700  1
  B  B15  1  0.96312800  0.40824300  0.10433300  1
  B  B16  1  0.38898200  0.63159200  0.50018600  1
  B  B17  1  0.88898200  0.36840800  0.99981400  1
  B  B18  1  0.61101800  0.36840800  0.49981400  1
  B  B19  1  0.11101800  0.63159200  0.00018600  1
  B  B20  1  0.49802400  0.59748100  0.59355000  1
  B  B21  1  0.99802400  0.40251900  0.90645000  1
  B  B22  1  0.50197600  0.40251900  0.40645000  1
  B  B23  1  0.00197600  0.59748100  0.09355000  1
  B  B24  1  0.36029900  0.46343700  0.45302500  1
  B  B25  1  0.86029900  0.53656300  0.04697500  1
  B  B26  1  0.63970100  0.53656300  0.54697500  1
  B  B27  1  0.13970100  0.46343700  0.95302500  1
  H  H28  1  0.03954800  0.01581000  0.59695600  1
  H  H29  1  0.53954800  0.98419000  0.90304400  1
  H  H30  1  0.96045200  0.98419000  0.40304400  1
  H  H31  1  0.46045200  0.01581000  0.09695600  1
  H  H32  1  0.08778700  0.15601100  0.51265500  1
  H  H33  1  0.58778700  0.84398900  0.98734500  1
  H  H34  1  0.91221300  0.84398900  0.48734500  1
  H  H35  1  0.41221300  0.15601100  0.01265500  1
  H  H36  1  0.99535200  0.19717500  0.60587500  1
  H  H37  1  0.49535200  0.80282500  0.89412500  1
  H  H38  1  0.00464800  0.80282500  0.39412500  1
  H  H39  1  0.50464800  0.19717500  0.10587500  1
  H  H40  1  0.20980800  0.04291500  0.82381400  1
  H  H41  1  0.70980800  0.95708500  0.67618600  1
  H  H42  1  0.79019200  0.95708500  0.17618600  1
  H  H43  1  0.29019200  0.04291500  0.32381400  1
  H  H44  1  0.35665600  0.12164000  0.79953700  1
  H  H45  1  0.85665600  0.87836000  0.70046300  1
  H  H46  1  0.64334400  0.87836000  0.20046300  1
  H  H47  1  0.14334400  0.12164000  0.29953700  1
  H  H48  1  0.31876200  0.95206700  0.76096900  1
  H  H49  1  0.81876200  0.04793300  0.73903100  1
  H  H50  1  0.68123800  0.04793300  0.23903100  1
  H  H51  1  0.18123800  0.95206700  0.26096900  1
  C  C52  1  0.07142100  0.12888000  0.58620300  1
  C  C53  1  0.57142100  0.87112000  0.91379700  1
  C  C54  1  0.92857900  0.87112000  0.41379700  1
  C  C55  1  0.42857900  0.12888000  0.08620300  1
  C  C56  1  0.28267800  0.05969700  0.77162600  1
  C  C57  1  0.78267800  0.94030300  0.72837400  1
  C  C58  1  0.71732200  0.94030300  0.22837400  1
  C  C59  1  0.21732200  0.05969700  0.27162600  1
  Cl  Cl60  1  0.39167600  0.14537700  0.54284600  1
  Cl  Cl61  1  0.89167600  0.85462300  0.95715400  1
  Cl  Cl62  1  0.60832400  0.85462300  0.45715400  1
  Cl  Cl63  1  0.10832400  0.14537700  0.04284600  1
  Cl  Cl64  1  0.25636400  0.41848800  0.65237500  1
  Cl  Cl65  1  0.75636400  0.58151200  0.84762500  1
  Cl  Cl66  1  0.74363600  0.58151200  0.34762500  1
  Cl  Cl67  1  0.24363600  0.41848800  0.15237500  1
  Cl  Cl68  1  0.57082700  0.31114700  0.71262200  1
  Cl  Cl69  1  0.07082700  0.68885300  0.78737800  1
  Cl  Cl70  1  0.42917300  0.68885300  0.28737800  1
  Cl  Cl71  1  0.92917300  0.31114700  0.21262200  1
  Cl  Cl72  1  0.27362500  0.76680200  0.50245500  1
  Cl  Cl73  1  0.77362500  0.23319800  0.99754500  1
  Cl  Cl74  1  0.72637500  0.23319800  0.49754500  1
  Cl  Cl75  1  0.22637500  0.76680200  0.00245500  1
  Cl  Cl76  1  0.49155500  0.69974500  0.68992600  1
  Cl  Cl77  1  0.99155500  0.30025500  0.81007400  1
  Cl  Cl78  1  0.50844500  0.30025500  0.31007400  1
  Cl  Cl79  1  0.00844500  0.69974500  0.18992600  1
  Cl  Cl80  1  0.21377000  0.42353700  0.40837800  1
  Cl  Cl81  1  0.71377000  0.57646300  0.09162200  1
  Cl  Cl82  1  0.78623000  0.57646300  0.59162200  1
  Cl  Cl83  1  0.28623000  0.42353700  0.90837800  1
