# generated using pymatgen
data_UH10(SeO7)2
_symmetry_space_group_name_H-M   'P 1'
_cell_length_a   8.34807200
_cell_length_b   11.17654500
_cell_length_c   13.94874881
_cell_angle_alpha   90.00000000
_cell_angle_beta   113.15409925
_cell_angle_gamma   90.00000000
_symmetry_Int_Tables_number   1
_chemical_formula_structural   UH10(SeO7)2
_chemical_formula_sum   'U4 H40 Se8 O56'
_cell_volume   1196.62322970
_cell_formula_units_Z   4
loop_
 _symmetry_equiv_pos_site_id
 _symmetry_equiv_pos_as_xyz
  1  'x, y, z'
loop_
 _atom_site_type_symbol
 _atom_site_label
 _atom_site_symmetry_multiplicity
 _atom_site_fract_x
 _atom_site_fract_y
 _atom_site_fract_z
 _atom_site_occupancy
  U  U0  1  0.54213600  0.19963300  0.17344200  1
  U  U1  1  0.54213600  0.30036700  0.67344200  1
  U  U2  1  0.45786400  0.80036700  0.82655800  1
  U  U3  1  0.45786400  0.69963300  0.32655800  1
  H  H4  1  0.83266600  0.90976000  0.27537500  1
  H  H5  1  0.83266600  0.59024000  0.77537500  1
  H  H6  1  0.16733400  0.09024000  0.72462500  1
  H  H7  1  0.16733400  0.40976000  0.22462500  1
  H  H8  1  0.01544000  0.36185500  0.61754800  1
  H  H9  1  0.01544000  0.13814500  0.11754800  1
  H  H10  1  0.98456000  0.63814500  0.38245200  1
  H  H11  1  0.98456000  0.86185500  0.88245200  1
  H  H12  1  0.77234900  0.98207500  0.50801700  1
  H  H13  1  0.77234900  0.51792500  0.00801700  1
  H  H14  1  0.22765100  0.01792500  0.49198300  1
  H  H15  1  0.22765100  0.48207500  0.99198300  1
  H  H16  1  0.65913500  0.05028700  0.40010900  1
  H  H17  1  0.65913500  0.44971300  0.90010900  1
  H  H18  1  0.34086500  0.94971300  0.59989100  1
  H  H19  1  0.34086500  0.55028700  0.09989100  1
  H  H20  1  0.99361500  0.30014000  0.48062200  1
  H  H21  1  0.99361500  0.19986000  0.98062200  1
  H  H22  1  0.00638500  0.69986000  0.51937800  1
  H  H23  1  0.00638500  0.80014000  0.01937800  1
  H  H24  1  0.84849700  0.97305700  0.39831800  1
  H  H25  1  0.84849700  0.52694300  0.89831800  1
  H  H26  1  0.15150300  0.02694300  0.60168200  1
  H  H27  1  0.15150300  0.47305700  0.10168200  1
  H  H28  1  0.96117100  0.84200400  0.37899100  1
  H  H29  1  0.96117100  0.65799600  0.87899100  1
  H  H30  1  0.03882900  0.15799600  0.62100900  1
  H  H31  1  0.03882900  0.34200400  0.12100900  1
  H  H32  1  0.99048500  0.38090300  0.37086600  1
  H  H33  1  0.99048500  0.11909700  0.87086600  1
  H  H34  1  0.00951500  0.61909700  0.62913400  1
  H  H35  1  0.00951500  0.88090300  0.12913400  1
  H  H36  1  0.82825400  0.29893300  0.54900300  1
  H  H37  1  0.82825400  0.20106700  0.04900300  1
  H  H38  1  0.17174600  0.70106700  0.45099700  1
  H  H39  1  0.17174600  0.79893300  0.95099700  1
  H  H40  1  0.11875200  0.26155500  0.40635400  1
  H  H41  1  0.11875200  0.23844500  0.90635400  1
  H  H42  1  0.88124800  0.73844500  0.59364600  1
  H  H43  1  0.88124800  0.76155500  0.09364600  1
  Se  Se44  1  0.50747000  0.12321600  0.89825200  1
  Se  Se45  1  0.50747000  0.37678400  0.39825200  1
  Se  Se46  1  0.49253000  0.87678400  0.10174800  1
  Se  Se47  1  0.49253000  0.62321600  0.60174800  1
  Se  Se48  1  0.72423800  0.52163200  0.19548900  1
  Se  Se49  1  0.72423800  0.97836800  0.69548900  1
  Se  Se50  1  0.27576200  0.47836800  0.80451100  1
  Se  Se51  1  0.27576200  0.02163200  0.30451100  1
  O  O52  1  0.29348300  0.13583300  0.84786400  1
  O  O53  1  0.29348300  0.36416700  0.34786400  1
  O  O54  1  0.70651700  0.86416700  0.15213600  1
  O  O55  1  0.70651700  0.63583300  0.65213600  1
  O  O56  1  0.60281800  0.19324900  0.01407300  1
  O  O57  1  0.60281800  0.30675100  0.51407300  1
  O  O58  1  0.39718200  0.80675100  0.98592700  1
  O  O59  1  0.39718200  0.69324900  0.48592700  1
  O  O60  1  0.42394900  0.01980600  0.08351600  1
  O  O61  1  0.42394900  0.48019400  0.58351600  1
  O  O62  1  0.57605100  0.98019400  0.91648400  1
  O  O63  1  0.57605100  0.51980600  0.41648400  1
  O  O64  1  0.45651700  0.07948300  0.29328000  1
  O  O65  1  0.45651700  0.42051700  0.79328000  1
  O  O66  1  0.54348300  0.92051700  0.70672000  1
  O  O67  1  0.54348300  0.57948300  0.20672000  1
  O  O68  1  0.60178300  0.31481300  0.32416800  1
  O  O69  1  0.60178300  0.18518700  0.82416800  1
  O  O70  1  0.39821700  0.68518700  0.67583200  1
  O  O71  1  0.39821700  0.81481300  0.17583200  1
  O  O72  1  0.76290500  0.59918200  0.10553600  1
  O  O73  1  0.76290500  0.90081800  0.60553600  1
  O  O74  1  0.23709500  0.40081800  0.89446400  1
  O  O75  1  0.23709500  0.09918200  0.39446400  1
  O  O76  1  0.89164000  0.52027900  0.31210600  1
  O  O77  1  0.89164000  0.97972100  0.81210600  1
  O  O78  1  0.10836000  0.47972100  0.68789400  1
  O  O79  1  0.10836000  0.02027900  0.18789400  1
  O  O80  1  0.67603200  0.38086900  0.15157300  1
  O  O81  1  0.67603200  0.11913100  0.65157300  1
  O  O82  1  0.32396800  0.61913100  0.84842700  1
  O  O83  1  0.32396800  0.88086900  0.34842700  1
  O  O84  1  0.75385900  0.13203700  0.23556900  1
  O  O85  1  0.75385900  0.36796300  0.73556900  1
  O  O86  1  0.24614100  0.86796300  0.76443100  1
  O  O87  1  0.24614100  0.63203700  0.26443100  1
  O  O88  1  0.32580700  0.26060400  0.11005600  1
  O  O89  1  0.32580700  0.23939600  0.61005600  1
  O  O90  1  0.67419300  0.73939600  0.88994400  1
  O  O91  1  0.67419300  0.76060400  0.38994400  1
  O  O92  1  0.78009100  0.02941400  0.44824000  1
  O  O93  1  0.78009100  0.47058600  0.94824000  1
  O  O94  1  0.21990900  0.97058600  0.55176000  1
  O  O95  1  0.21990900  0.52941400  0.05176000  1
  O  O96  1  0.95655100  0.29532900  0.56653400  1
  O  O97  1  0.95655100  0.20467100  0.06653400  1
  O  O98  1  0.04344900  0.70467100  0.43346600  1
  O  O99  1  0.04344900  0.79532900  0.93346600  1
  O  O100  1  0.91817500  0.92256900  0.34878800  1
  O  O101  1  0.91817500  0.57743100  0.84878800  1
  O  O102  1  0.08182500  0.07743100  0.65121200  1
  O  O103  1  0.08182500  0.42256900  0.15121200  1
  O  O104  1  0.01284400  0.30105300  0.40631800  1
  O  O105  1  0.01284400  0.19894700  0.90631800  1
  O  O106  1  0.98715600  0.69894700  0.59368200  1
  O  O107  1  0.98715600  0.80105300  0.09368200  1
