# generated using pymatgen
data_Cs2V2H2O7
_symmetry_space_group_name_H-M   'P 1'
_cell_length_a   5.92540200
_cell_length_b   9.06815600
_cell_length_c   18.58356700
_cell_angle_alpha   90.00000000
_cell_angle_beta   90.00000000
_cell_angle_gamma   90.00000000
_symmetry_Int_Tables_number   1
_chemical_formula_structural   Cs2V2H2O7
_chemical_formula_sum   'Cs8 V8 H8 O28'
_cell_volume   998.54095072
_cell_formula_units_Z   4
loop_
 _symmetry_equiv_pos_site_id
 _symmetry_equiv_pos_as_xyz
  1  'x, y, z'
loop_
 _atom_site_type_symbol
 _atom_site_label
 _atom_site_symmetry_multiplicity
 _atom_site_fract_x
 _atom_site_fract_y
 _atom_site_fract_z
 _atom_site_occupancy
  Cs  Cs0  1  0.59597600  0.25000000  0.96417500  1
  Cs  Cs1  1  0.40402400  0.75000000  0.03582500  1
  Cs  Cs2  1  0.59597600  0.75000000  0.53582500  1
  Cs  Cs3  1  0.40402400  0.25000000  0.46417500  1
  Cs  Cs4  1  0.59021200  0.25000000  0.70192000  1
  Cs  Cs5  1  0.40978800  0.75000000  0.29808000  1
  Cs  Cs6  1  0.59021200  0.75000000  0.79808000  1
  Cs  Cs7  1  0.40978800  0.25000000  0.20192000  1
  V  V8  1  0.12077100  0.56021300  0.66127300  1
  V  V9  1  0.87922900  0.06021300  0.33872700  1
  V  V10  1  0.12077100  0.43978700  0.83872700  1
  V  V11  1  0.87922900  0.93978700  0.16127300  1
  V  V12  1  0.87922900  0.43978700  0.33872700  1
  V  V13  1  0.12077100  0.93978700  0.66127300  1
  V  V14  1  0.87922900  0.56021300  0.16127300  1
  V  V15  1  0.12077100  0.06021300  0.83872700  1
  H  H16  1  0.96036900  0.16524300  0.56447300  1
  H  H17  1  0.03963100  0.66524300  0.43552700  1
  H  H18  1  0.96036900  0.83475700  0.93552700  1
  H  H19  1  0.03963100  0.33475700  0.06447300  1
  H  H20  1  0.03963100  0.83475700  0.43552700  1
  H  H21  1  0.96036900  0.33475700  0.56447300  1
  H  H22  1  0.03963100  0.16524300  0.06447300  1
  H  H23  1  0.96036900  0.66524300  0.93552700  1
  O  O24  1  0.22265400  0.75000000  0.65036900  1
  O  O25  1  0.77734600  0.25000000  0.34963100  1
  O  O26  1  0.22265400  0.25000000  0.84963100  1
  O  O27  1  0.77734600  0.75000000  0.15036900  1
  O  O28  1  0.83951800  0.55375300  0.65749200  1
  O  O29  1  0.16048200  0.05375300  0.34250800  1
  O  O30  1  0.83951800  0.44624700  0.84250800  1
  O  O31  1  0.16048200  0.94624700  0.15749200  1
  O  O32  1  0.16048200  0.44624700  0.34250800  1
  O  O33  1  0.83951800  0.94624700  0.65749200  1
  O  O34  1  0.16048200  0.55375300  0.15749200  1
  O  O35  1  0.83951800  0.05375300  0.84250800  1
  O  O36  1  0.21936700  0.50000000  0.75000000  1
  O  O37  1  0.78063300  0.00000000  0.25000000  1
  O  O38  1  0.78063300  0.50000000  0.25000000  1
  O  O39  1  0.21936700  0.00000000  0.75000000  1
  O  O40  1  0.22980700  0.44985400  0.59716600  1
  O  O41  1  0.77019300  0.94985400  0.40283400  1
  O  O42  1  0.22980700  0.55014600  0.90283400  1
  O  O43  1  0.77019300  0.05014600  0.09716600  1
  O  O44  1  0.77019300  0.55014600  0.40283400  1
  O  O45  1  0.22980700  0.05014600  0.59716600  1
  O  O46  1  0.77019300  0.44985400  0.09716600  1
  O  O47  1  0.22980700  0.94985400  0.90283400  1
  O  O48  1  0.86628400  0.25000000  0.55046600  1
  O  O49  1  0.13371600  0.75000000  0.44953400  1
  O  O50  1  0.86628400  0.75000000  0.94953400  1
  O  O51  1  0.13371600  0.25000000  0.05046600  1
