# generated using pymatgen
data_CoHgN6Cl5
_symmetry_space_group_name_H-M   'P 1'
_cell_length_a   8.53988000
_cell_length_b   9.32597800
_cell_length_c   19.25296500
_cell_angle_alpha   90.00000000
_cell_angle_beta   90.00000000
_cell_angle_gamma   90.00000000
_symmetry_Int_Tables_number   1
_chemical_formula_structural   CoHgN6Cl5
_chemical_formula_sum   'Co4 Hg4 N24 Cl20'
_cell_volume   1533.35875100
_cell_formula_units_Z   4
loop_
 _symmetry_equiv_pos_site_id
 _symmetry_equiv_pos_as_xyz
  1  'x, y, z'
loop_
 _atom_site_type_symbol
 _atom_site_label
 _atom_site_symmetry_multiplicity
 _atom_site_fract_x
 _atom_site_fract_y
 _atom_site_fract_z
 _atom_site_occupancy
  Co  Co0  1  0.17142900  0.75000000  0.35155200  1
  Co  Co1  1  0.32857100  0.75000000  0.85155200  1
  Co  Co2  1  0.82857100  0.25000000  0.64844800  1
  Co  Co3  1  0.67142900  0.25000000  0.14844800  1
  Hg  Hg4  1  0.85213600  0.75000000  0.17892700  1
  Hg  Hg5  1  0.64786400  0.75000000  0.67892700  1
  Hg  Hg6  1  0.14786400  0.25000000  0.82107300  1
  Hg  Hg7  1  0.35213600  0.25000000  0.32107300  1
  N  N8  1  0.11962800  0.75000000  0.26704700  1
  N  N9  1  0.38037200  0.75000000  0.76704700  1
  N  N10  1  0.88037200  0.25000000  0.73295300  1
  N  N11  1  0.61962800  0.25000000  0.23295300  1
  N  N12  1  0.76893300  0.58227100  0.39567500  1
  N  N13  1  0.73106700  0.91772900  0.89567500  1
  N  N14  1  0.23106700  0.08227100  0.60432500  1
  N  N15  1  0.26893300  0.41772900  0.10432500  1
  N  N16  1  0.23106700  0.41772900  0.60432500  1
  N  N17  1  0.26893300  0.08227100  0.10432500  1
  N  N18  1  0.76893300  0.91772900  0.39567500  1
  N  N19  1  0.73106700  0.58227100  0.89567500  1
  N  N20  1  0.68156900  0.56212900  0.35383200  1
  N  N21  1  0.81843100  0.93787100  0.85383200  1
  N  N22  1  0.31843100  0.06212900  0.64616800  1
  N  N23  1  0.18156900  0.43787100  0.14616800  1
  N  N24  1  0.31843100  0.43787100  0.64616800  1
  N  N25  1  0.18156900  0.06212900  0.14616800  1
  N  N26  1  0.68156900  0.93787100  0.35383200  1
  N  N27  1  0.81843100  0.56212900  0.85383200  1
  N  N28  1  0.18859800  0.75000000  0.44619500  1
  N  N29  1  0.31140200  0.75000000  0.94619500  1
  N  N30  1  0.81140200  0.25000000  0.55380500  1
  N  N31  1  0.68859800  0.25000000  0.05380500  1
  Cl  Cl32  1  0.13099400  0.75000000  0.98571200  1
  Cl  Cl33  1  0.36900600  0.75000000  0.48571200  1
  Cl  Cl34  1  0.86900600  0.25000000  0.01428800  1
  Cl  Cl35  1  0.63099400  0.25000000  0.51428800  1
  Cl  Cl36  1  0.76796500  0.47593600  0.15411100  1
  Cl  Cl37  1  0.73203500  0.02406400  0.65411100  1
  Cl  Cl38  1  0.23203500  0.97593600  0.84588900  1
  Cl  Cl39  1  0.26796500  0.52406400  0.34588900  1
  Cl  Cl40  1  0.23203500  0.52406400  0.84588900  1
  Cl  Cl41  1  0.26796500  0.97593600  0.34588900  1
  Cl  Cl42  1  0.76796500  0.02406400  0.15411100  1
  Cl  Cl43  1  0.73203500  0.47593600  0.65411100  1
  Cl  Cl44  1  0.45797400  0.75000000  0.00560000  1
  Cl  Cl45  1  0.04202600  0.75000000  0.50560000  1
  Cl  Cl46  1  0.54202600  0.25000000  0.99440000  1
  Cl  Cl47  1  0.95797400  0.25000000  0.49440000  1
  Cl  Cl48  1  0.25521900  0.75000000  0.20401800  1
  Cl  Cl49  1  0.24478100  0.75000000  0.70401800  1
  Cl  Cl50  1  0.74478100  0.25000000  0.79598200  1
  Cl  Cl51  1  0.75521900  0.25000000  0.29598200  1
