# generated using pymatgen
data_Dy2N3
_symmetry_space_group_name_H-M   'P 1'
_cell_length_a   9.49786168
_cell_length_b   9.49786168
_cell_length_c   9.49786168
_cell_angle_alpha   109.47122063
_cell_angle_beta   109.47122063
_cell_angle_gamma   109.47122063
_symmetry_Int_Tables_number   1
_chemical_formula_structural   Dy2N3
_chemical_formula_sum   'Dy16 N24'
_cell_volume   659.56200785
_cell_formula_units_Z   8
loop_
 _symmetry_equiv_pos_site_id
 _symmetry_equiv_pos_as_xyz
  1  'x, y, z'
loop_
 _atom_site_type_symbol
 _atom_site_label
 _atom_site_symmetry_multiplicity
 _atom_site_fract_x
 _atom_site_fract_y
 _atom_site_fract_z
 _atom_site_occupancy
  Dy  Dy0  1  0.50000000  0.00000000  0.50000000  1
  Dy  Dy1  1  0.50000000  0.50000000  0.00000000  1
  Dy  Dy2  1  0.00000000  0.50000000  0.50000000  1
  Dy  Dy3  1  0.00000000  0.00000000  0.00000000  1
  Dy  Dy4  1  0.78028300  0.25000000  0.03028300  1
  Dy  Dy5  1  0.71971700  0.75000000  0.46971700  1
  Dy  Dy6  1  0.25000000  0.03028300  0.78028300  1
  Dy  Dy7  1  0.75000000  0.46971700  0.71971700  1
  Dy  Dy8  1  0.03028300  0.78028300  0.25000000  1
  Dy  Dy9  1  0.46971700  0.71971700  0.75000000  1
  Dy  Dy10  1  0.21971700  0.75000000  0.96971700  1
  Dy  Dy11  1  0.28028300  0.25000000  0.53028300  1
  Dy  Dy12  1  0.75000000  0.96971700  0.21971700  1
  Dy  Dy13  1  0.25000000  0.53028300  0.28028300  1
  Dy  Dy14  1  0.96971700  0.21971700  0.75000000  1
  Dy  Dy15  1  0.53028300  0.28028300  0.25000000  1
  N  N16  1  0.49003300  0.23014900  0.46266500  1
  N  N17  1  0.23251500  0.26985100  0.75988400  1
  N  N18  1  0.00996700  0.47263100  0.74011600  1
  N  N19  1  0.26748500  0.02736900  0.03733500  1
  N  N20  1  0.23014900  0.46266500  0.49003300  1
  N  N21  1  0.26985100  0.75988400  0.23251500  1
  N  N22  1  0.47263100  0.74011600  0.00996700  1
  N  N23  1  0.02736900  0.03733500  0.26748500  1
  N  N24  1  0.46266500  0.49003300  0.23014900  1
  N  N25  1  0.75988400  0.23251500  0.26985100  1
  N  N26  1  0.74011600  0.00996700  0.47263100  1
  N  N27  1  0.03733500  0.26748500  0.02736900  1
  N  N28  1  0.50996700  0.76985100  0.53733500  1
  N  N29  1  0.76748500  0.73014900  0.24011600  1
  N  N30  1  0.99003300  0.52736900  0.25988400  1
  N  N31  1  0.73251500  0.97263100  0.96266500  1
  N  N32  1  0.76985100  0.53733500  0.50996700  1
  N  N33  1  0.73014900  0.24011600  0.76748500  1
  N  N34  1  0.52736900  0.25988400  0.99003300  1
  N  N35  1  0.97263100  0.96266500  0.73251500  1
  N  N36  1  0.53733500  0.50996700  0.76985100  1
  N  N37  1  0.24011600  0.76748500  0.73014900  1
  N  N38  1  0.25988400  0.99003300  0.52736900  1
  N  N39  1  0.96266500  0.73251500  0.97263100  1
