# generated using pymatgen
data_SiH8(CI)4
_symmetry_space_group_name_H-M   'P 1'
_cell_length_a   9.97501000
_cell_length_b   9.99523900
_cell_length_c   28.85686400
_cell_angle_alpha   90.00000000
_cell_angle_beta   90.00000000
_cell_angle_gamma   90.00000000
_symmetry_Int_Tables_number   1
_chemical_formula_structural   SiH8(CI)4
_chemical_formula_sum   'Si8 H64 C32 I32'
_cell_volume   2877.10462771
_cell_formula_units_Z   8
loop_
 _symmetry_equiv_pos_site_id
 _symmetry_equiv_pos_as_xyz
  1  'x, y, z'
loop_
 _atom_site_type_symbol
 _atom_site_label
 _atom_site_symmetry_multiplicity
 _atom_site_fract_x
 _atom_site_fract_y
 _atom_site_fract_z
 _atom_site_occupancy
  Si  Si0  1  0.77886900  0.99552000  0.31624600  1
  Si  Si1  1  0.72113100  0.00448000  0.81624600  1
  Si  Si2  1  0.27886900  0.50448000  0.68375400  1
  Si  Si3  1  0.22113100  0.49552000  0.18375400  1
  Si  Si4  1  0.28914500  0.50403600  0.44160500  1
  Si  Si5  1  0.21085500  0.49596400  0.94160500  1
  Si  Si6  1  0.78914500  0.99596400  0.55839500  1
  Si  Si7  1  0.71085500  0.00403600  0.05839500  1
  H  H8  1  0.01696200  0.97850300  0.34397900  1
  H  H9  1  0.48303800  0.02149700  0.84397900  1
  H  H10  1  0.51696200  0.52149700  0.65602100  1
  H  H11  1  0.98303800  0.47850300  0.15602100  1
  H  H12  1  0.99021400  0.13467800  0.31532000  1
  H  H13  1  0.50978600  0.86532200  0.81532000  1
  H  H14  1  0.49021400  0.36532200  0.68468000  1
  H  H15  1  0.00978600  0.63467800  0.18468000  1
  H  H16  1  0.79647000  0.75900100  0.28791100  1
  H  H17  1  0.70353000  0.24099900  0.78791100  1
  H  H18  1  0.29647000  0.74099900  0.71208900  1
  H  H19  1  0.20353000  0.25900100  0.21208900  1
  H  H20  1  0.64025800  0.78469700  0.31708100  1
  H  H21  1  0.85974200  0.21530300  0.81708100  1
  H  H22  1  0.14025800  0.71530300  0.68291900  1
  H  H23  1  0.35974200  0.28469700  0.18291900  1
  H  H24  1  0.74502200  0.02950900  0.40178300  1
  H  H25  1  0.75497800  0.97049100  0.90178300  1
  H  H26  1  0.24502200  0.47049100  0.59821700  1
  H  H27  1  0.25497800  0.52950900  0.09821700  1
  H  H28  1  0.59450600  0.06501500  0.37043000  1
  H  H29  1  0.90549400  0.93498500  0.87043000  1
  H  H30  1  0.09450600  0.43498500  0.62957000  1
  H  H31  1  0.40549400  0.56501500  0.12957000  1
  H  H32  1  0.74651800  0.03281700  0.23087800  1
  H  H33  1  0.75348200  0.96718300  0.73087800  1
  H  H34  1  0.24651800  0.46718300  0.76912200  1
  H  H35  1  0.25348200  0.53281700  0.26912200  1
  H  H36  1  0.70822000  0.18068200  0.26301500  1
  H  H37  1  0.79178000  0.81931800  0.76301500  1
  H  H38  1  0.20822000  0.31931800  0.73698500  1
  H  H39  1  0.29178000  0.68068200  0.23698500  1
  H  H40  1  0.12266700  0.48381400  0.37664200  1
  H  H41  1  0.37733300  0.51618600  0.87664200  1
  H  H42  1  0.62266700  0.01618600  0.62335800  1
  H  H43  1  0.87733300  0.98381400  0.12335800  1
  H  H44  1  0.10308000  0.34941400  0.41696700  1
  H  H45  1  0.39692000  0.65058600  0.91696700  1
  H  H46  1  0.60308000  0.15058600  0.58303300  1
  H  H47  1  0.89692000  0.84941400  0.08303300  1
  H  H48  1  0.16133400  0.71246900  0.46148500  1
  H  H49  1  0.33866600  0.28753100  0.96148500  1
  H  H50  1  0.66133400  0.78753100  0.53851500  1
  H  H51  1  0.83866600  0.21246900  0.03851500  1
  H  H52  1  0.24161800  0.64553400  0.51170100  1
  H  H53  1  0.25838200  0.35446600  0.01170100  1
  H  H54  1  0.74161800  0.85446600  0.48829900  1
  H  H55  1  0.75838200  0.14553400  0.98829900  1
  H  H56  1  0.47609200  0.54829800  0.38539800  1
  H  H57  1  0.02390800  0.45170200  0.88539800  1
  H  H58  1  0.97609200  0.95170200  0.61460200  1
  H  H59  1  0.52390800  0.04829800  0.11460200  1
  H  H60  1  0.48482900  0.66096100  0.43353700  1
  H  H61  1  0.01517100  0.33903900  0.93353700  1
  H  H62  1  0.98482900  0.83903900  0.56646300  1
  H  H63  1  0.51517100  0.16096100  0.06646300  1
  H  H64  1  0.43088100  0.30107000  0.45655700  1
  H  H65  1  0.06911900  0.69893000  0.95655700  1
  H  H66  1  0.93088100  0.19893000  0.54344300  1
  H  H67  1  0.56911900  0.80107000  0.04344300  1
  H  H68  1  0.30748100  0.32048500  0.50093600  1
  H  H69  1  0.19251900  0.67951500  0.00093600  1
  H  H70  1  0.80748100  0.17951500  0.49906400  1
  H  H71  1  0.69251900  0.82048500  0.99906400  1
  C  C72  1  0.96532500  0.02811600  0.31510700  1
  C  C73  1  0.53467500  0.97188400  0.81510700  1
  C  C74  1  0.46532500  0.47188400  0.68489300  1
  C  C75  1  0.03467500  0.52811600  0.18489300  1
  C  C76  1  0.74698800  0.80947100  0.31710700  1
  C  C77  1  0.75301200  0.19052900  0.81710700  1
  C  C78  1  0.24698800  0.69052900  0.68289300  1
  C  C79  1  0.25301200  0.30947100  0.18289300  1
  C  C80  1  0.70417100  0.07324500  0.37001500  1
  C  C81  1  0.79582900  0.92675500  0.87001500  1
  C  C82  1  0.20417100  0.42675500  0.62998500  1
  C  C83  1  0.29582900  0.57324500  0.12998500  1
  C  C84  1  0.70120700  0.07117300  0.26278000  1
  C  C85  1  0.79879300  0.92882700  0.76278000  1
  C  C86  1  0.20120700  0.42882700  0.73722000  1
  C  C87  1  0.29879300  0.57117300  0.23722000  1
  C  C88  1  0.17586900  0.41409700  0.39956700  1
  C  C89  1  0.32413100  0.58590300  0.89956700  1
  C  C90  1  0.67586900  0.08590300  0.60043300  1
  C  C91  1  0.82413100  0.91409700  0.10043300  1
  C  C92  1  0.18799200  0.62012500  0.47967800  1
  C  C93  1  0.31200800  0.37987500  0.97967800  1
  C  C94  1  0.68799200  0.87987500  0.52032200  1
  C  C95  1  0.81200800  0.12012500  0.02032200  1
  C  C96  1  0.41718900  0.60811300  0.40993900  1
  C  C97  1  0.08281100  0.39188700  0.90993900  1
  C  C98  1  0.91718900  0.89188700  0.59006100  1
  C  C99  1  0.58281100  0.10811300  0.09006100  1
  C  C100  1  0.37733700  0.37372900  0.47802100  1
  C  C101  1  0.12266300  0.62627100  0.97802100  1
  C  C102  1  0.87733700  0.12627100  0.52197900  1
  C  C103  1  0.62266300  0.87372900  0.02197900  1
  I  I104  1  0.06268700  0.95112500  0.25332400  1
  I  I105  1  0.43731200  0.04887500  0.75332400  1
  I  I106  1  0.56268800  0.54887500  0.74667600  1
  I  I107  1  0.93731200  0.45112500  0.24667600  1
  I  I108  1  0.82712000  0.71096500  0.37820600  1
  I  I109  1  0.67288000  0.28903500  0.87820600  1
  I  I110  1  0.32712000  0.78903500  0.62179400  1
  I  I111  1  0.17288000  0.21096500  0.12179400  1
  I  I112  1  0.74422600  0.28592000  0.37610600  1
  I  I113  1  0.75577400  0.71408000  0.87610600  1
  I  I114  1  0.24422600  0.21408000  0.62389400  1
  I  I115  1  0.25577400  0.78592000  0.12389400  1
  I  I116  1  0.48892400  0.02989000  0.25603900  1
  I  I117  1  0.01107600  0.97011000  0.75603900  1
  I  I118  1  0.98892400  0.47011000  0.74396100  1
  I  I119  1  0.51107600  0.52989000  0.24396100  1
  I  I120  1  0.28509700  0.28253600  0.35310500  1
  I  I121  1  0.21490300  0.71746400  0.85310500  1
  I  I122  1  0.78509700  0.21746400  0.64689500  1
  I  I123  1  0.71490300  0.78253600  0.14689500  1
  I  I124  1  0.99728100  0.53997600  0.50252000  1
  I  I125  1  0.50271900  0.46002400  0.00252000  1
  I  I126  1  0.49728100  0.96002400  0.49748000  1
  I  I127  1  0.00271900  0.03997600  0.99748000  1
  I  I128  1  0.32749700  0.76377900  0.36793500  1
  I  I129  1  0.17250300  0.23622100  0.86793500  1
  I  I130  1  0.82749700  0.73622100  0.63206500  1
  I  I131  1  0.67250300  0.26377900  0.13206500  1
  I  I132  1  0.52925100  0.45250700  0.52429600  1
  I  I133  1  0.97074900  0.54749300  0.02429600  1
  I  I134  1  0.02925100  0.04749300  0.47570400  1
  I  I135  1  0.47074900  0.95250700  0.97570400  1
