# generated using pymatgen
data_ZnH8(NO2)6
_symmetry_space_group_name_H-M   'P 1'
_cell_length_a   7.80736400
_cell_length_b   12.46021577
_cell_length_c   13.24948946
_cell_angle_alpha   101.31537245
_cell_angle_beta   94.50701000
_cell_angle_gamma   107.11560315
_symmetry_Int_Tables_number   1
_chemical_formula_structural   ZnH8(NO2)6
_chemical_formula_sum   'Zn4 H32 N24 O48'
_cell_volume   1195.05296670
_cell_formula_units_Z   4
loop_
 _symmetry_equiv_pos_site_id
 _symmetry_equiv_pos_as_xyz
  1  'x, y, z'
loop_
 _atom_site_type_symbol
 _atom_site_label
 _atom_site_symmetry_multiplicity
 _atom_site_fract_x
 _atom_site_fract_y
 _atom_site_fract_z
 _atom_site_occupancy
  Zn  Zn0  1  0.90288000  0.20605600  0.25724800  1
  Zn  Zn1  1  0.09712000  0.79394400  0.74275200  1
  Zn  Zn2  1  0.44552800  0.66180600  0.24075100  1
  Zn  Zn3  1  0.55447200  0.33819400  0.75924900  1
  H  H4  1  0.83930100  0.50982600  0.41274700  1
  H  H5  1  0.16069900  0.49017400  0.58725300  1
  H  H6  1  0.69002400  0.58306600  0.42564200  1
  H  H7  1  0.30997600  0.41693400  0.57435800  1
  H  H8  1  0.61368300  0.43938300  0.40958500  1
  H  H9  1  0.38631700  0.56061700  0.59041500  1
  H  H10  1  0.68705700  0.49622700  0.30927300  1
  H  H11  1  0.31294300  0.50377300  0.69072700  1
  H  H12  1  0.89509100  0.58150200  0.12464800  1
  H  H13  1  0.10490900  0.41849800  0.87535200  1
  H  H14  1  0.82561400  0.64907400  0.03945200  1
  H  H15  1  0.17438600  0.35092600  0.96054800  1
  H  H16  1  0.91555300  0.72517000  0.16155700  1
  H  H17  1  0.08444700  0.27483000  0.83844300  1
  H  H18  1  0.04820300  0.68143900  0.08091500  1
  H  H19  1  0.95179700  0.31856100  0.91908500  1
  H  H20  1  0.23183000  0.99289200  0.03132400  1
  H  H21  1  0.76817000  0.00710800  0.96867600  1
  H  H22  1  0.17122400  0.10441400  0.09120600  1
  H  H23  1  0.82877600  0.89558600  0.90879400  1
  H  H24  1  0.30512400  0.11910600  0.99487300  1
  H  H25  1  0.69487600  0.88089400  0.00512700  1
  H  H26  1  0.38866300  0.10444600  0.11248800  1
  H  H27  1  0.61133700  0.89555400  0.88751200  1
  H  H28  1  0.21160000  0.96661700  0.41598300  1
  H  H29  1  0.78840000  0.03338300  0.58401700  1
  H  H30  1  0.19202400  0.82409500  0.38157400  1
  H  H31  1  0.80797600  0.17590500  0.61842600  1
  H  H32  1  0.04538400  0.86961900  0.45321200  1
  H  H33  1  0.95461600  0.13038100  0.54678800  1
  H  H34  1  0.26394100  0.89752000  0.50561300  1
  H  H35  1  0.73605900  0.10248000  0.49438700  1
  N  N36  1  0.70840600  0.50683300  0.38894300  1
  N  N37  1  0.29159400  0.49316700  0.61105700  1
  N  N38  1  0.92051200  0.65937300  0.10254600  1
  N  N39  1  0.07948800  0.34062700  0.89745400  1
  N  N40  1  0.27346700  0.08116400  0.05702800  1
  N  N41  1  0.72653300  0.91883600  0.94297200  1
  N  N42  1  0.17931200  0.88962500  0.43841000  1
  N  N43  1  0.82068800  0.11037500  0.56159000  1
  N  N44  1  0.26452000  0.30144700  0.36143700  1
  N  N45  1  0.73548000  0.69855300  0.63856300  1
  N  N46  1  0.90279000  0.34942100  0.13638600  1
  N  N47  1  0.09721000  0.65057900  0.86361400  1
  N  N48  1  0.56718000  0.12040000  0.29651000  1
  N  N49  1  0.43282000  0.87960000  0.70349000  1
  N  N50  1  0.97144600  0.98779000  0.21885100  1
  N  N51  1  0.02855400  0.01221000  0.78114900  1
  N  N52  1  0.68641500  0.82384000  0.40256500  1
  N  N53  1  0.31358500  0.17616000  0.59743500  1
  N  N54  1  0.19930500  0.59714800  0.36811900  1
  N  N55  1  0.80069500  0.40285200  0.63188100  1
  N  N56  1  0.43088200  0.46505700  0.11610900  1
  N  N57  1  0.56911800  0.53494300  0.88389100  1
  N  N58  1  0.45080700  0.81530200  0.11283200  1
  N  N59  1  0.54919300  0.18469800  0.88716800  1
  O  O60  1  0.29188900  0.28355500  0.26905700  1
  O  O61  1  0.70811100  0.71644500  0.73094300  1
  O  O62  1  0.09989100  0.27828900  0.38325100  1
  O  O63  1  0.90010900  0.72171100  0.61674900  1
  O  O64  1  0.39149700  0.34233700  0.43712800  1
  O  O65  1  0.60850300  0.65766300  0.56287200  1
  O  O66  1  0.87659800  0.36553900  0.23288900  1
  O  O67  1  0.12340200  0.63446100  0.76711100  1
  O  O68  1  0.94195200  0.25891100  0.09942200  1
  O  O69  1  0.05804800  0.74108900  0.90057800  1
  O  O70  1  0.88961900  0.41915700  0.08331300  1
  O  O71  1  0.11038100  0.58084300  0.91668700  1
  O  O72  1  0.59444500  0.12876000  0.20327700  1
  O  O73  1  0.40555500  0.87124000  0.79672300  1
  O  O74  1  0.71045800  0.16340600  0.36579900  1
  O  O75  1  0.28954200  0.83659400  0.63420100  1
  O  O76  1  0.41644200  0.07445500  0.31804900  1
  O  O77  1  0.58355800  0.92554500  0.68195100  1
  O  O78  1  0.94421000  0.99805600  0.31066200  1
  O  O79  1  0.05579000  0.00194400  0.68933800  1
  O  O80  1  0.95277100  0.06713900  0.16919000  1
  O  O81  1  0.04722900  0.93286100  0.83081000  1
  O  O82  1  0.01719900  0.90720700  0.16894900  1
  O  O83  1  0.98280100  0.09279300  0.83105100  1
  O  O84  1  0.54646700  0.85321600  0.39556900  1
  O  O85  1  0.45353300  0.14678400  0.60443100  1
  O  O86  1  0.69531400  0.73611900  0.33307800  1
  O  O87  1  0.30468600  0.26388100  0.66692200  1
  O  O88  1  0.81756400  0.87452000  0.47325200  1
  O  O89  1  0.18243600  0.12548000  0.52674800  1
  O  O90  1  0.34712800  0.57320600  0.35331900  1
  O  O91  1  0.65287200  0.42679400  0.64668100  1
  O  O92  1  0.15190000  0.65827000  0.31193400  1
  O  O93  1  0.84810000  0.34173000  0.68806600  1
  O  O94  1  0.11065700  0.56099200  0.43518700  1
  O  O95  1  0.88934300  0.43900800  0.56481300  1
  O  O96  1  0.29698100  0.50423600  0.11458100  1
  O  O97  1  0.70301900  0.49576400  0.88541900  1
  O  O98  1  0.57544500  0.52975200  0.17931200  1
  O  O99  1  0.42455500  0.47024800  0.82068800  1
  O  O100  1  0.42325600  0.37157400  0.05927200  1
  O  O101  1  0.57674400  0.62842600  0.94072800  1
  O  O102  1  0.61183300  0.81317800  0.12377700  1
  O  O103  1  0.38816700  0.18682200  0.87622300  1
  O  O104  1  0.33495700  0.75399300  0.16220200  1
  O  O105  1  0.66504300  0.24600700  0.83779800  1
  O  O106  1  0.39856400  0.87220200  0.05744400  1
  O  O107  1  0.60143600  0.12779800  0.94255600  1
