# generated using pymatgen
data_UNO8
_symmetry_space_group_name_H-M   'P 1'
_cell_length_a   9.07170700
_cell_length_b   9.07738501
_cell_length_c   10.77266126
_cell_angle_alpha   107.69308957
_cell_angle_beta   110.72926836
_cell_angle_gamma   102.53572447
_symmetry_Int_Tables_number   1
_chemical_formula_structural   UNO8
_chemical_formula_sum   'U4 N4 O32'
_cell_volume   736.10327128
_cell_formula_units_Z   4
loop_
 _symmetry_equiv_pos_site_id
 _symmetry_equiv_pos_as_xyz
  1  'x, y, z'
loop_
 _atom_site_type_symbol
 _atom_site_label
 _atom_site_symmetry_multiplicity
 _atom_site_fract_x
 _atom_site_fract_y
 _atom_site_fract_z
 _atom_site_occupancy
  U  U0  1  0.78706600  0.00038100  0.24715200  1
  U  U1  1  0.21293400  0.99961900  0.75284800  1
  U  U2  1  0.74484700  0.27686300  0.52197800  1
  U  U3  1  0.25515300  0.72313700  0.47802200  1
  N  N4  1  0.10874200  0.02420700  0.19085600  1
  N  N5  1  0.89125800  0.97579300  0.80914400  1
  N  N6  1  0.51102300  0.68690600  0.99124000  1
  N  N7  1  0.48897700  0.31309400  0.00876000  1
  O  O8  1  0.84828800  0.87456300  0.34302800  1
  O  O9  1  0.15171200  0.12543700  0.65697200  1
  O  O10  1  0.72300600  0.10999100  0.13534700  1
  O  O11  1  0.27699400  0.89000900  0.86465300  1
  O  O12  1  0.79985800  0.19359800  0.65848400  1
  O  O13  1  0.20014200  0.80640200  0.34151600  1
  O  O14  1  0.66736900  0.39652600  0.42356000  1
  O  O15  1  0.33263100  0.60347400  0.57644000  1
  O  O16  1  0.61898900  0.05163600  0.34877600  1
  O  O17  1  0.38101100  0.94836400  0.65122400  1
  O  O18  1  0.91587200  0.24203700  0.44552000  1
  O  O19  1  0.08412800  0.75796300  0.55448000  1
  O  O20  1  0.09564600  0.12820300  0.29446300  1
  O  O21  1  0.90435400  0.87179700  0.70553700  1
  O  O22  1  0.97588000  0.89951800  0.09800800  1
  O  O23  1  0.02412000  0.10048200  0.90199200  1
  O  O24  1  0.24417700  0.04728100  0.18459400  1
  O  O25  1  0.75582300  0.95271900  0.81540600  1
  O  O26  1  0.65668200  0.73861400  0.99721600  1
  O  O27  1  0.34331800  0.26138600  0.00278400  1
  O  O28  1  0.49288800  0.77137800  0.10032600  1
  O  O29  1  0.50711200  0.22862200  0.89967400  1
  O  O30  1  0.39425500  0.56326500  0.88741600  1
  O  O31  1  0.60574500  0.43673500  0.11258400  1
  O  O32  1  0.99646600  0.55751200  0.76975700  1
  O  O33  1  0.00353400  0.44248800  0.23024300  1
  O  O34  1  0.59622200  0.43967200  0.70446100  1
  O  O35  1  0.40377800  0.56032800  0.29553900  1
  O  O36  1  0.48095400  0.30694800  0.61213600  1
  O  O37  1  0.51904600  0.69305200  0.38786400  1
  O  O38  1  0.95733000  0.41961000  0.10180600  1
  O  O39  1  0.04267000  0.58039000  0.89819400  1
