# generated using pymatgen
data_Zr2Cu3(O8F7)2
_symmetry_space_group_name_H-M   'P 1'
_cell_length_a   11.55621700
_cell_length_b   9.97645600
_cell_length_c   10.33482516
_cell_angle_alpha   89.05181334
_cell_angle_beta   90.00000000
_cell_angle_gamma   90.00000000
_symmetry_Int_Tables_number   1
_chemical_formula_structural   Zr2Cu3(O8F7)2
_chemical_formula_sum   'Zr4 Cu6 O32 F28'
_cell_volume   1191.33977332
_cell_formula_units_Z   2
loop_
 _symmetry_equiv_pos_site_id
 _symmetry_equiv_pos_as_xyz
  1  'x, y, z'
loop_
 _atom_site_type_symbol
 _atom_site_label
 _atom_site_symmetry_multiplicity
 _atom_site_fract_x
 _atom_site_fract_y
 _atom_site_fract_z
 _atom_site_occupancy
  Zr  Zr0  1  0.04843700  0.96561000  0.16242200  1
  Zr  Zr1  1  0.54843700  0.53439000  0.83757800  1
  Zr  Zr2  1  0.95156300  0.03439000  0.83757800  1
  Zr  Zr3  1  0.45156300  0.46561000  0.16242200  1
  Cu  Cu4  1  0.00000000  0.50000000  0.00000000  1
  Cu  Cu5  1  0.50000000  0.00000000  0.00000000  1
  Cu  Cu6  1  0.61973000  0.76487200  0.54604500  1
  Cu  Cu7  1  0.11973000  0.73512800  0.45395500  1
  Cu  Cu8  1  0.38027000  0.23512800  0.45395500  1
  Cu  Cu9  1  0.88027000  0.26487200  0.54604500  1
  O  O10  1  0.40658600  0.15138900  0.97456100  1
  O  O11  1  0.90658600  0.34861100  0.02543900  1
  O  O12  1  0.59341400  0.84861100  0.02543900  1
  O  O13  1  0.09341400  0.65138900  0.97456100  1
  O  O14  1  0.09161900  0.37935100  0.06857400  1
  O  O15  1  0.59161900  0.12064900  0.93142600  1
  O  O16  1  0.90838100  0.62064900  0.93142600  1
  O  O17  1  0.40838100  0.87935100  0.06857400  1
  O  O18  1  0.07003500  0.42210400  0.74646400  1
  O  O19  1  0.57003500  0.07789600  0.25353600  1
  O  O20  1  0.92996500  0.57789600  0.25353600  1
  O  O21  1  0.42996500  0.92210400  0.74646400  1
  O  O22  1  0.48910400  0.93570900  0.64876000  1
  O  O23  1  0.98910400  0.56429100  0.35124000  1
  O  O24  1  0.51089600  0.06429100  0.35124000  1
  O  O25  1  0.01089600  0.43570900  0.64876000  1
  O  O26  1  0.39570200  0.73118600  0.46298500  1
  O  O27  1  0.89570200  0.76881400  0.53701500  1
  O  O28  1  0.60429800  0.26881400  0.53701500  1
  O  O29  1  0.10429800  0.23118600  0.46298500  1
  O  O30  1  0.83804700  0.68632700  0.59811900  1
  O  O31  1  0.33804700  0.81367300  0.40188100  1
  O  O32  1  0.16195300  0.31367300  0.40188100  1
  O  O33  1  0.66195300  0.18632700  0.59811900  1
  O  O34  1  0.66337300  0.73651100  0.37307800  1
  O  O35  1  0.16337300  0.76348900  0.62692200  1
  O  O36  1  0.33662700  0.26348900  0.62692200  1
  O  O37  1  0.83662700  0.23651100  0.37307800  1
  O  O38  1  0.68222900  0.91547200  0.50109000  1
  O  O39  1  0.18222900  0.58452800  0.49891000  1
  O  O40  1  0.31777100  0.08452800  0.49891000  1
  O  O41  1  0.81777100  0.41547200  0.50109000  1
  F  F42  1  0.93045600  0.82381500  0.17365300  1
  F  F43  1  0.43045600  0.67618500  0.82634700  1
  F  F44  1  0.06954400  0.17618500  0.82634700  1
  F  F45  1  0.56954400  0.32381500  0.17365300  1
  F  F46  1  0.09191900  0.95027700  0.96875100  1
  F  F47  1  0.59191900  0.54972300  0.03124900  1
  F  F48  1  0.90808100  0.04972300  0.03124900  1
  F  F49  1  0.40808100  0.45027700  0.96875100  1
  F  F50  1  0.06056100  0.88245200  0.36984000  1
  F  F51  1  0.56056100  0.61754800  0.63016000  1
  F  F52  1  0.93943900  0.11754800  0.63016000  1
  F  F53  1  0.43943900  0.38245200  0.36984000  1
  F  F54  1  0.47208500  0.64208200  0.23445900  1
  F  F55  1  0.97208500  0.85791800  0.76554100  1
  F  F56  1  0.52791500  0.35791800  0.76554100  1
  F  F57  1  0.02791500  0.14208200  0.23445900  1
  F  F58  1  0.81606500  0.09657000  0.36222900  1
  F  F59  1  0.31606500  0.40343000  0.63777100  1
  F  F60  1  0.18393500  0.90343000  0.63777100  1
  F  F61  1  0.68393500  0.59657000  0.36222900  1
  F  F62  1  0.14610800  0.68968000  0.09479700  1
  F  F63  1  0.64610800  0.81032000  0.90520300  1
  F  F64  1  0.85389200  0.31032000  0.90520300  1
  F  F65  1  0.35389200  0.18968000  0.09479700  1
  F  F66  1  0.21573900  0.95140600  0.19445600  1
  F  F67  1  0.71573900  0.54859400  0.80554400  1
  F  F68  1  0.78426100  0.04859400  0.80554400  1
  F  F69  1  0.28426100  0.45140600  0.19445600  1
