# generated using pymatgen
data_CuH5IO7
_symmetry_space_group_name_H-M   'P 1'
_cell_length_a   5.32427400
_cell_length_b   6.59562600
_cell_length_c   15.87654300
_cell_angle_alpha   90.00000000
_cell_angle_beta   90.00000000
_cell_angle_gamma   90.00000000
_symmetry_Int_Tables_number   1
_chemical_formula_structural   CuH5IO7
_chemical_formula_sum   'Cu4 H20 I4 O28'
_cell_volume   557.53529081
_cell_formula_units_Z   4
loop_
 _symmetry_equiv_pos_site_id
 _symmetry_equiv_pos_as_xyz
  1  'x, y, z'
loop_
 _atom_site_type_symbol
 _atom_site_label
 _atom_site_symmetry_multiplicity
 _atom_site_fract_x
 _atom_site_fract_y
 _atom_site_fract_z
 _atom_site_occupancy
  Cu  Cu0  1  0.66179400  0.85663500  0.43645000  1
  Cu  Cu1  1  0.83820600  0.14336500  0.93645000  1
  Cu  Cu2  1  0.16179400  0.64336500  0.56355000  1
  Cu  Cu3  1  0.33820600  0.35663500  0.06355000  1
  H  H4  1  0.42654000  0.42696400  0.26593000  1
  H  H5  1  0.07346000  0.57303600  0.76593000  1
  H  H6  1  0.92654000  0.07303600  0.73407000  1
  H  H7  1  0.57346000  0.92696400  0.23407000  1
  H  H8  1  0.86636800  0.46155200  0.33966800  1
  H  H9  1  0.63363200  0.53844800  0.83966800  1
  H  H10  1  0.36636800  0.03844800  0.66033200  1
  H  H11  1  0.13363200  0.96155200  0.16033200  1
  H  H12  1  0.96869400  0.03403800  0.33189500  1
  H  H13  1  0.53130600  0.96596200  0.83189500  1
  H  H14  1  0.46869400  0.46596200  0.66810500  1
  H  H15  1  0.03130600  0.53403800  0.16810500  1
  H  H16  1  0.52802800  0.25753100  0.41228900  1
  H  H17  1  0.97197200  0.74246900  0.91228900  1
  H  H18  1  0.02802800  0.24246900  0.58771100  1
  H  H19  1  0.47197200  0.75753100  0.08771100  1
  H  H20  1  0.47083500  0.19997100  0.50483700  1
  H  H21  1  0.02916500  0.80002900  0.00483700  1
  H  H22  1  0.97083500  0.30002900  0.49516300  1
  H  H23  1  0.52916500  0.69997100  0.99516300  1
  I  I24  1  0.21425400  0.70392600  0.34545200  1
  I  I25  1  0.28574600  0.29607400  0.84545200  1
  I  I26  1  0.71425400  0.79607400  0.65454800  1
  I  I27  1  0.78574600  0.20392600  0.15454800  1
  O  O28  1  0.09903200  0.71952600  0.23717100  1
  O  O29  1  0.40096800  0.28047400  0.73717100  1
  O  O30  1  0.59903200  0.78047400  0.76282900  1
  O  O31  1  0.90096800  0.21952600  0.26282900  1
  O  O32  1  0.49449800  0.87456100  0.32759400  1
  O  O33  1  0.00550200  0.12543900  0.82759400  1
  O  O34  1  0.99449800  0.62543900  0.67240600  1
  O  O35  1  0.50550200  0.37456100  0.17240600  1
  O  O36  1  0.33934100  0.70237300  0.45866400  1
  O  O37  1  0.16065900  0.29762700  0.95866400  1
  O  O38  1  0.83934100  0.79762700  0.54133600  1
  O  O39  1  0.66065900  0.20237300  0.04133600  1
  O  O40  1  0.40637500  0.45752200  0.32861700  1
  O  O41  1  0.09362500  0.54247800  0.82861700  1
  O  O42  1  0.90637500  0.04247800  0.67138300  1
  O  O43  1  0.59362500  0.95752200  0.17138300  1
  O  O44  1  0.93208200  0.54320300  0.38757400  1
  O  O45  1  0.56791800  0.45679700  0.88757400  1
  O  O46  1  0.43208200  0.95679700  0.61242600  1
  O  O47  1  0.06791800  0.04320300  0.11242600  1
  O  O48  1  0.00358000  0.94233700  0.38192100  1
  O  O49  1  0.49642000  0.05766300  0.88192100  1
  O  O50  1  0.50358000  0.55766300  0.61807900  1
  O  O51  1  0.99642000  0.44233700  0.11807900  1
  O  O52  1  0.60128700  0.18774100  0.46120900  1
  O  O53  1  0.89871300  0.81225900  0.96120900  1
  O  O54  1  0.10128700  0.31225900  0.53879100  1
  O  O55  1  0.39871300  0.68774100  0.03879100  1
