# generated using pymatgen
data_NaZn4H6SClO16
_symmetry_space_group_name_H-M   'P 1'
_cell_length_a   8.62862123
_cell_length_b   8.46989919
_cell_length_c   12.37871059
_cell_angle_alpha   89.56786784
_cell_angle_beta   90.15286581
_cell_angle_gamma   121.24213958
_symmetry_Int_Tables_number   1
_chemical_formula_structural   NaZn4H6SClO16
_chemical_formula_sum   'Na2 Zn8 H12 S2 Cl2 O32'
_cell_volume   773.46335217
_cell_formula_units_Z   2
loop_
 _symmetry_equiv_pos_site_id
 _symmetry_equiv_pos_as_xyz
  1  'x, y, z'
loop_
 _atom_site_type_symbol
 _atom_site_label
 _atom_site_symmetry_multiplicity
 _atom_site_fract_x
 _atom_site_fract_y
 _atom_site_fract_z
 _atom_site_occupancy
  Na  Na0  1  0.67306900  0.37492600  0.52737900  1
  Na  Na1  1  0.32693100  0.62507400  0.47262100  1
  Zn  Zn2  1  0.41842800  0.13324400  0.00304500  1
  Zn  Zn3  1  0.87114900  0.28441400  0.00480200  1
  Zn  Zn4  1  0.71492000  0.58412100  0.00616000  1
  Zn  Zn5  1  0.58157200  0.86675600  0.99695500  1
  Zn  Zn6  1  0.12885100  0.71558600  0.99519800  1
  Zn  Zn7  1  0.28508000  0.41587900  0.99384000  1
  Zn  Zn8  1  0.00316400  0.99960300  0.14063400  1
  Zn  Zn9  1  0.99683600  0.00039700  0.85936600  1
  H  H10  1  0.62124900  0.09722000  0.15342000  1
  H  H11  1  0.90466600  0.52004100  0.15582700  1
  H  H12  1  0.46888400  0.37015900  0.15531100  1
  H  H13  1  0.37875100  0.90278000  0.84658000  1
  H  H14  1  0.09533400  0.47995900  0.84417300  1
  H  H15  1  0.53111600  0.62984100  0.84468900  1
  H  H16  1  0.23531600  0.91723400  0.16538100  1
  H  H17  1  0.08762000  0.32153000  0.16460300  1
  H  H18  1  0.68248500  0.76481200  0.16563000  1
  H  H19  1  0.76468400  0.08276600  0.83461900  1
  H  H20  1  0.91238000  0.67847000  0.83539700  1
  H  H21  1  0.31751500  0.23518800  0.83437000  1
  S  S22  1  0.65735700  0.32873000  0.76725400  1
  S  S23  1  0.34264300  0.67127000  0.23274600  1
  Cl  Cl24  1  0.01435100  0.00467800  0.31938500  1
  Cl  Cl25  1  0.98564900  0.99532200  0.68061500  1
  O  O26  1  0.62548700  0.10298700  0.07480800  1
  O  O27  1  0.89655800  0.51976800  0.07726200  1
  O  O28  1  0.47671900  0.37429000  0.07673600  1
  O  O29  1  0.37451300  0.89701300  0.92519200  1
  O  O30  1  0.10344200  0.48023200  0.92273800  1
  O  O31  1  0.52328100  0.62571000  0.92326400  1
  O  O32  1  0.19051700  0.94034900  0.09673200  1
  O  O33  1  0.06045700  0.25188700  0.09615900  1
  O  O34  1  0.75186500  0.80979500  0.09692000  1
  O  O35  1  0.80948300  0.05965100  0.90326800  1
  O  O36  1  0.93954300  0.74811300  0.90384100  1
  O  O37  1  0.24813500  0.19020500  0.90308000  1
  O  O38  1  0.66132500  0.33399900  0.89092900  1
  O  O39  1  0.33867500  0.66600100  0.10907100  1
  O  O40  1  0.65701000  0.16186700  0.73117400  1
  O  O41  1  0.81920200  0.49839300  0.72421200  1
  O  O42  1  0.49077400  0.32277600  0.72777200  1
  O  O43  1  0.34299000  0.83813300  0.26882600  1
  O  O44  1  0.18079800  0.50160700  0.27578800  1
  O  O45  1  0.50922600  0.67722400  0.27222800  1
  O  O46  1  0.65181800  0.30764200  0.28326900  1
  O  O47  1  0.80497200  0.39413900  0.33725000  1
  O  O48  1  0.50752900  0.28478800  0.33227800  1
  O  O49  1  0.34818200  0.69235800  0.71673100  1
  O  O50  1  0.19502800  0.60586100  0.66275000  1
  O  O51  1  0.49247100  0.71521200  0.66772200  1
  O  O52  1  0.27773400  0.07369100  0.51035000  1
  O  O53  1  0.81175800  0.10626900  0.49133200  1
  O  O54  1  0.01397900  0.81340700  0.50424600  1
  O  O55  1  0.72226600  0.92630900  0.48965000  1
  O  O56  1  0.18824200  0.89373100  0.50866800  1
  O  O57  1  0.98602100  0.18659300  0.49575400  1
