# generated using pymatgen
data_NaGe4(PbO4)3
_symmetry_space_group_name_H-M   'P 1'
_cell_length_a   7.55713400
_cell_length_b   10.42843400
_cell_length_c   15.70893800
_cell_angle_alpha   90.00000000
_cell_angle_beta   90.00000000
_cell_angle_gamma   90.00000000
_symmetry_Int_Tables_number   1
_chemical_formula_structural   NaGe4(PbO4)3
_chemical_formula_sum   'Na4 Ge16 Pb12 O48'
_cell_volume   1238.00684392
_cell_formula_units_Z   4
loop_
 _symmetry_equiv_pos_site_id
 _symmetry_equiv_pos_as_xyz
  1  'x, y, z'
loop_
 _atom_site_type_symbol
 _atom_site_label
 _atom_site_symmetry_multiplicity
 _atom_site_fract_x
 _atom_site_fract_y
 _atom_site_fract_z
 _atom_site_occupancy
  Na  Na0  1  0.50000000  0.00000000  0.50000000  1
  Na  Na1  1  0.00000000  0.50000000  0.00000000  1
  Na  Na2  1  0.50000000  0.50000000  0.00000000  1
  Na  Na3  1  0.00000000  0.00000000  0.50000000  1
  Ge  Ge4  1  0.79583100  0.29401100  0.12282500  1
  Ge  Ge5  1  0.20416900  0.29401100  0.87717500  1
  Ge  Ge6  1  0.29583100  0.20598900  0.37717500  1
  Ge  Ge7  1  0.70416900  0.20598900  0.62282500  1
  Ge  Ge8  1  0.20416900  0.70598900  0.87717500  1
  Ge  Ge9  1  0.79583100  0.70598900  0.12282500  1
  Ge  Ge10  1  0.70416900  0.79401100  0.62282500  1
  Ge  Ge11  1  0.29583100  0.79401100  0.37717500  1
  Ge  Ge12  1  0.87199900  0.00000000  0.07251600  1
  Ge  Ge13  1  0.12800100  0.00000000  0.92748400  1
  Ge  Ge14  1  0.37199900  0.50000000  0.42748400  1
  Ge  Ge15  1  0.62800100  0.50000000  0.57251600  1
  Ge  Ge16  1  0.55301600  0.50000000  0.23562900  1
  Ge  Ge17  1  0.44698400  0.50000000  0.76437100  1
  Ge  Ge18  1  0.05301600  0.00000000  0.26437100  1
  Ge  Ge19  1  0.94698400  0.00000000  0.73562900  1
  Pb  Pb20  1  0.75382400  0.29329100  0.41001100  1
  Pb  Pb21  1  0.24617600  0.29329100  0.58998900  1
  Pb  Pb22  1  0.25382400  0.20670900  0.08998900  1
  Pb  Pb23  1  0.74617600  0.20670900  0.91001100  1
  Pb  Pb24  1  0.24617600  0.70670900  0.58998900  1
  Pb  Pb25  1  0.75382400  0.70670900  0.41001100  1
  Pb  Pb26  1  0.74617600  0.79329100  0.91001100  1
  Pb  Pb27  1  0.25382400  0.79329100  0.08998900  1
  Pb  Pb28  1  0.58570700  0.00000000  0.25699500  1
  Pb  Pb29  1  0.41429300  0.00000000  0.74300500  1
  Pb  Pb30  1  0.08570700  0.50000000  0.24300500  1
  Pb  Pb31  1  0.91429300  0.50000000  0.75699500  1
  O  O32  1  0.57242500  0.50000000  0.34924500  1
  O  O33  1  0.42757500  0.50000000  0.65075500  1
  O  O34  1  0.07242400  0.00000000  0.15075500  1
  O  O35  1  0.92757500  0.00000000  0.84924500  1
  O  O36  1  0.69072500  0.00000000  0.98957000  1
  O  O37  1  0.30927500  0.00000000  0.01043000  1
  O  O38  1  0.19072500  0.50000000  0.51043000  1
  O  O39  1  0.80927500  0.50000000  0.48957000  1
  O  O40  1  0.76495000  0.12750800  0.14047300  1
  O  O41  1  0.23505000  0.12750800  0.85952700  1
  O  O42  1  0.26495000  0.37249200  0.35952700  1
  O  O43  1  0.73505000  0.37249200  0.64047300  1
  O  O44  1  0.23505000  0.87249200  0.85952700  1
  O  O45  1  0.76495000  0.87249200  0.14047300  1
  O  O46  1  0.73505000  0.62750800  0.64047300  1
  O  O47  1  0.26495000  0.62750800  0.35952700  1
  O  O48  1  0.50000000  0.37678400  0.50000000  1
  O  O49  1  0.00000000  0.12321600  0.00000000  1
  O  O50  1  0.50000000  0.62321600  0.50000000  1
  O  O51  1  0.00000000  0.87678400  0.00000000  1
  O  O52  1  0.68022600  0.35914200  0.21272300  1
  O  O53  1  0.31977400  0.35914200  0.78727700  1
  O  O54  1  0.18022600  0.14085800  0.28727700  1
  O  O55  1  0.81977400  0.14085800  0.71272300  1
  O  O56  1  0.31977400  0.64085800  0.78727700  1
  O  O57  1  0.68022600  0.64085800  0.21272300  1
  O  O58  1  0.81977400  0.85914200  0.71272300  1
  O  O59  1  0.18022600  0.85914200  0.28727700  1
  O  O60  1  0.85584000  0.00000000  0.32110000  1
  O  O61  1  0.14416000  0.00000000  0.67890000  1
  O  O62  1  0.35584000  0.50000000  0.17890000  1
  O  O63  1  0.64416000  0.50000000  0.82110000  1
  O  O64  1  0.51936900  0.15512400  0.36810600  1
  O  O65  1  0.48063100  0.15512400  0.63189400  1
  O  O66  1  0.01936900  0.34487600  0.13189400  1
  O  O67  1  0.98063100  0.34487600  0.86810600  1
  O  O68  1  0.48063100  0.84487600  0.63189400  1
  O  O69  1  0.51936900  0.84487600  0.36810600  1
  O  O70  1  0.98063100  0.65512400  0.86810600  1
  O  O71  1  0.01936900  0.65512400  0.13189400  1
  O  O72  1  0.71341800  0.34467300  0.02489400  1
  O  O73  1  0.28658200  0.34467300  0.97510600  1
  O  O74  1  0.21341800  0.15532700  0.47510600  1
  O  O75  1  0.78658200  0.15532700  0.52489400  1
  O  O76  1  0.28658200  0.65532700  0.97510600  1
  O  O77  1  0.71341800  0.65532700  0.02489400  1
  O  O78  1  0.78658200  0.84467300  0.52489400  1
  O  O79  1  0.21341800  0.84467300  0.47510600  1
