# generated using pymatgen
data_GaP2O9
_symmetry_space_group_name_H-M   'P 1'
_cell_length_a   17.15176000
_cell_length_b   9.02377500
_cell_length_c   9.05549603
_cell_angle_alpha   60.20964402
_cell_angle_beta   90.00000000
_cell_angle_gamma   90.00000000
_symmetry_Int_Tables_number   1
_chemical_formula_structural   GaP2O9
_chemical_formula_sum   'Ga6 P12 O54'
_cell_volume   1216.33556827
_cell_formula_units_Z   6
loop_
 _symmetry_equiv_pos_site_id
 _symmetry_equiv_pos_as_xyz
  1  'x, y, z'
loop_
 _atom_site_type_symbol
 _atom_site_label
 _atom_site_symmetry_multiplicity
 _atom_site_fract_x
 _atom_site_fract_y
 _atom_site_fract_z
 _atom_site_occupancy
  Ga  Ga0  1  0.99956000  0.33325600  0.33323500  1
  Ga  Ga1  1  0.49956000  0.66674400  0.66676500  1
  Ga  Ga2  1  0.08491000  0.00109800  0.99436100  1
  Ga  Ga3  1  0.58491000  0.99890200  0.00563900  1
  Ga  Ga4  1  0.27936600  0.33299900  0.33272100  1
  Ga  Ga5  1  0.77936600  0.66700100  0.66727900  1
  P  P6  1  0.13694600  0.11162600  0.27447600  1
  P  P7  1  0.13766000  0.27447600  0.61319100  1
  P  P8  1  0.13703000  0.61228100  0.11260100  1
  P  P9  1  0.63694600  0.88837400  0.72552400  1
  P  P10  1  0.63766000  0.72552400  0.38680900  1
  P  P11  1  0.63703000  0.38771900  0.88739900  1
  P  P12  1  0.41789600  0.04459500  0.54055500  1
  P  P13  1  0.41814400  0.54146200  0.41632500  1
  P  P14  1  0.41737600  0.41582500  0.04199800  1
  P  P15  1  0.91789600  0.95540500  0.45944500  1
  P  P16  1  0.91814400  0.45853800  0.58367500  1
  P  P17  1  0.91737600  0.58417500  0.95800200  1
  O  O18  1  0.21322900  0.25017700  0.53637300  1
  O  O19  1  0.21300700  0.53768400  0.21271200  1
  O  O20  1  0.21309200  0.21195600  0.24800900  1
  O  O21  1  0.71322900  0.74982300  0.46362700  1
  O  O22  1  0.71300700  0.46231600  0.78728800  1
  O  O23  1  0.71309200  0.78804400  0.75199100  1
  O  O24  1  0.64146000  0.03028800  0.53460800  1
  O  O25  1  0.64092200  0.53335100  0.43690100  1
  O  O26  1  0.64107000  0.43664000  0.02931000  1
  O  O27  1  0.14146000  0.96971200  0.46539200  1
  O  O28  1  0.14092200  0.46664900  0.56309900  1
  O  O29  1  0.14107000  0.56336000  0.97069000  1
  O  O30  1  0.06254000  0.21790800  0.23865200  1
  O  O31  1  0.06253800  0.23677400  0.54538400  1
  O  O32  1  0.06237500  0.54314400  0.21827900  1
  O  O33  1  0.56254000  0.78209200  0.76134800  1
  O  O34  1  0.56253800  0.76322600  0.45461600  1
  O  O35  1  0.56237500  0.45685600  0.78172100  1
  O  O36  1  0.14399700  0.15975300  0.80636500  1
  O  O37  1  0.14175500  0.80635000  0.03658000  1
  O  O38  1  0.14069700  0.03297000  0.15816600  1
  O  O39  1  0.64399700  0.84024700  0.19363500  1
  O  O40  1  0.64175500  0.19365000  0.96342000  1
  O  O41  1  0.64069700  0.96703000  0.84183400  1
  O  O42  1  0.92875100  0.13232600  0.44144500  1
  O  O43  1  0.92882100  0.44321300  0.42398800  1
  O  O44  1  0.92868700  0.42321300  0.13166300  1
  O  O45  1  0.42875100  0.86767400  0.55855500  1
  O  O46  1  0.42882100  0.55678700  0.57601200  1
  O  O47  1  0.42868700  0.57678700  0.86833700  1
  O  O48  1  0.34141000  0.12340400  0.44764800  1
  O  O49  1  0.34152900  0.44915400  0.42778400  1
  O  O50  1  0.34121100  0.42777400  0.12331900  1
  O  O51  1  0.84141000  0.87659600  0.55235200  1
  O  O52  1  0.84152900  0.55084600  0.57221600  1
  O  O53  1  0.84121100  0.57222600  0.87668100  1
  O  O54  1  0.41052400  0.02686200  0.72201700  1
  O  O55  1  0.41072900  0.72250400  0.25341300  1
  O  O56  1  0.41362300  0.25301500  0.02345200  1
  O  O57  1  0.91052400  0.97313800  0.27798300  1
  O  O58  1  0.91072900  0.27749600  0.74658700  1
  O  O59  1  0.91362300  0.74698500  0.97654800  1
  O  O60  1  0.49082700  0.15182800  0.44156700  1
  O  O61  1  0.49091100  0.44389700  0.40308200  1
  O  O62  1  0.49030600  0.40626900  0.15124100  1
  O  O63  1  0.99082700  0.84817200  0.55843300  1
  O  O64  1  0.99091100  0.55610300  0.59691800  1
  O  O65  1  0.99030600  0.59373100  0.84875900  1
  O  O66  1  0.49788400  0.12422700  0.82314200  1
  O  O67  1  0.49731900  0.83863300  0.03100100  1
  O  O68  1  0.49889800  0.02492500  0.14304800  1
  O  O69  1  0.99788400  0.87577300  0.17685800  1
  O  O70  1  0.99731900  0.16136700  0.96899900  1
  O  O71  1  0.99889800  0.97507500  0.85695200  1
