# generated using pymatgen
data_MoSF4
_symmetry_space_group_name_H-M   'P 1'
_cell_length_a   8.74596706
_cell_length_b   11.59378957
_cell_length_c   29.12581037
_cell_angle_alpha   90.00000000
_cell_angle_beta   90.00000000
_cell_angle_gamma   90.00000000
_symmetry_Int_Tables_number   1
_chemical_formula_structural   MoSF4
_chemical_formula_sum   'Mo24 S24 F96'
_cell_volume   2953.32518205
_cell_formula_units_Z   24
loop_
 _symmetry_equiv_pos_site_id
 _symmetry_equiv_pos_as_xyz
  1  'x, y, z'
loop_
 _atom_site_type_symbol
 _atom_site_label
 _atom_site_symmetry_multiplicity
 _atom_site_fract_x
 _atom_site_fract_y
 _atom_site_fract_z
 _atom_site_occupancy
  Mo  Mo0  1  0.45928147  0.10015410  0.91059386  1
  Mo  Mo1  1  0.54071853  0.89984590  0.41059386  1
  Mo  Mo2  1  0.45928147  0.39984590  0.41059386  1
  Mo  Mo3  1  0.54071853  0.60015410  0.91059386  1
  Mo  Mo4  1  0.37968651  0.23913303  0.04520111  1
  Mo  Mo5  1  0.62031349  0.76086697  0.54520111  1
  Mo  Mo6  1  0.37968651  0.26086697  0.54520111  1
  Mo  Mo7  1  0.62031349  0.73913303  0.04520111  1
  Mo  Mo8  1  0.12336724  0.50969739  0.97900103  1
  Mo  Mo9  1  0.87663276  0.49030261  0.47900103  1
  Mo  Mo10  1  0.12336724  0.99030261  0.47900103  1
  Mo  Mo11  1  0.87663276  0.00969739  0.97900103  1
  Mo  Mo12  1  0.05184733  0.92059275  0.79460536  1
  Mo  Mo13  1  0.94815267  0.07940725  0.29460536  1
  Mo  Mo14  1  0.05184733  0.57940725  0.29460536  1
  Mo  Mo15  1  0.94815267  0.42059275  0.79460536  1
  Mo  Mo16  1  0.91400117  0.05295905  0.66059749  1
  Mo  Mo17  1  0.08599883  0.94704095  0.16059749  1
  Mo  Mo18  1  0.91400117  0.44704095  0.16059749  1
  Mo  Mo19  1  0.08599883  0.55295905  0.66059749  1
  Mo  Mo20  1  0.56298833  0.26721977  0.72624130  1
  Mo  Mo21  1  0.43701167  0.73278023  0.22624130  1
  Mo  Mo22  1  0.56298833  0.23278023  0.22624130  1
  Mo  Mo23  1  0.43701167  0.76721977  0.72624130  1
  S  S24  1  0.54388141  0.00549094  0.85530344  1
  S  S25  1  0.45611859  0.99450906  0.35530344  1
  S  S26  1  0.54388141  0.49450906  0.35530344  1
  S  S27  1  0.45611859  0.50549094  0.85530344  1
  S  S28  1  0.46792822  0.08491726  0.07116361  1
  S  S29  1  0.53207178  0.91508274  0.57116361  1
  S  S30  1  0.46792822  0.41508274  0.57116361  1
  S  S31  1  0.53207178  0.58491726  0.07116361  1
  S  S32  1  0.92196533  0.43149941  0.00231364  1
  S  S33  1  0.07803467  0.56850059  0.50231364  1
  S  S34  1  0.92196533  0.06850059  0.50231364  1
  S  S35  1  0.07803467  0.93149941  0.00231364  1
  S  S36  1  0.11738627  0.82409482  0.85194737  1
  S  S37  1  0.88261373  0.17590518  0.35194737  1
  S  S38  1  0.11738627  0.67590518  0.35194737  1
  S  S39  1  0.88261373  0.32409482  0.85194737  1
  S  S40  1  0.08798141  0.96257365  0.62693653  1
  S  S41  1  0.91201859  0.03742635  0.12693653  1
  S  S42  1  0.08798141  0.53742635  0.12693653  1
  S  S43  1  0.91201859  0.46257365  0.62693653  1
  S  S44  1  0.35742147  0.18499926  0.71056707  1
  S  S45  1  0.64257853  0.81500074  0.21056707  1
  S  S46  1  0.35742147  0.31500074  0.21056707  1
  S  S47  1  0.64257853  0.68499926  0.71056707  1
  F  F48  1  0.63418302  0.09253825  0.95261894  1
  F  F49  1  0.36581698  0.90746175  0.45261894  1
  F  F50  1  0.63418302  0.40746175  0.45261894  1
  F  F51  1  0.36581698  0.59253825  0.95261894  1
  F  F52  1  0.37137855  0.98324050  0.94735121  1
  F  F53  1  0.62862145  0.01675950  0.44735121  1
  F  F54  1  0.37137855  0.51675950  0.44735121  1
  F  F55  1  0.62862145  0.48324050  0.94735121  1
  F  F56  1  0.26343823  0.14156180  0.88994106  1
  F  F57  1  0.73656177  0.85843820  0.38994106  1
  F  F58  1  0.26343823  0.35843820  0.38994106  1
  F  F59  1  0.73656177  0.64156180  0.88994106  1
  F  F60  1  0.52847545  0.25126164  0.89791111  1
  F  F61  1  0.47152455  0.74873836  0.39791111  1
  F  F62  1  0.52847545  0.24873836  0.39791111  1
  F  F63  1  0.47152455  0.75126164  0.89791111  1
  F  F64  1  0.36326177  0.20307681  0.98013042  1
  F  F65  1  0.63673823  0.79692319  0.48013042  1
  F  F66  1  0.36326177  0.29692319  0.48013042  1
  F  F67  1  0.63673823  0.70307681  0.98013042  1
  F  F68  1  0.55812181  0.32164354  0.02992839  1
  F  F69  1  0.44187819  0.67835646  0.52992839  1
  F  F70  1  0.55812181  0.17835646  0.52992839  1
  F  F71  1  0.44187819  0.82164354  0.02992839  1
  F  F72  1  0.36295451  0.32950099  0.09907666  1
  F  F73  1  0.63704549  0.67049901  0.59907666  1
  F  F74  1  0.36295451  0.17049901  0.59907666  1
  F  F75  1  0.63704549  0.82950099  0.09907666  1
  F  F76  1  0.16628014  0.21228001  0.04804247  1
  F  F77  1  0.83371986  0.78771999  0.54804247  1
  F  F78  1  0.16628014  0.28771999  0.54804247  1
  F  F79  1  0.83371986  0.71228001  0.04804247  1
  F  F80  1  0.27389666  0.41880926  0.01318702  1
  F  F81  1  0.72610334  0.58119074  0.51318702  1
  F  F82  1  0.27389666  0.08119074  0.51318702  1
  F  F83  1  0.72610334  0.91880926  0.01318702  1
  F  F84  1  0.16124063  0.62443949  0.02368097  1
  F  F85  1  0.83875937  0.37556051  0.52368097  1
  F  F86  1  0.16124063  0.87556051  0.52368097  1
  F  F87  1  0.83875937  0.12443949  0.02368097  1
  F  F88  1  0.04725152  0.62466931  0.93958218  1
  F  F89  1  0.95274848  0.37533069  0.43958218  1
  F  F90  1  0.04725152  0.87533069  0.43958218  1
  F  F91  1  0.95274848  0.12466931  0.93958218  1
  F  F92  1  0.17303176  0.41752721  0.92768979  1
  F  F93  1  0.82696824  0.58247279  0.42768979  1
  F  F94  1  0.17303176  0.08247279  0.42768979  1
  F  F95  1  0.82696824  0.91752721  0.92768979  1
  F  F96  1  0.89661552  0.82799963  0.76903398  1
  F  F97  1  0.10338448  0.17200037  0.26903398  1
  F  F98  1  0.89661552  0.67200037  0.26903398  1
  F  F99  1  0.10338448  0.32799963  0.76903398  1
  F  F100  1  0.18625270  0.85659702  0.74738443  1
  F  F101  1  0.81374730  0.14340298  0.24738443  1
  F  F102  1  0.18625270  0.64340298  0.24738443  1
  F  F103  1  0.81374730  0.35659702  0.74738443  1
  F  F104  1  0.19179274  0.04477510  0.79508301  1
  F  F105  1  0.80820726  0.95522490  0.29508301  1
  F  F106  1  0.19179274  0.45522490  0.29508301  1
  F  F107  1  0.80820726  0.54477510  0.79508301  1
  F  F108  1  0.90281414  0.01954836  0.81961007  1
  F  F109  1  0.09718586  0.98045164  0.31961007  1
  F  F110  1  0.90281414  0.48045164  0.31961007  1
  F  F111  1  0.09718586  0.51954836  0.81961007  1
  F  F112  1  0.97274595  0.02923914  0.72436882  1
  F  F113  1  0.02725405  0.97076086  0.22436882  1
  F  F114  1  0.97274595  0.47076086  0.22436882  1
  F  F115  1  0.02725405  0.52923914  0.72436882  1
  F  F116  1  0.76551092  0.93672121  0.66920640  1
  F  F117  1  0.23448908  0.06327879  0.16920640  1
  F  F118  1  0.76551092  0.56327879  0.16920640  1
  F  F119  1  0.23448908  0.43672121  0.66920640  1
  F  F120  1  0.79838398  0.10913382  0.61066411  1
  F  F121  1  0.20161602  0.89086618  0.11066411  1
  F  F122  1  0.79838398  0.39086618  0.11066411  1
  F  F123  1  0.20161602  0.60913382  0.61066411  1
  F  F124  1  0.99968726  0.20162385  0.66713480  1
  F  F125  1  0.00031274  0.79837615  0.16713480  1
  F  F126  1  0.99968726  0.29837615  0.16713480  1
  F  F127  1  0.00031274  0.70162385  0.66713480  1
  F  F128  1  0.70917078  0.15506360  0.70283264  1
  F  F129  1  0.29082922  0.84493640  0.20283264  1
  F  F130  1  0.70917078  0.34493640  0.20283264  1
  F  F131  1  0.29082922  0.65506360  0.70283264  1
  F  F132  1  0.60617141  0.20887869  0.78546656  1
  F  F133  1  0.39382859  0.79112131  0.28546656  1
  F  F134  1  0.60617141  0.29112131  0.28546656  1
  F  F135  1  0.39382859  0.70887869  0.78546656  1
  F  F136  1  0.49311730  0.40527138  0.75320202  1
  F  F137  1  0.50688270  0.59472862  0.25320202  1
  F  F138  1  0.49311730  0.09472862  0.25320202  1
  F  F139  1  0.50688270  0.90527138  0.75320202  1
  F  F140  1  0.60735536  0.35230104  0.67224413  1
  F  F141  1  0.39264464  0.64769896  0.17224413  1
  F  F142  1  0.60735536  0.14769896  0.17224413  1
  F  F143  1  0.39264464  0.85230104  0.67224413  1
