# generated using pymatgen
data_UC2Se2(NO6)2
_symmetry_space_group_name_H-M   'P 1'
_cell_length_a   7.88300500
_cell_length_b   12.17179800
_cell_length_c   17.01182500
_cell_angle_alpha   90.00000000
_cell_angle_beta   90.00000000
_cell_angle_gamma   90.00000000
_symmetry_Int_Tables_number   1
_chemical_formula_structural   UC2Se2(NO6)2
_chemical_formula_sum   'U4 C8 Se8 N8 O48'
_cell_volume   1632.29046920
_cell_formula_units_Z   4
loop_
 _symmetry_equiv_pos_site_id
 _symmetry_equiv_pos_as_xyz
  1  'x, y, z'
loop_
 _atom_site_type_symbol
 _atom_site_label
 _atom_site_symmetry_multiplicity
 _atom_site_fract_x
 _atom_site_fract_y
 _atom_site_fract_z
 _atom_site_occupancy
  U  U0  1  0.11849100  0.25000000  0.48677400  1
  U  U1  1  0.61849100  0.25000000  0.01322600  1
  U  U2  1  0.88150900  0.75000000  0.51322600  1
  U  U3  1  0.38150900  0.75000000  0.98677400  1
  C  C4  1  0.31134700  0.58485600  0.68633500  1
  C  C5  1  0.81134700  0.91514400  0.81366500  1
  C  C6  1  0.68865300  0.08485600  0.31366500  1
  C  C7  1  0.18865300  0.41514400  0.18633500  1
  C  C8  1  0.68865300  0.41514400  0.31366500  1
  C  C9  1  0.18865300  0.08485600  0.18633500  1
  C  C10  1  0.31134700  0.91514400  0.68633500  1
  C  C11  1  0.81134700  0.58485600  0.81366500  1
  Se  Se12  1  0.21281000  0.54894900  0.43498500  1
  Se  Se13  1  0.71281000  0.95105100  0.06501500  1
  Se  Se14  1  0.78719000  0.04894900  0.56501500  1
  Se  Se15  1  0.28719000  0.45105100  0.93498500  1
  Se  Se16  1  0.78719000  0.45105100  0.56501500  1
  Se  Se17  1  0.28719000  0.04894900  0.93498500  1
  Se  Se18  1  0.21281000  0.95105100  0.43498500  1
  Se  Se19  1  0.71281000  0.54894900  0.06501500  1
  N  N20  1  0.28529300  0.49029100  0.67906600  1
  N  N21  1  0.78529300  0.00970900  0.82093400  1
  N  N22  1  0.71470700  0.99029100  0.32093400  1
  N  N23  1  0.21470700  0.50970900  0.17906600  1
  N  N24  1  0.71470700  0.50970900  0.32093400  1
  N  N25  1  0.21470700  0.99029100  0.17906600  1
  N  N26  1  0.28529300  0.00970900  0.67906600  1
  N  N27  1  0.78529300  0.49029100  0.82093400  1
  O  O28  1  0.14368500  0.25000000  0.59189400  1
  O  O29  1  0.64368500  0.25000000  0.90810600  1
  O  O30  1  0.85631500  0.75000000  0.40810600  1
  O  O31  1  0.35631500  0.75000000  0.09189400  1
  O  O32  1  0.09445000  0.25000000  0.38146800  1
  O  O33  1  0.59445000  0.25000000  0.11853200  1
  O  O34  1  0.90555000  0.75000000  0.61853200  1
  O  O35  1  0.40555000  0.75000000  0.88146800  1
  O  O36  1  0.12126500  0.63163600  0.50183900  1
  O  O37  1  0.62126500  0.86836400  0.99816100  1
  O  O38  1  0.87873500  0.13163600  0.49816100  1
  O  O39  1  0.37873500  0.36836400  0.00183900  1
  O  O40  1  0.87873500  0.36836400  0.49816100  1
  O  O41  1  0.37873500  0.13163600  0.00183900  1
  O  O42  1  0.12126500  0.86836400  0.50183900  1
  O  O43  1  0.62126500  0.63163600  0.99816100  1
  O  O44  1  0.23280200  0.42742300  0.48266700  1
  O  O45  1  0.73280200  0.07257700  0.01733300  1
  O  O46  1  0.76719800  0.92742300  0.51733300  1
  O  O47  1  0.26719800  0.57257700  0.98266700  1
  O  O48  1  0.76719800  0.57257700  0.51733300  1
  O  O49  1  0.26719800  0.92742300  0.98266700  1
  O  O50  1  0.23280200  0.07257700  0.48266700  1
  O  O51  1  0.73280200  0.42742300  0.01733300  1
  O  O52  1  0.40400900  0.59523800  0.40958600  1
  O  O53  1  0.90400900  0.90476200  0.09041400  1
  O  O54  1  0.59599100  0.09523800  0.59041400  1
  O  O55  1  0.09599100  0.40476200  0.90958600  1
  O  O56  1  0.59599100  0.40476200  0.59041400  1
  O  O57  1  0.09599100  0.09523800  0.90958600  1
  O  O58  1  0.40400900  0.90476200  0.40958600  1
  O  O59  1  0.90400900  0.59523800  0.09041400  1
  O  O60  1  0.10025600  0.53810300  0.35228400  1
  O  O61  1  0.60025600  0.96189700  0.14771600  1
  O  O62  1  0.89974400  0.03810300  0.64771600  1
  O  O63  1  0.39974400  0.46189700  0.85228400  1
  O  O64  1  0.89974400  0.46189700  0.64771600  1
  O  O65  1  0.39974400  0.03810300  0.85228400  1
  O  O66  1  0.10025600  0.96189700  0.35228400  1
  O  O67  1  0.60025600  0.53810300  0.14771600  1
  O  O68  1  0.42256000  0.25000000  0.48022900  1
  O  O69  1  0.92256000  0.25000000  0.01977100  1
  O  O70  1  0.57744000  0.75000000  0.51977100  1
  O  O71  1  0.07744000  0.75000000  0.98022900  1
  O  O72  1  0.53597600  0.75000000  0.26884800  1
  O  O73  1  0.03597600  0.75000000  0.23115200  1
  O  O74  1  0.46402400  0.25000000  0.73115200  1
  O  O75  1  0.96402400  0.25000000  0.76884800  1
