# generated using pymatgen
data_VH24(C2N)4
_symmetry_space_group_name_H-M   'P 1'
_cell_length_a   8.81939000
_cell_length_b   12.81785415
_cell_length_c   14.80555690
_cell_angle_alpha   75.81026823
_cell_angle_beta   79.28522543
_cell_angle_gamma   84.92995124
_symmetry_Int_Tables_number   1
_chemical_formula_structural   VH24(C2N)4
_chemical_formula_sum   'V4 H96 C32 N16'
_cell_volume   1592.73714461
_cell_formula_units_Z   4
loop_
 _symmetry_equiv_pos_site_id
 _symmetry_equiv_pos_as_xyz
  1  'x, y, z'
loop_
 _atom_site_type_symbol
 _atom_site_label
 _atom_site_symmetry_multiplicity
 _atom_site_fract_x
 _atom_site_fract_y
 _atom_site_fract_z
 _atom_site_occupancy
  V  V0  1  0.77873400  0.75194400  0.47251900  1
  V  V1  1  0.22126600  0.24805600  0.52748100  1
  V  V2  1  0.79555800  0.75284600  0.97607600  1
  V  V3  1  0.20444200  0.24715400  0.02392400  1
  H  H4  1  0.82811200  0.51118000  0.53778000  1
  H  H5  1  0.17188800  0.48882000  0.46222000  1
  H  H6  1  0.71909200  0.50278700  0.65375900  1
  H  H7  1  0.28090800  0.49721300  0.34624100  1
  H  H8  1  0.63246300  0.47121700  0.56521600  1
  H  H9  1  0.36753700  0.52878300  0.43478400  1
  H  H10  1  0.50950400  0.62773700  0.68155300  1
  H  H11  1  0.49049600  0.37226300  0.31844700  1
  H  H12  1  0.46090600  0.73569400  0.58790300  1
  H  H13  1  0.53909400  0.26430600  0.41209700  1
  H  H14  1  0.42239000  0.60007200  0.59139800  1
  H  H15  1  0.57761000  0.39992800  0.40860200  1
  H  H16  1  0.52385100  0.86630800  0.30464200  1
  H  H17  1  0.47614900  0.13369200  0.69535800  1
  H  H18  1  0.40431000  0.88831400  0.40954000  1
  H  H19  1  0.59569000  0.11168600  0.59046000  1
  H  H20  1  0.48046400  0.75540100  0.40435800  1
  H  H21  1  0.51953600  0.24459900  0.59564200  1
  H  H22  1  0.78236300  0.99247700  0.40319300  1
  H  H23  1  0.21763700  0.00752300  0.59680700  1
  H  H24  1  0.69072300  0.99732700  0.30398100  1
  H  H25  1  0.30927700  0.00267300  0.69601900  1
  H  H26  1  0.58004500  0.02652400  0.40878800  1
  H  H27  1  0.41995500  0.97347600  0.59121200  1
  H  H28  1  0.78101100  0.57561800  0.37109300  1
  H  H29  1  0.21898900  0.42438200  0.62890700  1
  H  H30  1  0.85099900  0.66160000  0.25867100  1
  H  H31  1  0.14900100  0.33840000  0.74132900  1
  H  H32  1  0.97982100  0.56618600  0.31826400  1
  H  H33  1  0.02017900  0.43381400  0.68173600  1
  H  H34  1  0.14673800  0.70420800  0.30450000  1
  H  H35  1  0.85326200  0.29579200  0.69550000  1
  H  H36  1  0.02041100  0.80510300  0.24906800  1
  H  H37  1  0.97958900  0.19489700  0.75093200  1
  H  H38  1  0.08405800  0.81848000  0.35351200  1
  H  H39  1  0.91594200  0.18152000  0.64648800  1
  H  H40  1  0.09746700  0.70486100  0.51997400  1
  H  H41  1  0.90253300  0.29513900  0.48002600  1
  H  H42  1  0.13230500  0.82777500  0.54778300  1
  H  H43  1  0.86769500  0.17222500  0.45221700  1
  H  H44  1  0.04195000  0.72233600  0.63797200  1
  H  H45  1  0.95805000  0.27766400  0.36202800  1
  H  H46  1  0.83888700  0.85181400  0.67327700  1
  H  H47  1  0.16111300  0.14818600  0.32672300  1
  H  H48  1  0.72834900  0.92168200  0.58527300  1
  H  H49  1  0.27165100  0.07831800  0.41472700  1
  H  H50  1  0.92340000  0.95489200  0.57827700  1
  H  H51  1  0.07660000  0.04510800  0.42172300  1
  H  H52  1  0.77783600  0.67105200  0.74802300  1
  H  H53  1  0.22216400  0.32894800  0.25197700  1
  H  H54  1  0.89376700  0.61266600  0.83651400  1
  H  H55  1  0.10623300  0.38733400  0.16348600  1
  H  H56  1  0.70081600  0.57191100  0.84893200  1
  H  H57  1  0.29918400  0.42808900  0.15106800  1
  H  H58  1  0.48456900  0.69498500  0.87644300  1
  H  H59  1  0.51543100  0.30501500  0.12355700  1
  H  H60  1  0.51378100  0.82633700  0.88971400  1
  H  H61  1  0.48621900  0.17366300  0.11028600  1
  H  H62  1  0.56704700  0.79388000  0.77683500  1
  H  H63  1  0.43295300  0.20612000  0.22316500  1
  H  H64  1  0.20044000  0.63961700  0.00705800  1
  H  H65  1  0.79956000  0.36038300  0.99294200  1
  H  H66  1  0.04439400  0.66932600  0.09451600  1
  H  H67  1  0.95560600  0.33067400  0.90548400  1
  H  H68  1  0.17392000  0.77137700  0.02759600  1
  H  H69  1  0.82608000  0.22862300  0.97240400  1
  H  H70  1  0.17523900  0.83928700  0.86154800  1
  H  H71  1  0.82476100  0.16071300  0.13845200  1
  H  H72  1  0.03224600  0.80110500  0.80593300  1
  H  H73  1  0.96775400  0.19889500  0.19406700  1
  H  H74  1  0.18723500  0.70841300  0.83933100  1
  H  H75  1  0.81276500  0.29158700  0.16066900  1
  H  H76  1  0.63127500  0.04302500  0.93157500  1
  H  H77  1  0.36872500  0.95697500  0.06842500  1
  H  H78  1  0.71883800  0.96678300  0.84741800  1
  H  H79  1  0.28116200  0.03321700  0.15258200  1
  H  H80  1  0.83531900  0.03734500  0.89766000  1
  H  H81  1  0.16468100  0.96265500  0.10234000  1
  H  H82  1  0.85845900  0.97548000  0.06381200  1
  H  H83  1  0.14154100  0.02452000  0.93618800  1
  H  H84  1  0.75871500  0.85974100  0.13500700  1
  H  H85  1  0.24128500  0.14025900  0.86499300  1
  H  H86  1  0.65349800  0.98267400  0.09342300  1
  H  H87  1  0.34650200  0.01732600  0.90657700  1
  H  H88  1  0.86774800  0.52502000  0.07239500  1
  H  H89  1  0.13225200  0.47498000  0.92760500  1
  H  H90  1  0.66842200  0.49331600  0.09824100  1
  H  H91  1  0.33157800  0.50668400  0.90175900  1
  H  H92  1  0.75971400  0.51530600  0.18884100  1
  H  H93  1  0.24028600  0.48469400  0.81115900  1
  H  H94  1  0.51893300  0.75940300  0.12868400  1
  H  H95  1  0.48106700  0.24059700  0.87131600  1
  H  H96  1  0.56429200  0.64812800  0.22083200  1
  H  H97  1  0.43570800  0.35187200  0.77916800  1
  H  H98  1  0.47019400  0.62611000  0.13126300  1
  H  H99  1  0.52980600  0.37389000  0.86873700  1
  C  C100  1  0.71303000  0.52615700  0.57723200  1
  C  C101  1  0.28697000  0.47384300  0.42276800  1
  C  C102  1  0.50599200  0.65193800  0.60472600  1
  C  C103  1  0.49400800  0.34806200  0.39527400  1
  C  C104  1  0.50673200  0.84083500  0.38299200  1
  C  C105  1  0.49326800  0.15916500  0.61700800  1
  C  C106  1  0.67656700  0.97429900  0.38229900  1
  C  C107  1  0.32343300  0.02570100  0.61770100  1
  C  C108  1  0.87884400  0.62242800  0.32968500  1
  C  C109  1  0.12115600  0.37757200  0.67031500  1
  C  C110  1  0.04763700  0.76070400  0.31897000  1
  C  C111  1  0.95236300  0.23929600  0.68103000  1
  C  C112  1  0.04930600  0.76322900  0.56217300  1
  C  C113  1  0.95069400  0.23677100  0.43782700  1
  C  C114  1  0.84382100  0.88768900  0.59668400  1
  C  C115  1  0.15617900  0.11231100  0.40331600  1
  C  C116  1  0.77648100  0.64162900  0.82502300  1
  C  C117  1  0.22351900  0.35837100  0.17497700  1
  C  C118  1  0.56382900  0.76263800  0.85381100  1
  C  C119  1  0.43617100  0.23736200  0.14618900  1
  C  C120  1  0.11118600  0.70142700  0.02423300  1
  C  C121  1  0.88881400  0.29857300  0.97576700  1
  C  C122  1  0.10500600  0.77205400  0.86048200  1
  C  C123  1  0.89499400  0.22794600  0.13951800  1
  C  C124  1  0.73126100  0.98904100  0.91265100  1
  C  C125  1  0.26873900  0.01095900  0.08734900  1
  C  C126  1  0.75363200  0.92884200  0.07466400  1
  C  C127  1  0.24636800  0.07115800  0.92533600  1
  C  C128  1  0.75440400  0.54281700  0.11245300  1
  C  C129  1  0.24559600  0.45718300  0.88754700  1
  C  C130  1  0.55885800  0.67426600  0.14436300  1
  C  C131  1  0.44114200  0.32573400  0.85563700  1
  N  N132  1  0.65722500  0.63743100  0.54882600  1
  N  N133  1  0.34277500  0.36256900  0.45117400  1
  N  N134  1  0.64146400  0.86155000  0.41842200  1
  N  N135  1  0.35853600  0.13845000  0.58157800  1
  N  N136  1  0.91710700  0.70109500  0.37700000  1
  N  N137  1  0.08289300  0.29890500  0.62300000  1
  N  N138  1  0.89985900  0.80937000  0.54037900  1
  N  N139  1  0.10014100  0.19063000  0.45962100  1
  N  N140  1  0.71811100  0.72715100  0.87306600  1
  N  N141  1  0.28188900  0.27284900  0.12693400  1
  N  N142  1  0.01262400  0.73090500  0.95265400  1
  N  N143  1  0.98737600  0.26909500  0.04734600  1
  N  N144  1  0.73959900  0.89502500  0.98986500  1
  N  N145  1  0.26040100  0.10497500  0.01013500  1
  N  N146  1  0.70931100  0.65668600  0.08919600  1
  N  N147  1  0.29068900  0.34331400  0.91080400  1
