# generated using pymatgen
data_K2Na4Ca5(Si6O17)2
_symmetry_space_group_name_H-M   'P 1'
_cell_length_a   7.45436000
_cell_length_b   10.31260085
_cell_length_c   12.79594443
_cell_angle_alpha   111.28966864
_cell_angle_beta   90.00000000
_cell_angle_gamma   111.18742753
_symmetry_Int_Tables_number   1
_chemical_formula_structural   K2Na4Ca5(Si6O17)2
_chemical_formula_sum   'K2 Na4 Ca5 Si12 O34'
_cell_volume   844.78369366
_cell_formula_units_Z   1
loop_
 _symmetry_equiv_pos_site_id
 _symmetry_equiv_pos_as_xyz
  1  'x, y, z'
loop_
 _atom_site_type_symbol
 _atom_site_label
 _atom_site_symmetry_multiplicity
 _atom_site_fract_x
 _atom_site_fract_y
 _atom_site_fract_z
 _atom_site_occupancy
  K  K0  1  0.84188700  0.68377300  0.49958000  1
  K  K1  1  0.15874400  0.31748700  0.50166700  1
  Na  Na2  1  0.00131000  0.00262000  0.00105200  1
  Na  Na3  1  0.50051000  0.00102000  0.00299300  1
  Na  Na4  1  0.25693800  0.51387700  0.00941900  1
  Na  Na5  1  0.50346600  0.00693100  0.51882200  1
  Ca  Ca6  1  0.74414400  0.48828900  0.99324200  1
  Ca  Ca7  1  0.09116100  0.68112800  0.84525500  1
  Ca  Ca8  1  0.58996700  0.68112800  0.84525500  1
  Ca  Ca9  1  0.91299400  0.32089200  0.15708600  1
  Ca  Ca10  1  0.40789800  0.32089200  0.15708600  1
  Si  Si11  1  0.93410900  0.29216600  0.75144000  1
  Si  Si12  1  0.35805800  0.29216600  0.75144000  1
  Si  Si13  1  0.06343800  0.71364000  0.25276800  1
  Si  Si14  1  0.65020200  0.71364000  0.25276800  1
  Si  Si15  1  0.70093200  0.40186500  0.63264900  1
  Si  Si16  1  0.30075600  0.60151100  0.36819900  1
  Si  Si17  1  0.81000500  0.03738200  0.25119200  1
  Si  Si18  1  0.22737700  0.03738200  0.25119200  1
  Si  Si19  1  0.19068800  0.96435000  0.74889500  1
  Si  Si20  1  0.77366200  0.96435000  0.74889500  1
  Si  Si21  1  0.63401400  0.26802900  0.36951000  1
  Si  Si22  1  0.36694200  0.73388400  0.63058000  1
  O  O23  1  0.96475000  0.43765300  0.86379500  1
  O  O24  1  0.47290300  0.43765300  0.86379500  1
  O  O25  1  0.00750800  0.56393300  0.13935900  1
  O  O26  1  0.55642600  0.56393300  0.13935900  1
  O  O27  1  0.82833700  0.30091500  0.63964600  1
  O  O28  1  0.47257900  0.30091500  0.63964600  1
  O  O29  1  0.17339400  0.70158900  0.36099600  1
  O  O30  1  0.52819500  0.70158900  0.36099600  1
  O  O31  1  0.13883700  0.27767500  0.71072400  1
  O  O32  1  0.87078000  0.74156000  0.30442900  1
  O  O33  1  0.79103000  0.13188800  0.75730700  1
  O  O34  1  0.34085800  0.13188800  0.75730700  1
  O  O35  1  0.20876000  0.86890000  0.24073900  1
  O  O36  1  0.66014000  0.86890000  0.24073900  1
  O  O37  1  0.69800000  0.39599900  0.50185800  1
  O  O38  1  0.30293700  0.60587400  0.49889100  1
  O  O39  1  0.67694100  0.35388200  0.28415000  1
  O  O40  1  0.21473400  0.42946800  0.27992100  1
  O  O41  1  0.78738900  0.57477700  0.72004400  1
  O  O42  1  0.32499600  0.64999100  0.71701900  1
  O  O43  1  0.75887400  0.16104800  0.36234300  1
  O  O44  1  0.40217400  0.16104800  0.36234300  1
  O  O45  1  0.24401300  0.84217300  0.63747600  1
  O  O46  1  0.59816000  0.84217300  0.63747600  1
  O  O47  1  0.79851100  0.07068400  0.13972000  1
  O  O48  1  0.27217300  0.07068400  0.13972000  1
  O  O49  1  0.20148600  0.93099600  0.86024500  1
  O  O50  1  0.72951000  0.93099600  0.86024500  1
  O  O51  1  0.63636300  0.27272600  0.03905700  1
  O  O52  1  0.14289200  0.28578400  0.03933100  1
  O  O53  1  0.85823700  0.71647500  0.96239600  1
  O  O54  1  0.36757300  0.73514700  0.96034900  1
  O  O55  1  0.03124300  0.06248600  0.30046400  1
  O  O56  1  0.97009800  0.94019600  0.69913100  1
