# generated using pymatgen
data_In2Sb4Pb4Se13
_symmetry_space_group_name_H-M   'P 1'
_cell_length_a   22.47335700
_cell_length_b   27.93144700
_cell_length_c   4.12952900
_cell_angle_alpha   90.00000000
_cell_angle_beta   90.00000000
_cell_angle_gamma   90.00000000
_symmetry_Int_Tables_number   1
_chemical_formula_structural   In2Sb4Pb4Se13
_chemical_formula_sum   'In8 Sb16 Pb16 Se52'
_cell_volume   2592.16060622
_cell_formula_units_Z   4
loop_
 _symmetry_equiv_pos_site_id
 _symmetry_equiv_pos_as_xyz
  1  'x, y, z'
loop_
 _atom_site_type_symbol
 _atom_site_label
 _atom_site_symmetry_multiplicity
 _atom_site_fract_x
 _atom_site_fract_y
 _atom_site_fract_z
 _atom_site_occupancy
  In  In0  1  0.00000000  0.50000000  0.00000000  1
  In  In1  1  0.50000000  0.00000000  0.00000000  1
  In  In2  1  0.50000000  0.50000000  0.00000000  1
  In  In3  1  0.00000000  0.00000000  0.00000000  1
  In  In4  1  0.22903000  0.34330500  0.00000000  1
  In  In5  1  0.77097000  0.65669500  0.00000000  1
  In  In6  1  0.72903000  0.15669500  0.00000000  1
  In  In7  1  0.27097000  0.84330500  0.00000000  1
  Sb  Sb8  1  0.38936800  0.41517400  0.50000000  1
  Sb  Sb9  1  0.61063200  0.58482600  0.50000000  1
  Sb  Sb10  1  0.88936800  0.08482600  0.50000000  1
  Sb  Sb11  1  0.11063200  0.91517400  0.50000000  1
  Sb  Sb12  1  0.15382900  0.48010300  0.50000000  1
  Sb  Sb13  1  0.84617100  0.51989700  0.50000000  1
  Sb  Sb14  1  0.65382900  0.01989700  0.50000000  1
  Sb  Sb15  1  0.34617100  0.98010300  0.50000000  1
  Sb  Sb16  1  0.14367500  0.60850800  0.00000000  1
  Sb  Sb17  1  0.85632500  0.39149200  0.00000000  1
  Sb  Sb18  1  0.64367500  0.89149200  0.00000000  1
  Sb  Sb19  1  0.35632500  0.10850800  0.00000000  1
  Sb  Sb20  1  0.52170200  0.34381100  0.00000000  1
  Sb  Sb21  1  0.47829800  0.65618900  0.00000000  1
  Sb  Sb22  1  0.02170200  0.15618900  0.00000000  1
  Sb  Sb23  1  0.97829800  0.84381100  0.00000000  1
  Pb  Pb24  1  0.12343100  0.75051500  0.50000000  1
  Pb  Pb25  1  0.87656900  0.24948500  0.50000000  1
  Pb  Pb26  1  0.62343100  0.74948500  0.50000000  1
  Pb  Pb27  1  0.37656900  0.25051500  0.50000000  1
  Pb  Pb28  1  0.68047900  0.42618900  0.50000000  1
  Pb  Pb29  1  0.31952100  0.57381100  0.50000000  1
  Pb  Pb30  1  0.18047900  0.07381100  0.50000000  1
  Pb  Pb31  1  0.81952100  0.92618900  0.50000000  1
  Pb  Pb32  1  0.66897400  0.27079500  0.50000000  1
  Pb  Pb33  1  0.33102600  0.72920500  0.50000000  1
  Pb  Pb34  1  0.16897400  0.22920500  0.50000000  1
  Pb  Pb35  1  0.83102600  0.77079500  0.50000000  1
  Pb  Pb36  1  0.96782400  0.65066600  0.50000000  1
  Pb  Pb37  1  0.03217600  0.34933400  0.50000000  1
  Pb  Pb38  1  0.46782400  0.84933400  0.50000000  1
  Pb  Pb39  1  0.53217600  0.15066600  0.50000000  1
  Se  Se40  1  0.52509200  0.27887000  0.50000000  1
  Se  Se41  1  0.47490800  0.72113000  0.50000000  1
  Se  Se42  1  0.02509200  0.22113000  0.50000000  1
  Se  Se43  1  0.97490800  0.77887000  0.50000000  1
  Se  Se44  1  0.24959700  0.40040800  0.50000000  1
  Se  Se45  1  0.75040300  0.59959200  0.50000000  1
  Se  Se46  1  0.74959700  0.09959200  0.50000000  1
  Se  Se47  1  0.25040300  0.90040800  0.50000000  1
  Se  Se48  1  0.06173200  0.68409400  0.00000000  1
  Se  Se49  1  0.93826800  0.31590600  0.00000000  1
  Se  Se50  1  0.56173200  0.81590600  0.00000000  1
  Se  Se51  1  0.43826800  0.18409400  0.00000000  1
  Se  Se52  1  0.38161800  0.48907300  0.00000000  1
  Se  Se53  1  0.61838200  0.51092700  0.00000000  1
  Se  Se54  1  0.88161800  0.01092700  0.00000000  1
  Se  Se55  1  0.11838200  0.98907300  0.00000000  1
  Se  Se56  1  0.08208500  0.43073500  0.00000000  1
  Se  Se57  1  0.91791500  0.56926500  0.00000000  1
  Se  Se58  1  0.58208500  0.06926500  0.00000000  1
  Se  Se59  1  0.41791500  0.93073500  0.00000000  1
  Se  Se60  1  0.06442000  0.55008100  0.50000000  1
  Se  Se61  1  0.93558000  0.44991900  0.50000000  1
  Se  Se62  1  0.56442000  0.94991900  0.50000000  1
  Se  Se63  1  0.43558000  0.05008100  0.50000000  1
  Se  Se64  1  0.64890100  0.35546200  0.00000000  1
  Se  Se65  1  0.35109900  0.64453800  0.00000000  1
  Se  Se66  1  0.14890100  0.14453800  0.00000000  1
  Se  Se67  1  0.85109900  0.85546200  0.00000000  1
  Se  Se68  1  0.87902900  0.69569900  0.00000000  1
  Se  Se69  1  0.12097100  0.30430100  0.00000000  1
  Se  Se70  1  0.37902900  0.80430100  0.00000000  1
  Se  Se71  1  0.62097100  0.19569900  0.00000000  1
  Se  Se72  1  0.51124900  0.42906000  0.50000000  1
  Se  Se73  1  0.48875100  0.57094000  0.50000000  1
  Se  Se74  1  0.01124900  0.07094000  0.50000000  1
  Se  Se75  1  0.98875100  0.92906000  0.50000000  1
  Se  Se76  1  0.22212800  0.52431400  0.00000000  1
  Se  Se77  1  0.77787200  0.47568600  0.00000000  1
  Se  Se78  1  0.72212800  0.97568600  0.00000000  1
  Se  Se79  1  0.27787200  0.02431400  0.00000000  1
  Se  Se80  1  0.39527700  0.34285600  0.00000000  1
  Se  Se81  1  0.60472300  0.65714400  0.00000000  1
  Se  Se82  1  0.89527700  0.15714400  0.00000000  1
  Se  Se83  1  0.10472300  0.84285600  0.00000000  1
  Se  Se84  1  0.20941300  0.64631900  0.50000000  1
  Se  Se85  1  0.79058700  0.35368100  0.50000000  1
  Se  Se86  1  0.70941300  0.85368100  0.50000000  1
  Se  Se87  1  0.29058700  0.14631900  0.50000000  1
  Se  Se88  1  0.22664300  0.75672200  0.00000000  1
  Se  Se89  1  0.77335700  0.24327800  0.00000000  1
  Se  Se90  1  0.72664300  0.74327800  0.00000000  1
  Se  Se91  1  0.27335700  0.25672200  0.00000000  1
