# generated using pymatgen
data_H6CIN3(OF)2
_symmetry_space_group_name_H-M   'P 1'
_cell_length_a   8.04430700
_cell_length_b   10.44959660
_cell_length_c   10.54768417
_cell_angle_alpha   73.97903625
_cell_angle_beta   70.51618247
_cell_angle_gamma   87.58804565
_symmetry_Int_Tables_number   1
_chemical_formula_structural   H6CIN3(OF)2
_chemical_formula_sum   'H24 C4 I4 N12 O8 F8'
_cell_volume   802.17644708
_cell_formula_units_Z   4
loop_
 _symmetry_equiv_pos_site_id
 _symmetry_equiv_pos_as_xyz
  1  'x, y, z'
loop_
 _atom_site_type_symbol
 _atom_site_label
 _atom_site_symmetry_multiplicity
 _atom_site_fract_x
 _atom_site_fract_y
 _atom_site_fract_z
 _atom_site_occupancy
  H  H0  1  0.28415200  0.97508300  0.68914700  1
  H  H1  1  0.71584800  0.02491700  0.31085300  1
  H  H2  1  0.28484200  0.95264000  0.53016700  1
  H  H3  1  0.71515800  0.04736000  0.46983300  1
  H  H4  1  0.20225700  0.24115300  0.50869500  1
  H  H5  1  0.79774300  0.75884700  0.49130500  1
  H  H6  1  0.19635200  0.17312700  0.37640900  1
  H  H7  1  0.80364800  0.82687300  0.62359100  1
  H  H8  1  0.27713000  0.78317700  0.87549300  1
  H  H9  1  0.72287000  0.21682300  0.12450700  1
  H  H10  1  0.28220100  0.62497200  0.84826000  1
  H  H11  1  0.71779900  0.37502800  0.15174000  1
  H  H12  1  0.32850800  0.74709600  0.48818100  1
  H  H13  1  0.67149200  0.25290400  0.51181900  1
  H  H14  1  0.16445300  0.48964700  0.14793500  1
  H  H15  1  0.83554700  0.51035300  0.85206500  1
  H  H16  1  0.21896900  0.46773900  0.47396100  1
  H  H17  1  0.78103100  0.53226100  0.52603900  1
  H  H18  1  0.19719000  0.32041300  0.15896200  1
  H  H19  1  0.80281000  0.67958700  0.84103800  1
  H  H20  1  0.22433300  0.57799900  0.31323400  1
  H  H21  1  0.77566700  0.42200100  0.68676600  1
  H  H22  1  0.30501200  0.60329700  0.62610500  1
  H  H23  1  0.69498800  0.39670300  0.37389500  1
  C  C24  1  0.30012600  0.78186500  0.67620500  1
  C  C25  1  0.69987400  0.21813500  0.32379500  1
  C  C26  1  0.20132400  0.37937000  0.32808900  1
  C  C27  1  0.79867600  0.62063000  0.67191100  1
  I  I28  1  0.81901100  0.69549400  0.19139300  1
  I  I29  1  0.18098900  0.30450600  0.80860700  1
  I  I30  1  0.31728100  0.97053000  0.19272400  1
  I  I31  1  0.68271900  0.02947000  0.80727600  1
  N  N32  1  0.29850200  0.91441600  0.62652500  1
  N  N33  1  0.70149800  0.08558400  0.37347500  1
  N  N34  1  0.29074200  0.72633100  0.80931300  1
  N  N35  1  0.70925800  0.27366900  0.19068700  1
  N  N36  1  0.31511000  0.70541700  0.59084900  1
  N  N37  1  0.68489000  0.29458300  0.40915100  1
  N  N38  1  0.19748600  0.39919700  0.19802100  1
  N  N39  1  0.80251400  0.60080300  0.80197900  1
  N  N40  1  0.20005300  0.25599700  0.40966400  1
  N  N41  1  0.79994700  0.74400300  0.59033600  1
  N  N42  1  0.20688700  0.48371700  0.37717700  1
  N  N43  1  0.79311300  0.51628300  0.62282300  1
  O  O44  1  0.73340200  0.57505300  0.35979400  1
  O  O45  1  0.26659800  0.42494700  0.64020600  1
  O  O46  1  0.05273800  0.67610100  0.13351700  1
  O  O47  1  0.94726200  0.32389900  0.86648300  1
  O  O48  1  0.22744400  0.99903700  0.36277600  1
  O  O49  1  0.77255600  0.00096300  0.63722400  1
  O  O50  1  0.54397700  0.03067100  0.12894000  1
  O  O51  1  0.45602300  0.96932900  0.87106000  1
  F  F52  1  0.76774600  0.55937600  0.10161000  1
  F  F53  1  0.23225400  0.44062400  0.89839000  1
  F  F54  1  0.84396400  0.83462400  0.28938900  1
  F  F55  1  0.15603600  0.16537600  0.71061100  1
  F  F56  1  0.23035200  0.15000000  0.10661500  1
  F  F57  1  0.76964800  0.85000000  0.89338500  1
  F  F58  1  0.37375900  0.78102700  0.28719700  1
  F  F59  1  0.62624100  0.21897300  0.71280300  1
