# generated using pymatgen
data_KTbS2O9
_symmetry_space_group_name_H-M   'P 1'
_cell_length_a   8.52321700
_cell_length_b   10.78118342
_cell_length_c   10.11715502
_cell_angle_alpha   59.08648837
_cell_angle_beta   90.00000000
_cell_angle_gamma   90.00000000
_symmetry_Int_Tables_number   1
_chemical_formula_structural   KTbS2O9
_chemical_formula_sum   'K4 Tb4 S8 O36'
_cell_volume   797.60379835
_cell_formula_units_Z   4
loop_
 _symmetry_equiv_pos_site_id
 _symmetry_equiv_pos_as_xyz
  1  'x, y, z'
loop_
 _atom_site_type_symbol
 _atom_site_label
 _atom_site_symmetry_multiplicity
 _atom_site_fract_x
 _atom_site_fract_y
 _atom_site_fract_z
 _atom_site_occupancy
  K  K0  1  0.82170600  0.69016200  0.53343500  1
  K  K1  1  0.32170600  0.80983800  0.96656500  1
  K  K2  1  0.17829400  0.30983800  0.46656500  1
  K  K3  1  0.67829400  0.19016200  0.03343500  1
  Tb  Tb4  1  0.36966200  0.52710300  0.72141600  1
  Tb  Tb5  1  0.86966200  0.97289700  0.77858400  1
  Tb  Tb6  1  0.63033800  0.47289700  0.27858400  1
  Tb  Tb7  1  0.13033800  0.02710300  0.22141600  1
  S  S8  1  0.13103700  0.18686600  0.87049200  1
  S  S9  1  0.63103700  0.31313400  0.62950800  1
  S  S10  1  0.86896300  0.81313400  0.12950800  1
  S  S11  1  0.36896300  0.68686600  0.37049200  1
  S  S12  1  0.19557700  0.88446500  0.60031600  1
  S  S13  1  0.69557700  0.61553500  0.89968400  1
  S  S14  1  0.80442300  0.11553500  0.39968400  1
  S  S15  1  0.30442300  0.38446500  0.10031600  1
  O  O16  1  0.20313900  0.32893800  0.76431800  1
  O  O17  1  0.70313900  0.17106200  0.73568200  1
  O  O18  1  0.79686100  0.67106200  0.23568200  1
  O  O19  1  0.29686100  0.82893800  0.26431800  1
  O  O20  1  0.25072300  0.08155500  0.97903000  1
  O  O21  1  0.75072300  0.41844500  0.52097000  1
  O  O22  1  0.74927700  0.91844500  0.02097000  1
  O  O23  1  0.24927700  0.58155500  0.47903000  1
  O  O24  1  0.56136900  0.36702800  0.72588100  1
  O  O25  1  0.06136900  0.13297200  0.77411900  1
  O  O26  1  0.43863100  0.63297200  0.27411900  1
  O  O27  1  0.93863100  0.86702800  0.22588100  1
  O  O28  1  0.00921300  0.19464100  0.97200900  1
  O  O29  1  0.50921300  0.30535800  0.52799100  1
  O  O30  1  0.99078700  0.80535800  0.02799100  1
  O  O31  1  0.49078700  0.69464200  0.47200900  1
  O  O32  1  0.40800900  0.36622900  0.99273400  1
  O  O33  1  0.90800900  0.13377100  0.50726600  1
  O  O34  1  0.59199100  0.63377100  0.00726600  1
  O  O35  1  0.09199100  0.86622900  0.49273400  1
  O  O36  1  0.60387900  0.60591000  0.78062900  1
  O  O37  1  0.10387900  0.89409000  0.71937100  1
  O  O38  1  0.39612100  0.39409000  0.21937100  1
  O  O39  1  0.89612100  0.10591000  0.28062900  1
  O  O40  1  0.78949200  0.48100400  0.98783800  1
  O  O41  1  0.28949200  0.01899600  0.51216200  1
  O  O42  1  0.21050800  0.51899600  0.01216200  1
  O  O43  1  0.71050800  0.98100400  0.48783800  1
  O  O44  1  0.30152300  0.75604800  0.68310100  1
  O  O45  1  0.80152300  0.74395200  0.81689900  1
  O  O46  1  0.69847700  0.24395200  0.31689900  1
  O  O47  1  0.19847700  0.25604800  0.18310100  1
  O  O48  1  0.11633300  0.56491700  0.77903700  1
  O  O49  1  0.61633300  0.93508300  0.72096300  1
  O  O50  1  0.88366700  0.43508300  0.22096300  1
  O  O51  1  0.38366700  0.06491700  0.27903700  1
