# generated using pymatgen
data_FeP2CO8
_symmetry_space_group_name_H-M   'P 1'
_cell_length_a   8.50993949
_cell_length_b   10.71580939
_cell_length_c   10.46847523
_cell_angle_alpha   69.46924090
_cell_angle_beta   74.60925808
_cell_angle_gamma   86.64158302
_symmetry_Int_Tables_number   1
_chemical_formula_structural   FeP2CO8
_chemical_formula_sum   'Fe4 P8 C4 O32'
_cell_volume   861.30583630
_cell_formula_units_Z   4
loop_
 _symmetry_equiv_pos_site_id
 _symmetry_equiv_pos_as_xyz
  1  'x, y, z'
loop_
 _atom_site_type_symbol
 _atom_site_label
 _atom_site_symmetry_multiplicity
 _atom_site_fract_x
 _atom_site_fract_y
 _atom_site_fract_z
 _atom_site_occupancy
  Fe  Fe0  1  0.20646000  0.39302500  0.10806600  1
  Fe  Fe1  1  0.79354000  0.60697500  0.89193400  1
  Fe  Fe2  1  0.18531300  0.89276400  0.11527600  1
  Fe  Fe3  1  0.81468700  0.10723600  0.88472400  1
  P  P4  1  0.97134100  0.23549400  0.30068600  1
  P  P5  1  0.02865900  0.76450600  0.69931400  1
  P  P6  1  0.11304500  0.18409800  0.00238800  1
  P  P7  1  0.88695500  0.81590200  0.99761200  1
  P  P8  1  0.59998600  0.33314900  0.97266300  1
  P  P9  1  0.40001400  0.66685100  0.02733700  1
  P  P10  1  0.59448500  0.28610000  0.68001300  1
  P  P11  1  0.40551500  0.71390000  0.31998700  1
  C  C12  1  0.01700500  0.11612400  0.19976300  1
  C  C13  1  0.98299500  0.88387600  0.80023700  1
  C  C14  1  0.41926500  0.58943900  0.21445000  1
  C  C15  1  0.58073500  0.41056100  0.78555000  1
  O  O16  1  0.55577400  0.65064200  0.92613600  1
  O  O17  1  0.44422600  0.34935800  0.07386400  1
  O  O18  1  0.19531400  0.32068700  0.95859000  1
  O  O19  1  0.80468600  0.67931300  0.04141000  1
  O  O20  1  0.51075100  0.99142800  0.72142700  1
  O  O21  1  0.48924900  0.00857200  0.27857300  1
  O  O22  1  0.23733800  0.07346400  0.99020300  1
  O  O23  1  0.76266200  0.92653600  0.00979700  1
  O  O24  1  0.98405100  0.18399500  0.92369500  1
  O  O25  1  0.01594900  0.81600500  0.07630500  1
  O  O26  1  0.02262700  0.99276300  0.25052100  1
  O  O27  1  0.97737300  0.00723700  0.74947900  1
  O  O28  1  0.59345300  0.52634800  0.71484500  1
  O  O29  1  0.40654700  0.47365200  0.28515500  1
  O  O30  1  0.63597300  0.18734600  0.98871600  1
  O  O31  1  0.36402700  0.81265400  0.01128400  1
  O  O32  1  0.25131400  0.58480800  0.03981300  1
  O  O33  1  0.74868600  0.41519200  0.96018700  1
  O  O34  1  0.84217500  0.18825000  0.43391400  1
  O  O35  1  0.15782500  0.81175000  0.56608600  1
  O  O36  1  0.26569900  0.80261300  0.28846100  1
  O  O37  1  0.73430100  0.19738700  0.71153900  1
  O  O38  1  0.15848000  0.24447100  0.29620900  1
  O  O39  1  0.84152000  0.75552900  0.70379100  1
  O  O40  1  0.96226900  0.37293100  0.18271800  1
  O  O41  1  0.03773100  0.62706900  0.81728200  1
  O  O42  1  0.48098600  0.68419200  0.43748300  1
  O  O43  1  0.51901400  0.31580800  0.56251700  1
  O  O44  1  0.44510400  0.06547300  0.36516800  1
  O  O45  1  0.55489600  0.93452700  0.63483200  1
  O  O46  1  0.80285400  0.63150900  0.40339300  1
  O  O47  1  0.19714600  0.36849100  0.59660700  1
