# generated using pymatgen
data_Cr2B3
_symmetry_space_group_name_H-M   'P 1'
_cell_length_a   9.20039994
_cell_length_b   9.20039994
_cell_length_c   2.95054600
_cell_angle_alpha   90.00000000
_cell_angle_beta   90.00000000
_cell_angle_gamma   161.64067559
_symmetry_Int_Tables_number   1
_chemical_formula_structural   Cr2B3
_chemical_formula_sum   'Cr4 B6'
_cell_volume   78.66695509
_cell_formula_units_Z   2
loop_
 _symmetry_equiv_pos_site_id
 _symmetry_equiv_pos_as_xyz
  1  'x, y, z'
loop_
 _atom_site_type_symbol
 _atom_site_label
 _atom_site_symmetry_multiplicity
 _atom_site_fract_x
 _atom_site_fract_y
 _atom_site_fract_z
 _atom_site_occupancy
  Cr  Cr0  1  0.42804900  0.57195100  0.75000000  1
  Cr  Cr1  1  0.57195100  0.42804900  0.25000000  1
  Cr  Cr2  1  0.70295800  0.29704200  0.75000000  1
  Cr  Cr3  1  0.29704200  0.70295800  0.25000000  1
  B  B4  1  0.02359200  0.97640800  0.75000000  1
  B  B5  1  0.97640800  0.02359200  0.25000000  1
  B  B6  1  0.11886500  0.88113500  0.75000000  1
  B  B7  1  0.88113500  0.11886500  0.25000000  1
  B  B8  1  0.82747000  0.17253000  0.75000000  1
  B  B9  1  0.17253000  0.82747000  0.25000000  1
