# generated using pymatgen
data_AlPO4
_symmetry_space_group_name_H-M   'P 1'
_cell_length_a   10.79009400
_cell_length_b   13.04850400
_cell_length_c   21.91516105
_cell_angle_alpha   88.53289288
_cell_angle_beta   90.00000000
_cell_angle_gamma   90.00000000
_symmetry_Int_Tables_number   1
_chemical_formula_structural   AlPO4
_chemical_formula_sum   'Al12 P12 O48'
_cell_volume   3084.52452376
_cell_formula_units_Z   12
loop_
 _symmetry_equiv_pos_site_id
 _symmetry_equiv_pos_as_xyz
  1  'x, y, z'
loop_
 _atom_site_type_symbol
 _atom_site_label
 _atom_site_symmetry_multiplicity
 _atom_site_fract_x
 _atom_site_fract_y
 _atom_site_fract_z
 _atom_site_occupancy
  Al  Al0  1  0.77590500  0.36865400  0.11176800  1
  Al  Al1  1  0.22409500  0.63134600  0.88823200  1
  Al  Al2  1  0.22409500  0.36865400  0.11176800  1
  Al  Al3  1  0.77590500  0.63134600  0.88823200  1
  Al  Al4  1  0.00000000  0.54809500  0.65789800  1
  Al  Al5  1  0.00000000  0.45190500  0.34210200  1
  Al  Al6  1  0.00000000  0.86636600  0.79990500  1
  Al  Al7  1  0.00000000  0.13363400  0.20009500  1
  Al  Al8  1  0.00000000  0.87328500  0.43468300  1
  Al  Al9  1  0.00000000  0.12671500  0.56531700  1
  Al  Al10  1  0.77620300  0.50000000  0.50000000  1
  Al  Al11  1  0.22379700  0.50000000  0.50000000  1
  P  P12  1  0.22224600  0.12856500  0.11033600  1
  P  P13  1  0.77775400  0.87143500  0.88966400  1
  P  P14  1  0.77775400  0.12856500  0.11033600  1
  P  P15  1  0.22224600  0.87143500  0.88966400  1
  P  P16  1  0.00000000  0.62721700  0.79365700  1
  P  P17  1  0.00000000  0.37278300  0.20634300  1
  P  P18  1  0.00000000  0.62674200  0.43288100  1
  P  P19  1  0.00000000  0.37325800  0.56711900  1
  P  P20  1  0.00000000  0.94267100  0.66022200  1
  P  P21  1  0.00000000  0.05732900  0.33977800  1
  P  P22  1  0.21798000  0.00000000  0.50000000  1
  P  P23  1  0.78202000  0.00000000  0.50000000  1
  O  O24  1  0.00000000  0.56041700  0.73459100  1
  O  O25  1  0.00000000  0.43958300  0.26540900  1
  O  O26  1  0.00000000  0.74081100  0.77071200  1
  O  O27  1  0.00000000  0.25918900  0.22928800  1
  O  O28  1  0.00000000  0.57746600  0.36878100  1
  O  O29  1  0.00000000  0.42253400  0.63121900  1
  O  O30  1  0.00000000  0.74381600  0.42229900  1
  O  O31  1  0.00000000  0.25618400  0.57770100  1
  O  O32  1  0.81012600  0.75754100  0.90625600  1
  O  O33  1  0.18987400  0.24245900  0.09374400  1
  O  O34  1  0.18987400  0.75754100  0.90625600  1
  O  O35  1  0.81012600  0.24245900  0.09374400  1
  O  O36  1  0.00000000  0.94536900  0.72894000  1
  O  O37  1  0.00000000  0.05463100  0.27106000  1
  O  O38  1  0.00000000  0.94537100  0.36512900  1
  O  O39  1  0.00000000  0.05462900  0.63487100  1
  O  O40  1  0.78622500  0.47161500  0.05747200  1
  O  O41  1  0.21377500  0.52838500  0.94252800  1
  O  O42  1  0.21377500  0.47161500  0.05747200  1
  O  O43  1  0.78622500  0.52838500  0.94252800  1
  O  O44  1  0.88194900  0.39982300  0.17182100  1
  O  O45  1  0.11805100  0.60017700  0.82817900  1
  O  O46  1  0.11805100  0.39982300  0.17182100  1
  O  O47  1  0.88194900  0.60017700  0.82817900  1
  O  O48  1  0.62688200  0.40495600  0.13655200  1
  O  O49  1  0.37311800  0.59504400  0.86344800  1
  O  O50  1  0.37311800  0.40495600  0.13655200  1
  O  O51  1  0.62688200  0.59504400  0.86344800  1
  O  O52  1  0.11822600  0.40494800  0.53195800  1
  O  O53  1  0.88177400  0.59505200  0.46804200  1
  O  O54  1  0.88177400  0.40494800  0.53195800  1
  O  O55  1  0.11822600  0.59505200  0.46804200  1
  O  O56  1  0.19729200  0.05695500  0.05785400  1
  O  O57  1  0.80270800  0.94304500  0.94214600  1
  O  O58  1  0.80270800  0.05695500  0.05785400  1
  O  O59  1  0.19729200  0.94304500  0.94214600  1
  O  O60  1  0.13878600  0.10112000  0.16756400  1
  O  O61  1  0.86121400  0.89888000  0.83243600  1
  O  O62  1  0.86121400  0.10112000  0.16756400  1
  O  O63  1  0.13878600  0.89888000  0.83243600  1
  O  O64  1  0.35873000  0.11069200  0.12493300  1
  O  O65  1  0.64127000  0.88930800  0.87506700  1
  O  O66  1  0.64127000  0.11069200  0.12493300  1
  O  O67  1  0.35873000  0.88930800  0.87506700  1
  O  O68  1  0.86579500  0.08652200  0.52519200  1
  O  O69  1  0.13420500  0.91347800  0.47480800  1
  O  O70  1  0.13420500  0.08652200  0.52519200  1
  O  O71  1  0.86579500  0.91347800  0.47480800  1
