# generated using pymatgen
data_Ti3O7
_symmetry_space_group_name_H-M   'P 1'
_cell_length_a   3.73691400
_cell_length_b   14.22978141
_cell_length_c   9.58181499
_cell_angle_alpha   90.99782360
_cell_angle_beta   90.00000000
_cell_angle_gamma   97.54507294
_symmetry_Int_Tables_number   1
_chemical_formula_structural   Ti3O7
_chemical_formula_sum   'Ti6 O14'
_cell_volume   505.02810266
_cell_formula_units_Z   2
loop_
 _symmetry_equiv_pos_site_id
 _symmetry_equiv_pos_as_xyz
  1  'x, y, z'
loop_
 _atom_site_type_symbol
 _atom_site_label
 _atom_site_symmetry_multiplicity
 _atom_site_fract_x
 _atom_site_fract_y
 _atom_site_fract_z
 _atom_site_occupancy
  Ti  Ti0  1  0.22595700  0.45191500  0.22620200  1
  Ti  Ti1  1  0.77404300  0.54808500  0.77379800  1
  Ti  Ti2  1  0.20789500  0.41578900  0.54212800  1
  Ti  Ti3  1  0.79210500  0.58421100  0.45787200  1
  Ti  Ti4  1  0.19122600  0.38245200  0.87341500  1
  Ti  Ti5  1  0.80877400  0.61754800  0.12658500  1
  O  O6  1  0.19153500  0.38306900  0.06538700  1
  O  O7  1  0.80846500  0.61693100  0.93461300  1
  O  O8  1  0.18189500  0.36378900  0.36911200  1
  O  O9  1  0.81810500  0.63621100  0.63088800  1
  O  O10  1  0.15673000  0.31346100  0.66268800  1
  O  O11  1  0.84327000  0.68653900  0.33731200  1
  O  O12  1  0.13100300  0.26200700  0.78770000  1
  O  O13  1  0.86899700  0.73799300  0.21230000  1
  O  O14  1  0.29181500  0.58363000  0.14057900  1
  O  O15  1  0.70818500  0.41637000  0.85942100  1
  O  O16  1  0.27248900  0.54497800  0.43922500  1
  O  O17  1  0.72751100  0.45502200  0.56077500  1
  O  O18  1  0.25351300  0.50702600  0.75316900  1
  O  O19  1  0.74648700  0.49297400  0.24683100  1
