# generated using pymatgen
data_C
_symmetry_space_group_name_H-M   'P 1'
_cell_length_a   8.96410805
_cell_length_b   8.96410805
_cell_length_c   8.96410805
_cell_angle_alpha   98.25144459
_cell_angle_beta   98.25144459
_cell_angle_gamma   135.47665874
_symmetry_Int_Tables_number   1
_chemical_formula_structural   C
_chemical_formula_sum   C20
_cell_volume   467.43609177
_cell_formula_units_Z   20
loop_
 _symmetry_equiv_pos_site_id
 _symmetry_equiv_pos_as_xyz
  1  'x, y, z'
loop_
 _atom_site_type_symbol
 _atom_site_label
 _atom_site_symmetry_multiplicity
 _atom_site_fract_x
 _atom_site_fract_y
 _atom_site_fract_z
 _atom_site_occupancy
  C  C0  1  0.17696700  0.17696700  0.35393500  1
  C  C1  1  0.82303300  0.82303300  0.64606500  1
  C  C2  1  0.82303300  0.17696700  0.00000000  1
  C  C3  1  0.17696700  0.82303300  0.00000000  1
  C  C4  1  0.05153000  0.19349200  0.24502200  1
  C  C5  1  0.94847000  0.80650800  0.75497800  1
  C  C6  1  0.94847000  0.19349200  0.14196300  1
  C  C7  1  0.05153000  0.80650800  0.85803700  1
  C  C8  1  0.80650800  0.05153000  0.85803700  1
  C  C9  1  0.19349200  0.94847000  0.14196300  1
  C  C10  1  0.19349200  0.05153000  0.24502200  1
  C  C11  1  0.80650800  0.94847000  0.75497800  1
  C  C12  1  0.05076400  0.05076400  0.45734000  1
  C  C13  1  0.59342400  0.59342400  0.54266000  1
  C  C14  1  0.59342400  0.05076400  0.00000000  1
  C  C15  1  0.05076400  0.59342400  0.00000000  1
  C  C16  1  0.94923600  0.94923600  0.54266000  1
  C  C17  1  0.40657600  0.40657600  0.45734000  1
  C  C18  1  0.40657600  0.94923600  0.00000000  1
  C  C19  1  0.94923600  0.40657600  0.00000000  1
