# generated using pymatgen
data_HfMg30BO32
_symmetry_space_group_name_H-M   'P 1'
_cell_length_a   8.60149200
_cell_length_b   8.60149200
_cell_length_c   8.58957300
_cell_angle_alpha   90.00000000
_cell_angle_beta   90.00000000
_cell_angle_gamma   90.00000000
_symmetry_Int_Tables_number   1
_chemical_formula_structural   HfMg30BO32
_chemical_formula_sum   'Hf1 Mg30 B1 O32'
_cell_volume   635.50526726
_cell_formula_units_Z   1
loop_
 _symmetry_equiv_pos_site_id
 _symmetry_equiv_pos_as_xyz
  1  'x, y, z'
loop_
 _atom_site_type_symbol
 _atom_site_label
 _atom_site_symmetry_multiplicity
 _atom_site_fract_x
 _atom_site_fract_y
 _atom_site_fract_z
 _atom_site_occupancy
  Hf  Hf0  1  0.50000000  0.50000000  0.00000000  1
  Mg  Mg1  1  0.50000000  0.00000000  0.00000000  1
  Mg  Mg2  1  0.00000000  0.50000000  0.00000000  1
  Mg  Mg3  1  0.00000000  0.00000000  0.50000000  1
  Mg  Mg4  1  0.50000000  0.00000000  0.50000000  1
  Mg  Mg5  1  0.00000000  0.50000000  0.50000000  1
  Mg  Mg6  1  0.50000000  0.50000000  0.50000000  1
  Mg  Mg7  1  0.23929900  0.23929900  0.00000000  1
  Mg  Mg8  1  0.76070100  0.23929900  0.00000000  1
  Mg  Mg9  1  0.23929900  0.76070100  0.00000000  1
  Mg  Mg10  1  0.76070100  0.76070100  0.00000000  1
  Mg  Mg11  1  0.24761400  0.24761400  0.50000000  1
  Mg  Mg12  1  0.75238600  0.24761400  0.50000000  1
  Mg  Mg13  1  0.24761400  0.75238600  0.50000000  1
  Mg  Mg14  1  0.75238600  0.75238600  0.50000000  1
  Mg  Mg15  1  0.24582500  0.00000000  0.24881800  1
  Mg  Mg16  1  0.75417500  0.00000000  0.24881800  1
  Mg  Mg17  1  0.24253300  0.50000000  0.25577900  1
  Mg  Mg18  1  0.75746700  0.50000000  0.25577900  1
  Mg  Mg19  1  0.24582500  0.00000000  0.75118200  1
  Mg  Mg20  1  0.75417500  0.00000000  0.75118200  1
  Mg  Mg21  1  0.24253300  0.50000000  0.74422100  1
  Mg  Mg22  1  0.75746700  0.50000000  0.74422100  1
  Mg  Mg23  1  0.00000000  0.24582500  0.24881800  1
  Mg  Mg24  1  0.50000000  0.24253300  0.25577900  1
  Mg  Mg25  1  0.00000000  0.75417500  0.24881800  1
  Mg  Mg26  1  0.50000000  0.75746700  0.25577900  1
  Mg  Mg27  1  0.00000000  0.24582500  0.75118200  1
  Mg  Mg28  1  0.50000000  0.24253300  0.74422100  1
  Mg  Mg29  1  0.00000000  0.75417500  0.75118200  1
  Mg  Mg30  1  0.50000000  0.75746700  0.74422100  1
  B  B31  1  0.00000000  0.00000000  0.00000000  1
  O  O32  1  0.00000000  0.00000000  0.26575800  1
  O  O33  1  0.50000000  0.00000000  0.25163800  1
  O  O34  1  0.00000000  0.50000000  0.25163800  1
  O  O35  1  0.50000000  0.50000000  0.24612100  1
  O  O36  1  0.00000000  0.00000000  0.73424200  1
  O  O37  1  0.50000000  0.00000000  0.74836200  1
  O  O38  1  0.00000000  0.50000000  0.74836200  1
  O  O39  1  0.50000000  0.50000000  0.75387900  1
  O  O40  1  0.25050300  0.25050300  0.24851600  1
  O  O41  1  0.74949700  0.25050300  0.24851600  1
  O  O42  1  0.25050300  0.74949700  0.24851600  1
  O  O43  1  0.74949700  0.74949700  0.24851600  1
  O  O44  1  0.25050300  0.25050300  0.75148400  1
  O  O45  1  0.74949700  0.25050300  0.75148400  1
  O  O46  1  0.25050300  0.74949700  0.75148400  1
  O  O47  1  0.74949700  0.74949700  0.75148400  1
  O  O48  1  0.26862100  0.00000000  0.00000000  1
  O  O49  1  0.73137900  0.00000000  0.00000000  1
  O  O50  1  0.25653400  0.50000000  0.00000000  1
  O  O51  1  0.74346600  0.50000000  0.00000000  1
  O  O52  1  0.25295100  0.00000000  0.50000000  1
  O  O53  1  0.74704900  0.00000000  0.50000000  1
  O  O54  1  0.25213700  0.50000000  0.50000000  1
  O  O55  1  0.74786300  0.50000000  0.50000000  1
  O  O56  1  0.00000000  0.26862100  0.00000000  1
  O  O57  1  0.50000000  0.25653400  0.00000000  1
  O  O58  1  0.00000000  0.73137900  0.00000000  1
  O  O59  1  0.50000000  0.74346600  0.00000000  1
  O  O60  1  0.00000000  0.25295100  0.50000000  1
  O  O61  1  0.50000000  0.25213700  0.50000000  1
  O  O62  1  0.00000000  0.74704900  0.50000000  1
  O  O63  1  0.50000000  0.74786300  0.50000000  1
