# generated using pymatgen
data_Rb3GdF6
_symmetry_space_group_name_H-M   'P 1'
_cell_length_a   7.07157272
_cell_length_b   7.07157272
_cell_length_c   7.07157272
_cell_angle_alpha   117.85608423
_cell_angle_beta   117.85608423
_cell_angle_gamma   93.75529891
_symmetry_Int_Tables_number   1
_chemical_formula_structural   Rb3GdF6
_chemical_formula_sum   'Rb3 Gd1 F6'
_cell_volume   257.55817556
_cell_formula_units_Z   1
loop_
 _symmetry_equiv_pos_site_id
 _symmetry_equiv_pos_as_xyz
  1  'x, y, z'
loop_
 _atom_site_type_symbol
 _atom_site_label
 _atom_site_symmetry_multiplicity
 _atom_site_fract_x
 _atom_site_fract_y
 _atom_site_fract_z
 _atom_site_occupancy
  Rb  Rb0  1  0.75000000  0.25000000  0.50000000  1
  Rb  Rb1  1  0.25000000  0.75000000  0.50000000  1
  Rb  Rb2  1  0.50000000  0.50000000  0.00000000  1
  Gd  Gd3  1  0.00000000  0.00000000  0.00000000  1
  F  F4  1  0.00000000  0.30407300  0.30407300  1
  F  F5  1  0.00000000  0.69592700  0.69592700  1
  F  F6  1  0.30407300  0.00000000  0.30407300  1
  F  F7  1  0.69592700  0.00000000  0.69592700  1
  F  F8  1  0.23356100  0.23356100  0.00000000  1
  F  F9  1  0.76643900  0.76643900  0.00000000  1
