# generated using pymatgen
data_Hf2Co7
_symmetry_space_group_name_H-M   'P 1'
_cell_length_a   4.75111132
_cell_length_b   4.75111132
_cell_length_c   12.06912537
_cell_angle_alpha   87.85060611
_cell_angle_beta   87.85060611
_cell_angle_gamma   121.66504605
_symmetry_Int_Tables_number   1
_chemical_formula_structural   Hf2Co7
_chemical_formula_sum   'Hf4 Co14'
_cell_volume   231.19215572
_cell_formula_units_Z   2
loop_
 _symmetry_equiv_pos_site_id
 _symmetry_equiv_pos_as_xyz
  1  'x, y, z'
loop_
 _atom_site_type_symbol
 _atom_site_label
 _atom_site_symmetry_multiplicity
 _atom_site_fract_x
 _atom_site_fract_y
 _atom_site_fract_z
 _atom_site_occupancy
  Hf  Hf0  1  0.26019700  0.26019700  0.11595700  1
  Hf  Hf1  1  0.73980300  0.73980300  0.88404300  1
  Hf  Hf2  1  0.21006200  0.21006200  0.38289500  1
  Hf  Hf3  1  0.78993800  0.78993800  0.61710500  1
  Co  Co4  1  0.76354600  0.26394300  0.75047400  1
  Co  Co5  1  0.26394300  0.76354600  0.75047400  1
  Co  Co6  1  0.23645400  0.73605700  0.24952600  1
  Co  Co7  1  0.73605700  0.23645400  0.24952600  1
  Co  Co8  1  0.06091800  0.39322600  0.92273900  1
  Co  Co9  1  0.39322600  0.06091800  0.92273900  1
  Co  Co10  1  0.93908200  0.60677400  0.07726100  1
  Co  Co11  1  0.60677400  0.93908200  0.07726100  1
  Co  Co12  1  0.13416800  0.46924400  0.57662100  1
  Co  Co13  1  0.46924400  0.13416800  0.57662100  1
  Co  Co14  1  0.86583200  0.53075600  0.42337900  1
  Co  Co15  1  0.53075600  0.86583200  0.42337900  1
  Co  Co16  1  0.26402700  0.26402700  0.74880400  1
  Co  Co17  1  0.73597300  0.73597300  0.25119600  1
