# generated using pymatgen
data_Ho2CoSi2
_symmetry_space_group_name_H-M   'P 1'
_cell_length_a   5.59149510
_cell_length_b   5.59149510
_cell_length_c   9.95688732
_cell_angle_alpha   63.21547561
_cell_angle_beta   63.21547561
_cell_angle_gamma   43.32318157
_symmetry_Int_Tables_number   1
_chemical_formula_structural   Ho2CoSi2
_chemical_formula_sum   'Ho4 Co2 Si4'
_cell_volume   186.79932137
_cell_formula_units_Z   2
loop_
 _symmetry_equiv_pos_site_id
 _symmetry_equiv_pos_as_xyz
  1  'x, y, z'
loop_
 _atom_site_type_symbol
 _atom_site_label
 _atom_site_symmetry_multiplicity
 _atom_site_fract_x
 _atom_site_fract_y
 _atom_site_fract_z
 _atom_site_occupancy
  Ho  Ho0  1  0.99840000  0.99840000  0.32923700  1
  Ho  Ho1  1  0.00160000  0.00160000  0.67076300  1
  Ho  Ho2  1  0.81344000  0.81344000  0.10768100  1
  Ho  Ho3  1  0.18656000  0.18656000  0.89231900  1
  Co  Co4  1  0.72696600  0.72696600  0.62447400  1
  Co  Co5  1  0.27303400  0.27303400  0.37552600  1
  Si  Si6  1  0.65066000  0.65066000  0.43406700  1
  Si  Si7  1  0.34934000  0.34934000  0.56593300  1
  Si  Si8  1  0.50678000  0.50678000  0.12546000  1
  Si  Si9  1  0.49322000  0.49322000  0.87454000  1
