# generated using pymatgen
data_Mo(SI)2
_symmetry_space_group_name_H-M   'P 1'
_cell_length_a   6.88703897
_cell_length_b   6.88703897
_cell_length_c   8.03917334
_cell_angle_alpha   76.78074965
_cell_angle_beta   76.78074965
_cell_angle_gamma   113.92076854
_symmetry_Int_Tables_number   1
_chemical_formula_structural   Mo(SI)2
_chemical_formula_sum   'Mo2 S4 I4'
_cell_volume   316.41647631
_cell_formula_units_Z   2
loop_
 _symmetry_equiv_pos_site_id
 _symmetry_equiv_pos_as_xyz
  1  'x, y, z'
loop_
 _atom_site_type_symbol
 _atom_site_label
 _atom_site_symmetry_multiplicity
 _atom_site_fract_x
 _atom_site_fract_y
 _atom_site_fract_z
 _atom_site_occupancy
  Mo  Mo0  1  0.87866300  0.12133700  0.00000000  1
  Mo  Mo1  1  0.12133700  0.87866300  0.00000000  1
  S  S2  1  0.87990500  0.87990500  0.27352500  1
  S  S3  1  0.12009500  0.12009500  0.72647500  1
  S  S4  1  0.71031300  0.71031300  0.13037700  1
  S  S5  1  0.28968700  0.28968700  0.86962300  1
  I  I6  1  0.44660700  0.04326300  0.22231900  1
  I  I7  1  0.55339300  0.95673700  0.77768100  1
  I  I8  1  0.95673700  0.55339300  0.77768100  1
  I  I9  1  0.04326300  0.44660700  0.22231900  1
