# generated using pymatgen
data_BaSr(CoO3)2
_symmetry_space_group_name_H-M   'P 1'
_cell_length_a   5.62814204
_cell_length_b   5.62814204
_cell_length_c   4.74422200
_cell_angle_alpha   90.00000000
_cell_angle_beta   90.00000000
_cell_angle_gamma   120.00000053
_symmetry_Int_Tables_number   1
_chemical_formula_structural   BaSr(CoO3)2
_chemical_formula_sum   'Ba1 Sr1 Co2 O6'
_cell_volume   130.14447387
_cell_formula_units_Z   1
loop_
 _symmetry_equiv_pos_site_id
 _symmetry_equiv_pos_as_xyz
  1  'x, y, z'
loop_
 _atom_site_type_symbol
 _atom_site_label
 _atom_site_symmetry_multiplicity
 _atom_site_fract_x
 _atom_site_fract_y
 _atom_site_fract_z
 _atom_site_occupancy
  Ba  Ba0  1  0.00000000  0.00000000  0.00000000  1
  Sr  Sr1  1  0.33333300  0.66666700  0.50000000  1
  Co  Co2  1  0.66666700  0.33333300  0.24960500  1
  Co  Co3  1  0.66666700  0.33333300  0.75039500  1
  O  O4  1  0.36505200  0.18252600  0.50000000  1
  O  O5  1  0.81747400  0.18252600  0.50000000  1
  O  O6  1  0.81747400  0.63494800  0.50000000  1
  O  O7  1  0.96950200  0.48475100  0.00000000  1
  O  O8  1  0.51524900  0.48475100  0.00000000  1
  O  O9  1  0.51524900  0.03049800  0.00000000  1
