# generated using pymatgen
data_Tm2Ge6Pd
_symmetry_space_group_name_H-M   'P 1'
_cell_length_a   4.02909100
_cell_length_b   4.06689300
_cell_length_c   11.11476611
_cell_angle_alpha   90.00000000
_cell_angle_beta   100.44254391
_cell_angle_gamma   90.00000000
_symmetry_Int_Tables_number   1
_chemical_formula_structural   Tm2Ge6Pd
_chemical_formula_sum   'Tm2 Ge6 Pd1'
_cell_volume   179.10873417
_cell_formula_units_Z   1
loop_
 _symmetry_equiv_pos_site_id
 _symmetry_equiv_pos_as_xyz
  1  'x, y, z'
loop_
 _atom_site_type_symbol
 _atom_site_label
 _atom_site_symmetry_multiplicity
 _atom_site_fract_x
 _atom_site_fract_y
 _atom_site_fract_z
 _atom_site_occupancy
  Tm  Tm0  1  0.77703300  0.50000000  0.55406600  1
  Tm  Tm1  1  0.11839500  0.50000000  0.23679000  1
  Ge  Ge2  1  0.49281000  0.50000000  0.98562000  1
  Ge  Ge3  1  0.37822400  0.50000000  0.75644900  1
  Ge  Ge4  1  0.99152400  0.00000000  0.98304800  1
  Ge  Ge5  1  0.87676000  0.00000000  0.75351900  1
  Ge  Ge6  1  0.67011200  0.00000000  0.34022400  1
  Ge  Ge7  1  0.24278000  0.00000000  0.48556000  1
  Pd  Pd8  1  0.55936200  0.00000000  0.11872400  1
