# generated using pymatgen
data_CeO3
_symmetry_space_group_name_H-M   'P 1'
_cell_length_a   6.06488433
_cell_length_b   6.06488433
_cell_length_c   3.64122000
_cell_angle_alpha   90.00000000
_cell_angle_beta   90.00000000
_cell_angle_gamma   120.00000364
_symmetry_Int_Tables_number   1
_chemical_formula_structural   CeO3
_chemical_formula_sum   'Ce2 O6'
_cell_volume   115.99054273
_cell_formula_units_Z   2
loop_
 _symmetry_equiv_pos_site_id
 _symmetry_equiv_pos_as_xyz
  1  'x, y, z'
loop_
 _atom_site_type_symbol
 _atom_site_label
 _atom_site_symmetry_multiplicity
 _atom_site_fract_x
 _atom_site_fract_y
 _atom_site_fract_z
 _atom_site_occupancy
  Ce  Ce0  1  0.33333300  0.66666700  0.75000000  1
  Ce  Ce1  1  0.66666700  0.33333300  0.25000000  1
  O  O2  1  0.91327400  0.58959600  0.75000000  1
  O  O3  1  0.08672600  0.41040400  0.25000000  1
  O  O4  1  0.67632100  0.08672600  0.75000000  1
  O  O5  1  0.32367900  0.91327400  0.25000000  1
  O  O6  1  0.41040400  0.32367900  0.75000000  1
  O  O7  1  0.58959600  0.67632100  0.25000000  1
