# generated using pymatgen
data_K5Bi4
_symmetry_space_group_name_H-M   'P 1'
_cell_length_a   7.00871844
_cell_length_b   7.00871844
_cell_length_c   11.72800738
_cell_angle_alpha   70.59382759
_cell_angle_beta   70.59382759
_cell_angle_gamma   47.74486620
_symmetry_Int_Tables_number   1
_chemical_formula_structural   K5Bi4
_chemical_formula_sum   'K5 Bi4'
_cell_volume   397.26501289
_cell_formula_units_Z   1
loop_
 _symmetry_equiv_pos_site_id
 _symmetry_equiv_pos_as_xyz
  1  'x, y, z'
loop_
 _atom_site_type_symbol
 _atom_site_label
 _atom_site_symmetry_multiplicity
 _atom_site_fract_x
 _atom_site_fract_y
 _atom_site_fract_z
 _atom_site_occupancy
  K  K0  1  0.90447700  0.90447700  0.38961700  1
  K  K1  1  0.09552300  0.09552300  0.61038300  1
  K  K2  1  0.24361300  0.24361300  0.16756400  1
  K  K3  1  0.75638700  0.75638700  0.83243600  1
  K  K4  1  0.00000000  0.00000000  0.00000000  1
  Bi  Bi5  1  0.60970300  0.60970300  0.39015700  1
  Bi  Bi6  1  0.39029700  0.39029700  0.60984300  1
  Bi  Bi7  1  0.54493400  0.54493400  0.16750300  1
  Bi  Bi8  1  0.45506600  0.45506600  0.83249700  1
