# generated using pymatgen
data_Nd2Ge6Pt
_symmetry_space_group_name_H-M   'P 1'
_cell_length_a   4.17292400
_cell_length_b   4.20159200
_cell_length_c   11.32288970
_cell_angle_alpha   90.00000000
_cell_angle_beta   100.61853935
_cell_angle_gamma   90.00000000
_symmetry_Int_Tables_number   1
_chemical_formula_structural   Nd2Ge6Pt
_chemical_formula_sum   'Nd2 Ge6 Pt1'
_cell_volume   195.12380706
_cell_formula_units_Z   1
loop_
 _symmetry_equiv_pos_site_id
 _symmetry_equiv_pos_as_xyz
  1  'x, y, z'
loop_
 _atom_site_type_symbol
 _atom_site_label
 _atom_site_symmetry_multiplicity
 _atom_site_fract_x
 _atom_site_fract_y
 _atom_site_fract_z
 _atom_site_occupancy
  Nd  Nd0  1  0.77977400  0.50000000  0.55954700  1
  Nd  Nd1  1  0.11463400  0.50000000  0.22926800  1
  Ge  Ge2  1  0.49497400  0.50000000  0.98994800  1
  Ge  Ge3  1  0.38309800  0.50000000  0.76619600  1
  Ge  Ge4  1  0.99397400  0.00000000  0.98794700  1
  Ge  Ge5  1  0.88172700  0.00000000  0.76345500  1
  Ge  Ge6  1  0.66720400  0.00000000  0.33440800  1
  Ge  Ge7  1  0.23441200  0.00000000  0.46882400  1
  Pt  Pt8  1  0.55720300  0.00000000  0.11440700  1
