# generated using pymatgen
data_Sr2(SbPt)3
_symmetry_space_group_name_H-M   'P 1'
_cell_length_a   5.88421900
_cell_length_b   5.88421900
_cell_length_c   21.63524800
_cell_angle_alpha   90.00000000
_cell_angle_beta   90.00000000
_cell_angle_gamma   90.00000000
_symmetry_Int_Tables_number   1
_chemical_formula_structural   Sr2(SbPt)3
_chemical_formula_sum   'Sr2 Sb3 Pt3'
_cell_volume   749.09954591
_cell_formula_units_Z   1
loop_
 _symmetry_equiv_pos_site_id
 _symmetry_equiv_pos_as_xyz
  1  'x, y, z'
loop_
 _atom_site_type_symbol
 _atom_site_label
 _atom_site_symmetry_multiplicity
 _atom_site_fract_x
 _atom_site_fract_y
 _atom_site_fract_z
 _atom_site_occupancy
  Sr  Sr0  1  0.50000000  0.50000000  0.75933200  1
  Sr  Sr1  1  0.50000000  0.50000000  0.24066800  1
  Sb  Sb2  1  0.50000000  0.50000000  0.38792700  1
  Sb  Sb3  1  0.50000000  0.50000000  0.61207300  1
  Sb  Sb4  1  0.50000000  0.50000000  0.00000000  1
  Pt  Pt5  1  0.50000000  0.50000000  0.11607600  1
  Pt  Pt6  1  0.50000000  0.50000000  0.88392400  1
  Pt  Pt7  1  0.50000000  0.50000000  0.50000000  1
