# generated using pymatgen
data_YbSeI
_symmetry_space_group_name_H-M   'P 1'
_cell_length_a   10.60985659
_cell_length_b   14.15648656
_cell_length_c   42.73519037
_cell_angle_alpha   90.00000000
_cell_angle_beta   90.00000000
_cell_angle_gamma   90.00000000
_symmetry_Int_Tables_number   1
_chemical_formula_structural   YbSeI
_chemical_formula_sum   'Yb2 Se2 I2'
_cell_volume   6418.75261126
_cell_formula_units_Z   2
loop_
 _symmetry_equiv_pos_site_id
 _symmetry_equiv_pos_as_xyz
  1  'x, y, z'
loop_
 _atom_site_type_symbol
 _atom_site_label
 _atom_site_symmetry_multiplicity
 _atom_site_fract_x
 _atom_site_fract_y
 _atom_site_fract_z
 _atom_site_occupancy
  Yb  Yb0  1  0.50000000  0.50000000  0.11459227  1
  Yb  Yb1  1  0.50000000  0.50000000  0.88540773  1
  Se  Se2  1  0.50000000  0.50000000  0.67047984  1
  Se  Se3  1  0.50000000  0.50000000  0.32952016  1
  I  I4  1  0.50000000  0.50000000  0.04901573  1
  I  I5  1  0.50000000  0.50000000  0.95098427  1
