# generated using pymatgen
data_BaMg30BiO32
_symmetry_space_group_name_H-M   'P 1'
_cell_length_a   8.74842000
_cell_length_b   8.74842000
_cell_length_c   8.91026800
_cell_angle_alpha   90.00000000
_cell_angle_beta   90.00000000
_cell_angle_gamma   90.00000000
_symmetry_Int_Tables_number   1
_chemical_formula_structural   BaMg30BiO32
_chemical_formula_sum   'Ba1 Mg30 Bi1 O32'
_cell_volume   681.94604708
_cell_formula_units_Z   1
loop_
 _symmetry_equiv_pos_site_id
 _symmetry_equiv_pos_as_xyz
  1  'x, y, z'
loop_
 _atom_site_type_symbol
 _atom_site_label
 _atom_site_symmetry_multiplicity
 _atom_site_fract_x
 _atom_site_fract_y
 _atom_site_fract_z
 _atom_site_occupancy
  Ba  Ba0  1  0.00000000  0.00000000  0.00000000  1
  Mg  Mg1  1  0.00000000  0.50000000  0.00000000  1
  Mg  Mg2  1  0.00000000  0.50000000  0.50000000  1
  Mg  Mg3  1  0.50000000  0.00000000  0.00000000  1
  Mg  Mg4  1  0.50000000  0.00000000  0.50000000  1
  Mg  Mg5  1  0.50000000  0.50000000  0.00000000  1
  Mg  Mg6  1  0.50000000  0.50000000  0.50000000  1
  Mg  Mg7  1  0.00000000  0.26510000  0.24936200  1
  Mg  Mg8  1  0.00000000  0.26510000  0.75063800  1
  Mg  Mg9  1  0.00000000  0.73490000  0.24936200  1
  Mg  Mg10  1  0.00000000  0.73490000  0.75063800  1
  Mg  Mg11  1  0.50000000  0.25271100  0.24975800  1
  Mg  Mg12  1  0.50000000  0.25271100  0.75024200  1
  Mg  Mg13  1  0.50000000  0.74728900  0.24975800  1
  Mg  Mg14  1  0.50000000  0.74728900  0.75024200  1
  Mg  Mg15  1  0.26510000  0.00000000  0.24936200  1
  Mg  Mg16  1  0.26510000  0.00000000  0.75063800  1
  Mg  Mg17  1  0.25271100  0.50000000  0.24975800  1
  Mg  Mg18  1  0.25271100  0.50000000  0.75024200  1
  Mg  Mg19  1  0.73490000  0.00000000  0.24936200  1
  Mg  Mg20  1  0.73490000  0.00000000  0.75063800  1
  Mg  Mg21  1  0.74728900  0.50000000  0.24975800  1
  Mg  Mg22  1  0.74728900  0.50000000  0.75024200  1
  Mg  Mg23  1  0.25886200  0.25886200  0.00000000  1
  Mg  Mg24  1  0.25810600  0.25810600  0.50000000  1
  Mg  Mg25  1  0.25886200  0.74113800  0.00000000  1
  Mg  Mg26  1  0.25810600  0.74189400  0.50000000  1
  Mg  Mg27  1  0.74113800  0.25886200  0.00000000  1
  Mg  Mg28  1  0.74189400  0.25810600  0.50000000  1
  Mg  Mg29  1  0.74113800  0.74113800  0.00000000  1
  Mg  Mg30  1  0.74189400  0.74189400  0.50000000  1
  Bi  Bi31  1  0.00000000  0.00000000  0.50000000  1
  O  O32  1  0.28004100  0.00000000  0.00000000  1
  O  O33  1  0.26897800  0.00000000  0.50000000  1
  O  O34  1  0.25645100  0.50000000  0.00000000  1
  O  O35  1  0.25389200  0.50000000  0.50000000  1
  O  O36  1  0.71995900  0.00000000  0.00000000  1
  O  O37  1  0.73102200  0.00000000  0.50000000  1
  O  O38  1  0.74354900  0.50000000  0.00000000  1
  O  O39  1  0.74610800  0.50000000  0.50000000  1
  O  O40  1  0.24924800  0.24924800  0.25041700  1
  O  O41  1  0.24924800  0.24924800  0.74958300  1
  O  O42  1  0.24924800  0.75075200  0.25041700  1
  O  O43  1  0.24924800  0.75075200  0.74958300  1
  O  O44  1  0.75075200  0.24924800  0.25041700  1
  O  O45  1  0.75075200  0.24924800  0.74958300  1
  O  O46  1  0.75075200  0.75075200  0.25041700  1
  O  O47  1  0.75075200  0.75075200  0.74958300  1
  O  O48  1  0.00000000  0.00000000  0.25832400  1
  O  O49  1  0.00000000  0.00000000  0.74167600  1
  O  O50  1  0.00000000  0.50000000  0.25420600  1
  O  O51  1  0.00000000  0.50000000  0.74579400  1
  O  O52  1  0.50000000  0.00000000  0.25420600  1
  O  O53  1  0.50000000  0.00000000  0.74579400  1
  O  O54  1  0.50000000  0.50000000  0.25147400  1
  O  O55  1  0.50000000  0.50000000  0.74852600  1
  O  O56  1  0.00000000  0.28004100  0.00000000  1
  O  O57  1  0.00000000  0.26897800  0.50000000  1
  O  O58  1  0.00000000  0.71995900  0.00000000  1
  O  O59  1  0.00000000  0.73102200  0.50000000  1
  O  O60  1  0.50000000  0.25645100  0.00000000  1
  O  O61  1  0.50000000  0.25389200  0.50000000  1
  O  O62  1  0.50000000  0.74354900  0.00000000  1
  O  O63  1  0.50000000  0.74610800  0.50000000  1
