# generated using pymatgen
data_Zr6Te2Ru
_symmetry_space_group_name_H-M   'P 1'
_cell_length_a   3.64968200
_cell_length_b   7.89975927
_cell_length_c   7.89975927
_cell_angle_alpha   119.99999388
_cell_angle_beta   90.00000000
_cell_angle_gamma   90.00000000
_symmetry_Int_Tables_number   1
_chemical_formula_structural   Zr6Te2Ru
_chemical_formula_sum   'Zr6 Te2 Ru1'
_cell_volume   197.24835884
_cell_formula_units_Z   1
loop_
 _symmetry_equiv_pos_site_id
 _symmetry_equiv_pos_as_xyz
  1  'x, y, z'
loop_
 _atom_site_type_symbol
 _atom_site_label
 _atom_site_symmetry_multiplicity
 _atom_site_fract_x
 _atom_site_fract_y
 _atom_site_fract_z
 _atom_site_occupancy
  Zr  Zr0  1  0.50000000  0.75203100  0.75203100  1
  Zr  Zr1  1  0.50000000  0.00000000  0.24796900  1
  Zr  Zr2  1  0.50000000  0.24796900  0.00000000  1
  Zr  Zr3  1  0.00000000  0.40497900  0.40497900  1
  Zr  Zr4  1  0.00000000  0.00000000  0.59502100  1
  Zr  Zr5  1  0.00000000  0.59502100  0.00000000  1
  Te  Te6  1  0.50000000  0.66666700  0.33333300  1
  Te  Te7  1  0.50000000  0.33333300  0.66666700  1
  Ru  Ru8  1  0.00000000  0.00000000  0.00000000  1
