# generated using pymatgen
data_Ce3(NiGe)4
_symmetry_space_group_name_H-M   'P 1'
_cell_length_a   12.33776820
_cell_length_b   12.33776820
_cell_length_c   12.33776820
_cell_angle_alpha   160.97208836
_cell_angle_beta   160.51929932
_cell_angle_gamma   27.36283111
_symmetry_Int_Tables_number   1
_chemical_formula_structural   Ce3(NiGe)4
_chemical_formula_sum   'Ce3 Ni4 Ge4'
_cell_volume   204.11166576
_cell_formula_units_Z   1
loop_
 _symmetry_equiv_pos_site_id
 _symmetry_equiv_pos_as_xyz
  1  'x, y, z'
loop_
 _atom_site_type_symbol
 _atom_site_label
 _atom_site_symmetry_multiplicity
 _atom_site_fract_x
 _atom_site_fract_y
 _atom_site_fract_z
 _atom_site_occupancy
  Ce  Ce0  1  0.34919100  0.84919100  0.50000000  1
  Ce  Ce1  1  0.65080900  0.15080900  0.50000000  1
  Ce  Ce2  1  0.00000000  0.00000000  0.00000000  1
  Ni  Ni3  1  0.09670200  0.59670200  0.50000000  1
  Ni  Ni4  1  0.90329800  0.40329800  0.50000000  1
  Ni  Ni5  1  0.24960700  0.24960700  0.00000000  1
  Ni  Ni6  1  0.75039300  0.75039300  0.00000000  1
  Ge  Ge7  1  0.19743700  0.69743700  0.50000000  1
  Ge  Ge8  1  0.80256300  0.30256300  0.50000000  1
  Ge  Ge9  1  0.44698900  0.44698900  0.00000000  1
  Ge  Ge10  1  0.55301100  0.55301100  0.00000000  1
