# generated using pymatgen
data_MgCd
_symmetry_space_group_name_H-M   'P 1'
_cell_length_a   5.94058303
_cell_length_b   5.94058303
_cell_length_c   5.30769255
_cell_angle_alpha   65.26572484
_cell_angle_beta   65.26572484
_cell_angle_gamma   31.40458015
_symmetry_Int_Tables_number   1
_chemical_formula_structural   MgCd
_chemical_formula_sum   'Mg2 Cd2'
_cell_volume   87.90280685
_cell_formula_units_Z   2
loop_
 _symmetry_equiv_pos_site_id
 _symmetry_equiv_pos_as_xyz
  1  'x, y, z'
loop_
 _atom_site_type_symbol
 _atom_site_label
 _atom_site_symmetry_multiplicity
 _atom_site_fract_x
 _atom_site_fract_y
 _atom_site_fract_z
 _atom_site_occupancy
  Mg  Mg0  1  0.87599800  0.87599800  0.79304100  1
  Mg  Mg1  1  0.12400200  0.12400200  0.20695900  1
  Cd  Cd2  1  0.62444500  0.62444500  0.71143200  1
  Cd  Cd3  1  0.37555500  0.37555500  0.28856800  1
