# generated using pymatgen
data_CdCl6
_symmetry_space_group_name_H-M   'P 1'
_cell_length_a   9.76430152
_cell_length_b   9.76430152
_cell_length_c   45.65197100
_cell_angle_alpha   90.00000000
_cell_angle_beta   90.00000000
_cell_angle_gamma   115.52981861
_symmetry_Int_Tables_number   1
_chemical_formula_structural   CdCl6
_chemical_formula_sum   'Cd1 Cl6'
_cell_volume   3927.55491692
_cell_formula_units_Z   1
loop_
 _symmetry_equiv_pos_site_id
 _symmetry_equiv_pos_as_xyz
  1  'x, y, z'
loop_
 _atom_site_type_symbol
 _atom_site_label
 _atom_site_symmetry_multiplicity
 _atom_site_fract_x
 _atom_site_fract_y
 _atom_site_fract_z
 _atom_site_occupancy
  Cd  Cd0  1  0.00000000  0.00000000  0.00000000  1
  Cl  Cl1  1  0.00000000  0.00000000  0.24998700  1
  Cl  Cl2  1  0.00000000  0.00000000  0.75001300  1
  Cl  Cl3  1  0.25621700  0.00989800  0.00000000  1
  Cl  Cl4  1  0.74378400  0.99010200  0.00000000  1
  Cl  Cl5  1  0.00989800  0.25621600  0.00000000  1
  Cl  Cl6  1  0.99010200  0.74378400  0.00000000  1
