data_image0
_chemical_formula_structural       Ni2P2Zr4
_chemical_formula_sum              "Ni2 P2 Zr4"
_cell_length_a       5.26654
_cell_length_b       3.65234
_cell_length_c       7.47401
_cell_angle_alpha    90
_cell_angle_beta     110.716
_cell_angle_gamma    90

_space_group_name_H-M_alt    "P 1"
_space_group_IT_number       1

loop_
  _space_group_symop_operation_xyz
  'x, y, z'

loop_
  _atom_site_type_symbol
  _atom_site_label
  _atom_site_symmetry_multiplicity
  _atom_site_fract_x
  _atom_site_fract_y
  _atom_site_fract_z
  _atom_site_occupancy
  Ni  Ni1       1.0  0.64200  0.75000  0.29000  1.0000
  Ni  Ni2       1.0  0.35800  0.25000  0.71000  1.0000
  P   P1        1.0  0.35400  0.25000  0.21100  1.0000
  P   P2        1.0  0.64600  0.75000  0.78900  1.0000
  Zr  Zr1       1.0  0.79300  0.25000  0.07590  1.0000
  Zr  Zr2       1.0  0.21000  0.75000  0.43000  1.0000
  Zr  Zr3       1.0  0.79000  0.25000  0.57000  1.0000
  Zr  Zr4       1.0  0.20700  0.75000  0.92400  1.0000
