# generated using pymatgen
data_CaMg5
_symmetry_space_group_name_H-M   'P 1'
_cell_length_a   6.56530392
_cell_length_b   6.56530392
_cell_length_c   7.57987044
_cell_angle_alpha   76.20923055
_cell_angle_beta   76.20923055
_cell_angle_gamma   29.17220755
_symmetry_Int_Tables_number   1
_chemical_formula_structural   CaMg5
_chemical_formula_sum   'Ca1 Mg5'
_cell_volume   154.34692375
_cell_formula_units_Z   1
loop_
 _symmetry_equiv_pos_site_id
 _symmetry_equiv_pos_as_xyz
  1  'x, y, z'
loop_
 _atom_site_type_symbol
 _atom_site_label
 _atom_site_symmetry_multiplicity
 _atom_site_fract_x
 _atom_site_fract_y
 _atom_site_fract_z
 _atom_site_occupancy
  Ca  Ca0  1  0.61334000  0.61334000  0.27230200  1
  Mg  Mg1  1  0.99243400  0.99243400  0.99093200  1
  Mg  Mg2  1  0.33802800  0.33802800  0.33807800  1
  Mg  Mg3  1  0.93682600  0.93682600  0.61890900  1
  Mg  Mg4  1  0.66671100  0.66671100  0.67793800  1
  Mg  Mg5  1  0.28599400  0.28599400  0.93517400  1
