# generated using pymatgen
data_GdBrO2
_symmetry_space_group_name_H-M   'P 1'
_cell_length_a   3.83251800
_cell_length_b   6.06399500
_cell_length_c   6.93098749
_cell_angle_alpha   64.59293544
_cell_angle_beta   90.00000000
_cell_angle_gamma   90.00000000
_symmetry_Int_Tables_number   1
_chemical_formula_structural   GdBrO2
_chemical_formula_sum   'Gd2 Br2 O4'
_cell_volume   145.49956673
_cell_formula_units_Z   2
loop_
 _symmetry_equiv_pos_site_id
 _symmetry_equiv_pos_as_xyz
  1  'x, y, z'
loop_
 _atom_site_type_symbol
 _atom_site_label
 _atom_site_symmetry_multiplicity
 _atom_site_fract_x
 _atom_site_fract_y
 _atom_site_fract_z
 _atom_site_occupancy
  Gd  Gd0  1  0.25000000  0.20389400  0.59698100  1
  Gd  Gd1  1  0.75000000  0.79610600  0.40301900  1
  Br  Br2  1  0.25000000  0.74341700  0.04109700  1
  Br  Br3  1  0.75000000  0.25658300  0.95890300  1
  O  O4  1  0.25000000  0.59772900  0.57682700  1
  O  O5  1  0.75000000  0.40227100  0.42317300  1
  O  O6  1  0.25000000  0.03925200  0.35203100  1
  O  O7  1  0.75000000  0.96074800  0.64796900  1
