# generated using pymatgen
data_LuSeI
_symmetry_space_group_name_H-M   'P 1'
_cell_length_a   10.25072800
_cell_length_b   13.77649200
_cell_length_c   42.13993400
_cell_angle_alpha   90.00000000
_cell_angle_beta   90.00000000
_cell_angle_gamma   90.00000000
_symmetry_Int_Tables_number   1
_chemical_formula_structural   LuSeI
_chemical_formula_sum   'Lu2 Se2 I2'
_cell_volume   5950.96238568
_cell_formula_units_Z   2
loop_
 _symmetry_equiv_pos_site_id
 _symmetry_equiv_pos_as_xyz
  1  'x, y, z'
loop_
 _atom_site_type_symbol
 _atom_site_label
 _atom_site_symmetry_multiplicity
 _atom_site_fract_x
 _atom_site_fract_y
 _atom_site_fract_z
 _atom_site_occupancy
  Lu  Lu0  1  0.50000000  0.50000000  0.11447000  1
  Lu  Lu1  1  0.50000000  0.50000000  0.88553000  1
  Se  Se2  1  0.50000000  0.50000000  0.67039700  1
  Se  Se3  1  0.50000000  0.50000000  0.32960300  1
  I  I4  1  0.50000000  0.50000000  0.04913900  1
  I  I5  1  0.50000000  0.50000000  0.95086100  1
