# generated using pymatgen
data_Ho2Ge6Pt
_symmetry_space_group_name_H-M   'P 1'
_cell_length_a   4.07220300
_cell_length_b   4.09328900
_cell_length_c   11.18657023
_cell_angle_alpha   90.00000000
_cell_angle_beta   100.48703750
_cell_angle_gamma   90.00000000
_symmetry_Int_Tables_number   1
_chemical_formula_structural   Ho2Ge6Pt
_chemical_formula_sum   'Ho2 Ge6 Pt1'
_cell_volume   183.35092395
_cell_formula_units_Z   1
loop_
 _symmetry_equiv_pos_site_id
 _symmetry_equiv_pos_as_xyz
  1  'x, y, z'
loop_
 _atom_site_type_symbol
 _atom_site_label
 _atom_site_symmetry_multiplicity
 _atom_site_fract_x
 _atom_site_fract_y
 _atom_site_fract_z
 _atom_site_occupancy
  Ho  Ho0  1  0.77811500  0.50000000  0.55622900  1
  Ho  Ho1  1  0.11684900  0.50000000  0.23369800  1
  Ge  Ge2  1  0.49311400  0.50000000  0.98622700  1
  Ge  Ge3  1  0.37920100  0.50000000  0.75840200  1
  Ge  Ge4  1  0.99224400  0.00000000  0.98448900  1
  Ge  Ge5  1  0.87805000  0.00000000  0.75609900  1
  Ge  Ge6  1  0.66990600  0.00000000  0.33981200  1
  Ge  Ge7  1  0.23998200  0.00000000  0.47996500  1
  Pt  Pt8  1  0.55953900  0.00000000  0.11907800  1
