# generated using pymatgen
data_PrCo5H4
_symmetry_space_group_name_H-M   'P 1'
_cell_length_a   5.19640492
_cell_length_b   5.19640492
_cell_length_c   4.03948200
_cell_angle_alpha   90.00000000
_cell_angle_beta   90.00000000
_cell_angle_gamma   116.47802374
_symmetry_Int_Tables_number   1
_chemical_formula_structural   PrCo5H4
_chemical_formula_sum   'Pr1 Co5 H4'
_cell_volume   97.63507039
_cell_formula_units_Z   1
loop_
 _symmetry_equiv_pos_site_id
 _symmetry_equiv_pos_as_xyz
  1  'x, y, z'
loop_
 _atom_site_type_symbol
 _atom_site_label
 _atom_site_symmetry_multiplicity
 _atom_site_fract_x
 _atom_site_fract_y
 _atom_site_fract_z
 _atom_site_occupancy
  Pr  Pr0  1  0.50000000  0.50000000  0.50000000  1
  Co  Co1  1  0.86460800  0.13539200  0.50000000  1
  Co  Co2  1  0.13539200  0.86460800  0.50000000  1
  Co  Co3  1  0.00000000  0.50000000  0.00000000  1
  Co  Co4  1  0.50000000  0.00000000  0.00000000  1
  Co  Co5  1  0.00000000  0.00000000  0.00000000  1
  H  H6  1  0.64456100  0.35543900  0.00000000  1
  H  H7  1  0.35543900  0.64456100  0.00000000  1
  H  H8  1  0.00000000  0.50000000  0.50000000  1
  H  H9  1  0.50000000  0.00000000  0.50000000  1
