# generated using pymatgen
data_HoSeI
_symmetry_space_group_name_H-M   'P 1'
_cell_length_a   10.56005424
_cell_length_b   14.25597984
_cell_length_c   42.05296222
_cell_angle_alpha   90.00000000
_cell_angle_beta   90.00000000
_cell_angle_gamma   90.00000000
_symmetry_Int_Tables_number   1
_chemical_formula_structural   HoSeI
_chemical_formula_sum   'Ho2 Se2 I2'
_cell_volume   6330.81779513
_cell_formula_units_Z   2
loop_
 _symmetry_equiv_pos_site_id
 _symmetry_equiv_pos_as_xyz
  1  'x, y, z'
loop_
 _atom_site_type_symbol
 _atom_site_label
 _atom_site_symmetry_multiplicity
 _atom_site_fract_x
 _atom_site_fract_y
 _atom_site_fract_z
 _atom_site_occupancy
  Ho  Ho0  1  0.50000000  0.50000000  0.11455653  1
  Ho  Ho1  1  0.50000000  0.50000000  0.88544347  1
  Se  Se2  1  0.50000000  0.50000000  0.67039498  1
  Se  Se3  1  0.50000000  0.50000000  0.32960502  1
  I  I4  1  0.50000000  0.50000000  0.04918217  1
  I  I5  1  0.50000000  0.50000000  0.95081783  1
