# generated using pymatgen
data_U2I2O
_symmetry_space_group_name_H-M   'P 1'
_cell_length_a   3.83628600
_cell_length_b   3.83628600
_cell_length_c   13.74906900
_cell_angle_alpha   90.00000000
_cell_angle_beta   90.00000000
_cell_angle_gamma   90.00000000
_symmetry_Int_Tables_number   1
_chemical_formula_structural   U2I2O
_chemical_formula_sum   'U2 I2 O1'
_cell_volume   202.34628965
_cell_formula_units_Z   1
loop_
 _symmetry_equiv_pos_site_id
 _symmetry_equiv_pos_as_xyz
  1  'x, y, z'
loop_
 _atom_site_type_symbol
 _atom_site_label
 _atom_site_symmetry_multiplicity
 _atom_site_fract_x
 _atom_site_fract_y
 _atom_site_fract_z
 _atom_site_occupancy
  U  U0  1  0.50000000  0.50000000  0.14985700  1
  U  U1  1  0.50000000  0.50000000  0.85014300  1
  I  I2  1  0.50000000  0.50000000  0.64030400  1
  I  I3  1  0.50000000  0.50000000  0.35969600  1
  O  O4  1  0.50000000  0.50000000  0.00000000  1
