# generated using pymatgen
data_Yb2Br2O
_symmetry_space_group_name_H-M   'P 1'
_cell_length_a   6.34308000
_cell_length_b   6.34308000
_cell_length_c   13.54252500
_cell_angle_alpha   90.00000000
_cell_angle_beta   90.00000000
_cell_angle_gamma   90.00000000
_symmetry_Int_Tables_number   1
_chemical_formula_structural   Yb2Br2O
_chemical_formula_sum   'Yb2 Br2 O1'
_cell_volume   544.87894155
_cell_formula_units_Z   1
loop_
 _symmetry_equiv_pos_site_id
 _symmetry_equiv_pos_as_xyz
  1  'x, y, z'
loop_
 _atom_site_type_symbol
 _atom_site_label
 _atom_site_symmetry_multiplicity
 _atom_site_fract_x
 _atom_site_fract_y
 _atom_site_fract_z
 _atom_site_occupancy
  Yb  Yb0  1  0.50000000  0.50000000  0.15219900  1
  Yb  Yb1  1  0.50000000  0.50000000  0.84780100  1
  Br  Br2  1  0.50000000  0.50000000  0.65161400  1
  Br  Br3  1  0.50000000  0.50000000  0.34838600  1
  O  O4  1  0.50000000  0.50000000  0.00000000  1
