# generated using pymatgen
data_Na(SmSe2)3
_symmetry_space_group_name_H-M   'P 1'
_cell_length_a   13.01944565
_cell_length_b   11.03925108
_cell_length_c   54.22544006
_cell_angle_alpha   90.00000000
_cell_angle_beta   90.00000000
_cell_angle_gamma   126.13492742
_symmetry_Int_Tables_number   1
_chemical_formula_structural   Na(SmSe2)3
_chemical_formula_sum   'Na1 Sm3 Se6'
_cell_volume   6294.30717638
_cell_formula_units_Z   1
loop_
 _symmetry_equiv_pos_site_id
 _symmetry_equiv_pos_as_xyz
  1  'x, y, z'
loop_
 _atom_site_type_symbol
 _atom_site_label
 _atom_site_symmetry_multiplicity
 _atom_site_fract_x
 _atom_site_fract_y
 _atom_site_fract_z
 _atom_site_occupancy
  Na  Na0  1  0.00000000  0.00000000  0.00000000  1
  Sm  Sm1  1  0.00000000  0.00000000  0.50000000  1
  Sm  Sm2  1  0.50000000  0.50000000  0.00000000  1
  Sm  Sm3  1  0.00000000  0.50000000  0.00000000  1
  Se  Se4  1  0.00000000  0.00000000  0.76898574  1
  Se  Se5  1  0.00000000  0.00000000  0.23101426  1
  Se  Se6  1  0.74127673  0.72449995  0.00000000  1
  Se  Se7  1  0.25872327  0.27550005  0.00000000  1
  Se  Se8  1  0.01677677  0.27550005  0.00000000  1
  Se  Se9  1  0.98322323  0.72449995  0.00000000  1
