# generated using pymatgen
data_Zr3ZnF6
_symmetry_space_group_name_H-M   'P 1'
_cell_length_a   6.14763932
_cell_length_b   5.63268664
_cell_length_c   16.07112298
_cell_angle_alpha   115.60732590
_cell_angle_beta   43.42650242
_cell_angle_gamma   123.10218374
_symmetry_Int_Tables_number   1
_chemical_formula_structural   Zr3ZnF6
_chemical_formula_sum   'Zr3 Zn1 F6'
_cell_volume   319.85417536
_cell_formula_units_Z   1
loop_
 _symmetry_equiv_pos_site_id
 _symmetry_equiv_pos_as_xyz
  1  'x, y, z'
loop_
 _atom_site_type_symbol
 _atom_site_label
 _atom_site_symmetry_multiplicity
 _atom_site_fract_x
 _atom_site_fract_y
 _atom_site_fract_z
 _atom_site_occupancy
  Zr  Zr0  1  0.00000000  0.00000000  0.50000000  1
  Zr  Zr1  1  0.50000000  0.50000000  0.00000000  1
  Zr  Zr2  1  0.00000000  0.50000000  0.00000000  1
  Zn  Zn3  1  0.00000000  0.00000000  0.00000000  1
  F  F4  1  0.90286600  0.34214600  0.87742100  1
  F  F5  1  0.09713400  0.65785400  0.12257900  1
  F  F6  1  0.94605600  0.95070500  0.62900700  1
  F  F7  1  0.05394400  0.04929500  0.37099300  1
  F  F8  1  0.54307700  0.63536900  0.88075100  1
  F  F9  1  0.45692300  0.36463100  0.11924900  1
