# generated using pymatgen
data_CeGa3Cu
_symmetry_space_group_name_H-M   'P 1'
_cell_length_a   3.64348200
_cell_length_b   3.64348200
_cell_length_c   8.09869480
_cell_angle_alpha   102.99949949
_cell_angle_beta   102.99949949
_cell_angle_gamma   90.00000000
_symmetry_Int_Tables_number   1
_chemical_formula_structural   CeGa3Cu
_chemical_formula_sum   'Ce1 Ga3 Cu1'
_cell_volume   101.92488571
_cell_formula_units_Z   1
loop_
 _symmetry_equiv_pos_site_id
 _symmetry_equiv_pos_as_xyz
  1  'x, y, z'
loop_
 _atom_site_type_symbol
 _atom_site_label
 _atom_site_symmetry_multiplicity
 _atom_site_fract_x
 _atom_site_fract_y
 _atom_site_fract_z
 _atom_site_occupancy
  Ce  Ce0  1  0.18543600  0.18543600  0.37087300  1
  Ga  Ga1  1  0.35304600  0.85304600  0.70609300  1
  Ga  Ga2  1  0.85304600  0.35304600  0.70609300  1
  Ga  Ga3  1  0.99558500  0.99558500  0.99117000  1
  Cu  Cu4  1  0.57068600  0.57068600  0.14137200  1
