# generated using pymatgen
data_Ca3MnF6
_symmetry_space_group_name_H-M   'P 1'
_cell_length_a   8.04627680
_cell_length_b   8.41629578
_cell_length_c   6.84528321
_cell_angle_alpha   68.72198026
_cell_angle_beta   143.86490750
_cell_angle_gamma   130.25289446
_symmetry_Int_Tables_number   1
_chemical_formula_structural   Ca3MnF6
_chemical_formula_sum   'Ca3 Mn1 F6'
_cell_volume   195.17913480
_cell_formula_units_Z   1
loop_
 _symmetry_equiv_pos_site_id
 _symmetry_equiv_pos_as_xyz
  1  'x, y, z'
loop_
 _atom_site_type_symbol
 _atom_site_label
 _atom_site_symmetry_multiplicity
 _atom_site_fract_x
 _atom_site_fract_y
 _atom_site_fract_z
 _atom_site_occupancy
  Ca  Ca0  1  0.00000000  0.00000000  0.50000000  1
  Ca  Ca1  1  0.50000000  0.50000000  0.00000000  1
  Ca  Ca2  1  0.00000000  0.50000000  0.00000000  1
  Mn  Mn3  1  0.00000000  0.00000000  0.00000000  1
  F  F4  1  0.10301600  0.32048700  0.95909300  1
  F  F5  1  0.89698400  0.67951300  0.04090700  1
  F  F6  1  0.59865900  0.83206300  0.44461100  1
  F  F7  1  0.40134100  0.16793600  0.55538900  1
  F  F8  1  0.63393500  0.83219300  0.96847100  1
  F  F9  1  0.36606500  0.16780700  0.03152900  1
