# generated using pymatgen
data_Ce5Mg
_symmetry_space_group_name_H-M   'P 1'
_cell_length_a   6.47203328
_cell_length_b   6.47203328
_cell_length_c   6.47203321
_cell_angle_alpha   53.63482236
_cell_angle_beta   53.63482236
_cell_angle_gamma   53.63482637
_symmetry_Int_Tables_number   1
_chemical_formula_structural   Ce5Mg
_chemical_formula_sum   'Ce5 Mg1'
_cell_volume   163.15592943
_cell_formula_units_Z   1
loop_
 _symmetry_equiv_pos_site_id
 _symmetry_equiv_pos_as_xyz
  1  'x, y, z'
loop_
 _atom_site_type_symbol
 _atom_site_label
 _atom_site_symmetry_multiplicity
 _atom_site_fract_x
 _atom_site_fract_y
 _atom_site_fract_z
 _atom_site_occupancy
  Ce  Ce0  1  0.00000000  0.67154500  0.32845500  1
  Ce  Ce1  1  0.16756200  0.16756200  0.16756200  1
  Ce  Ce2  1  0.32845500  0.00000000  0.67154500  1
  Ce  Ce3  1  0.67154500  0.32845500  0.00000000  1
  Ce  Ce4  1  0.83243800  0.83243800  0.83243800  1
  Mg  Mg5  1  0.50000000  0.50000000  0.50000000  1
