# generated using pymatgen
data_Mg2Bi
_symmetry_space_group_name_H-M   'P 1'
_cell_length_a   6.71065947
_cell_length_b   6.71065947
_cell_length_c   7.54064711
_cell_angle_alpha   73.65797882
_cell_angle_beta   73.65797882
_cell_angle_gamma   28.98943601
_symmetry_Int_Tables_number   1
_chemical_formula_structural   Mg2Bi
_chemical_formula_sum   'Mg4 Bi2'
_cell_volume   157.47235183
_cell_formula_units_Z   2
loop_
 _symmetry_equiv_pos_site_id
 _symmetry_equiv_pos_as_xyz
  1  'x, y, z'
loop_
 _atom_site_type_symbol
 _atom_site_label
 _atom_site_symmetry_multiplicity
 _atom_site_fract_x
 _atom_site_fract_y
 _atom_site_fract_z
 _atom_site_occupancy
  Mg  Mg0  1  0.30811500  0.30811500  0.12921100  1
  Mg  Mg1  1  0.02813100  0.02813100  0.18207000  1
  Mg  Mg2  1  0.97186900  0.97186900  0.81793000  1
  Mg  Mg3  1  0.69188500  0.69188500  0.87078900  1
  Bi  Bi4  1  0.63168900  0.63168900  0.47443800  1
  Bi  Bi5  1  0.36831100  0.36831100  0.52556200  1
