# generated using pymatgen
data_Rb3AuF6
_symmetry_space_group_name_H-M   'P 1'
_cell_length_a   7.35990334
_cell_length_b   8.44515813
_cell_length_c   7.35876958
_cell_angle_alpha   125.92942937
_cell_angle_beta   73.90821427
_cell_angle_gamma   102.05564019
_symmetry_Int_Tables_number   1
_chemical_formula_structural   Rb3AuF6
_chemical_formula_sum   'Rb3 Au1 F6'
_cell_volume   355.22603031
_cell_formula_units_Z   1
loop_
 _symmetry_equiv_pos_site_id
 _symmetry_equiv_pos_as_xyz
  1  'x, y, z'
loop_
 _atom_site_type_symbol
 _atom_site_label
 _atom_site_symmetry_multiplicity
 _atom_site_fract_x
 _atom_site_fract_y
 _atom_site_fract_z
 _atom_site_occupancy
  Rb  Rb0  1  0.50000000  0.00000000  0.00000000  1
  Rb  Rb1  1  0.00000000  0.50000000  0.50000000  1
  Rb  Rb2  1  0.00000000  0.00000000  0.50000000  1
  Au  Au3  1  0.00000000  0.00000000  0.00000000  1
  F  F4  1  0.79097100  0.07426500  0.26968500  1
  F  F5  1  0.20902900  0.92573500  0.73031500  1
  F  F6  1  0.78417600  0.79674900  0.66817200  1
  F  F7  1  0.21582400  0.20325100  0.33182800  1
  F  F8  1  0.04414200  0.76746700  0.98268600  1
  F  F9  1  0.95585800  0.23253300  0.01731400  1
