# generated using pymatgen
data_KSm3O6
_symmetry_space_group_name_H-M   'P 1'
_cell_length_a   9.39410548
_cell_length_b   9.39410548
_cell_length_c   30.17617700
_cell_angle_alpha   90.00000000
_cell_angle_beta   90.00000000
_cell_angle_gamma   104.20823875
_symmetry_Int_Tables_number   1
_chemical_formula_structural   KSm3O6
_chemical_formula_sum   'K1 Sm3 O6'
_cell_volume   2581.56228902
_cell_formula_units_Z   1
loop_
 _symmetry_equiv_pos_site_id
 _symmetry_equiv_pos_as_xyz
  1  'x, y, z'
loop_
 _atom_site_type_symbol
 _atom_site_label
 _atom_site_symmetry_multiplicity
 _atom_site_fract_x
 _atom_site_fract_y
 _atom_site_fract_z
 _atom_site_occupancy
  K  K0  1  0.00000000  0.00000000  0.00000000  1
  Sm  Sm1  1  0.00000000  0.00000000  0.50000000  1
  Sm  Sm2  1  0.50000000  0.00000000  0.00000000  1
  Sm  Sm3  1  0.00000000  0.50000000  0.00000000  1
  O  O4  1  0.00000000  0.00000000  0.23059600  1
  O  O5  1  0.00000000  0.00000000  0.76940400  1
  O  O6  1  0.29675800  0.03580900  0.00000000  1
  O  O7  1  0.70324200  0.96419100  0.00000000  1
  O  O8  1  0.03580900  0.29675800  0.00000000  1
  O  O9  1  0.96419100  0.70324200  0.00000000  1
