# generated using pymatgen
data_Ho2CuSb3
_symmetry_space_group_name_H-M   'P 1'
_cell_length_a   10.23827300
_cell_length_b   10.23827300
_cell_length_c   40.88829100
_cell_angle_alpha   90.00000000
_cell_angle_beta   90.00000000
_cell_angle_gamma   90.00000000
_symmetry_Int_Tables_number   1
_chemical_formula_structural   Ho2CuSb3
_chemical_formula_sum   'Ho2 Cu1 Sb3'
_cell_volume   4286.00200798
_cell_formula_units_Z   1
loop_
 _symmetry_equiv_pos_site_id
 _symmetry_equiv_pos_as_xyz
  1  'x, y, z'
loop_
 _atom_site_type_symbol
 _atom_site_label
 _atom_site_symmetry_multiplicity
 _atom_site_fract_x
 _atom_site_fract_y
 _atom_site_fract_z
 _atom_site_occupancy
  Ho  Ho0  1  0.50000000  0.50000000  0.24391100  1
  Ho  Ho1  1  0.50000000  0.50000000  0.75608900  1
  Cu  Cu2  1  0.50000000  0.50000000  0.50000000  1
  Sb  Sb3  1  0.50000000  0.50000000  0.69191100  1
  Sb  Sb4  1  0.50000000  0.50000000  0.30808900  1
  Sb  Sb5  1  0.50000000  0.50000000  0.00000000  1
