# generated using pymatgen
data_Yb2NiGe6
_symmetry_space_group_name_H-M   'P 1'
_cell_length_a   3.91841700
_cell_length_b   4.12521900
_cell_length_c   11.20856576
_cell_angle_alpha   90.00000000
_cell_angle_beta   100.06676363
_cell_angle_gamma   90.00000000
_symmetry_Int_Tables_number   1
_chemical_formula_structural   Yb2NiGe6
_chemical_formula_sum   'Yb2 Ni1 Ge6'
_cell_volume   178.38963981
_cell_formula_units_Z   1
loop_
 _symmetry_equiv_pos_site_id
 _symmetry_equiv_pos_as_xyz
  1  'x, y, z'
loop_
 _atom_site_type_symbol
 _atom_site_label
 _atom_site_symmetry_multiplicity
 _atom_site_fract_x
 _atom_site_fract_y
 _atom_site_fract_z
 _atom_site_occupancy
  Yb  Yb0  1  0.77890200  0.50000000  0.55780300  1
  Yb  Yb1  1  0.11090900  0.50000000  0.22181800  1
  Ni  Ni2  1  0.55635100  0.00000000  0.11270200  1
  Ge  Ge3  1  0.50020000  0.50000000  0.00040000  1
  Ge  Ge4  1  0.38783000  0.50000000  0.77566000  1
  Ge  Ge5  1  0.99723500  0.00000000  0.99447000  1
  Ge  Ge6  1  0.88403600  0.00000000  0.76807100  1
  Ge  Ge7  1  0.66155500  0.00000000  0.32310900  1
  Ge  Ge8  1  0.22998300  0.00000000  0.45996700  1
