# generated using pymatgen
data_Np3H
_symmetry_space_group_name_H-M   'P 1'
_cell_length_a   3.74554824
_cell_length_b   3.74554824
_cell_length_c   9.42659000
_cell_angle_alpha   90.00000000
_cell_angle_beta   90.00000000
_cell_angle_gamma   120.00000430
_symmetry_Int_Tables_number   1
_chemical_formula_structural   Np3H
_chemical_formula_sum   'Np6 H2'
_cell_volume   114.52914581
_cell_formula_units_Z   2
loop_
 _symmetry_equiv_pos_site_id
 _symmetry_equiv_pos_as_xyz
  1  'x, y, z'
loop_
 _atom_site_type_symbol
 _atom_site_label
 _atom_site_symmetry_multiplicity
 _atom_site_fract_x
 _atom_site_fract_y
 _atom_site_fract_z
 _atom_site_occupancy
  Np  Np0  1  0.33333300  0.66666700  0.56470100  1
  Np  Np1  1  0.66666700  0.33333300  0.43529900  1
  Np  Np2  1  0.66666700  0.33333300  0.06470100  1
  Np  Np3  1  0.33333300  0.66666700  0.93529900  1
  Np  Np4  1  0.00000000  0.00000000  0.25000000  1
  Np  Np5  1  0.00000000  0.00000000  0.75000000  1
  H  H6  1  0.33333300  0.66666700  0.25000000  1
  H  H7  1  0.66666700  0.33333300  0.75000000  1
