# generated using pymatgen
data_U2BiTe2
_symmetry_space_group_name_H-M   'P 1'
_cell_length_a   3.08655900
_cell_length_b   3.08655900
_cell_length_c   17.46156800
_cell_angle_alpha   90.00000000
_cell_angle_beta   90.00000000
_cell_angle_gamma   90.00000000
_symmetry_Int_Tables_number   1
_chemical_formula_structural   U2BiTe2
_chemical_formula_sum   'U2 Bi1 Te2'
_cell_volume   166.35367730
_cell_formula_units_Z   1
loop_
 _symmetry_equiv_pos_site_id
 _symmetry_equiv_pos_as_xyz
  1  'x, y, z'
loop_
 _atom_site_type_symbol
 _atom_site_label
 _atom_site_symmetry_multiplicity
 _atom_site_fract_x
 _atom_site_fract_y
 _atom_site_fract_z
 _atom_site_occupancy
  U  U0  1  0.50000000  0.50000000  0.18579500  1
  U  U1  1  0.50000000  0.50000000  0.81420500  1
  Bi  Bi2  1  0.50000000  0.50000000  0.00000000  1
  Te  Te3  1  0.50000000  0.50000000  0.63768000  1
  Te  Te4  1  0.50000000  0.50000000  0.36232000  1
