# generated using pymatgen
data_Nd2As3Au
_symmetry_space_group_name_H-M   'P 1'
_cell_length_a   8.46869700
_cell_length_b   8.46869700
_cell_length_c   37.87612100
_cell_angle_alpha   90.00000000
_cell_angle_beta   90.00000000
_cell_angle_gamma   90.00000000
_symmetry_Int_Tables_number   1
_chemical_formula_structural   Nd2As3Au
_chemical_formula_sum   'Nd2 As3 Au1'
_cell_volume   2716.43104055
_cell_formula_units_Z   1
loop_
 _symmetry_equiv_pos_site_id
 _symmetry_equiv_pos_as_xyz
  1  'x, y, z'
loop_
 _atom_site_type_symbol
 _atom_site_label
 _atom_site_symmetry_multiplicity
 _atom_site_fract_x
 _atom_site_fract_y
 _atom_site_fract_z
 _atom_site_occupancy
  Nd  Nd0  1  0.50000000  0.50000000  0.24320700  1
  Nd  Nd1  1  0.50000000  0.50000000  0.75679300  1
  As  As2  1  0.50000000  0.50000000  0.69119400  1
  As  As3  1  0.50000000  0.50000000  0.30880600  1
  As  As4  1  0.50000000  0.50000000  0.00000000  1
  Au  Au5  1  0.50000000  0.50000000  0.50000000  1
