# generated using pymatgen
data_Ag(BiSe2)3
_symmetry_space_group_name_H-M   'P 1'
_cell_length_a   10.67818961
_cell_length_b   10.67818961
_cell_length_c   52.79667500
_cell_angle_alpha   90.00000000
_cell_angle_beta   90.00000000
_cell_angle_gamma   120.28190287
_symmetry_Int_Tables_number   1
_chemical_formula_structural   Ag(BiSe2)3
_chemical_formula_sum   'Ag1 Bi3 Se6'
_cell_volume   5198.66418100
_cell_formula_units_Z   1
loop_
 _symmetry_equiv_pos_site_id
 _symmetry_equiv_pos_as_xyz
  1  'x, y, z'
loop_
 _atom_site_type_symbol
 _atom_site_label
 _atom_site_symmetry_multiplicity
 _atom_site_fract_x
 _atom_site_fract_y
 _atom_site_fract_z
 _atom_site_occupancy
  Ag  Ag0  1  0.00000000  0.00000000  0.00000000  1
  Bi  Bi1  1  0.00000000  0.00000000  0.50000000  1
  Bi  Bi2  1  0.50000000  0.00000000  0.00000000  1
  Bi  Bi3  1  0.00000000  0.50000000  0.00000000  1
  Se  Se4  1  0.00000000  0.00000000  0.23103200  1
  Se  Se5  1  0.00000000  0.00000000  0.76896800  1
  Se  Se6  1  0.24299100  0.99309700  0.00000000  1
  Se  Se7  1  0.75700900  0.00690300  0.00000000  1
  Se  Se8  1  0.99309700  0.24299100  0.00000000  1
  Se  Se9  1  0.00690300  0.75700900  0.00000000  1
