# generated using pymatgen
data_Ni(IN)2
_symmetry_space_group_name_H-M   'P 1'
_cell_length_a   3.68511400
_cell_length_b   7.22850400
_cell_length_c   7.42247900
_cell_angle_alpha   90.00000000
_cell_angle_beta   90.00000000
_cell_angle_gamma   90.00000000
_symmetry_Int_Tables_number   1
_chemical_formula_structural   Ni(IN)2
_chemical_formula_sum   'Ni2 I4 N4'
_cell_volume   197.71896603
_cell_formula_units_Z   2
loop_
 _symmetry_equiv_pos_site_id
 _symmetry_equiv_pos_as_xyz
  1  'x, y, z'
loop_
 _atom_site_type_symbol
 _atom_site_label
 _atom_site_symmetry_multiplicity
 _atom_site_fract_x
 _atom_site_fract_y
 _atom_site_fract_z
 _atom_site_occupancy
  Ni  Ni0  1  0.00000000  0.00000000  0.00000000  1
  Ni  Ni1  1  0.00000000  0.50000000  0.50000000  1
  I  I2  1  0.50000000  0.27310500  0.30940800  1
  I  I3  1  0.50000000  0.72689500  0.69059200  1
  I  I4  1  0.50000000  0.22689500  0.80940800  1
  I  I5  1  0.50000000  0.77310500  0.19059200  1
  N  N6  1  0.00000000  0.18512800  0.16067700  1
  N  N7  1  0.00000000  0.81487200  0.83932300  1
  N  N8  1  0.00000000  0.31487200  0.66067700  1
  N  N9  1  0.00000000  0.68512800  0.33932300  1
