# generated using pymatgen
data_KRb2InF6
_symmetry_space_group_name_H-M   'P 1'
_cell_length_a   6.56373652
_cell_length_b   6.56373652
_cell_length_c   6.56373652
_cell_angle_alpha   120.27323510
_cell_angle_beta   120.27323510
_cell_angle_gamma   89.52739086
_symmetry_Int_Tables_number   1
_chemical_formula_structural   KRb2InF6
_chemical_formula_sum   'K1 Rb2 In1 F6'
_cell_volume   199.12467501
_cell_formula_units_Z   1
loop_
 _symmetry_equiv_pos_site_id
 _symmetry_equiv_pos_as_xyz
  1  'x, y, z'
loop_
 _atom_site_type_symbol
 _atom_site_label
 _atom_site_symmetry_multiplicity
 _atom_site_fract_x
 _atom_site_fract_y
 _atom_site_fract_z
 _atom_site_occupancy
  K  K0  1  0.50000000  0.50000000  0.00000000  1
  Rb  Rb1  1  0.75000000  0.25000000  0.50000000  1
  Rb  Rb2  1  0.25000000  0.75000000  0.50000000  1
  In  In3  1  0.00000000  0.00000000  0.00000000  1
  F  F4  1  0.26315100  0.18592000  0.44907200  1
  F  F5  1  0.73684900  0.81408000  0.55092800  1
  F  F6  1  0.18592000  0.73684900  0.92276900  1
  F  F7  1  0.81408000  0.26315100  0.07723100  1
  F  F8  1  0.22571200  0.22571200  0.00000000  1
  F  F9  1  0.77428800  0.77428800  0.00000000  1
