# generated using pymatgen
data_Sr2Br2F
_symmetry_space_group_name_H-M   'P 1'
_cell_length_a   5.86157900
_cell_length_b   5.86157900
_cell_length_c   13.81324700
_cell_angle_alpha   90.00000000
_cell_angle_beta   90.00000000
_cell_angle_gamma   90.00000000
_symmetry_Int_Tables_number   1
_chemical_formula_structural   Sr2Br2F
_chemical_formula_sum   'Sr2 Br2 F1'
_cell_volume   474.59703741
_cell_formula_units_Z   1
loop_
 _symmetry_equiv_pos_site_id
 _symmetry_equiv_pos_as_xyz
  1  'x, y, z'
loop_
 _atom_site_type_symbol
 _atom_site_label
 _atom_site_symmetry_multiplicity
 _atom_site_fract_x
 _atom_site_fract_y
 _atom_site_fract_z
 _atom_site_occupancy
  Sr  Sr0  1  0.50000000  0.50000000  0.16719600  1
  Sr  Sr1  1  0.50000000  0.50000000  0.83280400  1
  Br  Br2  1  0.50000000  0.50000000  0.63588800  1
  Br  Br3  1  0.50000000  0.50000000  0.36411200  1
  F  F4  1  0.50000000  0.50000000  0.00000000  1
