# generated using pymatgen
data_Tb2Cl2O
_symmetry_space_group_name_H-M   'P 1'
_cell_length_a   4.16809300
_cell_length_b   4.16809300
_cell_length_c   12.79276100
_cell_angle_alpha   90.00000000
_cell_angle_beta   90.00000000
_cell_angle_gamma   90.00000000
_symmetry_Int_Tables_number   1
_chemical_formula_structural   Tb2Cl2O
_chemical_formula_sum   'Tb2 Cl2 O1'
_cell_volume   222.24862734
_cell_formula_units_Z   1
loop_
 _symmetry_equiv_pos_site_id
 _symmetry_equiv_pos_as_xyz
  1  'x, y, z'
loop_
 _atom_site_type_symbol
 _atom_site_label
 _atom_site_symmetry_multiplicity
 _atom_site_fract_x
 _atom_site_fract_y
 _atom_site_fract_z
 _atom_site_occupancy
  Tb  Tb0  1  0.50000000  0.50000000  0.16223700  1
  Tb  Tb1  1  0.50000000  0.50000000  0.83776300  1
  Cl  Cl2  1  0.50000000  0.50000000  0.64423100  1
  Cl  Cl3  1  0.50000000  0.50000000  0.35576900  1
  O  O4  1  0.50000000  0.50000000  0.00000000  1
