# generated using pymatgen
data_TbSeI
_symmetry_space_group_name_H-M   'P 1'
_cell_length_a   12.16779098
_cell_length_b   15.96212171
_cell_length_c   42.79640799
_cell_angle_alpha   90.00000000
_cell_angle_beta   90.00000000
_cell_angle_gamma   90.00000000
_symmetry_Int_Tables_number   1
_chemical_formula_structural   TbSeI
_chemical_formula_sum   'Tb2 Se2 I2'
_cell_volume   8312.07929847
_cell_formula_units_Z   2
loop_
 _symmetry_equiv_pos_site_id
 _symmetry_equiv_pos_as_xyz
  1  'x, y, z'
loop_
 _atom_site_type_symbol
 _atom_site_label
 _atom_site_symmetry_multiplicity
 _atom_site_fract_x
 _atom_site_fract_y
 _atom_site_fract_z
 _atom_site_occupancy
  Tb  Tb0  1  0.50000000  0.50000000  0.11381062  1
  Tb  Tb1  1  0.50000000  0.50000000  0.88618938  1
  Se  Se2  1  0.50000000  0.50000000  0.67043317  1
  Se  Se3  1  0.50000000  0.50000000  0.32956683  1
  I  I4  1  0.50000000  0.50000000  0.04936581  1
  I  I5  1  0.50000000  0.50000000  0.95063419  1
