# generated using pymatgen
data_Nd2(AsRh)3
_symmetry_space_group_name_H-M   'P 1'
_cell_length_a   5.61281000
_cell_length_b   5.61281000
_cell_length_c   19.44472000
_cell_angle_alpha   90.00000000
_cell_angle_beta   90.00000000
_cell_angle_gamma   90.00000000
_symmetry_Int_Tables_number   1
_chemical_formula_structural   Nd2(AsRh)3
_chemical_formula_sum   'Nd2 As3 Rh3'
_cell_volume   612.57938287
_cell_formula_units_Z   1
loop_
 _symmetry_equiv_pos_site_id
 _symmetry_equiv_pos_as_xyz
  1  'x, y, z'
loop_
 _atom_site_type_symbol
 _atom_site_label
 _atom_site_symmetry_multiplicity
 _atom_site_fract_x
 _atom_site_fract_y
 _atom_site_fract_z
 _atom_site_occupancy
  Nd  Nd0  1  0.50000000  0.50000000  0.76318300  1
  Nd  Nd1  1  0.50000000  0.50000000  0.23681700  1
  As  As2  1  0.50000000  0.50000000  0.38339600  1
  As  As3  1  0.50000000  0.50000000  0.61660400  1
  As  As4  1  0.50000000  0.50000000  0.00000000  1
  Rh  Rh5  1  0.50000000  0.50000000  0.12180700  1
  Rh  Rh6  1  0.50000000  0.50000000  0.87819300  1
  Rh  Rh7  1  0.50000000  0.50000000  0.50000000  1
