# generated using pymatgen
data_Zr6Ga2NiH10
_symmetry_space_group_name_H-M   'P 1'
_cell_length_a   8.03128626
_cell_length_b   8.03128626
_cell_length_c   7.22728800
_cell_angle_alpha   90.00000000
_cell_angle_beta   90.00000000
_cell_angle_gamma   120.00000213
_symmetry_Int_Tables_number   1
_chemical_formula_structural   Zr6Ga2NiH10
_chemical_formula_sum   'Zr12 Ga4 Ni2 H20'
_cell_volume   403.71621700
_cell_formula_units_Z   2
loop_
 _symmetry_equiv_pos_site_id
 _symmetry_equiv_pos_as_xyz
  1  'x, y, z'
loop_
 _atom_site_type_symbol
 _atom_site_label
 _atom_site_symmetry_multiplicity
 _atom_site_fract_x
 _atom_site_fract_y
 _atom_site_fract_z
 _atom_site_occupancy
  Zr  Zr0  1  0.73581100  0.00000000  0.00000000  1
  Zr  Zr1  1  0.00000000  0.73581100  0.00000000  1
  Zr  Zr2  1  0.73581100  0.00000000  0.50000000  1
  Zr  Zr3  1  0.26418900  0.26418900  0.00000000  1
  Zr  Zr4  1  0.00000000  0.73581100  0.50000000  1
  Zr  Zr5  1  0.26418900  0.26418900  0.50000000  1
  Zr  Zr6  1  0.41955700  0.04558800  0.25000000  1
  Zr  Zr7  1  0.95441200  0.37397000  0.25000000  1
  Zr  Zr8  1  0.04558800  0.41955700  0.75000000  1
  Zr  Zr9  1  0.62603000  0.58044300  0.25000000  1
  Zr  Zr10  1  0.37397000  0.95441200  0.75000000  1
  Zr  Zr11  1  0.58044300  0.62603000  0.75000000  1
  Ga  Ga12  1  0.33333300  0.66666700  0.04732300  1
  Ga  Ga13  1  0.33333300  0.66666700  0.45267700  1
  Ga  Ga14  1  0.66666700  0.33333300  0.95267700  1
  Ga  Ga15  1  0.66666700  0.33333300  0.54732300  1
  Ni  Ni16  1  0.00000000  0.00000000  0.25000000  1
  Ni  Ni17  1  0.00000000  0.00000000  0.75000000  1
  H  H18  1  0.27753700  0.00000000  0.00000000  1
  H  H19  1  0.00000000  0.27753700  0.00000000  1
  H  H20  1  0.27753700  0.00000000  0.50000000  1
  H  H21  1  0.72246300  0.72246300  0.00000000  1
  H  H22  1  0.00000000  0.27753700  0.50000000  1
  H  H23  1  0.72246300  0.72246300  0.50000000  1
  H  H24  1  0.40563100  0.29429300  0.25000000  1
  H  H25  1  0.70570700  0.11133900  0.25000000  1
  H  H26  1  0.29429300  0.40563100  0.75000000  1
  H  H27  1  0.88866100  0.59436900  0.25000000  1
  H  H28  1  0.11133900  0.70570700  0.75000000  1
  H  H29  1  0.59436900  0.88866100  0.75000000  1
  H  H30  1  0.12234900  0.24289000  0.25000000  1
  H  H31  1  0.75711000  0.87945900  0.25000000  1
  H  H32  1  0.24289000  0.12234900  0.75000000  1
  H  H33  1  0.12054100  0.87765100  0.25000000  1
  H  H34  1  0.87945900  0.75711000  0.75000000  1
  H  H35  1  0.87765100  0.12054100  0.75000000  1
  H  H36  1  0.00000000  0.00000000  0.00000000  1
  H  H37  1  0.00000000  0.00000000  0.50000000  1
