# generated using pymatgen
data_Zn2P3H10C(NO4)3
_symmetry_space_group_name_H-M   'P 1'
_cell_length_a   5.24240993
_cell_length_b   7.93501500
_cell_length_c   16.67984456
_cell_angle_alpha   90.00000000
_cell_angle_beta   90.22769994
_cell_angle_gamma   90.00000000
_symmetry_Int_Tables_number   1
_chemical_formula_structural   Zn2P3H10C(NO4)3
_chemical_formula_sum   'Zn4 P6 H20 C2 N6 O24'
_cell_volume   693.85272720
_cell_formula_units_Z   2
loop_
 _symmetry_equiv_pos_site_id
 _symmetry_equiv_pos_as_xyz
  1  'x, y, z'
loop_
 _atom_site_type_symbol
 _atom_site_label
 _atom_site_symmetry_multiplicity
 _atom_site_fract_x
 _atom_site_fract_y
 _atom_site_fract_z
 _atom_site_occupancy
  Zn  Zn0  1  0.30380000  0.00275700  0.07912400  1
  Zn  Zn1  1  0.69620000  0.50275700  0.92087600  1
  Zn  Zn2  1  0.29914100  0.22489900  0.41453400  1
  Zn  Zn3  1  0.70085900  0.72489900  0.58546600  1
  P  P4  1  0.20470900  0.60131100  0.49924900  1
  P  P5  1  0.79529100  0.10131100  0.50075100  1
  P  P6  1  0.04617400  0.12175800  0.24642600  1
  P  P7  1  0.95382600  0.62175800  0.75357400  1
  P  P8  1  0.19627400  0.61895300  0.01079700  1
  P  P9  1  0.80372500  0.11895300  0.98920300  1
  H  H10  1  0.14434900  0.03199700  0.83044500  1
  H  H11  1  0.85565100  0.53199700  0.16955500  1
  H  H12  1  0.78249300  0.03439900  0.33856000  1
  H  H13  1  0.21750700  0.53439900  0.66144000  1
  H  H14  1  0.18065700  0.34503600  0.04113000  1
  H  H15  1  0.81934300  0.84503600  0.95887000  1
  H  H16  1  0.31783500  0.76832000  0.23019700  1
  H  H17  1  0.68216500  0.26832000  0.76980300  1
  H  H18  1  0.89821500  0.46496900  0.30684400  1
  H  H19  1  0.10178500  0.96496900  0.69315600  1
  H  H20  1  0.59745100  0.65007700  0.13689700  1
  H  H21  1  0.40254900  0.15007700  0.86310300  1
  H  H22  1  0.33384800  0.70755400  0.32924600  1
  H  H23  1  0.66615200  0.20755400  0.67075400  1
  H  H24  1  0.17426000  0.87589400  0.46158400  1
  H  H25  1  0.82574000  0.37589400  0.53841600  1
  H  H26  1  0.77302400  0.18085100  0.14897800  1
  H  H27  1  0.22697600  0.68085100  0.85102200  1
  H  H28  1  0.33274800  0.03564200  0.62668700  1
  H  H29  1  0.66725200  0.53564200  0.37331300  1
  C  C30  1  0.38386000  0.11259500  0.74236600  1
  C  C31  1  0.61614000  0.61259500  0.25763400  1
  N  N32  1  0.39214900  0.68794600  0.27169600  1
  N  N33  1  0.60785100  0.18794600  0.72830400  1
  N  N34  1  0.25395100  0.04102500  0.68223400  1
  N  N35  1  0.74604900  0.54102500  0.31776600  1
  N  N36  1  0.28859300  0.11215300  0.81692100  1
  N  N37  1  0.71140700  0.61215300  0.18307900  1
  O  O38  1  0.31417900  0.46008500  0.44828300  1
  O  O39  1  0.68582100  0.96008500  0.55171700  1
  O  O40  1  0.22398300  0.45667800  0.06596100  1
  O  O41  1  0.77601700  0.95667800  0.93403900  1
  O  O42  1  0.64699500  0.13096800  0.42131800  1
  O  O43  1  0.35300500  0.63096800  0.57868200  1
  O  O44  1  0.08123300  0.07233400  0.48066700  1
  O  O45  1  0.91876700  0.57233400  0.51933300  1
  O  O46  1  0.22326500  0.01975700  0.19306800  1
  O  O47  1  0.77673500  0.51975700  0.80693200  1
  O  O48  1  0.65418000  0.09112200  0.06814100  1
  O  O49  1  0.34582000  0.59112200  0.93185900  1
  O  O50  1  0.30486000  0.75911800  0.06352100  1
  O  O51  1  0.69514000  0.25911800  0.93647900  1
  O  O52  1  0.23528500  0.76214800  0.44277600  1
  O  O53  1  0.76471500  0.26214800  0.55722400  1
  O  O54  1  0.11846600  0.48560500  0.70710300  1
  O  O55  1  0.88153400  0.98560500  0.29289700  1
  O  O56  1  0.08882300  0.14990300  0.01060200  1
  O  O57  1  0.91117700  0.64990300  0.98939800  1
  O  O58  1  0.17388800  0.24369500  0.30465800  1
  O  O59  1  0.82611200  0.74369500  0.69534200  1
  O  O60  1  0.86106600  0.23825100  0.19535500  1
  O  O61  1  0.13893400  0.73825100  0.80464500  1
