# generated using pymatgen
data_ZnAg2(PS3)2
_symmetry_space_group_name_H-M   'P 1'
_cell_length_a   6.32867873
_cell_length_b   6.32867873
_cell_length_c   27.41431165
_cell_angle_alpha   86.90598939
_cell_angle_beta   86.90598939
_cell_angle_gamma   119.83183740
_symmetry_Int_Tables_number   1
_chemical_formula_structural   ZnAg2(PS3)2
_chemical_formula_sum   'Zn4 Ag8 P8 S24'
_cell_volume   946.96777154
_cell_formula_units_Z   4
loop_
 _symmetry_equiv_pos_site_id
 _symmetry_equiv_pos_as_xyz
  1  'x, y, z'
loop_
 _atom_site_type_symbol
 _atom_site_label
 _atom_site_symmetry_multiplicity
 _atom_site_fract_x
 _atom_site_fract_y
 _atom_site_fract_z
 _atom_site_occupancy
  Zn  Zn0  1  0.81765700  0.95405000  0.12594000  1
  Zn  Zn1  1  0.18234300  0.04595000  0.87406000  1
  Zn  Zn2  1  0.04595000  0.18234300  0.37406000  1
  Zn  Zn3  1  0.95405000  0.81765700  0.62594000  1
  Ag  Ag4  1  0.53244900  0.74798400  0.81295600  1
  Ag  Ag5  1  0.46755100  0.25201600  0.18704400  1
  Ag  Ag6  1  0.25201600  0.46755100  0.68704400  1
  Ag  Ag7  1  0.74798400  0.53244900  0.31295600  1
  Ag  Ag8  1  0.51827900  0.69721200  0.94002500  1
  Ag  Ag9  1  0.48172100  0.30278800  0.05997500  1
  Ag  Ag10  1  0.30278800  0.48172100  0.55997500  1
  Ag  Ag11  1  0.69721200  0.51827900  0.44002500  1
  P  P12  1  0.59070400  0.13410100  0.66656500  1
  P  P13  1  0.40929600  0.86589900  0.33343500  1
  P  P14  1  0.86589900  0.40929600  0.83343500  1
  P  P15  1  0.13410100  0.59070400  0.16656500  1
  P  P16  1  0.62485800  0.14462800  0.58307800  1
  P  P17  1  0.37514200  0.85537200  0.41692200  1
  P  P18  1  0.85537200  0.37514200  0.91692200  1
  P  P19  1  0.14462800  0.62485800  0.08307800  1
  S  S20  1  0.51489000  0.30147000  0.94282200  1
  S  S21  1  0.48511000  0.69853000  0.05717800  1
  S  S22  1  0.69853000  0.48511000  0.55717800  1
  S  S23  1  0.30147000  0.51489000  0.44282200  1
  S  S24  1  0.90870600  0.08523400  0.56336400  1
  S  S25  1  0.09129400  0.91476600  0.43663600  1
  S  S26  1  0.91476600  0.09129400  0.93663600  1
  S  S27  1  0.08523400  0.90870600  0.06336400  1
  S  S28  1  0.64265100  0.85555100  0.69243000  1
  S  S29  1  0.35734900  0.14444900  0.30757000  1
  S  S30  1  0.14444900  0.35734900  0.80757000  1
  S  S31  1  0.85555100  0.64265100  0.19243000  1
  S  S32  1  0.24648000  0.07247100  0.68701500  1
  S  S33  1  0.75352000  0.92752900  0.31298500  1
  S  S34  1  0.92752900  0.75352000  0.81298500  1
  S  S35  1  0.07247100  0.24648000  0.18701500  1
  S  S36  1  0.29651500  0.87028600  0.56444100  1
  S  S37  1  0.70348500  0.12971400  0.43555900  1
  S  S38  1  0.12971400  0.70348500  0.93555900  1
  S  S39  1  0.87028600  0.29651500  0.06444100  1
  S  S40  1  0.53314900  0.14193100  0.81421400  1
  S  S41  1  0.46685100  0.85806900  0.18578600  1
  S  S42  1  0.85806900  0.46685100  0.68578600  1
  S  S43  1  0.14193100  0.53314900  0.31421400  1
