# generated using pymatgen
data_ZnSeO5
_symmetry_space_group_name_H-M   'P 1'
_cell_length_a   5.39831339
_cell_length_b   5.39831339
_cell_length_c   7.54822841
_cell_angle_alpha   73.79893445
_cell_angle_beta   73.79893445
_cell_angle_gamma   101.42105036
_symmetry_Int_Tables_number   1
_chemical_formula_structural   ZnSeO5
_chemical_formula_sum   'Zn2 Se2 O10'
_cell_volume   193.55602283
_cell_formula_units_Z   2
loop_
 _symmetry_equiv_pos_site_id
 _symmetry_equiv_pos_as_xyz
  1  'x, y, z'
loop_
 _atom_site_type_symbol
 _atom_site_label
 _atom_site_symmetry_multiplicity
 _atom_site_fract_x
 _atom_site_fract_y
 _atom_site_fract_z
 _atom_site_occupancy
  Zn  Zn0  1  0.00000000  0.00000000  0.00000000  1
  Zn  Zn1  1  0.00000000  0.00000000  0.50000000  1
  Se  Se2  1  0.33524300  0.66475700  0.75000000  1
  Se  Se3  1  0.66475700  0.33524300  0.25000000  1
  O  O4  1  0.35359800  0.91006300  0.84832000  1
  O  O5  1  0.64640200  0.08993700  0.15168000  1
  O  O6  1  0.08993700  0.64640200  0.65168000  1
  O  O7  1  0.91006300  0.35359800  0.34832000  1
  O  O8  1  0.26753000  0.36836700  0.92907100  1
  O  O9  1  0.73247000  0.63163300  0.07092900  1
  O  O10  1  0.63163300  0.73247000  0.57092900  1
  O  O11  1  0.36836700  0.26753000  0.42907100  1
  O  O12  1  0.90371200  0.09628800  0.75000000  1
  O  O13  1  0.09628800  0.90371200  0.25000000  1
