# generated using pymatgen
data_Zr3Bi5
_symmetry_space_group_name_H-M   'P 1'
_cell_length_a   7.06783700
_cell_length_b   7.06783700
_cell_length_c   17.28529300
_cell_angle_alpha   90.00000000
_cell_angle_beta   90.00000000
_cell_angle_gamma   90.00000000
_symmetry_Int_Tables_number   1
_chemical_formula_structural   Zr3Bi5
_chemical_formula_sum   'Zr12 Bi20'
_cell_volume   863.47505537
_cell_formula_units_Z   4
loop_
 _symmetry_equiv_pos_site_id
 _symmetry_equiv_pos_as_xyz
  1  'x, y, z'
loop_
 _atom_site_type_symbol
 _atom_site_label
 _atom_site_symmetry_multiplicity
 _atom_site_fract_x
 _atom_site_fract_y
 _atom_site_fract_z
 _atom_site_occupancy
  Zr  Zr0  1  0.00000000  0.50000000  0.58767500  1
  Zr  Zr1  1  0.50000000  0.00000000  0.41232500  1
  Zr  Zr2  1  0.50000000  0.00000000  0.08767500  1
  Zr  Zr3  1  0.00000000  0.50000000  0.91232500  1
  Zr  Zr4  1  0.00000000  0.00000000  0.00000000  1
  Zr  Zr5  1  0.50000000  0.50000000  0.50000000  1
  Zr  Zr6  1  0.00000000  0.00000000  0.32487000  1
  Zr  Zr7  1  0.00000000  0.00000000  0.67513000  1
  Zr  Zr8  1  0.50000000  0.50000000  0.82487000  1
  Zr  Zr9  1  0.50000000  0.50000000  0.17513000  1
  Zr  Zr10  1  0.00000000  0.50000000  0.25000000  1
  Zr  Zr11  1  0.50000000  0.00000000  0.75000000  1
  Bi  Bi12  1  0.34141600  0.30575400  0.65164300  1
  Bi  Bi13  1  0.65858400  0.69424600  0.65164300  1
  Bi  Bi14  1  0.30575400  0.65858400  0.34835700  1
  Bi  Bi15  1  0.84141600  0.19424600  0.15164300  1
  Bi  Bi16  1  0.69424600  0.34141600  0.34835700  1
  Bi  Bi17  1  0.15858400  0.80575400  0.15164300  1
  Bi  Bi18  1  0.80575400  0.84141600  0.84835700  1
  Bi  Bi19  1  0.19424600  0.15858400  0.84835700  1
  Bi  Bi20  1  0.32941400  0.17058600  0.25000000  1
  Bi  Bi21  1  0.67058600  0.82941400  0.25000000  1
  Bi  Bi22  1  0.17058600  0.67058600  0.75000000  1
  Bi  Bi23  1  0.82941400  0.32941400  0.75000000  1
  Bi  Bi24  1  0.23064000  0.34507400  0.05191500  1
  Bi  Bi25  1  0.76936000  0.65492600  0.05191500  1
  Bi  Bi26  1  0.34507400  0.76936000  0.94808500  1
  Bi  Bi27  1  0.73064000  0.15492600  0.55191500  1
  Bi  Bi28  1  0.65492600  0.23064000  0.94808500  1
  Bi  Bi29  1  0.26936000  0.84507400  0.55191500  1
  Bi  Bi30  1  0.84507400  0.73064000  0.44808500  1
  Bi  Bi31  1  0.15492600  0.26936000  0.44808500  1
