# generated using pymatgen
data_ZnCu3(ClO3)2
_symmetry_space_group_name_H-M   'P 1'
_cell_length_a   6.15503863
_cell_length_b   6.15503863
_cell_length_c   5.24038900
_cell_angle_alpha   90.00000000
_cell_angle_beta   90.00000000
_cell_angle_gamma   120.00000680
_symmetry_Int_Tables_number   1
_chemical_formula_structural   ZnCu3(ClO3)2
_chemical_formula_sum   'Zn1 Cu3 Cl2 O6'
_cell_volume   171.93159599
_cell_formula_units_Z   1
loop_
 _symmetry_equiv_pos_site_id
 _symmetry_equiv_pos_as_xyz
  1  'x, y, z'
loop_
 _atom_site_type_symbol
 _atom_site_label
 _atom_site_symmetry_multiplicity
 _atom_site_fract_x
 _atom_site_fract_y
 _atom_site_fract_z
 _atom_site_occupancy
  Zn  Zn0  1  0.00000000  0.00000000  0.00000000  1
  Cu  Cu1  1  0.50000000  0.00000000  0.00000000  1
  Cu  Cu2  1  0.00000000  0.50000000  0.00000000  1
  Cu  Cu3  1  0.50000000  0.50000000  0.00000000  1
  Cl  Cl4  1  0.33333300  0.66666700  0.38535100  1
  Cl  Cl5  1  0.66666700  0.33333300  0.61464900  1
  O  O6  1  0.81604200  0.18395800  0.14864400  1
  O  O7  1  0.18395800  0.81604200  0.85135600  1
  O  O8  1  0.81604200  0.63208400  0.14864400  1
  O  O9  1  0.18395800  0.36791600  0.85135600  1
  O  O10  1  0.36791600  0.18395800  0.14864400  1
  O  O11  1  0.63208400  0.81604200  0.85135600  1
