# generated using pymatgen
data_Yb3(Mg2H7)2
_symmetry_space_group_name_H-M   'P 1'
_cell_length_a   6.46176283
_cell_length_b   6.46176283
_cell_length_c   6.70949500
_cell_angle_alpha   90.00000000
_cell_angle_beta   90.00000000
_cell_angle_gamma   120.00000847
_symmetry_Int_Tables_number   1
_chemical_formula_structural   Yb3(Mg2H7)2
_chemical_formula_sum   'Yb3 Mg4 H14'
_cell_volume   242.61768552
_cell_formula_units_Z   1
loop_
 _symmetry_equiv_pos_site_id
 _symmetry_equiv_pos_as_xyz
  1  'x, y, z'
loop_
 _atom_site_type_symbol
 _atom_site_label
 _atom_site_symmetry_multiplicity
 _atom_site_fract_x
 _atom_site_fract_y
 _atom_site_fract_z
 _atom_site_occupancy
  Yb  Yb0  1  0.40169000  0.40169000  0.00000000  1
  Yb  Yb1  1  0.00000000  0.59831000  0.00000000  1
  Yb  Yb2  1  0.59831000  0.00000000  0.00000000  1
  Mg  Mg3  1  0.00000000  0.00000000  0.69412400  1
  Mg  Mg4  1  0.00000000  0.00000000  0.30587600  1
  Mg  Mg5  1  0.66666700  0.33333300  0.50000000  1
  Mg  Mg6  1  0.33333300  0.66666700  0.50000000  1
  H  H7  1  0.77585800  0.77585800  0.00000000  1
  H  H8  1  0.00000000  0.22414200  0.00000000  1
  H  H9  1  0.22414200  0.00000000  0.00000000  1
  H  H10  1  0.66666700  0.33333300  0.00000000  1
  H  H11  1  0.33333300  0.66666700  0.00000000  1
  H  H12  1  0.38737600  0.38737600  0.67057300  1
  H  H13  1  0.00000000  0.61262400  0.67057300  1
  H  H14  1  0.38737600  0.38737600  0.32942700  1
  H  H15  1  0.00000000  0.61262400  0.32942700  1
  H  H16  1  0.61262400  0.00000000  0.67057300  1
  H  H17  1  0.61262400  0.00000000  0.32942700  1
  H  H18  1  0.76981800  0.76981800  0.50000000  1
  H  H19  1  0.00000000  0.23018200  0.50000000  1
  H  H20  1  0.23018200  0.00000000  0.50000000  1
