# generated using pymatgen
data_YbSbO4
_symmetry_space_group_name_H-M   'P 1'
_cell_length_a   5.36164021
_cell_length_b   7.32552497
_cell_length_c   8.12366371
_cell_angle_alpha   83.68098302
_cell_angle_beta   88.29632195
_cell_angle_gamma   93.08672974
_symmetry_Int_Tables_number   1
_chemical_formula_structural   YbSbO4
_chemical_formula_sum   'Yb4 Sb4 O16'
_cell_volume   316.46867730
_cell_formula_units_Z   4
loop_
 _symmetry_equiv_pos_site_id
 _symmetry_equiv_pos_as_xyz
  1  'x, y, z'
loop_
 _atom_site_type_symbol
 _atom_site_label
 _atom_site_symmetry_multiplicity
 _atom_site_fract_x
 _atom_site_fract_y
 _atom_site_fract_z
 _atom_site_occupancy
  Yb  Yb0  1  0.25316100  0.12825500  0.58861500  1
  Yb  Yb1  1  0.74683900  0.87174500  0.41138500  1
  Yb  Yb2  1  0.24379900  0.14037300  0.11129200  1
  Yb  Yb3  1  0.75620100  0.85962700  0.88870800  1
  Sb  Sb4  1  0.20571000  0.63072500  0.21878600  1
  Sb  Sb5  1  0.79429000  0.36927500  0.78121400  1
  Sb  Sb6  1  0.73722900  0.33567000  0.33583600  1
  Sb  Sb7  1  0.26277100  0.66433000  0.66416400  1
  O  O8  1  0.10482000  0.41991700  0.62425400  1
  O  O9  1  0.89518000  0.58008300  0.37574600  1
  O  O10  1  0.62785800  0.30280300  0.57730200  1
  O  O11  1  0.37214200  0.69719700  0.42269800  1
  O  O12  1  0.00414800  0.41503900  0.12605700  1
  O  O13  1  0.99585200  0.58496100  0.87394300  1
  O  O14  1  0.46763800  0.44655500  0.19901300  1
  O  O15  1  0.53236200  0.55344500  0.80098700  1
  O  O16  1  0.00528100  0.84816300  0.14457900  1
  O  O17  1  0.99471900  0.15183700  0.85542100  1
  O  O18  1  0.50880100  0.11541200  0.32875000  1
  O  O19  1  0.49119900  0.88458800  0.67125000  1
  O  O20  1  0.57417800  0.18516100  0.91943300  1
  O  O21  1  0.42582200  0.81483900  0.08056700  1
  O  O22  1  0.99838200  0.15644200  0.36412500  1
  O  O23  1  0.00161800  0.84355800  0.63587500  1
