# generated using pymatgen
data_MgCd
_symmetry_space_group_name_H-M   'P 1'
_cell_length_a   6.06870609
_cell_length_b   6.06870609
_cell_length_c   7.31411199
_cell_angle_alpha   75.87935765
_cell_angle_beta   75.87935765
_cell_angle_gamma   30.55556469
_symmetry_Int_Tables_number   1
_chemical_formula_structural   MgCd
_chemical_formula_sum   'Mg3 Cd3'
_cell_volume   132.49034737
_cell_formula_units_Z   3
loop_
 _symmetry_equiv_pos_site_id
 _symmetry_equiv_pos_as_xyz
  1  'x, y, z'
loop_
 _atom_site_type_symbol
 _atom_site_label
 _atom_site_symmetry_multiplicity
 _atom_site_fract_x
 _atom_site_fract_y
 _atom_site_fract_z
 _atom_site_occupancy
  Mg  Mg0  1  0.99795700  0.99795700  0.00366000  1
  Mg  Mg1  1  0.94461500  0.94461500  0.60878300  1
  Mg  Mg2  1  0.66824500  0.66824500  0.66576400  1
  Cd  Cd3  1  0.60949500  0.60949500  0.27993600  1
  Cd  Cd4  1  0.33385800  0.33385800  0.33553700  1
  Cd  Cd5  1  0.27916200  0.27916200  0.93965400  1
