# generated using pymatgen
data_Y(AlFe2)4
_symmetry_space_group_name_H-M   'P 1'
_cell_length_a   6.49266165
_cell_length_b   6.49266165
_cell_length_c   6.49266165
_cell_angle_alpha   98.32191583
_cell_angle_beta   98.32191583
_cell_angle_gamma   135.27810487
_symmetry_Int_Tables_number   1
_chemical_formula_structural   Y(AlFe2)4
_chemical_formula_sum   'Y1 Al4 Fe8'
_cell_volume   178.10884299
_cell_formula_units_Z   1
loop_
 _symmetry_equiv_pos_site_id
 _symmetry_equiv_pos_as_xyz
  1  'x, y, z'
loop_
 _atom_site_type_symbol
 _atom_site_label
 _atom_site_symmetry_multiplicity
 _atom_site_fract_x
 _atom_site_fract_y
 _atom_site_fract_z
 _atom_site_occupancy
  Y  Y0  1  0.00000000  0.00000000  0.00000000  1
  Al  Al1  1  0.34509500  0.00000000  0.34509500  1
  Al  Al2  1  0.65490500  0.00000000  0.65490500  1
  Al  Al3  1  0.00000000  0.34509500  0.34509500  1
  Al  Al4  1  0.00000000  0.65490500  0.65490500  1
  Fe  Fe5  1  0.50000000  0.50000000  0.50000000  1
  Fe  Fe6  1  0.00000000  0.00000000  0.50000000  1
  Fe  Fe7  1  0.00000000  0.50000000  0.00000000  1
  Fe  Fe8  1  0.50000000  0.00000000  0.00000000  1
  Fe  Fe9  1  0.26719600  0.50000000  0.76719600  1
  Fe  Fe10  1  0.73280400  0.50000000  0.23280400  1
  Fe  Fe11  1  0.50000000  0.26719600  0.76719600  1
  Fe  Fe12  1  0.50000000  0.73280400  0.23280400  1
