# generated using pymatgen
data_Y2SnAu2
_symmetry_space_group_name_H-M   'P 1'
_cell_length_a   8.36921700
_cell_length_b   8.36921700
_cell_length_c   3.60086000
_cell_angle_alpha   90.00000000
_cell_angle_beta   90.00000000
_cell_angle_gamma   90.00000000
_symmetry_Int_Tables_number   1
_chemical_formula_structural   Y2SnAu2
_chemical_formula_sum   'Y4 Sn2 Au4'
_cell_volume   252.21789316
_cell_formula_units_Z   2
loop_
 _symmetry_equiv_pos_site_id
 _symmetry_equiv_pos_as_xyz
  1  'x, y, z'
loop_
 _atom_site_type_symbol
 _atom_site_label
 _atom_site_symmetry_multiplicity
 _atom_site_fract_x
 _atom_site_fract_y
 _atom_site_fract_z
 _atom_site_occupancy
  Y  Y0  1  0.83698700  0.33698700  0.50000000  1
  Y  Y1  1  0.16301300  0.66301300  0.50000000  1
  Y  Y2  1  0.33698700  0.16301300  0.50000000  1
  Y  Y3  1  0.66301300  0.83698700  0.50000000  1
  Sn  Sn4  1  0.00000000  0.00000000  0.50000000  1
  Sn  Sn5  1  0.50000000  0.50000000  0.50000000  1
  Au  Au6  1  0.62919800  0.12919800  0.00000000  1
  Au  Au7  1  0.37080200  0.87080200  0.00000000  1
  Au  Au8  1  0.12919800  0.37080200  0.00000000  1
  Au  Au9  1  0.87080200  0.62919800  0.00000000  1
