# generated using pymatgen
data_Yb2CO7
_symmetry_space_group_name_H-M   'P 1'
_cell_length_a   6.38641800
_cell_length_b   6.43759100
_cell_length_c   15.55554559
_cell_angle_alpha   82.07586153
_cell_angle_beta   90.00000000
_cell_angle_gamma   90.00000000
_symmetry_Int_Tables_number   1
_chemical_formula_structural   Yb2CO7
_chemical_formula_sum   'Yb8 C4 O28'
_cell_volume   633.43079090
_cell_formula_units_Z   4
loop_
 _symmetry_equiv_pos_site_id
 _symmetry_equiv_pos_as_xyz
  1  'x, y, z'
loop_
 _atom_site_type_symbol
 _atom_site_label
 _atom_site_symmetry_multiplicity
 _atom_site_fract_x
 _atom_site_fract_y
 _atom_site_fract_z
 _atom_site_occupancy
  Yb  Yb0  1  0.25539100  0.90954200  0.57210400  1
  Yb  Yb1  1  0.74460900  0.09045800  0.42789600  1
  Yb  Yb2  1  0.75539100  0.09045800  0.92789600  1
  Yb  Yb3  1  0.24460900  0.90954200  0.07210400  1
  Yb  Yb4  1  0.23110600  0.89184700  0.81160000  1
  Yb  Yb5  1  0.76889400  0.10815300  0.18840000  1
  Yb  Yb6  1  0.73110600  0.10815300  0.68840000  1
  Yb  Yb7  1  0.26889400  0.89184700  0.31160000  1
  C  C8  1  0.42210900  0.41051300  0.61608000  1
  C  C9  1  0.57789100  0.58948700  0.38392000  1
  C  C10  1  0.92210900  0.58948700  0.88392000  1
  C  C11  1  0.07789100  0.41051300  0.11608000  1
  O  O12  1  0.87646600  0.92845400  0.06671500  1
  O  O13  1  0.12353400  0.07154600  0.93328500  1
  O  O14  1  0.37646600  0.07154600  0.43328500  1
  O  O15  1  0.62353400  0.92845400  0.56671500  1
  O  O16  1  0.41945200  0.91034700  0.93875800  1
  O  O17  1  0.58054800  0.08965300  0.06124200  1
  O  O18  1  0.91945200  0.08965300  0.56124200  1
  O  O19  1  0.08054800  0.91034700  0.43875800  1
  O  O20  1  0.28823600  0.55029000  0.58996000  1
  O  O21  1  0.71176400  0.44971000  0.41004000  1
  O  O22  1  0.78823600  0.44971000  0.91004000  1
  O  O23  1  0.21176400  0.55029000  0.08996000  1
  O  O24  1  0.87334600  0.78721800  0.87889500  1
  O  O25  1  0.12665400  0.21278200  0.12110500  1
  O  O26  1  0.37334600  0.21278200  0.62110500  1
  O  O27  1  0.62665400  0.78721800  0.37889500  1
  O  O28  1  0.50702800  0.83044400  0.71888200  1
  O  O29  1  0.49297200  0.16955600  0.28111800  1
  O  O30  1  0.00702800  0.16955600  0.78111800  1
  O  O31  1  0.99297200  0.83044400  0.21888200  1
  O  O32  1  0.03305900  0.91912400  0.68776900  1
  O  O33  1  0.96694100  0.08087600  0.31223100  1
  O  O34  1  0.53305900  0.08087600  0.81223100  1
  O  O35  1  0.46694100  0.91912400  0.18776900  1
  O  O36  1  0.10869100  0.54871600  0.86134500  1
  O  O37  1  0.89130900  0.45128400  0.13865500  1
  O  O38  1  0.60869100  0.45128400  0.63865500  1
  O  O39  1  0.39130900  0.54871600  0.36134500  1
