# generated using pymatgen
data_Yb4Al2O9
_symmetry_space_group_name_H-M   'P 1'
_cell_length_a   10.64487900
_cell_length_b   7.51177500
_cell_length_c   11.09958056
_cell_angle_alpha   72.99937002
_cell_angle_beta   90.00000000
_cell_angle_gamma   90.00000000
_symmetry_Int_Tables_number   1
_chemical_formula_structural   Yb4Al2O9
_chemical_formula_sum   'Yb16 Al8 O36'
_cell_volume   848.75964739
_cell_formula_units_Z   4
loop_
 _symmetry_equiv_pos_site_id
 _symmetry_equiv_pos_as_xyz
  1  'x, y, z'
loop_
 _atom_site_type_symbol
 _atom_site_label
 _atom_site_symmetry_multiplicity
 _atom_site_fract_x
 _atom_site_fract_y
 _atom_site_fract_z
 _atom_site_occupancy
  Yb  Yb0  1  0.59206200  0.47479900  0.30191500  1
  Yb  Yb1  1  0.40793800  0.52520100  0.69808500  1
  Yb  Yb2  1  0.09206200  0.52520100  0.19808500  1
  Yb  Yb3  1  0.90793800  0.47479900  0.80191500  1
  Yb  Yb4  1  0.60392500  0.98707300  0.26775200  1
  Yb  Yb5  1  0.39607500  0.01292700  0.73224800  1
  Yb  Yb6  1  0.10392500  0.01292700  0.23224800  1
  Yb  Yb7  1  0.89607500  0.98707300  0.76775200  1
  Yb  Yb8  1  0.36588200  0.80603700  0.07309000  1
  Yb  Yb9  1  0.63411800  0.19396300  0.92691000  1
  Yb  Yb10  1  0.86588200  0.19396300  0.42691000  1
  Yb  Yb11  1  0.13411800  0.80603700  0.57309000  1
  Yb  Yb12  1  0.86255900  0.66986900  0.41100300  1
  Yb  Yb13  1  0.13744100  0.33013100  0.58899700  1
  Yb  Yb14  1  0.36255900  0.33013100  0.08899700  1
  Yb  Yb15  1  0.63744100  0.66986900  0.91100300  1
  Al  Al16  1  0.82147200  0.85185100  0.10710500  1
  Al  Al17  1  0.17852800  0.14814900  0.89289500  1
  Al  Al18  1  0.32147200  0.14814900  0.39289500  1
  Al  Al19  1  0.67852800  0.85185100  0.60710500  1
  Al  Al20  1  0.81705900  0.28009100  0.12942200  1
  Al  Al21  1  0.18294100  0.71990900  0.87057800  1
  Al  Al22  1  0.31705900  0.71990900  0.37057800  1
  Al  Al23  1  0.68294100  0.28009100  0.62942200  1
  O  O24  1  0.71918400  0.43262600  0.48101400  1
  O  O25  1  0.28081600  0.56737400  0.51898600  1
  O  O26  1  0.21918400  0.56737400  0.01898600  1
  O  O27  1  0.78081600  0.43262600  0.98101400  1
  O  O28  1  0.70531100  0.85281200  0.45179200  1
  O  O29  1  0.29468900  0.14718800  0.54820800  1
  O  O30  1  0.20531100  0.14718800  0.04820800  1
  O  O31  1  0.79468900  0.85281200  0.95179200  1
  O  O32  1  0.96454700  0.78828300  0.18840700  1
  O  O33  1  0.03545300  0.21171700  0.81159300  1
  O  O34  1  0.46454700  0.21171700  0.31159300  1
  O  O35  1  0.53545300  0.78828300  0.68840700  1
  O  O36  1  0.50709300  0.56536700  0.08787100  1
  O  O37  1  0.49290700  0.43463300  0.91212900  1
  O  O38  1  0.00709300  0.43463300  0.41212900  1
  O  O39  1  0.99290700  0.56536700  0.58787100  1
  O  O40  1  0.73486700  0.70458500  0.23052200  1
  O  O41  1  0.26513300  0.29541500  0.76947800  1
  O  O42  1  0.23486700  0.29541500  0.26947800  1
  O  O43  1  0.76513300  0.70458500  0.73052200  1
  O  O44  1  0.72642800  0.26405000  0.26525500  1
  O  O45  1  0.27357200  0.73595000  0.73474500  1
  O  O46  1  0.22642800  0.73595000  0.23474500  1
  O  O47  1  0.77357200  0.26405000  0.76525500  1
  O  O48  1  0.26011400  0.92950200  0.39617600  1
  O  O49  1  0.73988600  0.07049800  0.60382400  1
  O  O50  1  0.76011400  0.07049800  0.10382400  1
  O  O51  1  0.23988600  0.92950200  0.89617600  1
  O  O52  1  0.47117800  0.72955600  0.31249700  1
  O  O53  1  0.52882200  0.27044400  0.68750300  1
  O  O54  1  0.97117800  0.27044400  0.18750300  1
  O  O55  1  0.02882200  0.72955600  0.81249700  1
  O  O56  1  0.98097400  0.93661000  0.41987800  1
  O  O57  1  0.01902600  0.06339000  0.58012200  1
  O  O58  1  0.48097400  0.06339000  0.08012200  1
  O  O59  1  0.51902500  0.93661000  0.91987800  1
