# generated using pymatgen
data_Zn3P2(HO2)4
_symmetry_space_group_name_H-M   'P 1'
_cell_length_a   5.27626900
_cell_length_b   10.45302600
_cell_length_c   18.02539100
_cell_angle_alpha   90.00000000
_cell_angle_beta   90.00000000
_cell_angle_gamma   90.00000000
_symmetry_Int_Tables_number   1
_chemical_formula_structural   Zn3P2(HO2)4
_chemical_formula_sum   'Zn12 P8 H16 O32'
_cell_volume   994.15397596
_cell_formula_units_Z   4
loop_
 _symmetry_equiv_pos_site_id
 _symmetry_equiv_pos_as_xyz
  1  'x, y, z'
loop_
 _atom_site_type_symbol
 _atom_site_label
 _atom_site_symmetry_multiplicity
 _atom_site_fract_x
 _atom_site_fract_y
 _atom_site_fract_z
 _atom_site_occupancy
  Zn  Zn0  1  0.28426600  0.25176200  0.25000000  1
  Zn  Zn1  1  0.71573400  0.74823800  0.75000000  1
  Zn  Zn2  1  0.78426600  0.24823800  0.75000000  1
  Zn  Zn3  1  0.21573400  0.75176200  0.25000000  1
  Zn  Zn4  1  0.15949100  0.35042500  0.00207900  1
  Zn  Zn5  1  0.84050900  0.64957500  0.99792100  1
  Zn  Zn6  1  0.65949100  0.14957500  0.99792100  1
  Zn  Zn7  1  0.84050900  0.64957500  0.50207900  1
  Zn  Zn8  1  0.34050900  0.85042500  0.00207900  1
  Zn  Zn9  1  0.15949100  0.35042500  0.49792100  1
  Zn  Zn10  1  0.34050900  0.85042500  0.49792100  1
  Zn  Zn11  1  0.65949100  0.14957500  0.50207900  1
  P  P12  1  0.15887900  0.09210200  0.09201600  1
  P  P13  1  0.84112100  0.90789800  0.90798400  1
  P  P14  1  0.65887900  0.40789800  0.90798400  1
  P  P15  1  0.84112100  0.90789800  0.59201600  1
  P  P16  1  0.34112100  0.59210200  0.09201600  1
  P  P17  1  0.15887900  0.09210200  0.40798400  1
  P  P18  1  0.34112100  0.59210200  0.40798400  1
  P  P19  1  0.65887900  0.40789800  0.59201600  1
  H  H20  1  0.20960800  0.22693700  0.72625000  1
  H  H21  1  0.79039200  0.77306300  0.27375000  1
  H  H22  1  0.70960800  0.27306300  0.27375000  1
  H  H23  1  0.79039200  0.77306300  0.22625000  1
  H  H24  1  0.29039200  0.72693700  0.72625000  1
  H  H25  1  0.20960800  0.22693700  0.77375000  1
  H  H26  1  0.29039200  0.72693700  0.77375000  1
  H  H27  1  0.70960800  0.27306300  0.22625000  1
  H  H28  1  0.84811100  0.22908400  0.25000000  1
  H  H29  1  0.15188900  0.77091600  0.75000000  1
  H  H30  1  0.34811100  0.27091600  0.75000000  1
  H  H31  1  0.65188900  0.72908400  0.25000000  1
  H  H32  1  0.46641700  0.36854300  0.25000000  1
  H  H33  1  0.53358300  0.63145700  0.75000000  1
  H  H34  1  0.96641700  0.13145700  0.75000000  1
  H  H35  1  0.03358300  0.86854300  0.25000000  1
  O  O36  1  0.21564700  0.14567600  0.16997400  1
  O  O37  1  0.78435300  0.85432400  0.83002600  1
  O  O38  1  0.71564700  0.35432400  0.83002600  1
  O  O39  1  0.78435300  0.85432400  0.66997400  1
  O  O40  1  0.28435300  0.64567600  0.16997400  1
  O  O41  1  0.21564700  0.14567600  0.33002600  1
  O  O42  1  0.28435300  0.64567600  0.33002600  1
  O  O43  1  0.71564700  0.35432400  0.66997400  1
  O  O44  1  0.29745100  0.17562500  0.02990000  1
  O  O45  1  0.70254900  0.82437500  0.97010000  1
  O  O46  1  0.79745100  0.32437500  0.97010000  1
  O  O47  1  0.70254900  0.82437500  0.52990000  1
  O  O48  1  0.20254900  0.67562500  0.02990000  1
  O  O49  1  0.29745100  0.17562500  0.47010000  1
  O  O50  1  0.20254900  0.67562500  0.47010000  1
  O  O51  1  0.79745100  0.32437500  0.52990000  1
  O  O52  1  0.23153800  0.45591700  0.08822800  1
  O  O53  1  0.76846200  0.54408300  0.91177200  1
  O  O54  1  0.73153800  0.04408300  0.91177200  1
  O  O55  1  0.76846200  0.54408300  0.58822800  1
  O  O56  1  0.26846200  0.95591700  0.08822800  1
  O  O57  1  0.23153800  0.45591700  0.41177200  1
  O  O58  1  0.26846200  0.95591700  0.41177200  1
  O  O59  1  0.73153800  0.04408300  0.58822800  1
  O  O60  1  0.37067400  0.39771800  0.58136500  1
  O  O61  1  0.62932600  0.60228200  0.41863500  1
  O  O62  1  0.87067400  0.10228200  0.41863500  1
  O  O63  1  0.62932600  0.60228200  0.08136500  1
  O  O64  1  0.12932600  0.89771800  0.58136500  1
  O  O65  1  0.37067400  0.39771800  0.91863500  1
  O  O66  1  0.12932600  0.89771800  0.91863500  1
  O  O67  1  0.87067400  0.10228200  0.08136500  1
