# generated using pymatgen
data_YPO6
_symmetry_space_group_name_H-M   'P 1'
_cell_length_a   8.30886439
_cell_length_b   8.30886439
_cell_length_c   5.75538156
_cell_angle_alpha   81.04488416
_cell_angle_beta   81.04488416
_cell_angle_gamma   138.57926356
_symmetry_Int_Tables_number   1
_chemical_formula_structural   YPO6
_chemical_formula_sum   'Y2 P2 O12'
_cell_volume   236.03633860
_cell_formula_units_Z   2
loop_
 _symmetry_equiv_pos_site_id
 _symmetry_equiv_pos_as_xyz
  1  'x, y, z'
loop_
 _atom_site_type_symbol
 _atom_site_label
 _atom_site_symmetry_multiplicity
 _atom_site_fract_x
 _atom_site_fract_y
 _atom_site_fract_z
 _atom_site_occupancy
  Y  Y0  1  0.32017100  0.67982900  0.75000000  1
  Y  Y1  1  0.67982900  0.32017100  0.25000000  1
  P  P2  1  0.83508400  0.16491600  0.75000000  1
  P  P3  1  0.16491600  0.83508400  0.25000000  1
  O  O4  1  0.71114700  0.15727300  0.56390000  1
  O  O5  1  0.28885300  0.84272700  0.43610000  1
  O  O6  1  0.84272700  0.28885300  0.93610000  1
  O  O7  1  0.15727300  0.71114700  0.06390000  1
  O  O8  1  0.18189000  0.05126700  0.69391100  1
  O  O9  1  0.81811000  0.94873300  0.30608900  1
  O  O10  1  0.94873300  0.81811000  0.80608900  1
  O  O11  1  0.05126700  0.18189000  0.19391100  1
  O  O12  1  0.64299700  0.86781000  0.89163700  1
  O  O13  1  0.35700300  0.13219000  0.10836300  1
  O  O14  1  0.13219000  0.35700300  0.60836300  1
  O  O15  1  0.86781000  0.64299700  0.39163700  1
