# generated using pymatgen
data_Y5(Co2Ge5)2
_symmetry_space_group_name_H-M   'P 1'
_cell_length_a   12.79766500
_cell_length_b   12.79766500
_cell_length_c   4.19983000
_cell_angle_alpha   90.00000000
_cell_angle_beta   90.00000000
_cell_angle_gamma   90.00000000
_symmetry_Int_Tables_number   1
_chemical_formula_structural   Y5(Co2Ge5)2
_chemical_formula_sum   'Y10 Co8 Ge20'
_cell_volume   687.84912106
_cell_formula_units_Z   2
loop_
 _symmetry_equiv_pos_site_id
 _symmetry_equiv_pos_as_xyz
  1  'x, y, z'
loop_
 _atom_site_type_symbol
 _atom_site_label
 _atom_site_symmetry_multiplicity
 _atom_site_fract_x
 _atom_site_fract_y
 _atom_site_fract_z
 _atom_site_occupancy
  Y  Y0  1  0.11190300  0.61190300  0.50000000  1
  Y  Y1  1  0.88809700  0.38809700  0.50000000  1
  Y  Y2  1  0.61190300  0.88809700  0.50000000  1
  Y  Y3  1  0.38809700  0.11190300  0.50000000  1
  Y  Y4  1  0.67734100  0.17734100  0.50000000  1
  Y  Y5  1  0.32265900  0.82265900  0.50000000  1
  Y  Y6  1  0.17734100  0.32265900  0.50000000  1
  Y  Y7  1  0.82265900  0.67734100  0.50000000  1
  Y  Y8  1  0.00000000  0.00000000  0.00000000  1
  Y  Y9  1  0.50000000  0.50000000  0.00000000  1
  Co  Co10  1  0.02550100  0.24475500  0.00000000  1
  Co  Co11  1  0.97449900  0.75524500  0.00000000  1
  Co  Co12  1  0.24475500  0.97449900  0.00000000  1
  Co  Co13  1  0.52550100  0.25524500  0.00000000  1
  Co  Co14  1  0.75524500  0.02550100  0.00000000  1
  Co  Co15  1  0.47449900  0.74475500  0.00000000  1
  Co  Co16  1  0.74475500  0.52550100  0.00000000  1
  Co  Co17  1  0.25524500  0.47449900  0.00000000  1
  Ge  Ge18  1  0.56861000  0.06861000  0.00000000  1
  Ge  Ge19  1  0.43139000  0.93139000  0.00000000  1
  Ge  Ge20  1  0.06861000  0.43139000  0.00000000  1
  Ge  Ge21  1  0.93139000  0.56861000  0.00000000  1
  Ge  Ge22  1  0.19786500  0.15481800  0.00000000  1
  Ge  Ge23  1  0.80213500  0.84518200  0.00000000  1
  Ge  Ge24  1  0.15481800  0.80213500  0.00000000  1
  Ge  Ge25  1  0.69786500  0.34518200  0.00000000  1
  Ge  Ge26  1  0.84518200  0.19786500  0.00000000  1
  Ge  Ge27  1  0.30213500  0.65481800  0.00000000  1
  Ge  Ge28  1  0.65481800  0.69786500  0.00000000  1
  Ge  Ge29  1  0.34518200  0.30213500  0.00000000  1
  Ge  Ge30  1  0.00372300  0.16702700  0.50000000  1
  Ge  Ge31  1  0.99627700  0.83297300  0.50000000  1
  Ge  Ge32  1  0.16702700  0.99627700  0.50000000  1
  Ge  Ge33  1  0.50372300  0.33297300  0.50000000  1
  Ge  Ge34  1  0.83297300  0.00372300  0.50000000  1
  Ge  Ge35  1  0.49627700  0.66702700  0.50000000  1
  Ge  Ge36  1  0.66702700  0.50372300  0.50000000  1
  Ge  Ge37  1  0.33297300  0.49627700  0.50000000  1
