# generated using pymatgen
data_Y2NiRuO6
_symmetry_space_group_name_H-M   'P 1'
_cell_length_a   5.71345400
_cell_length_b   5.31876800
_cell_length_c   9.30222089
_cell_angle_alpha   55.41432792
_cell_angle_beta   90.00000000
_cell_angle_gamma   90.00000000
_symmetry_Int_Tables_number   1
_chemical_formula_structural   Y2NiRuO6
_chemical_formula_sum   'Y4 Ni2 Ru2 O12'
_cell_volume   232.72504419
_cell_formula_units_Z   2
loop_
 _symmetry_equiv_pos_site_id
 _symmetry_equiv_pos_as_xyz
  1  'x, y, z'
loop_
 _atom_site_type_symbol
 _atom_site_label
 _atom_site_symmetry_multiplicity
 _atom_site_fract_x
 _atom_site_fract_y
 _atom_site_fract_z
 _atom_site_occupancy
  Y  Y0  1  0.07799900  0.72385700  0.75185700  1
  Y  Y1  1  0.92200100  0.27614300  0.24814300  1
  Y  Y2  1  0.57799900  0.27614300  0.74814300  1
  Y  Y3  1  0.42200100  0.72385700  0.25185700  1
  Ni  Ni4  1  0.50000000  0.50000000  0.00000000  1
  Ni  Ni5  1  0.00000000  0.50000000  0.50000000  1
  Ru  Ru6  1  0.50000000  0.00000000  0.50000000  1
  Ru  Ru7  1  0.00000000  0.00000000  0.00000000  1
  O  O8  1  0.45683500  0.87535400  0.74754900  1
  O  O9  1  0.54316500  0.12464600  0.25245100  1
  O  O10  1  0.95683500  0.12464600  0.75245100  1
  O  O11  1  0.04316500  0.87535400  0.24754900  1
  O  O12  1  0.80064800  0.75329300  0.56481600  1
  O  O13  1  0.19935200  0.24670700  0.43518400  1
  O  O14  1  0.30064800  0.24670700  0.93518400  1
  O  O15  1  0.69935200  0.75329300  0.06481600  1
  O  O16  1  0.31000800  0.63071700  0.55822000  1
  O  O17  1  0.68999200  0.36928300  0.44178000  1
  O  O18  1  0.81000800  0.36928300  0.94178000  1
  O  O19  1  0.18999200  0.63071700  0.05822000  1
