# generated using pymatgen
data_MgCd
_symmetry_space_group_name_H-M   'P 1'
_cell_length_a   5.49379097
_cell_length_b   5.49379097
_cell_length_c   6.08488794
_cell_angle_alpha   62.50878496
_cell_angle_beta   62.50878496
_cell_angle_gamma   57.52070517
_symmetry_Int_Tables_number   1
_chemical_formula_structural   MgCd
_chemical_formula_sum   'Mg3 Cd3'
_cell_volume   131.70798282
_cell_formula_units_Z   3
loop_
 _symmetry_equiv_pos_site_id
 _symmetry_equiv_pos_as_xyz
  1  'x, y, z'
loop_
 _atom_site_type_symbol
 _atom_site_label
 _atom_site_symmetry_multiplicity
 _atom_site_fract_x
 _atom_site_fract_y
 _atom_site_fract_z
 _atom_site_occupancy
  Mg  Mg0  1  0.67360300  0.99829700  0.00129700  1
  Mg  Mg1  1  0.00170300  0.32639700  0.99870300  1
  Mg  Mg2  1  0.49193200  0.50806800  0.50000000  1
  Cd  Cd3  1  0.33916800  0.66083200  0.00000000  1
  Cd  Cd4  1  0.16253000  0.16893700  0.50460600  1
  Cd  Cd5  1  0.83106300  0.83747000  0.49539400  1
