# generated using pymatgen
data_YVO2
_symmetry_space_group_name_H-M   'P 1'
_cell_length_a   7.30955748
_cell_length_b   7.30955748
_cell_length_c   7.30955748
_cell_angle_alpha   129.81404047
_cell_angle_beta   129.81404047
_cell_angle_gamma   73.70422690
_symmetry_Int_Tables_number   1
_chemical_formula_structural   YVO2
_chemical_formula_sum   'Y4 V4 O8'
_cell_volume   224.82117873
_cell_formula_units_Z   4
loop_
 _symmetry_equiv_pos_site_id
 _symmetry_equiv_pos_as_xyz
  1  'x, y, z'
loop_
 _atom_site_type_symbol
 _atom_site_label
 _atom_site_symmetry_multiplicity
 _atom_site_fract_x
 _atom_site_fract_y
 _atom_site_fract_z
 _atom_site_occupancy
  Y  Y0  1  0.87500000  0.62500000  0.25000000  1
  Y  Y1  1  0.37500000  0.62500000  0.75000000  1
  Y  Y2  1  0.37500000  0.62500000  0.25000000  1
  Y  Y3  1  0.37500000  0.12500000  0.75000000  1
  V  V4  1  0.37500000  0.12500000  0.25000000  1
  V  V5  1  0.87500000  0.12500000  0.75000000  1
  V  V6  1  0.87500000  0.12500000  0.25000000  1
  V  V7  1  0.87500000  0.62500000  0.75000000  1
  O  O8  1  0.17404700  0.40708400  0.23303700  1
  O  O9  1  0.17404700  0.94101000  0.76696300  1
  O  O10  1  0.15708400  0.42404700  0.73303700  1
  O  O11  1  0.57595300  0.84291600  0.26696300  1
  O  O12  1  0.69101000  0.42404700  0.26696300  1
  O  O13  1  0.57595300  0.30899000  0.73303700  1
  O  O14  1  0.59291600  0.82595300  0.76696300  1
  O  O15  1  0.05899000  0.82595300  0.23303700  1
