# generated using pymatgen
data_Yb5Pt9
_symmetry_space_group_name_H-M   'P 1'
_cell_length_a   9.71615100
_cell_length_b   9.71615100
_cell_length_c   5.68812000
_cell_angle_alpha   90.00000000
_cell_angle_beta   90.00000000
_cell_angle_gamma   90.00000000
_symmetry_Int_Tables_number   1
_chemical_formula_structural   Yb5Pt9
_chemical_formula_sum   'Yb10 Pt18'
_cell_volume   536.97894980
_cell_formula_units_Z   2
loop_
 _symmetry_equiv_pos_site_id
 _symmetry_equiv_pos_as_xyz
  1  'x, y, z'
loop_
 _atom_site_type_symbol
 _atom_site_label
 _atom_site_symmetry_multiplicity
 _atom_site_fract_x
 _atom_site_fract_y
 _atom_site_fract_z
 _atom_site_occupancy
  Yb  Yb0  1  0.45351300  0.81190500  0.00000000  1
  Yb  Yb1  1  0.54648700  0.18809500  0.00000000  1
  Yb  Yb2  1  0.18809500  0.54648700  0.00000000  1
  Yb  Yb3  1  0.81190500  0.45351300  0.00000000  1
  Yb  Yb4  1  0.50000000  0.50000000  0.50000000  1
  Yb  Yb5  1  0.31190500  0.04648700  0.50000000  1
  Yb  Yb6  1  0.68809500  0.95351300  0.50000000  1
  Yb  Yb7  1  0.95351300  0.68809500  0.50000000  1
  Yb  Yb8  1  0.04648700  0.31190500  0.50000000  1
  Yb  Yb9  1  0.00000000  0.00000000  0.00000000  1
  Pt  Pt10  1  0.18917800  0.81082200  0.25107200  1
  Pt  Pt11  1  0.81082200  0.18917800  0.74892800  1
  Pt  Pt12  1  0.81082200  0.18917800  0.25107200  1
  Pt  Pt13  1  0.18917800  0.81082200  0.74892800  1
  Pt  Pt14  1  0.43824300  0.77562400  0.50000000  1
  Pt  Pt15  1  0.56175700  0.22437600  0.50000000  1
  Pt  Pt16  1  0.22437600  0.56175700  0.50000000  1
  Pt  Pt17  1  0.77562400  0.43824300  0.50000000  1
  Pt  Pt18  1  0.31082200  0.31082200  0.24892800  1
  Pt  Pt19  1  0.68917800  0.68917800  0.75107200  1
  Pt  Pt20  1  0.68917800  0.68917800  0.24892800  1
  Pt  Pt21  1  0.31082200  0.31082200  0.75107200  1
  Pt  Pt22  1  0.27562400  0.06175700  0.00000000  1
  Pt  Pt23  1  0.72437600  0.93824300  0.00000000  1
  Pt  Pt24  1  0.93824300  0.72437600  0.00000000  1
  Pt  Pt25  1  0.06175700  0.27562400  0.00000000  1
  Pt  Pt26  1  0.00000000  0.00000000  0.50000000  1
  Pt  Pt27  1  0.50000000  0.50000000  0.00000000  1
