data_image0
_chemical_formula_structural       F24Na8Zr4
_chemical_formula_sum              "F24 Na8 Zr4"
_cell_length_a       5.17128
_cell_length_b       5.07812
_cell_length_c       15.1723
_cell_angle_alpha    90
_cell_angle_beta     94.8542
_cell_angle_gamma    90

_space_group_name_H-M_alt    "P 1"
_space_group_IT_number       1

loop_
  _space_group_symop_operation_xyz
  'x, y, z'

loop_
  _atom_site_type_symbol
  _atom_site_label
  _atom_site_symmetry_multiplicity
  _atom_site_fract_x
  _atom_site_fract_y
  _atom_site_fract_z
  _atom_site_occupancy
  F   F1        1.0  0.00281  0.73400  0.33100  1.0000
  F   F2        1.0  0.99700  0.23400  0.16900  1.0000
  F   F3        1.0  0.99700  0.26600  0.66900  1.0000
  F   F4        1.0  0.00281  0.76600  0.83100  1.0000
  F   F5        1.0  0.02900  0.21800  0.34500  1.0000
  F   F6        1.0  0.97100  0.71800  0.15500  1.0000
  F   F7        1.0  0.97100  0.78200  0.65500  1.0000
  F   F8        1.0  0.02900  0.28200  0.84500  1.0000
  F   F9        1.0  0.41600  0.27200  0.00777  1.0000
  F   F10       1.0  0.58400  0.77200  0.49200  1.0000
  F   F11       1.0  0.58400  0.72800  0.99200  1.0000
  F   F12       1.0  0.41600  0.22800  0.50800  1.0000
  F   F13       1.0  0.54300  0.23600  0.34500  1.0000
  F   F14       1.0  0.45700  0.73600  0.15500  1.0000
  F   F15       1.0  0.45700  0.76400  0.65500  1.0000
  F   F16       1.0  0.54300  0.26400  0.84500  1.0000
  F   F17       1.0  0.47600  0.24400  0.17300  1.0000
  F   F18       1.0  0.52400  0.74400  0.32700  1.0000
  F   F19       1.0  0.52400  0.75600  0.82700  1.0000
  F   F20       1.0  0.47600  0.25600  0.67300  1.0000
  F   F21       1.0  0.91800  0.27300  0.00604  1.0000
  F   F22       1.0  0.08230  0.77300  0.49400  1.0000
  F   F23       1.0  0.08230  0.72700  0.99400  1.0000
  F   F24       1.0  0.91800  0.22700  0.50600  1.0000
  Na  Na1       1.0  0.24500  0.97900  0.25100  1.0000
  Na  Na2       1.0  0.75500  0.47900  0.24900  1.0000
  Na  Na3       1.0  0.75500  0.02090  0.74900  1.0000
  Na  Na4       1.0  0.24500  0.52100  0.75100  1.0000
  Na  Na5       1.0  0.28900  0.50600  0.41000  1.0000
  Na  Na6       1.0  0.71100  0.00555  0.08980  1.0000
  Na  Na7       1.0  0.71100  0.49400  0.59000  1.0000
  Na  Na8       1.0  0.28900  0.99400  0.91000  1.0000
  Zr  Zr1       1.0  0.21600  0.46600  0.09730  1.0000
  Zr  Zr2       1.0  0.78400  0.96600  0.40300  1.0000
  Zr  Zr3       1.0  0.78400  0.53400  0.90300  1.0000
  Zr  Zr4       1.0  0.21600  0.03360  0.59700  1.0000
