# generated using pymatgen
data_YFe3(BO3)4
_symmetry_space_group_name_H-M   'P 1'
_cell_length_a   9.61627077
_cell_length_b   9.61627077
_cell_length_c   7.65740300
_cell_angle_alpha   90.00000000
_cell_angle_beta   90.00000000
_cell_angle_gamma   120.00000530
_symmetry_Int_Tables_number   1
_chemical_formula_structural   YFe3(BO3)4
_chemical_formula_sum   'Y3 Fe9 B12 O36'
_cell_volume   613.23294641
_cell_formula_units_Z   3
loop_
 _symmetry_equiv_pos_site_id
 _symmetry_equiv_pos_as_xyz
  1  'x, y, z'
loop_
 _atom_site_type_symbol
 _atom_site_label
 _atom_site_symmetry_multiplicity
 _atom_site_fract_x
 _atom_site_fract_y
 _atom_site_fract_z
 _atom_site_occupancy
  Y  Y0  1  0.66435300  0.00000000  0.33333300  1
  Y  Y1  1  0.00000000  0.66435300  0.66666700  1
  Y  Y2  1  0.33564700  0.33564700  0.00000000  1
  Fe  Fe3  1  0.11544400  0.00000000  0.33333300  1
  Fe  Fe4  1  0.00000000  0.11544400  0.66666700  1
  Fe  Fe5  1  0.88455600  0.88455600  0.00000000  1
  Fe  Fe6  1  0.54860600  0.21173700  0.65495300  1
  Fe  Fe7  1  0.78826300  0.33686800  0.98828600  1
  Fe  Fe8  1  0.21173700  0.54860600  0.34504700  1
  Fe  Fe9  1  0.66313200  0.45139400  0.32161900  1
  Fe  Fe10  1  0.33686800  0.78826300  0.01171400  1
  Fe  Fe11  1  0.45139400  0.66313200  0.67838100  1
  B  B12  1  0.22152700  0.00000000  0.83333300  1
  B  B13  1  0.00000000  0.22152700  0.16666700  1
  B  B14  1  0.77847300  0.77847300  0.50000000  1
  B  B15  1  0.66764700  0.00000000  0.83333300  1
  B  B16  1  0.00000000  0.66764700  0.16666700  1
  B  B17  1  0.33235300  0.33235300  0.50000000  1
  B  B18  1  0.12607700  0.44869800  0.84956100  1
  B  B19  1  0.55130200  0.67737900  0.18289400  1
  B  B20  1  0.44869800  0.12607700  0.15043900  1
  B  B21  1  0.32262100  0.87392300  0.51622800  1
  B  B22  1  0.67737900  0.55130200  0.81710600  1
  B  B23  1  0.87392300  0.32262100  0.48377200  1
  O  O24  1  0.36110300  0.14690300  0.81376400  1
  O  O25  1  0.85309700  0.21420000  0.14709800  1
  O  O26  1  0.14690300  0.36110300  0.18623600  1
  O  O27  1  0.78580000  0.63889700  0.48043100  1
  O  O28  1  0.21420000  0.85309700  0.85290200  1
  O  O29  1  0.63889700  0.78580000  0.51956900  1
  O  O30  1  0.27775000  0.58078500  0.87530200  1
  O  O31  1  0.41921500  0.69696500  0.20863600  1
  O  O32  1  0.58078500  0.27775000  0.12469800  1
  O  O33  1  0.30303500  0.72225000  0.54196900  1
  O  O34  1  0.69696500  0.41921500  0.79136400  1
  O  O35  1  0.72225000  0.30303500  0.45803100  1
  O  O36  1  0.47366800  0.00653000  0.51940800  1
  O  O37  1  0.99347000  0.46713700  0.85274100  1
  O  O38  1  0.00653000  0.47366800  0.48059200  1
  O  O39  1  0.53286300  0.52633200  0.18607500  1
  O  O40  1  0.46713700  0.99347000  0.14725900  1
  O  O41  1  0.52633200  0.53286300  0.81392500  1
  O  O42  1  0.07777700  0.00000000  0.83333300  1
  O  O43  1  0.00000000  0.07777700  0.16666700  1
  O  O44  1  0.92222300  0.92222300  0.50000000  1
  O  O45  1  0.12344500  0.30532400  0.82286500  1
  O  O46  1  0.69467600  0.81812100  0.15619800  1
  O  O47  1  0.30532400  0.12344500  0.17713500  1
  O  O48  1  0.18187900  0.87655500  0.48953100  1
  O  O49  1  0.81812100  0.69467600  0.84380200  1
  O  O50  1  0.87655500  0.18187900  0.51046900  1
  O  O51  1  0.32987200  0.47470500  0.50945000  1
  O  O52  1  0.52529500  0.85516800  0.84278300  1
  O  O53  1  0.47470500  0.32987200  0.49055000  1
  O  O54  1  0.14483200  0.67012800  0.17611700  1
  O  O55  1  0.85516800  0.52529500  0.15721700  1
  O  O56  1  0.67012800  0.14483200  0.82388300  1
  O  O57  1  0.81144900  0.00000000  0.83333300  1
  O  O58  1  0.00000000  0.81144900  0.16666700  1
  O  O59  1  0.18855100  0.18855100  0.50000000  1
