# generated using pymatgen
data_WN2OF5
_symmetry_space_group_name_H-M   'P 1'
_cell_length_a   6.29217100
_cell_length_b   7.64626600
_cell_length_c   8.31447939
_cell_angle_alpha   90.00000000
_cell_angle_beta   112.23376888
_cell_angle_gamma   90.00000000
_symmetry_Int_Tables_number   1
_chemical_formula_structural   WN2OF5
_chemical_formula_sum   'W2 N4 O2 F10'
_cell_volume   370.28039820
_cell_formula_units_Z   2
loop_
 _symmetry_equiv_pos_site_id
 _symmetry_equiv_pos_as_xyz
  1  'x, y, z'
loop_
 _atom_site_type_symbol
 _atom_site_label
 _atom_site_symmetry_multiplicity
 _atom_site_fract_x
 _atom_site_fract_y
 _atom_site_fract_z
 _atom_site_occupancy
  W  W0  1  0.61953400  0.25000000  0.23906800  1
  W  W1  1  0.38046600  0.75000000  0.76093200  1
  N  N2  1  0.94953300  0.25000000  0.89906600  1
  N  N3  1  0.05046700  0.75000000  0.10093400  1
  N  N4  1  0.27877100  0.25000000  0.55754200  1
  N  N5  1  0.72122900  0.75000000  0.44245800  1
  O  O6  1  0.49795800  0.25000000  0.99591500  1
  O  O7  1  0.50204200  0.75000000  0.00408500  1
  F  F8  1  0.74426100  0.25000000  0.48852100  1
  F  F9  1  0.25573900  0.75000000  0.51147900  1
  F  F10  1  0.83584000  0.07578300  0.24496000  1
  F  F11  1  0.16416000  0.92421700  0.75504000  1
  F  F12  1  0.16416000  0.57578300  0.75504000  1
  F  F13  1  0.40912000  0.42421700  0.24496000  1
  F  F14  1  0.83584000  0.42421700  0.24496000  1
  F  F15  1  0.59088000  0.57578300  0.75504000  1
  F  F16  1  0.59088000  0.92421700  0.75504000  1
  F  F17  1  0.40912000  0.07578300  0.24496000  1
