# generated using pymatgen
data_Yb11(Mn2C3)6
_symmetry_space_group_name_H-M   'P 1'
_cell_length_a   8.81486036
_cell_length_b   8.81486036
_cell_length_c   8.81486036
_cell_angle_alpha   109.47122063
_cell_angle_beta   109.47122063
_cell_angle_gamma   109.47122063
_symmetry_Int_Tables_number   1
_chemical_formula_structural   Yb11(Mn2C3)6
_chemical_formula_sum   'Yb11 Mn12 C18'
_cell_volume   527.25950713
_cell_formula_units_Z   1
loop_
 _symmetry_equiv_pos_site_id
 _symmetry_equiv_pos_as_xyz
  1  'x, y, z'
loop_
 _atom_site_type_symbol
 _atom_site_label
 _atom_site_symmetry_multiplicity
 _atom_site_fract_x
 _atom_site_fract_y
 _atom_site_fract_z
 _atom_site_occupancy
  Yb  Yb0  1  0.41184900  0.41184900  0.41184900  1
  Yb  Yb1  1  0.58815100  0.00000000  0.00000000  1
  Yb  Yb2  1  0.00000000  0.58815100  0.00000000  1
  Yb  Yb3  1  0.00000000  0.00000000  0.58815100  1
  Yb  Yb4  1  0.25000000  0.75000000  0.50000000  1
  Yb  Yb5  1  0.75000000  0.25000000  0.50000000  1
  Yb  Yb6  1  0.75000000  0.50000000  0.25000000  1
  Yb  Yb7  1  0.25000000  0.50000000  0.75000000  1
  Yb  Yb8  1  0.50000000  0.25000000  0.75000000  1
  Yb  Yb9  1  0.50000000  0.75000000  0.25000000  1
  Yb  Yb10  1  0.00000000  0.00000000  0.00000000  1
  Mn  Mn11  1  0.84407600  0.65829300  0.65829300  1
  Mn  Mn12  1  0.15592400  0.81421700  0.81421700  1
  Mn  Mn13  1  0.00000000  0.34170700  0.18578300  1
  Mn  Mn14  1  0.65829300  0.65829300  0.84407600  1
  Mn  Mn15  1  0.00000000  0.18578300  0.34170700  1
  Mn  Mn16  1  0.81421700  0.81421700  0.15592400  1
  Mn  Mn17  1  0.34170700  0.18578300  0.00000000  1
  Mn  Mn18  1  0.18578300  0.34170700  0.00000000  1
  Mn  Mn19  1  0.65829300  0.84407600  0.65829300  1
  Mn  Mn20  1  0.18578300  0.00000000  0.34170700  1
  Mn  Mn21  1  0.34170700  0.00000000  0.18578300  1
  Mn  Mn22  1  0.81421700  0.15592400  0.81421700  1
  C  C23  1  0.56718600  0.56718600  0.00000000  1
  C  C24  1  0.43281400  0.43281400  0.00000000  1
  C  C25  1  0.56718600  0.00000000  0.56718600  1
  C  C26  1  0.43281400  0.00000000  0.43281400  1
  C  C27  1  0.00000000  0.56718600  0.56718600  1
  C  C28  1  0.00000000  0.43281400  0.43281400  1
  C  C29  1  0.49639900  0.70928400  0.70928400  1
  C  C30  1  0.50360100  0.21288500  0.21288500  1
  C  C31  1  0.00000000  0.29071600  0.78711500  1
  C  C32  1  0.70928400  0.70928400  0.49639900  1
  C  C33  1  0.00000000  0.78711500  0.29071600  1
  C  C34  1  0.21288500  0.21288500  0.50360100  1
  C  C35  1  0.29071600  0.78711500  0.00000000  1
  C  C36  1  0.78711500  0.29071600  0.00000000  1
  C  C37  1  0.70928400  0.49639900  0.70928400  1
  C  C38  1  0.78711500  0.00000000  0.29071600  1
  C  C39  1  0.29071600  0.00000000  0.78711500  1
  C  C40  1  0.21288500  0.50360100  0.21288500  1
