# generated using pymatgen
data_Y3Cu11Si4
_symmetry_space_group_name_H-M   'P 1'
_cell_length_a   8.43765785
_cell_length_b   8.43765785
_cell_length_c   8.60946800
_cell_angle_alpha   90.00000000
_cell_angle_beta   90.00000000
_cell_angle_gamma   119.99999880
_symmetry_Int_Tables_number   1
_chemical_formula_structural   Y3Cu11Si4
_chemical_formula_sum   'Y6 Cu22 Si8'
_cell_volume   530.82427350
_cell_formula_units_Z   2
loop_
 _symmetry_equiv_pos_site_id
 _symmetry_equiv_pos_as_xyz
  1  'x, y, z'
loop_
 _atom_site_type_symbol
 _atom_site_label
 _atom_site_symmetry_multiplicity
 _atom_site_fract_x
 _atom_site_fract_y
 _atom_site_fract_z
 _atom_site_occupancy
  Y  Y0  1  0.80112700  0.19887300  0.75000000  1
  Y  Y1  1  0.19887300  0.80112700  0.25000000  1
  Y  Y2  1  0.39774700  0.19887300  0.75000000  1
  Y  Y3  1  0.60225300  0.80112700  0.25000000  1
  Y  Y4  1  0.80112700  0.60225300  0.75000000  1
  Y  Y5  1  0.19887300  0.39774700  0.25000000  1
  Cu  Cu6  1  0.85054600  0.14945400  0.40817800  1
  Cu  Cu7  1  0.14945400  0.85054600  0.59182200  1
  Cu  Cu8  1  0.29890700  0.14945400  0.40817800  1
  Cu  Cu9  1  0.14945400  0.85054600  0.90817800  1
  Cu  Cu10  1  0.70109300  0.85054600  0.59182200  1
  Cu  Cu11  1  0.85054600  0.14945400  0.09182200  1
  Cu  Cu12  1  0.85054600  0.70109300  0.40817800  1
  Cu  Cu13  1  0.70109300  0.85054600  0.90817800  1
  Cu  Cu14  1  0.14945400  0.29890700  0.59182200  1
  Cu  Cu15  1  0.29890700  0.14945400  0.09182200  1
  Cu  Cu16  1  0.14945400  0.29890700  0.90817800  1
  Cu  Cu17  1  0.85054600  0.70109300  0.09182200  1
  Cu  Cu18  1  0.43501100  0.56498900  0.75000000  1
  Cu  Cu19  1  0.56498900  0.43501100  0.25000000  1
  Cu  Cu20  1  0.12997900  0.56498900  0.75000000  1
  Cu  Cu21  1  0.87002100  0.43501100  0.25000000  1
  Cu  Cu22  1  0.43501100  0.87002100  0.75000000  1
  Cu  Cu23  1  0.56498900  0.12997900  0.25000000  1
  Cu  Cu24  1  0.66666700  0.33333300  0.01266600  1
  Cu  Cu25  1  0.33333300  0.66666700  0.98733400  1
  Cu  Cu26  1  0.33333300  0.66666700  0.51266600  1
  Cu  Cu27  1  0.66666700  0.33333300  0.48733400  1
  Si  Si28  1  0.50000000  0.50000000  0.00000000  1
  Si  Si29  1  0.00000000  0.50000000  0.00000000  1
  Si  Si30  1  0.50000000  0.50000000  0.50000000  1
  Si  Si31  1  0.50000000  0.00000000  0.00000000  1
  Si  Si32  1  0.00000000  0.50000000  0.50000000  1
  Si  Si33  1  0.50000000  0.00000000  0.50000000  1
  Si  Si34  1  0.00000000  0.00000000  0.75000000  1
  Si  Si35  1  0.00000000  0.00000000  0.25000000  1
