# generated using pymatgen
data_V2Zn3O11
_symmetry_space_group_name_H-M   'P 1'
_cell_length_a   6.03586078
_cell_length_b   6.03586078
_cell_length_c   7.09700200
_cell_angle_alpha   90.00000000
_cell_angle_beta   90.00000000
_cell_angle_gamma   120.00000860
_symmetry_Int_Tables_number   1
_chemical_formula_structural   V2Zn3O11
_chemical_formula_sum   'V2 Zn3 O11'
_cell_volume   223.91539317
_cell_formula_units_Z   1
loop_
 _symmetry_equiv_pos_site_id
 _symmetry_equiv_pos_as_xyz
  1  'x, y, z'
loop_
 _atom_site_type_symbol
 _atom_site_label
 _atom_site_symmetry_multiplicity
 _atom_site_fract_x
 _atom_site_fract_y
 _atom_site_fract_z
 _atom_site_occupancy
  V  V0  1  0.00000000  0.00000000  0.25192300  1
  V  V1  1  0.00000000  0.00000000  0.74807700  1
  Zn  Zn2  1  0.50000000  0.00000000  0.50000000  1
  Zn  Zn3  1  0.00000000  0.50000000  0.50000000  1
  Zn  Zn4  1  0.50000000  0.50000000  0.50000000  1
  O  O5  1  0.33333300  0.66666700  0.65526900  1
  O  O6  1  0.66666700  0.33333300  0.34473100  1
  O  O7  1  0.15657600  0.84342400  0.33742600  1
  O  O8  1  0.84342400  0.15657600  0.66257400  1
  O  O9  1  0.15657600  0.31315100  0.33742600  1
  O  O10  1  0.84342400  0.68684900  0.66257400  1
  O  O11  1  0.68684900  0.84342400  0.33742600  1
  O  O12  1  0.31315100  0.15657600  0.66257400  1
  O  O13  1  0.33333300  0.66666700  0.84566200  1
  O  O14  1  0.66666700  0.33333300  0.15433800  1
  O  O15  1  0.00000000  0.00000000  0.00000000  1
