# generated using pymatgen
data_YbTlS2O9
_symmetry_space_group_name_H-M   'P 1'
_cell_length_a   7.58316500
_cell_length_b   10.68043123
_cell_length_c   9.87462935
_cell_angle_alpha   120.65654619
_cell_angle_beta   90.00000000
_cell_angle_gamma   90.00000000
_symmetry_Int_Tables_number   1
_chemical_formula_structural   YbTlS2O9
_chemical_formula_sum   'Yb4 Tl4 S8 O36'
_cell_volume   687.98558485
_cell_formula_units_Z   4
loop_
 _symmetry_equiv_pos_site_id
 _symmetry_equiv_pos_as_xyz
  1  'x, y, z'
loop_
 _atom_site_type_symbol
 _atom_site_label
 _atom_site_symmetry_multiplicity
 _atom_site_fract_x
 _atom_site_fract_y
 _atom_site_fract_z
 _atom_site_occupancy
  Yb  Yb0  1  0.33872500  0.95114900  0.71007800  1
  Yb  Yb1  1  0.66127500  0.04885100  0.28992300  1
  Yb  Yb2  1  0.83872500  0.54885100  0.78992200  1
  Yb  Yb3  1  0.16127500  0.45114900  0.21007800  1
  Tl  Tl4  1  0.32432600  0.73376700  0.98073100  1
  Tl  Tl5  1  0.67567400  0.26623300  0.01926900  1
  Tl  Tl6  1  0.82432600  0.76623300  0.51926900  1
  Tl  Tl7  1  0.17567400  0.23376700  0.48073100  1
  S  S8  1  0.10898400  0.30136900  0.85244000  1
  S  S9  1  0.89101600  0.69863100  0.14756000  1
  S  S10  1  0.60898400  0.19863100  0.64756000  1
  S  S11  1  0.39101600  0.80136900  0.35244000  1
  S  S12  1  0.21990500  0.58892200  0.59742200  1
  S  S13  1  0.78009500  0.41107800  0.40257800  1
  S  S14  1  0.71990500  0.91107800  0.90257800  1
  S  S15  1  0.28009500  0.08892200  0.09742200  1
  O  O16  1  0.79754300  0.06310400  0.99935700  1
  O  O17  1  0.20245700  0.93689600  0.00064300  1
  O  O18  1  0.29754300  0.43689600  0.50064300  1
  O  O19  1  0.70245700  0.56310400  0.49935700  1
  O  O20  1  0.16563900  0.14926300  0.76244400  1
  O  O21  1  0.83436100  0.85073700  0.23755600  1
  O  O22  1  0.66563900  0.35073700  0.73755600  1
  O  O23  1  0.33436100  0.64926300  0.26244400  1
  O  O24  1  0.36013600  0.69999700  0.65405900  1
  O  O25  1  0.63986400  0.30000300  0.34594100  1
  O  O26  1  0.86013600  0.80000300  0.84594100  1
  O  O27  1  0.13986400  0.19999700  0.15405900  1
  O  O28  1  0.39797700  0.10722000  0.98816700  1
  O  O29  1  0.60202300  0.89278000  0.01183300  1
  O  O30  1  0.89797700  0.39278000  0.51183300  1
  O  O31  1  0.10202300  0.60722000  0.48816700  1
  O  O32  1  0.00422000  0.91508200  0.68588200  1
  O  O33  1  0.99578000  0.08491800  0.31411900  1
  O  O34  1  0.50422000  0.58491800  0.81411800  1
  O  O35  1  0.49578000  0.41508200  0.18588200  1
  O  O36  1  0.24916200  0.40007100  0.95491500  1
  O  O37  1  0.75083800  0.59992900  0.04508500  1
  O  O38  1  0.74916200  0.09992900  0.54508500  1
  O  O39  1  0.25083800  0.90007100  0.45491500  1
  O  O40  1  0.95912800  0.32495700  0.96473800  1
  O  O41  1  0.04087200  0.67504300  0.03526200  1
  O  O42  1  0.45912800  0.17504300  0.53526200  1
  O  O43  1  0.54087200  0.82495700  0.46473800  1
  O  O44  1  0.04782600  0.34638300  0.73746400  1
  O  O45  1  0.95217400  0.65361700  0.26253600  1
  O  O46  1  0.54782600  0.15361700  0.76253600  1
  O  O47  1  0.45217400  0.84638300  0.23746400  1
  O  O48  1  0.62394900  0.89664900  0.76412600  1
  O  O49  1  0.37605100  0.10335100  0.23587400  1
  O  O50  1  0.12394900  0.60335100  0.73587400  1
  O  O51  1  0.87605100  0.39664900  0.26412600  1
