# generated using pymatgen
data_ZnCu2PO9
_symmetry_space_group_name_H-M   'P 1'
_cell_length_a   9.79540800
_cell_length_b   7.17387000
_cell_length_c   9.95985975
_cell_angle_alpha   76.39769449
_cell_angle_beta   90.00000000
_cell_angle_gamma   90.00000000
_symmetry_Int_Tables_number   1
_chemical_formula_structural   ZnCu2PO9
_chemical_formula_sum   'Zn4 Cu8 P4 O36'
_cell_volume   680.25832690
_cell_formula_units_Z   4
loop_
 _symmetry_equiv_pos_site_id
 _symmetry_equiv_pos_as_xyz
  1  'x, y, z'
loop_
 _atom_site_type_symbol
 _atom_site_label
 _atom_site_symmetry_multiplicity
 _atom_site_fract_x
 _atom_site_fract_y
 _atom_site_fract_z
 _atom_site_occupancy
  Zn  Zn0  1  0.56918400  0.58881600  0.27265500  1
  Zn  Zn1  1  0.43081600  0.41118400  0.72734500  1
  Zn  Zn2  1  0.06918400  0.41118400  0.22734500  1
  Zn  Zn3  1  0.93081600  0.58881600  0.77265500  1
  Cu  Cu4  1  0.77948200  0.95369800  0.15015600  1
  Cu  Cu5  1  0.22051800  0.04630200  0.84984400  1
  Cu  Cu6  1  0.27948200  0.04630200  0.34984400  1
  Cu  Cu7  1  0.72051800  0.95369800  0.65015600  1
  Cu  Cu8  1  0.58276800  0.99441700  0.37943800  1
  Cu  Cu9  1  0.41723200  0.00558300  0.62056200  1
  Cu  Cu10  1  0.08276800  0.00558300  0.12056200  1
  Cu  Cu11  1  0.91723200  0.99441700  0.87943800  1
  P  P12  1  0.79265200  0.57457900  0.06689000  1
  P  P13  1  0.20734800  0.42542100  0.93311000  1
  P  P14  1  0.29265200  0.42542100  0.43311000  1
  P  P15  1  0.70734800  0.57457900  0.56689000  1
  O  O16  1  0.94464600  0.84451400  0.24597800  1
  O  O17  1  0.05535400  0.15548600  0.75402200  1
  O  O18  1  0.44464600  0.15548600  0.25402200  1
  O  O19  1  0.55535400  0.84451400  0.74597800  1
  O  O20  1  0.65184000  0.50045000  0.12207700  1
  O  O21  1  0.34816000  0.49955000  0.87792300  1
  O  O22  1  0.15184000  0.49955000  0.37792300  1
  O  O23  1  0.84816000  0.50045000  0.62207700  1
  O  O24  1  0.61493900  0.87065200  0.23243100  1
  O  O25  1  0.38506100  0.12934800  0.76756900  1
  O  O26  1  0.11493900  0.12934800  0.26756900  1
  O  O27  1  0.88506100  0.87065200  0.73243100  1
  O  O28  1  0.40987300  0.89104200  0.46406200  1
  O  O29  1  0.59012700  0.10895800  0.53593800  1
  O  O30  1  0.90987300  0.10895800  0.03593800  1
  O  O31  1  0.09012700  0.89104200  0.96406200  1
  O  O32  1  0.89482600  0.54113400  0.19136900  1
  O  O33  1  0.10517400  0.45886600  0.80863100  1
  O  O34  1  0.39482600  0.45886600  0.30863100  1
  O  O35  1  0.60517400  0.54113400  0.69136900  1
  O  O36  1  0.66022700  0.48738600  0.44988200  1
  O  O37  1  0.33977300  0.51261400  0.55011800  1
  O  O38  1  0.16022700  0.51261400  0.05011800  1
  O  O39  1  0.83977300  0.48738600  0.94988200  1
  O  O40  1  0.34259000  0.84675000  0.11427300  1
  O  O41  1  0.65741000  0.15325000  0.88572700  1
  O  O42  1  0.84259000  0.15325000  0.38572700  1
  O  O43  1  0.15741000  0.84675000  0.61427300  1
  O  O44  1  0.25068600  0.85967400  0.20036200  1
  O  O45  1  0.74931400  0.14032600  0.79963800  1
  O  O46  1  0.75068600  0.14032600  0.29963800  1
  O  O47  1  0.24931400  0.85967400  0.70036200  1
  O  O48  1  0.78098200  0.80147700  0.00741000  1
  O  O49  1  0.21901800  0.19852300  0.99259000  1
  O  O50  1  0.28098200  0.19852300  0.49259000  1
  O  O51  1  0.71901800  0.80147700  0.50741000  1
