# generated using pymatgen
data_Yb4Rh6Pb19
_symmetry_space_group_name_H-M   'P 1'
_cell_length_a   10.31909799
_cell_length_b   10.31909799
_cell_length_c   10.31909799
_cell_angle_alpha   109.47122063
_cell_angle_beta   109.47122063
_cell_angle_gamma   109.47122063
_symmetry_Int_Tables_number   1
_chemical_formula_structural   Yb4Rh6Pb19
_chemical_formula_sum   'Yb4 Rh6 Pb19'
_cell_volume   845.86940784
_cell_formula_units_Z   1
loop_
 _symmetry_equiv_pos_site_id
 _symmetry_equiv_pos_as_xyz
  1  'x, y, z'
loop_
 _atom_site_type_symbol
 _atom_site_label
 _atom_site_symmetry_multiplicity
 _atom_site_fract_x
 _atom_site_fract_y
 _atom_site_fract_z
 _atom_site_occupancy
  Yb  Yb0  1  0.64893100  0.64893100  0.64893100  1
  Yb  Yb1  1  0.35106900  0.00000000  0.00000000  1
  Yb  Yb2  1  0.00000000  0.35106900  0.00000000  1
  Yb  Yb3  1  0.00000000  0.00000000  0.35106900  1
  Rh  Rh4  1  0.38230200  0.88230200  0.50000000  1
  Rh  Rh5  1  0.61769800  0.11769800  0.50000000  1
  Rh  Rh6  1  0.88230200  0.50000000  0.38230200  1
  Rh  Rh7  1  0.11769800  0.50000000  0.61769800  1
  Rh  Rh8  1  0.50000000  0.38230200  0.88230200  1
  Rh  Rh9  1  0.50000000  0.61769800  0.11769800  1
  Pb  Pb10  1  0.69559900  0.69559900  0.00000000  1
  Pb  Pb11  1  0.30440100  0.30440100  0.00000000  1
  Pb  Pb12  1  0.69559900  0.00000000  0.69559900  1
  Pb  Pb13  1  0.30440100  0.00000000  0.30440100  1
  Pb  Pb14  1  0.00000000  0.69559900  0.69559900  1
  Pb  Pb15  1  0.00000000  0.30440100  0.30440100  1
  Pb  Pb16  1  0.00000000  0.00000000  0.00000000  1
  Pb  Pb17  1  0.37160400  0.60917100  0.32616700  1
  Pb  Pb18  1  0.62839600  0.95456400  0.23756800  1
  Pb  Pb19  1  0.71699600  0.39082900  0.76243200  1
  Pb  Pb20  1  0.60917100  0.32616700  0.37160400  1
  Pb  Pb21  1  0.28300400  0.04543600  0.67383300  1
  Pb  Pb22  1  0.95456400  0.23756800  0.62839600  1
  Pb  Pb23  1  0.39082900  0.76243200  0.71699600  1
  Pb  Pb24  1  0.04543600  0.67383300  0.28300400  1
  Pb  Pb25  1  0.32616700  0.37160400  0.60917100  1
  Pb  Pb26  1  0.76243200  0.71699600  0.39082900  1
  Pb  Pb27  1  0.67383300  0.28300400  0.04543600  1
  Pb  Pb28  1  0.23756800  0.62839600  0.95456400  1
