data_image0
_chemical_formula_structural       Ca2Cu2In4
_chemical_formula_sum              "Ca2 Cu2 In4"
_cell_length_a       4.46776
_cell_length_b       5.84561
_cell_length_c       7.47598
_cell_angle_alpha    90
_cell_angle_beta     90
_cell_angle_gamma    67.5333

_space_group_name_H-M_alt    "P 1"
_space_group_IT_number       1

loop_
  _space_group_symop_operation_xyz
  'x, y, z'

loop_
  _atom_site_type_symbol
  _atom_site_label
  _atom_site_symmetry_multiplicity
  _atom_site_fract_x
  _atom_site_fract_y
  _atom_site_fract_z
  _atom_site_occupancy
  Ca  Ca1       1.0  0.93200  0.13600  0.25000  1.0000
  Ca  Ca2       1.0  0.06810  0.86400  0.75000  1.0000
  Cu  Cu1       1.0  0.21300  0.57400  0.25000  1.0000
  Cu  Cu2       1.0  0.78700  0.42600  0.75000  1.0000
  In  In1       1.0  0.64200  0.71600  0.05020  1.0000
  In  In2       1.0  0.64200  0.71600  0.45000  1.0000
  In  In3       1.0  0.35800  0.28400  0.55000  1.0000
  In  In4       1.0  0.35800  0.28400  0.95000  1.0000
