# generated using pymatgen
data_ZnH6(NO3)2
_symmetry_space_group_name_H-M   'P 1'
_cell_length_a   6.13057100
_cell_length_b   10.30305000
_cell_length_c   13.15604800
_cell_angle_alpha   90.00000000
_cell_angle_beta   90.00000000
_cell_angle_gamma   90.00000000
_symmetry_Int_Tables_number   1
_chemical_formula_structural   ZnH6(NO3)2
_chemical_formula_sum   'Zn4 H24 N8 O24'
_cell_volume   830.98308430
_cell_formula_units_Z   4
loop_
 _symmetry_equiv_pos_site_id
 _symmetry_equiv_pos_as_xyz
  1  'x, y, z'
loop_
 _atom_site_type_symbol
 _atom_site_label
 _atom_site_symmetry_multiplicity
 _atom_site_fract_x
 _atom_site_fract_y
 _atom_site_fract_z
 _atom_site_occupancy
  Zn  Zn0  1  0.52225300  0.75000000  0.93073900  1
  Zn  Zn1  1  0.47774700  0.25000000  0.06926100  1
  Zn  Zn2  1  0.02225300  0.25000000  0.56926100  1
  Zn  Zn3  1  0.97774700  0.75000000  0.43073900  1
  H  H4  1  0.64300000  0.75000000  0.75511000  1
  H  H5  1  0.35700000  0.25000000  0.24489000  1
  H  H6  1  0.14300000  0.25000000  0.74489000  1
  H  H7  1  0.85700000  0.75000000  0.25511000  1
  H  H8  1  0.73106000  0.75000000  0.45301300  1
  H  H9  1  0.26894000  0.25000000  0.54698700  1
  H  H10  1  0.23106000  0.25000000  0.04698700  1
  H  H11  1  0.76894000  0.75000000  0.95301300  1
  H  H12  1  0.56493200  0.60208100  0.93905100  1
  H  H13  1  0.43506800  0.39791900  0.06094900  1
  H  H14  1  0.06493200  0.39791900  0.56094900  1
  H  H15  1  0.43506800  0.10208100  0.06094900  1
  H  H16  1  0.93506800  0.60208100  0.43905100  1
  H  H17  1  0.56493200  0.89791900  0.93905100  1
  H  H18  1  0.93506800  0.89791900  0.43905100  1
  H  H19  1  0.06493200  0.10208100  0.56094900  1
  H  H20  1  0.52016400  0.75000000  0.74994600  1
  H  H21  1  0.47983600  0.25000000  0.25005400  1
  H  H22  1  0.02016400  0.25000000  0.75005400  1
  H  H23  1  0.97983600  0.75000000  0.24994600  1
  H  H24  1  0.26776900  0.75000000  0.91146300  1
  H  H25  1  0.73223100  0.25000000  0.08853700  1
  H  H26  1  0.76776900  0.25000000  0.58853700  1
  H  H27  1  0.23223100  0.75000000  0.41146300  1
  N  N28  1  0.56145700  0.50652200  0.63281300  1
  N  N29  1  0.43854300  0.49347800  0.36718700  1
  N  N30  1  0.06145700  0.49347800  0.86718700  1
  N  N31  1  0.43854300  0.00652200  0.36718700  1
  N  N32  1  0.93854300  0.50652200  0.13281300  1
  N  N33  1  0.56145700  0.99347800  0.63281300  1
  N  N34  1  0.93854300  0.99347800  0.13281300  1
  N  N35  1  0.06145700  0.00652200  0.86718700  1
  O  O36  1  0.55438200  0.11437600  0.65187800  1
  O  O37  1  0.44561800  0.88562400  0.34812200  1
  O  O38  1  0.05438200  0.88562400  0.84812200  1
  O  O39  1  0.44561800  0.61437600  0.34812200  1
  O  O40  1  0.94561800  0.11437600  0.15187800  1
  O  O41  1  0.55438200  0.38562400  0.65187800  1
  O  O42  1  0.94561800  0.38562400  0.15187800  1
  O  O43  1  0.05438200  0.61437600  0.84812200  1
  O  O44  1  0.73906600  0.56335500  0.62288000  1
  O  O45  1  0.26093400  0.43664500  0.37712000  1
  O  O46  1  0.23906600  0.43664500  0.87712000  1
  O  O47  1  0.26093400  0.06335500  0.37712000  1
  O  O48  1  0.76093400  0.56335500  0.12288000  1
  O  O49  1  0.73906600  0.93664500  0.62288000  1
  O  O50  1  0.76093400  0.93664500  0.12288000  1
  O  O51  1  0.23906600  0.06335500  0.87712000  1
  O  O52  1  0.88238000  0.06509800  0.87365500  1
  O  O53  1  0.11762000  0.93490200  0.12634500  1
  O  O54  1  0.38238000  0.93490200  0.62634500  1
  O  O55  1  0.11762000  0.56509800  0.12634500  1
  O  O56  1  0.61762000  0.06509800  0.37365500  1
  O  O57  1  0.88238000  0.43490200  0.87365500  1
  O  O58  1  0.61762000  0.43490200  0.37365500  1
  O  O59  1  0.38238000  0.56509800  0.62634500  1
