# generated using pymatgen
data_V4NO10
_symmetry_space_group_name_H-M   'P 1'
_cell_length_a   3.67463700
_cell_length_b   6.18297757
_cell_length_c   10.30529877
_cell_angle_alpha   98.86094415
_cell_angle_beta   90.00000000
_cell_angle_gamma   107.28696389
_symmetry_Int_Tables_number   1
_chemical_formula_structural   V4NO10
_chemical_formula_sum   'V4 N1 O10'
_cell_volume   220.63369659
_cell_formula_units_Z   1
loop_
 _symmetry_equiv_pos_site_id
 _symmetry_equiv_pos_as_xyz
  1  'x, y, z'
loop_
 _atom_site_type_symbol
 _atom_site_label
 _atom_site_symmetry_multiplicity
 _atom_site_fract_x
 _atom_site_fract_y
 _atom_site_fract_z
 _atom_site_occupancy
  V  V0  1  0.70317800  0.40635600  0.84260700  1
  V  V1  1  0.29682200  0.59364400  0.15739300  1
  V  V2  1  0.41026300  0.82052600  0.84393600  1
  V  V3  1  0.58973700  0.17947400  0.15606400  1
  N  N4  1  0.00000000  0.00000000  0.50000000  1
  O  O5  1  0.56525900  0.13051900  0.90420100  1
  O  O6  1  0.43474100  0.86948100  0.09579900  1
  O  O7  1  0.67008200  0.34016400  0.68593800  1
  O  O8  1  0.32991800  0.65983600  0.31406200  1
  O  O9  1  0.40025700  0.80051500  0.68697000  1
  O  O10  1  0.59974200  0.19948500  0.31303000  1
  O  O11  1  0.87649900  0.75299700  0.87354400  1
  O  O12  1  0.12350100  0.24700300  0.12645600  1
  O  O13  1  0.24364100  0.48728100  0.88551800  1
  O  O14  1  0.75635900  0.51271900  0.11448200  1
