# generated using pymatgen
data_VBP2NO9
_symmetry_space_group_name_H-M   'P 1'
_cell_length_a   8.41278700
_cell_length_b   9.47706900
_cell_length_c   9.56597293
_cell_angle_alpha   75.74640795
_cell_angle_beta   90.00000000
_cell_angle_gamma   90.00000000
_symmetry_Int_Tables_number   1
_chemical_formula_structural   VBP2NO9
_chemical_formula_sum   'V4 B4 P8 N4 O36'
_cell_volume   739.20249374
_cell_formula_units_Z   4
loop_
 _symmetry_equiv_pos_site_id
 _symmetry_equiv_pos_as_xyz
  1  'x, y, z'
loop_
 _atom_site_type_symbol
 _atom_site_label
 _atom_site_symmetry_multiplicity
 _atom_site_fract_x
 _atom_site_fract_y
 _atom_site_fract_z
 _atom_site_occupancy
  V  V0  1  0.36901000  0.78372600  0.93574900  1
  V  V1  1  0.63099000  0.21627400  0.06425100  1
  V  V2  1  0.86901000  0.21627400  0.56425100  1
  V  V3  1  0.13099000  0.78372600  0.43574900  1
  B  B4  1  0.94104400  0.66799500  0.69566800  1
  B  B5  1  0.05895600  0.33200500  0.30433200  1
  B  B6  1  0.44104400  0.33200500  0.80433200  1
  B  B7  1  0.55895600  0.66799500  0.19566800  1
  P  P8  1  0.06554800  0.91843000  0.70882000  1
  P  P9  1  0.93445200  0.08157000  0.29118000  1
  P  P10  1  0.56554800  0.08157000  0.79118000  1
  P  P11  1  0.43445200  0.91843000  0.20882000  1
  P  P12  1  0.25503500  0.57881400  0.72317500  1
  P  P13  1  0.74496500  0.42118600  0.27682500  1
  P  P14  1  0.75503500  0.42118600  0.77682500  1
  P  P15  1  0.24496500  0.57881400  0.22317500  1
  N  N16  1  0.90192400  0.82199100  0.05488900  1
  N  N17  1  0.09807600  0.17800900  0.94511100  1
  N  N18  1  0.40192400  0.17800900  0.44511100  1
  N  N19  1  0.59807600  0.82199100  0.55488900  1
  O  O20  1  0.97000900  0.69811500  0.53647500  1
  O  O21  1  0.02999100  0.30188500  0.46352500  1
  O  O22  1  0.47000900  0.30188500  0.96352500  1
  O  O23  1  0.52999100  0.69811500  0.03647500  1
  O  O24  1  0.29663900  0.41488400  0.76512100  1
  O  O25  1  0.70336100  0.58511600  0.23487900  1
  O  O26  1  0.79663900  0.58511600  0.73487900  1
  O  O27  1  0.20336100  0.41488400  0.26512100  1
  O  O28  1  0.36536300  0.66262300  0.80442400  1
  O  O29  1  0.63463700  0.33737700  0.19557600  1
  O  O30  1  0.86536300  0.33737700  0.69557600  1
  O  O31  1  0.13463700  0.66262300  0.30442400  1
  O  O32  1  0.15354600  0.90575200  0.56820200  1
  O  O33  1  0.84645400  0.09424800  0.43179800  1
  O  O34  1  0.65354600  0.09424800  0.93179800  1
  O  O35  1  0.34645400  0.90575200  0.06820200  1
  O  O36  1  0.27275100  0.64252900  0.55963400  1
  O  O37  1  0.72724900  0.35747100  0.44036600  1
  O  O38  1  0.77275100  0.35747100  0.94036600  1
  O  O39  1  0.22724900  0.64252900  0.05963400  1
  O  O40  1  0.92259500  0.80858800  0.73213700  1
  O  O41  1  0.07740500  0.19141200  0.26786300  1
  O  O42  1  0.42259500  0.19141200  0.76786300  1
  O  O43  1  0.57740500  0.80858800  0.23213700  1
  O  O44  1  0.07955400  0.58623100  0.77048800  1
  O  O45  1  0.92044600  0.41376900  0.22951200  1
  O  O46  1  0.57955400  0.41376900  0.72951200  1
  O  O47  1  0.42044600  0.58623100  0.27048800  1
  O  O48  1  0.49727800  0.92689700  0.81074500  1
  O  O49  1  0.50272200  0.07310300  0.18925500  1
  O  O50  1  0.99727800  0.07310300  0.68925500  1
  O  O51  1  0.00272200  0.92689700  0.31074500  1
  O  O52  1  0.17786000  0.88497100  0.83748500  1
  O  O53  1  0.82214000  0.11502900  0.16251500  1
  O  O54  1  0.67786000  0.11502900  0.66251500  1
  O  O55  1  0.32214000  0.88497100  0.33748500  1
