# generated using pymatgen
data_Y4Rh6Pb19
_symmetry_space_group_name_H-M   'P 1'
_cell_length_a   10.17121722
_cell_length_b   10.17121722
_cell_length_c   10.17121722
_cell_angle_alpha   109.47122063
_cell_angle_beta   109.47122063
_cell_angle_gamma   109.47122063
_symmetry_Int_Tables_number   1
_chemical_formula_structural   Y4Rh6Pb19
_chemical_formula_sum   'Y4 Rh6 Pb19'
_cell_volume   810.02215471
_cell_formula_units_Z   1
loop_
 _symmetry_equiv_pos_site_id
 _symmetry_equiv_pos_as_xyz
  1  'x, y, z'
loop_
 _atom_site_type_symbol
 _atom_site_label
 _atom_site_symmetry_multiplicity
 _atom_site_fract_x
 _atom_site_fract_y
 _atom_site_fract_z
 _atom_site_occupancy
  Y  Y0  1  0.64960000  0.64960000  0.64960000  1
  Y  Y1  1  0.35040000  0.00000000  0.00000000  1
  Y  Y2  1  0.00000000  0.35040000  0.00000000  1
  Y  Y3  1  0.00000000  0.00000000  0.35040000  1
  Rh  Rh4  1  0.38029900  0.88029900  0.50000000  1
  Rh  Rh5  1  0.61970100  0.11970100  0.50000000  1
  Rh  Rh6  1  0.88029900  0.50000000  0.38029900  1
  Rh  Rh7  1  0.11970100  0.50000000  0.61970100  1
  Rh  Rh8  1  0.50000000  0.38029900  0.88029900  1
  Rh  Rh9  1  0.50000000  0.61970100  0.11970100  1
  Pb  Pb10  1  0.69952600  0.69952600  0.00000000  1
  Pb  Pb11  1  0.30047400  0.30047400  0.00000000  1
  Pb  Pb12  1  0.69952600  0.00000000  0.69952600  1
  Pb  Pb13  1  0.30047400  0.00000000  0.30047400  1
  Pb  Pb14  1  0.00000000  0.69952600  0.69952600  1
  Pb  Pb15  1  0.00000000  0.30047400  0.30047400  1
  Pb  Pb16  1  0.00000000  0.00000000  0.00000000  1
  Pb  Pb17  1  0.36112100  0.59531700  0.32776200  1
  Pb  Pb18  1  0.63887900  0.96664100  0.23419600  1
  Pb  Pb19  1  0.73244500  0.40468300  0.76580400  1
  Pb  Pb20  1  0.59531700  0.32776200  0.36112100  1
  Pb  Pb21  1  0.26755500  0.03335900  0.67223800  1
  Pb  Pb22  1  0.96664100  0.23419600  0.63887900  1
  Pb  Pb23  1  0.40468300  0.76580400  0.73244500  1
  Pb  Pb24  1  0.03335900  0.67223800  0.26755500  1
  Pb  Pb25  1  0.32776200  0.36112100  0.59531700  1
  Pb  Pb26  1  0.76580400  0.73244500  0.40468300  1
  Pb  Pb27  1  0.67223800  0.26755500  0.03335900  1
  Pb  Pb28  1  0.23419600  0.63887900  0.96664100  1
