# generated using pymatgen
data_Tm3CrS6
_symmetry_space_group_name_H-M   'P 1'
_cell_length_a   3.72879200
_cell_length_b   13.13474200
_cell_length_c   15.83042200
_cell_angle_alpha   90.00000000
_cell_angle_beta   90.00000000
_cell_angle_gamma   90.00000000
_symmetry_Int_Tables_number   1
_chemical_formula_structural   Tm3CrS6
_chemical_formula_sum   'Tm12 Cr4 S24'
_cell_volume   775.32215989
_cell_formula_units_Z   4
loop_
 _symmetry_equiv_pos_site_id
 _symmetry_equiv_pos_as_xyz
  1  'x, y, z'
loop_
 _atom_site_type_symbol
 _atom_site_label
 _atom_site_symmetry_multiplicity
 _atom_site_fract_x
 _atom_site_fract_y
 _atom_site_fract_z
 _atom_site_occupancy
  Tm  Tm0  1  0.00000000  0.54974800  0.27926000  1
  Tm  Tm1  1  0.00000000  0.45025200  0.72074000  1
  Tm  Tm2  1  0.50000000  0.95025200  0.77926000  1
  Tm  Tm3  1  0.50000000  0.04974800  0.22074000  1
  Tm  Tm4  1  0.00000000  0.75544000  0.09830800  1
  Tm  Tm5  1  0.00000000  0.24456000  0.90169200  1
  Tm  Tm6  1  0.50000000  0.74456000  0.59830800  1
  Tm  Tm7  1  0.50000000  0.25544000  0.40169200  1
  Tm  Tm8  1  0.00000000  0.31915500  0.14798700  1
  Tm  Tm9  1  0.00000000  0.68084500  0.85201300  1
  Tm  Tm10  1  0.50000000  0.18084500  0.64798700  1
  Tm  Tm11  1  0.50000000  0.81915500  0.35201300  1
  Cr  Cr12  1  0.00000000  0.00000000  0.50000000  1
  Cr  Cr13  1  0.50000000  0.50000000  0.00000000  1
  Cr  Cr14  1  0.00000000  0.00000000  0.00000000  1
  Cr  Cr15  1  0.50000000  0.50000000  0.50000000  1
  S  S16  1  0.00000000  0.12003800  0.10951700  1
  S  S17  1  0.00000000  0.87996200  0.89048300  1
  S  S18  1  0.50000000  0.37996200  0.60951700  1
  S  S19  1  0.50000000  0.62003800  0.39048300  1
  S  S20  1  0.00000000  0.18856600  0.28985300  1
  S  S21  1  0.00000000  0.81143400  0.71014700  1
  S  S22  1  0.50000000  0.31143400  0.78985300  1
  S  S23  1  0.50000000  0.68856600  0.21014700  1
  S  S24  1  0.00000000  0.18159400  0.52097200  1
  S  S25  1  0.00000000  0.81840600  0.47902800  1
  S  S26  1  0.50000000  0.31840600  0.02097200  1
  S  S27  1  0.50000000  0.68159400  0.97902800  1
  S  S28  1  0.00000000  0.52315300  0.09782700  1
  S  S29  1  0.00000000  0.47684700  0.90217300  1
  S  S30  1  0.50000000  0.97684700  0.59782700  1
  S  S31  1  0.50000000  0.02315300  0.40217300  1
  S  S32  1  0.00000000  0.10425100  0.75395600  1
  S  S33  1  0.00000000  0.89574900  0.24604400  1
  S  S34  1  0.50000000  0.39574900  0.25395600  1
  S  S35  1  0.50000000  0.60425100  0.74604400  1
  S  S36  1  0.00000000  0.41704700  0.42385800  1
  S  S37  1  0.00000000  0.58295300  0.57614200  1
  S  S38  1  0.50000000  0.08295300  0.92385800  1
  S  S39  1  0.50000000  0.91704700  0.07614200  1
