# generated using pymatgen
data_V2NiO8
_symmetry_space_group_name_H-M   'P 1'
_cell_length_a   5.57413800
_cell_length_b   10.92771200
_cell_length_c   11.75230000
_cell_angle_alpha   90.00000000
_cell_angle_beta   90.00000000
_cell_angle_gamma   90.00000000
_symmetry_Int_Tables_number   1
_chemical_formula_structural   V2NiO8
_chemical_formula_sum   'V8 Ni4 O32'
_cell_volume   715.86285179
_cell_formula_units_Z   4
loop_
 _symmetry_equiv_pos_site_id
 _symmetry_equiv_pos_as_xyz
  1  'x, y, z'
loop_
 _atom_site_type_symbol
 _atom_site_label
 _atom_site_symmetry_multiplicity
 _atom_site_fract_x
 _atom_site_fract_y
 _atom_site_fract_z
 _atom_site_occupancy
  V  V0  1  0.30150100  0.03358100  0.17184200  1
  V  V1  1  0.69849900  0.96641900  0.82815800  1
  V  V2  1  0.19849900  0.96641900  0.67184200  1
  V  V3  1  0.69849900  0.53358100  0.82815800  1
  V  V4  1  0.80150100  0.03358100  0.32815800  1
  V  V5  1  0.30150100  0.46641900  0.17184200  1
  V  V6  1  0.80150100  0.46641900  0.32815800  1
  V  V7  1  0.19849900  0.53358100  0.67184200  1
  Ni  Ni8  1  0.01781500  0.25000000  0.54495100  1
  Ni  Ni9  1  0.98218500  0.75000000  0.45504900  1
  Ni  Ni10  1  0.48218500  0.75000000  0.04495100  1
  Ni  Ni11  1  0.51781500  0.25000000  0.95504900  1
  O  O12  1  0.22514800  0.25000000  0.87750600  1
  O  O13  1  0.77485200  0.75000000  0.12249400  1
  O  O14  1  0.27485200  0.75000000  0.37750600  1
  O  O15  1  0.72514800  0.25000000  0.62249400  1
  O  O16  1  0.99392000  0.06965400  0.20959900  1
  O  O17  1  0.00608000  0.93034600  0.79040100  1
  O  O18  1  0.50608000  0.93034600  0.70959900  1
  O  O19  1  0.00608000  0.56965400  0.79040100  1
  O  O20  1  0.49392000  0.06965400  0.29040100  1
  O  O21  1  0.99392000  0.43034600  0.20959900  1
  O  O22  1  0.49392000  0.43034600  0.29040100  1
  O  O23  1  0.50608000  0.56965400  0.70959900  1
  O  O24  1  0.17063700  0.11798400  0.64399400  1
  O  O25  1  0.82936300  0.88201600  0.35600600  1
  O  O26  1  0.32936300  0.88201600  0.14399400  1
  O  O27  1  0.82936300  0.61798400  0.35600600  1
  O  O28  1  0.67063700  0.11798400  0.85600600  1
  O  O29  1  0.17063700  0.38201600  0.64399400  1
  O  O30  1  0.67063700  0.38201600  0.85600600  1
  O  O31  1  0.32936300  0.61798400  0.14399400  1
  O  O32  1  0.38509900  0.11662100  0.05905800  1
  O  O33  1  0.61490100  0.88337900  0.94094200  1
  O  O34  1  0.11490100  0.88337900  0.55905800  1
  O  O35  1  0.61490100  0.61662100  0.94094200  1
  O  O36  1  0.88509900  0.11662100  0.44094200  1
  O  O37  1  0.38509900  0.38337900  0.05905800  1
  O  O38  1  0.88509900  0.38337900  0.44094200  1
  O  O39  1  0.11490100  0.61662100  0.55905800  1
  O  O40  1  0.32217200  0.25000000  0.46575200  1
  O  O41  1  0.67782800  0.75000000  0.53424800  1
  O  O42  1  0.17782800  0.75000000  0.96575200  1
  O  O43  1  0.82217200  0.25000000  0.03424800  1
