# generated using pymatgen
data_ThV2O6
_symmetry_space_group_name_H-M   'P 1'
_cell_length_a   4.81158700
_cell_length_b   4.81158700
_cell_length_c   9.71492200
_cell_angle_alpha   90.00000000
_cell_angle_beta   90.00000000
_cell_angle_gamma   90.00000000
_symmetry_Int_Tables_number   1
_chemical_formula_structural   ThV2O6
_chemical_formula_sum   'Th2 V4 O12'
_cell_volume   224.91374848
_cell_formula_units_Z   2
loop_
 _symmetry_equiv_pos_site_id
 _symmetry_equiv_pos_as_xyz
  1  'x, y, z'
loop_
 _atom_site_type_symbol
 _atom_site_label
 _atom_site_symmetry_multiplicity
 _atom_site_fract_x
 _atom_site_fract_y
 _atom_site_fract_z
 _atom_site_occupancy
  Th  Th0  1  0.00000000  0.00000000  0.00000000  1
  Th  Th1  1  0.50000000  0.50000000  0.50000000  1
  V  V2  1  0.00000000  0.00000000  0.33828500  1
  V  V3  1  0.00000000  0.00000000  0.66171500  1
  V  V4  1  0.50000000  0.50000000  0.83828500  1
  V  V5  1  0.50000000  0.50000000  0.16171500  1
  O  O6  1  0.32566700  0.32566700  0.00000000  1
  O  O7  1  0.67433300  0.67433300  0.00000000  1
  O  O8  1  0.17433300  0.82566700  0.50000000  1
  O  O9  1  0.82566700  0.17433300  0.50000000  1
  O  O10  1  0.27437800  0.27437800  0.31561100  1
  O  O11  1  0.72562200  0.72562200  0.68438900  1
  O  O12  1  0.72562200  0.72562200  0.31561100  1
  O  O13  1  0.22562200  0.77437800  0.81561100  1
  O  O14  1  0.22562200  0.77437800  0.18438900  1
  O  O15  1  0.27437800  0.27437800  0.68438900  1
  O  O16  1  0.77437800  0.22562200  0.18438900  1
  O  O17  1  0.77437800  0.22562200  0.81561100  1
