# generated using pymatgen
data_V3(PbO3)4
_symmetry_space_group_name_H-M   'P 1'
_cell_length_a   9.52735331
_cell_length_b   9.52735331
_cell_length_c   9.52735331
_cell_angle_alpha   109.47122063
_cell_angle_beta   109.47122063
_cell_angle_gamma   109.47122063
_symmetry_Int_Tables_number   1
_chemical_formula_structural   V3(PbO3)4
_chemical_formula_sum   'V6 Pb8 O24'
_cell_volume   665.72508537
_cell_formula_units_Z   2
loop_
 _symmetry_equiv_pos_site_id
 _symmetry_equiv_pos_as_xyz
  1  'x, y, z'
loop_
 _atom_site_type_symbol
 _atom_site_label
 _atom_site_symmetry_multiplicity
 _atom_site_fract_x
 _atom_site_fract_y
 _atom_site_fract_z
 _atom_site_occupancy
  V  V0  1  0.12500000  0.87500000  0.25000000  1
  V  V1  1  0.37500000  0.62500000  0.75000000  1
  V  V2  1  0.87500000  0.25000000  0.12500000  1
  V  V3  1  0.62500000  0.75000000  0.37500000  1
  V  V4  1  0.25000000  0.12500000  0.87500000  1
  V  V5  1  0.75000000  0.37500000  0.62500000  1
  Pb  Pb6  1  0.33562600  0.33562600  0.33562600  1
  Pb  Pb7  1  0.16437400  0.50000000  0.00000000  1
  Pb  Pb8  1  0.00000000  0.16437400  0.50000000  1
  Pb  Pb9  1  0.83562600  0.83562600  0.83562600  1
  Pb  Pb10  1  0.50000000  0.00000000  0.16437400  1
  Pb  Pb11  1  0.66437400  0.50000000  0.00000000  1
  Pb  Pb12  1  0.50000000  0.00000000  0.66437400  1
  Pb  Pb13  1  0.00000000  0.66437400  0.50000000  1
  O  O14  1  0.31210400  0.15346100  0.08125400  1
  O  O15  1  0.18789600  0.26915000  0.84135800  1
  O  O16  1  0.92779200  0.34653900  0.65864200  1
  O  O17  1  0.15346100  0.08125400  0.31210400  1
  O  O18  1  0.81210400  0.58125400  0.65346100  1
  O  O19  1  0.57220800  0.23085000  0.41874600  1
  O  O20  1  0.26915000  0.84135800  0.18789600  1
  O  O21  1  0.68789600  0.34135800  0.76915000  1
  O  O22  1  0.34653900  0.65864200  0.92779200  1
  O  O23  1  0.42779200  0.15864200  0.84653900  1
  O  O24  1  0.23085000  0.41874600  0.57220800  1
  O  O25  1  0.07220800  0.91874600  0.73085000  1
  O  O26  1  0.08125400  0.31210400  0.15346100  1
  O  O27  1  0.65346100  0.81210400  0.58125400  1
  O  O28  1  0.65864200  0.92779200  0.34653900  1
  O  O29  1  0.84653900  0.42779200  0.15864200  1
  O  O30  1  0.41874600  0.57220800  0.23085000  1
  O  O31  1  0.73085000  0.07220800  0.91874600  1
  O  O32  1  0.84135800  0.18789600  0.26915000  1
  O  O33  1  0.76915000  0.68789600  0.34135800  1
  O  O34  1  0.58125400  0.65346100  0.81210400  1
  O  O35  1  0.34135800  0.76915000  0.68789600  1
  O  O36  1  0.91874600  0.73085000  0.07220800  1
  O  O37  1  0.15864200  0.84653900  0.42779200  1
