# generated using pymatgen
data_Tm4Al2O9
_symmetry_space_group_name_H-M   'P 1'
_cell_length_a   10.42406500
_cell_length_b   7.30259100
_cell_length_c   11.06105599
_cell_angle_alpha   71.57193097
_cell_angle_beta   90.00000000
_cell_angle_gamma   90.00000000
_symmetry_Int_Tables_number   1
_chemical_formula_structural   Tm4Al2O9
_chemical_formula_sum   'Tm16 Al8 O36'
_cell_volume   798.82070475
_cell_formula_units_Z   4
loop_
 _symmetry_equiv_pos_site_id
 _symmetry_equiv_pos_as_xyz
  1  'x, y, z'
loop_
 _atom_site_type_symbol
 _atom_site_label
 _atom_site_symmetry_multiplicity
 _atom_site_fract_x
 _atom_site_fract_y
 _atom_site_fract_z
 _atom_site_occupancy
  Tm  Tm0  1  0.59383000  0.47776100  0.30528500  1
  Tm  Tm1  1  0.40617000  0.52223900  0.69471500  1
  Tm  Tm2  1  0.09383000  0.52223900  0.19471500  1
  Tm  Tm3  1  0.90617000  0.47776100  0.80528500  1
  Tm  Tm4  1  0.60722300  0.97695700  0.28331600  1
  Tm  Tm5  1  0.39277700  0.02304300  0.71668400  1
  Tm  Tm6  1  0.10722300  0.02304300  0.21668400  1
  Tm  Tm7  1  0.89277700  0.97695700  0.78331600  1
  Tm  Tm8  1  0.37618800  0.83734400  0.06445700  1
  Tm  Tm9  1  0.62381200  0.16265600  0.93554300  1
  Tm  Tm10  1  0.87618800  0.16265600  0.43554300  1
  Tm  Tm11  1  0.12381200  0.83734400  0.56445700  1
  Tm  Tm12  1  0.87844900  0.66362200  0.41259700  1
  Tm  Tm13  1  0.12155100  0.33637800  0.58740300  1
  Tm  Tm14  1  0.37844900  0.33637800  0.08740300  1
  Tm  Tm15  1  0.62155100  0.66362200  0.91259700  1
  Al  Al16  1  0.81835000  0.84519200  0.11300900  1
  Al  Al17  1  0.18165000  0.15480800  0.88699100  1
  Al  Al18  1  0.31835000  0.15480800  0.38699100  1
  Al  Al19  1  0.68165000  0.84519200  0.61300900  1
  Al  Al20  1  0.81540600  0.28437000  0.12839300  1
  Al  Al21  1  0.18459400  0.71563000  0.87160700  1
  Al  Al22  1  0.31540600  0.71563000  0.37160700  1
  Al  Al23  1  0.68459400  0.28437000  0.62839300  1
  O  O24  1  0.73367500  0.43138800  0.47840500  1
  O  O25  1  0.26632500  0.56861200  0.52159500  1
  O  O26  1  0.23367500  0.56861200  0.02159500  1
  O  O27  1  0.76632500  0.43138800  0.97840500  1
  O  O28  1  0.72912300  0.86111100  0.45826900  1
  O  O29  1  0.27087700  0.13888900  0.54173100  1
  O  O30  1  0.22912300  0.13888900  0.04173100  1
  O  O31  1  0.77087700  0.86111100  0.95826900  1
  O  O32  1  0.97784500  0.80111200  0.16689900  1
  O  O33  1  0.02215500  0.19888800  0.83310100  1
  O  O34  1  0.47784500  0.19888800  0.33310100  1
  O  O35  1  0.52215500  0.80111200  0.66689900  1
  O  O36  1  0.50652800  0.57694300  0.10647400  1
  O  O37  1  0.49347200  0.42305700  0.89352600  1
  O  O38  1  0.00652800  0.42305700  0.39352600  1
  O  O39  1  0.99347200  0.57694300  0.60647400  1
  O  O40  1  0.73148300  0.71033000  0.24798800  1
  O  O41  1  0.26851700  0.28967000  0.75201200  1
  O  O42  1  0.23148300  0.28967000  0.25201200  1
  O  O43  1  0.76851700  0.71033000  0.74798800  1
  O  O44  1  0.73355900  0.26702300  0.27179000  1
  O  O45  1  0.26644100  0.73297700  0.72821000  1
  O  O46  1  0.23355900  0.73297700  0.22821000  1
  O  O47  1  0.76644100  0.26702300  0.77179000  1
  O  O48  1  0.25299700  0.93194600  0.38626500  1
  O  O49  1  0.74700300  0.06805400  0.61373500  1
  O  O50  1  0.75299700  0.06805400  0.11373500  1
  O  O51  1  0.24700300  0.93194600  0.88626500  1
  O  O52  1  0.47937500  0.71484000  0.33972700  1
  O  O53  1  0.52062500  0.28516000  0.66027300  1
  O  O54  1  0.97937500  0.28516000  0.16027300  1
  O  O55  1  0.02062500  0.71484000  0.83972700  1
  O  O56  1  0.99067900  0.93454400  0.39383100  1
  O  O57  1  0.00932100  0.06545600  0.60616900  1
  O  O58  1  0.49067900  0.06545600  0.10616900  1
  O  O59  1  0.50932100  0.93454400  0.89383100  1
