# generated using pymatgen
data_Mg3Cd
_symmetry_space_group_name_H-M   'P 1'
_cell_length_a   6.03068773
_cell_length_b   6.03068773
_cell_length_c   6.03068773
_cell_angle_alpha   149.18021201
_cell_angle_beta   127.06058177
_cell_angle_gamma   62.51979536
_symmetry_Int_Tables_number   1
_chemical_formula_structural   Mg3Cd
_chemical_formula_sum   'Mg3 Cd1'
_cell_volume   88.82422746
_cell_formula_units_Z   1
loop_
 _symmetry_equiv_pos_site_id
 _symmetry_equiv_pos_as_xyz
  1  'x, y, z'
loop_
 _atom_site_type_symbol
 _atom_site_label
 _atom_site_symmetry_multiplicity
 _atom_site_fract_x
 _atom_site_fract_y
 _atom_site_fract_z
 _atom_site_occupancy
  Mg  Mg0  1  0.83522900  0.50000000  0.33522900  1
  Mg  Mg1  1  0.25102500  0.25133200  0.99969300  1
  Mg  Mg2  1  0.74836000  0.74866800  0.99969300  1
  Cd  Cd3  1  0.33205200  0.00000000  0.33205200  1
