# generated using pymatgen
data_TmAgS2
_symmetry_space_group_name_H-M   'P 1'
_cell_length_a   7.58917200
_cell_length_b   7.58692200
_cell_length_c   12.33395690
_cell_angle_alpha   89.97815748
_cell_angle_beta   90.00000000
_cell_angle_gamma   90.00000000
_symmetry_Int_Tables_number   1
_chemical_formula_structural   TmAgS2
_chemical_formula_sum   'Tm8 Ag8 S16'
_cell_volume   710.17014296
_cell_formula_units_Z   8
loop_
 _symmetry_equiv_pos_site_id
 _symmetry_equiv_pos_as_xyz
  1  'x, y, z'
loop_
 _atom_site_type_symbol
 _atom_site_label
 _atom_site_symmetry_multiplicity
 _atom_site_fract_x
 _atom_site_fract_y
 _atom_site_fract_z
 _atom_site_occupancy
  Tm  Tm0  1  0.72337200  0.49874200  0.25490400  1
  Tm  Tm1  1  0.22337200  0.50125800  0.74509600  1
  Tm  Tm2  1  0.97096400  0.75338400  0.50244100  1
  Tm  Tm3  1  0.47096400  0.24661600  0.49755900  1
  Tm  Tm4  1  0.71673000  0.99989500  0.75361800  1
  Tm  Tm5  1  0.21673000  0.00010500  0.24638200  1
  Tm  Tm6  1  0.47012700  0.74714600  0.00360000  1
  Tm  Tm7  1  0.97012700  0.25285400  0.99640000  1
  Ag  Ag8  1  0.71891800  0.99901400  0.28307900  1
  Ag  Ag9  1  0.21891800  0.00098600  0.71692100  1
  Ag  Ag10  1  0.47122700  0.74778000  0.52181000  1
  Ag  Ag11  1  0.97122700  0.25222000  0.47819000  1
  Ag  Ag12  1  0.22159200  0.50262300  0.20267600  1
  Ag  Ag13  1  0.72159200  0.49737700  0.79732400  1
  Ag  Ag14  1  0.96969400  0.75442400  0.01872100  1
  Ag  Ag15  1  0.46969400  0.24557600  0.98127900  1
  S  S16  1  0.45379100  0.73332900  0.22483200  1
  S  S17  1  0.95379100  0.26667100  0.77516800  1
  S  S18  1  0.73965200  0.51859400  0.03396200  1
  S  S19  1  0.23965200  0.48140600  0.96603800  1
  S  S20  1  0.70247300  0.98136200  0.53387500  1
  S  S21  1  0.20247300  0.01863800  0.46612500  1
  S  S22  1  0.95277000  0.76804800  0.28294100  1
  S  S23  1  0.45277000  0.23195200  0.71705900  1
  S  S24  1  0.73758800  0.48319900  0.47535000  1
  S  S25  1  0.23758800  0.51680100  0.52465000  1
  S  S26  1  0.98779900  0.76711000  0.72406000  1
  S  S27  1  0.48779900  0.23289000  0.27594000  1
  S  S28  1  0.20601000  0.98496100  0.02522600  1
  S  S29  1  0.70601000  0.01503900  0.97477400  1
  S  S30  1  0.99049300  0.26978200  0.21597700  1
  S  S31  1  0.49049300  0.73021800  0.78402300  1
