# generated using pymatgen
data_Ti2Se3
_symmetry_space_group_name_H-M   'P 1'
_cell_length_a   6.25356102
_cell_length_b   6.25356102
_cell_length_c   12.10191800
_cell_angle_alpha   90.00000000
_cell_angle_beta   90.00000000
_cell_angle_gamma   120.00001077
_symmetry_Int_Tables_number   1
_chemical_formula_structural   Ti2Se3
_chemical_formula_sum   'Ti8 Se12'
_cell_volume   409.86381112
_cell_formula_units_Z   4
loop_
 _symmetry_equiv_pos_site_id
 _symmetry_equiv_pos_as_xyz
  1  'x, y, z'
loop_
 _atom_site_type_symbol
 _atom_site_label
 _atom_site_symmetry_multiplicity
 _atom_site_fract_x
 _atom_site_fract_y
 _atom_site_fract_z
 _atom_site_occupancy
  Ti  Ti0  1  0.66666700  0.33333300  0.50492500  1
  Ti  Ti1  1  0.33333300  0.66666700  0.49507500  1
  Ti  Ti2  1  0.66666700  0.33333300  0.99507500  1
  Ti  Ti3  1  0.33333300  0.66666700  0.00492500  1
  Ti  Ti4  1  0.00000000  0.00000000  0.50000000  1
  Ti  Ti5  1  0.00000000  0.00000000  0.00000000  1
  Ti  Ti6  1  0.66666700  0.33333300  0.75000000  1
  Ti  Ti7  1  0.33333300  0.66666700  0.25000000  1
  Se  Se8  1  0.66721400  0.99455100  0.62820000  1
  Se  Se9  1  0.33278600  0.00544900  0.37180000  1
  Se  Se10  1  0.00544900  0.67266300  0.62820000  1
  Se  Se11  1  0.66721400  0.67266300  0.87180000  1
  Se  Se12  1  0.99455100  0.32733700  0.37180000  1
  Se  Se13  1  0.33278600  0.32733700  0.12820000  1
  Se  Se14  1  0.32733700  0.33278600  0.62820000  1
  Se  Se15  1  0.00544900  0.33278600  0.87180000  1
  Se  Se16  1  0.67266300  0.66721400  0.37180000  1
  Se  Se17  1  0.99455100  0.66721400  0.12820000  1
  Se  Se18  1  0.32733700  0.99455100  0.87180000  1
  Se  Se19  1  0.67266300  0.00544900  0.12820000  1
