# generated using pymatgen
data_TbTe3
_symmetry_space_group_name_H-M   'P 1'
_cell_length_a   5.85197579
_cell_length_b   5.85197579
_cell_length_c   15.17315500
_cell_angle_alpha   90.00000000
_cell_angle_beta   90.00000000
_cell_angle_gamma   107.95124659
_symmetry_Int_Tables_number   1
_chemical_formula_structural   TbTe3
_chemical_formula_sum   'Tb1 Te3'
_cell_volume   494.31883615
_cell_formula_units_Z   1
loop_
 _symmetry_equiv_pos_site_id
 _symmetry_equiv_pos_as_xyz
  1  'x, y, z'
loop_
 _atom_site_type_symbol
 _atom_site_label
 _atom_site_symmetry_multiplicity
 _atom_site_fract_x
 _atom_site_fract_y
 _atom_site_fract_z
 _atom_site_occupancy
  Tb  Tb0  1  0.00000000  0.00000000  0.00000000  1
  Te  Te1  1  0.00000000  0.00000000  0.50000000  1
  Te  Te2  1  0.50000000  0.00000000  0.00000000  1
  Te  Te3  1  0.00000000  0.50000000  0.00000000  1
