# generated using pymatgen
data_TbAl3(BO3)4
_symmetry_space_group_name_H-M   'P 1'
_cell_length_a   5.93882908
_cell_length_b   5.93882908
_cell_length_c   11.14891190
_cell_angle_alpha   81.94154635
_cell_angle_beta   81.94154635
_cell_angle_gamma   104.46189659
_symmetry_Int_Tables_number   1
_chemical_formula_structural   TbAl3(BO3)4
_chemical_formula_sum   'Tb2 Al6 B8 O24'
_cell_volume   370.65190629
_cell_formula_units_Z   2
loop_
 _symmetry_equiv_pos_site_id
 _symmetry_equiv_pos_as_xyz
  1  'x, y, z'
loop_
 _atom_site_type_symbol
 _atom_site_label
 _atom_site_symmetry_multiplicity
 _atom_site_fract_x
 _atom_site_fract_y
 _atom_site_fract_z
 _atom_site_occupancy
  Tb  Tb0  1  0.96402400  0.03597600  0.75000000  1
  Tb  Tb1  1  0.03597600  0.96402400  0.25000000  1
  Al  Al2  1  0.69550500  0.19421600  0.02823100  1
  Al  Al3  1  0.30449500  0.80578400  0.97176900  1
  Al  Al4  1  0.80578400  0.30449500  0.47176900  1
  Al  Al5  1  0.19421600  0.69550500  0.52823100  1
  Al  Al6  1  0.41146500  0.58853500  0.75000000  1
  Al  Al7  1  0.58853500  0.41146500  0.25000000  1
  B  B8  1  0.49283100  0.11984500  0.72237200  1
  B  B9  1  0.50716900  0.88015500  0.27762800  1
  B  B10  1  0.88015500  0.50716900  0.77762800  1
  B  B11  1  0.11984500  0.49283100  0.22237200  1
  B  B12  1  0.72050000  0.77713100  0.50418100  1
  B  B13  1  0.27950000  0.22286900  0.49581900  1
  B  B14  1  0.22286900  0.27950000  0.99581900  1
  B  B15  1  0.77713100  0.72050000  0.00418100  1
  O  O16  1  0.19067100  0.99724800  0.56555300  1
  O  O17  1  0.80932900  0.00275200  0.43444700  1
  O  O18  1  0.00275200  0.80932900  0.93444700  1
  O  O19  1  0.99724800  0.19067100  0.06555300  1
  O  O20  1  0.42222500  0.89491100  0.79512200  1
  O  O21  1  0.57777500  0.10508900  0.20487800  1
  O  O22  1  0.10508900  0.57777500  0.70487800  1
  O  O23  1  0.89491100  0.42222500  0.29512200  1
  O  O24  1  0.70159500  0.17852200  0.63959700  1
  O  O25  1  0.29840500  0.82147800  0.36040300  1
  O  O26  1  0.82147800  0.29840500  0.86040300  1
  O  O27  1  0.17852200  0.70159500  0.13959700  1
  O  O28  1  0.62996800  0.86985800  0.99705100  1
  O  O29  1  0.37003200  0.13014200  0.00294900  1
  O  O30  1  0.13014200  0.37003200  0.50294900  1
  O  O31  1  0.86985800  0.62996800  0.49705100  1
  O  O32  1  0.34980900  0.26678000  0.74123300  1
  O  O33  1  0.65019100  0.73322000  0.25876700  1
  O  O34  1  0.73322000  0.65019100  0.75876700  1
  O  O35  1  0.26678000  0.34980900  0.24123300  1
  O  O36  1  0.49421200  0.69867900  0.57327700  1
  O  O37  1  0.50578800  0.30132100  0.42672300  1
  O  O38  1  0.30132100  0.50578800  0.92672300  1
  O  O39  1  0.69867900  0.49421200  0.07327700  1
