# generated using pymatgen
data_Tm2Sn3(PbS4)3
_symmetry_space_group_name_H-M   'P 1'
_cell_length_a   3.93218800
_cell_length_b   11.61593300
_cell_length_c   20.35898900
_cell_angle_alpha   90.00000000
_cell_angle_beta   90.00000000
_cell_angle_gamma   90.00000000
_symmetry_Int_Tables_number   1
_chemical_formula_structural   Tm2Sn3(PbS4)3
_chemical_formula_sum   'Tm4 Sn6 Pb6 S24'
_cell_volume   929.91784021
_cell_formula_units_Z   2
loop_
 _symmetry_equiv_pos_site_id
 _symmetry_equiv_pos_as_xyz
  1  'x, y, z'
loop_
 _atom_site_type_symbol
 _atom_site_label
 _atom_site_symmetry_multiplicity
 _atom_site_fract_x
 _atom_site_fract_y
 _atom_site_fract_z
 _atom_site_occupancy
  Tm  Tm0  1  0.50000000  0.64667300  0.41234100  1
  Tm  Tm1  1  0.50000000  0.14667300  0.58765900  1
  Tm  Tm2  1  0.50000000  0.82559900  0.89459500  1
  Tm  Tm3  1  0.50000000  0.32559900  0.10540500  1
  Sn  Sn4  1  0.00000000  0.00145300  0.75046100  1
  Sn  Sn5  1  0.00000000  0.50145300  0.24953900  1
  Sn  Sn6  1  0.00000000  0.52003600  0.91217800  1
  Sn  Sn7  1  0.00000000  0.02003600  0.08782200  1
  Sn  Sn8  1  0.00000000  0.99249800  0.42682000  1
  Sn  Sn9  1  0.00000000  0.49249800  0.57318000  1
  Pb  Pb10  1  0.50000000  0.40320600  0.74132500  1
  Pb  Pb11  1  0.50000000  0.90320600  0.25867500  1
  Pb  Pb12  1  0.50000000  0.19884400  0.91480800  1
  Pb  Pb13  1  0.50000000  0.69884400  0.08519200  1
  Pb  Pb14  1  0.50000000  0.77133900  0.62191300  1
  Pb  Pb15  1  0.50000000  0.27133900  0.37808700  1
  S  S16  1  0.00000000  0.98835900  0.87607000  1
  S  S17  1  0.00000000  0.48835900  0.12393000  1
  S  S18  1  0.00000000  0.98675700  0.62627000  1
  S  S19  1  0.00000000  0.48675700  0.37373000  1
  S  S20  1  0.00000000  0.68229500  0.50828700  1
  S  S21  1  0.00000000  0.18229500  0.49171300  1
  S  S22  1  0.50000000  0.64666900  0.25824300  1
  S  S23  1  0.50000000  0.14666900  0.74175700  1
  S  S24  1  0.50000000  0.84956900  0.75759400  1
  S  S25  1  0.50000000  0.34956900  0.24240600  1
  S  S26  1  0.50000000  0.60316200  0.84169900  1
  S  S27  1  0.50000000  0.10316200  0.15830100  1
  S  S28  1  0.50000000  0.43772300  0.98345400  1
  S  S29  1  0.50000000  0.93772300  0.01654600  1
  S  S30  1  0.50000000  0.93777300  0.49398400  1
  S  S31  1  0.50000000  0.43777300  0.50601600  1
  S  S32  1  0.00000000  0.33766600  0.84279200  1
  S  S33  1  0.00000000  0.83766600  0.15720800  1
  S  S34  1  0.00000000  0.71624700  0.96817900  1
  S  S35  1  0.00000000  0.21624700  0.03182100  1
  S  S36  1  0.00000000  0.80253000  0.36149700  1
  S  S37  1  0.00000000  0.30253000  0.63850300  1
  S  S38  1  0.00000000  0.60090200  0.67649900  1
  S  S39  1  0.00000000  0.10090200  0.32350100  1
