# generated using pymatgen
data_V3Pb5F19
_symmetry_space_group_name_H-M   'P 1'
_cell_length_a   11.12671822
_cell_length_b   11.12671822
_cell_length_c   11.12671822
_cell_angle_alpha   97.00169910
_cell_angle_beta   97.00169910
_cell_angle_gamma   139.13054801
_symmetry_Int_Tables_number   1
_chemical_formula_structural   V3Pb5F19
_chemical_formula_sum   'V6 Pb10 F38'
_cell_volume   844.64754077
_cell_formula_units_Z   2
loop_
 _symmetry_equiv_pos_site_id
 _symmetry_equiv_pos_as_xyz
  1  'x, y, z'
loop_
 _atom_site_type_symbol
 _atom_site_label
 _atom_site_symmetry_multiplicity
 _atom_site_fract_x
 _atom_site_fract_y
 _atom_site_fract_z
 _atom_site_occupancy
  V  V0  1  0.71725600  0.21725600  0.82457800  1
  V  V1  1  0.39267700  0.89267700  0.17542200  1
  V  V2  1  0.89267700  0.71725600  0.50000000  1
  V  V3  1  0.21725600  0.39267700  0.50000000  1
  V  V4  1  0.24832100  0.24832100  0.00000000  1
  V  V5  1  0.74832100  0.74832100  0.00000000  1
  Pb  Pb6  1  0.33046300  0.17034700  0.29844300  1
  Pb  Pb7  1  0.87190400  0.03202000  0.70155700  1
  Pb  Pb8  1  0.03202000  0.33046300  0.16011600  1
  Pb  Pb9  1  0.83046300  0.53202000  0.16011600  1
  Pb  Pb10  1  0.17034700  0.87190400  0.83988400  1
  Pb  Pb11  1  0.37190400  0.67034700  0.83988400  1
  Pb  Pb12  1  0.53202000  0.37190400  0.70155700  1
  Pb  Pb13  1  0.67034700  0.83046300  0.29844300  1
  Pb  Pb14  1  0.71287400  0.21287400  0.50000000  1
  Pb  Pb15  1  0.21287400  0.71287400  0.50000000  1
  F  F16  1  0.53927600  0.03927600  0.64660300  1
  F  F17  1  0.39267300  0.89267300  0.35339700  1
  F  F18  1  0.89267300  0.53927600  0.50000000  1
  F  F19  1  0.03927600  0.39267300  0.50000000  1
  F  F20  1  0.28796400  0.53001300  0.37202300  1
  F  F21  1  0.15799000  0.91594100  0.62797700  1
  F  F22  1  0.91594100  0.28796400  0.75795100  1
  F  F23  1  0.78796400  0.41594100  0.75795100  1
  F  F24  1  0.53001300  0.15799000  0.24204900  1
  F  F25  1  0.65799000  0.03001300  0.24204900  1
  F  F26  1  0.41594100  0.65799000  0.62797700  1
  F  F27  1  0.03001300  0.78796400  0.37202300  1
  F  F28  1  0.36418400  0.86418400  0.99400700  1
  F  F29  1  0.87017700  0.37017700  0.00599300  1
  F  F30  1  0.37017700  0.36418400  0.50000000  1
  F  F31  1  0.86418400  0.87017700  0.50000000  1
  F  F32  1  0.21026700  0.71026700  0.72757100  1
  F  F33  1  0.98269700  0.48269700  0.27242900  1
  F  F34  1  0.48269700  0.21026700  0.50000000  1
  F  F35  1  0.71026700  0.98269700  0.50000000  1
  F  F36  1  0.99731900  0.99731900  0.00000000  1
  F  F37  1  0.49731900  0.49731900  0.00000000  1
  F  F38  1  0.29747000  0.35995600  0.17854000  1
  F  F39  1  0.18141600  0.11893000  0.82146000  1
  F  F40  1  0.11893000  0.29747000  0.93751400  1
  F  F41  1  0.79747000  0.61893000  0.93751400  1
  F  F42  1  0.35995600  0.18141600  0.06248600  1
  F  F43  1  0.68141600  0.85995600  0.06248600  1
  F  F44  1  0.61893000  0.68141600  0.82146000  1
  F  F45  1  0.85995600  0.79747000  0.17854000  1
  F  F46  1  0.64582900  0.50357900  0.35112300  1
  F  F47  1  0.15245600  0.29470500  0.64887700  1
  F  F48  1  0.29470500  0.64582900  0.14225000  1
  F  F49  1  0.14582900  0.79470500  0.14225000  1
  F  F50  1  0.50357900  0.15245600  0.85775000  1
  F  F51  1  0.65245600  0.00357900  0.85775000  1
  F  F52  1  0.79470500  0.65245600  0.64887700  1
  F  F53  1  0.00357900  0.14582900  0.35112300  1
