# generated using pymatgen
data_Ti4Fe(BiO3)6
_symmetry_space_group_name_H-M   'P 1'
_cell_length_a   24.47354563
_cell_length_b   24.46085713
_cell_length_c   4.04476984
_cell_angle_alpha   85.43784071
_cell_angle_beta   85.07959502
_cell_angle_gamma   9.48256427
_symmetry_Int_Tables_number   1
_chemical_formula_structural   Ti4Fe(BiO3)6
_chemical_formula_sum   'Ti4 Fe1 Bi6 O18'
_cell_volume   397.25676850
_cell_formula_units_Z   1
loop_
 _symmetry_equiv_pos_site_id
 _symmetry_equiv_pos_as_xyz
  1  'x, y, z'
loop_
 _atom_site_type_symbol
 _atom_site_label
 _atom_site_symmetry_multiplicity
 _atom_site_fract_x
 _atom_site_fract_y
 _atom_site_fract_z
 _atom_site_occupancy
  Ti  Ti0  1  0.18238200  0.14978600  0.85021400  1
  Ti  Ti1  1  0.85021400  0.81761800  0.18238200  1
  Ti  Ti2  1  0.10914000  0.05595700  0.94404300  1
  Ti  Ti3  1  0.94404300  0.89086000  0.10914000  1
  Fe  Fe4  1  0.01337200  0.98662800  0.01337200  1
  Bi  Bi5  1  0.38973000  0.16166100  0.83833900  1
  Bi  Bi6  1  0.83833900  0.61027000  0.38973000  1
  Bi  Bi7  1  0.45502600  0.29285200  0.70714800  1
  Bi  Bi8  1  0.70714800  0.54497400  0.45502600  1
  Bi  Bi9  1  0.55831100  0.36647900  0.63352100  1
  Bi  Bi10  1  0.63352100  0.44168900  0.55831100  1
  O  O11  1  0.17588500  0.22912600  0.77087400  1
  O  O12  1  0.77087400  0.82411500  0.17588500  1
  O  O13  1  0.00504400  0.08169300  0.91830700  1
  O  O14  1  0.91830700  0.99495600  0.00504400  1
  O  O15  1  0.94287600  0.05712400  0.50032500  1
  O  O16  1  0.50032500  0.49967500  0.94287600  1
  O  O17  1  0.04314400  0.12103000  0.39485100  1
  O  O18  1  0.39485100  0.44097600  0.04314400  1
  O  O19  1  0.87897000  0.95685600  0.55902400  1
  O  O20  1  0.55902400  0.60514900  0.87897000  1
  O  O21  1  0.12634300  0.19256400  0.32018400  1
  O  O22  1  0.32018400  0.36090900  0.12634300  1
  O  O23  1  0.80743600  0.87365700  0.63909100  1
  O  O24  1  0.63909100  0.67981600  0.80743600  1
  O  O25  1  0.07869500  0.16470900  0.83529100  1
  O  O26  1  0.83529100  0.92130500  0.07869500  1
  O  O27  1  0.30511600  0.19488400  0.30511600  1
  O  O28  1  0.80511600  0.69488400  0.80511600  1
