# generated using pymatgen
data_Tm2Se3O20
_symmetry_space_group_name_H-M   'P 1'
_cell_length_a   6.84902600
_cell_length_b   7.23880830
_cell_length_c   19.19026465
_cell_angle_alpha   98.78866919
_cell_angle_beta   90.00000000
_cell_angle_gamma   118.23421096
_symmetry_Int_Tables_number   1
_chemical_formula_structural   Tm2Se3O20
_chemical_formula_sum   'Tm4 Se6 O40'
_cell_volume   825.52844987
_cell_formula_units_Z   2
loop_
 _symmetry_equiv_pos_site_id
 _symmetry_equiv_pos_as_xyz
  1  'x, y, z'
loop_
 _atom_site_type_symbol
 _atom_site_label
 _atom_site_symmetry_multiplicity
 _atom_site_fract_x
 _atom_site_fract_y
 _atom_site_fract_z
 _atom_site_occupancy
  Tm  Tm0  1  0.82376600  0.67920900  0.60377500  1
  Tm  Tm1  1  0.17623400  0.32079100  0.39622500  1
  Tm  Tm2  1  0.14455800  0.32079100  0.89622500  1
  Tm  Tm3  1  0.85544200  0.67920900  0.10377500  1
  Se  Se4  1  0.76695200  0.58828800  0.91352800  1
  Se  Se5  1  0.23304800  0.41171200  0.08647200  1
  Se  Se6  1  0.17866400  0.41171200  0.58647200  1
  Se  Se7  1  0.82133600  0.58828800  0.41352800  1
  Se  Se8  1  0.70825400  0.00000000  0.75000000  1
  Se  Se9  1  0.29174600  0.00000000  0.25000000  1
  O  O10  1  0.33558300  0.59922400  0.81941200  1
  O  O11  1  0.66441700  0.40077600  0.18058800  1
  O  O12  1  0.73635900  0.40077600  0.68058800  1
  O  O13  1  0.26364100  0.59922400  0.31941200  1
  O  O14  1  0.31527600  0.67834500  0.93195700  1
  O  O15  1  0.68472400  0.32165500  0.06804300  1
  O  O16  1  0.63693000  0.32165500  0.56804300  1
  O  O17  1  0.36307000  0.67834500  0.43195700  1
  O  O18  1  0.50654900  0.39866800  0.88633400  1
  O  O19  1  0.49345100  0.60133200  0.11366600  1
  O  O20  1  0.10788100  0.60133200  0.61366600  1
  O  O21  1  0.89211900  0.39866800  0.38633400  1
  O  O22  1  0.78709500  0.72131000  0.99487500  1
  O  O23  1  0.21290500  0.27869000  0.00512500  1
  O  O24  1  0.06578500  0.27869000  0.50512500  1
  O  O25  1  0.93421500  0.72131000  0.49487500  1
  O  O26  1  0.52458800  0.91965100  0.81327600  1
  O  O27  1  0.47541200  0.08034900  0.18672400  1
  O  O28  1  0.60493800  0.08034900  0.68672400  1
  O  O29  1  0.39506200  0.91965100  0.31327600  1
  O  O30  1  0.84770000  0.75370400  0.85471900  1
  O  O31  1  0.15230000  0.24629600  0.14528100  1
  O  O32  1  0.09399600  0.24629600  0.64528100  1
  O  O33  1  0.90600400  0.75370400  0.35471900  1
  O  O34  1  0.45440500  0.53707900  0.58213100  1
  O  O35  1  0.54559500  0.46292100  0.41786900  1
  O  O36  1  0.91732600  0.46292100  0.91786900  1
  O  O37  1  0.08267400  0.53707900  0.08213100  1
  O  O38  1  0.17842700  0.01169100  0.85347100  1
  O  O39  1  0.82157300  0.98830900  0.14652900  1
  O  O40  1  0.16673600  0.98830900  0.64652900  1
  O  O41  1  0.83326400  0.01169100  0.35347100  1
  O  O42  1  0.73193800  0.93827500  0.57254700  1
  O  O43  1  0.26806200  0.06172500  0.42745300  1
  O  O44  1  0.79366300  0.06172500  0.92745300  1
  O  O45  1  0.20633700  0.93827500  0.07254700  1
  O  O46  1  0.75149300  0.80299100  0.70966800  1
  O  O47  1  0.24850700  0.19700900  0.29033200  1
  O  O48  1  0.94850300  0.19700900  0.79033200  1
  O  O49  1  0.05149700  0.80299100  0.20966800  1
