# generated using pymatgen
data_TiBi6(PO8)2
_symmetry_space_group_name_H-M   'P 1'
_cell_length_a   8.20384981
_cell_length_b   8.20384981
_cell_length_c   11.35860439
_cell_angle_alpha   50.35017139
_cell_angle_beta   50.35017139
_cell_angle_gamma   38.71062561
_symmetry_Int_Tables_number   1
_chemical_formula_structural   TiBi6(PO8)2
_chemical_formula_sum   'Ti1 Bi6 P2 O16'
_cell_volume   352.16545800
_cell_formula_units_Z   1
loop_
 _symmetry_equiv_pos_site_id
 _symmetry_equiv_pos_as_xyz
  1  'x, y, z'
loop_
 _atom_site_type_symbol
 _atom_site_label
 _atom_site_symmetry_multiplicity
 _atom_site_fract_x
 _atom_site_fract_y
 _atom_site_fract_z
 _atom_site_occupancy
  Ti  Ti0  1  0.76155600  0.23844400  0.50000000  1
  Bi  Bi1  1  0.36922800  0.95414400  0.51316500  1
  Bi  Bi2  1  0.04585600  0.63077200  0.48683500  1
  Bi  Bi3  1  0.76345100  0.25655900  0.82168500  1
  Bi  Bi4  1  0.74344100  0.23654900  0.17831500  1
  Bi  Bi5  1  0.08992000  0.58620200  0.15193700  1
  Bi  Bi6  1  0.41379800  0.91008000  0.84806300  1
  P  P7  1  0.13568600  0.57801700  0.77583900  1
  P  P8  1  0.42198300  0.86431400  0.22416100  1
  O  O9  1  0.20151900  0.65845300  0.82404800  1
  O  O10  1  0.34154700  0.79848100  0.17595200  1
  O  O11  1  0.68099800  0.66231100  0.67664700  1
  O  O12  1  0.33768900  0.31900200  0.32335300  1
  O  O13  1  0.49732600  0.50267400  0.00000000  1
  O  O14  1  0.61740500  0.58651300  0.33436100  1
  O  O15  1  0.41348700  0.38259500  0.66563900  1
  O  O16  1  0.02167400  0.42660200  0.91218600  1
  O  O17  1  0.57339800  0.97832600  0.08781400  1
  O  O18  1  0.72795100  0.09295000  0.44721100  1
  O  O19  1  0.90705000  0.27204900  0.55278900  1
  O  O20  1  0.93917100  0.83515800  0.66846800  1
  O  O21  1  0.16484200  0.06082900  0.33153200  1
  O  O22  1  0.18405800  0.15809100  0.67874900  1
  O  O23  1  0.84190900  0.81594200  0.32125100  1
  O  O24  1  0.00725500  0.99274500  0.00000000  1
