# generated using pymatgen
data_ThBr2
_symmetry_space_group_name_H-M   'P 1'
_cell_length_a   14.87600703
_cell_length_b   14.87600703
_cell_length_c   14.87600703
_cell_angle_alpha   106.57988900
_cell_angle_beta   106.57988900
_cell_angle_gamma   115.42289394
_symmetry_Int_Tables_number   1
_chemical_formula_structural   ThBr2
_chemical_formula_sum   'Th4 Br8'
_cell_volume   2513.45873842
_cell_formula_units_Z   4
loop_
 _symmetry_equiv_pos_site_id
 _symmetry_equiv_pos_as_xyz
  1  'x, y, z'
loop_
 _atom_site_type_symbol
 _atom_site_label
 _atom_site_symmetry_multiplicity
 _atom_site_fract_x
 _atom_site_fract_y
 _atom_site_fract_z
 _atom_site_occupancy
  Th  Th0  1  0.12500000  0.87500000  0.75000000  1
  Th  Th1  1  0.12500000  0.37500000  0.25000000  1
  Th  Th2  1  0.62500000  0.87500000  0.75000000  1
  Th  Th3  1  0.12500000  0.87500000  0.25000000  1
  Br  Br4  1  0.19407600  0.30552200  0.11144600  1
  Br  Br5  1  0.19407600  0.08262900  0.88855400  1
  Br  Br6  1  0.33262900  0.94407600  0.38855400  1
  Br  Br7  1  0.05592400  0.66737100  0.61144600  1
  Br  Br8  1  0.05592400  0.44447800  0.38855400  1
  Br  Br9  1  0.55552200  0.94407600  0.61144600  1
  Br  Br10  1  0.91737100  0.80592400  0.11144600  1
  Br  Br11  1  0.69447800  0.80592400  0.88855400  1
