# generated using pymatgen
data_Tb5Si3O13
_symmetry_space_group_name_H-M   'P 1'
_cell_length_a   9.51090359
_cell_length_b   9.51090359
_cell_length_c   6.83990600
_cell_angle_alpha   90.00000000
_cell_angle_beta   90.00000000
_cell_angle_gamma   119.99999713
_symmetry_Int_Tables_number   1
_chemical_formula_structural   Tb5Si3O13
_chemical_formula_sum   'Tb10 Si6 O26'
_cell_volume   535.82668209
_cell_formula_units_Z   2
loop_
 _symmetry_equiv_pos_site_id
 _symmetry_equiv_pos_as_xyz
  1  'x, y, z'
loop_
 _atom_site_type_symbol
 _atom_site_label
 _atom_site_symmetry_multiplicity
 _atom_site_fract_x
 _atom_site_fract_y
 _atom_site_fract_z
 _atom_site_occupancy
  Tb  Tb0  1  0.76607100  0.99863300  0.75000000  1
  Tb  Tb1  1  0.23392900  0.00136700  0.25000000  1
  Tb  Tb2  1  0.23256100  0.23392900  0.75000000  1
  Tb  Tb3  1  0.76743900  0.76607100  0.25000000  1
  Tb  Tb4  1  0.00136700  0.76743900  0.75000000  1
  Tb  Tb5  1  0.99863300  0.23256100  0.25000000  1
  Tb  Tb6  1  0.66666700  0.33333300  0.00356400  1
  Tb  Tb7  1  0.33333300  0.66666700  0.99643600  1
  Tb  Tb8  1  0.33333300  0.66666700  0.50356400  1
  Tb  Tb9  1  0.66666700  0.33333300  0.49643600  1
  Si  Si10  1  0.97287300  0.37152100  0.75000000  1
  Si  Si11  1  0.02712700  0.62847900  0.25000000  1
  Si  Si12  1  0.39864700  0.02712700  0.75000000  1
  Si  Si13  1  0.60135300  0.97287300  0.25000000  1
  Si  Si14  1  0.62847900  0.60135300  0.75000000  1
  Si  Si15  1  0.37152100  0.39864700  0.25000000  1
  O  O16  1  0.51069900  0.68013800  0.75000000  1
  O  O17  1  0.48930100  0.31986200  0.25000000  1
  O  O18  1  0.16943900  0.48930100  0.75000000  1
  O  O19  1  0.83056100  0.51069900  0.25000000  1
  O  O20  1  0.31986200  0.83056100  0.75000000  1
  O  O21  1  0.68013800  0.16943900  0.25000000  1
  O  O22  1  0.91055100  0.24817600  0.93954600  1
  O  O23  1  0.08944900  0.75182400  0.06045400  1
  O  O24  1  0.33762500  0.08944900  0.93954600  1
  O  O25  1  0.08944900  0.75182400  0.43954600  1
  O  O26  1  0.66237500  0.91055100  0.06045400  1
  O  O27  1  0.91055100  0.24817600  0.56045400  1
  O  O28  1  0.75182400  0.66237500  0.93954600  1
  O  O29  1  0.66237500  0.91055100  0.43954600  1
  O  O30  1  0.24817600  0.33762500  0.06045400  1
  O  O31  1  0.33762500  0.08944900  0.56045400  1
  O  O32  1  0.24817600  0.33762500  0.43954600  1
  O  O33  1  0.75182400  0.66237500  0.56045400  1
  O  O34  1  0.87182000  0.47072800  0.75000000  1
  O  O35  1  0.12818000  0.52927200  0.25000000  1
  O  O36  1  0.59890800  0.12818000  0.75000000  1
  O  O37  1  0.40109200  0.87182000  0.25000000  1
  O  O38  1  0.52927200  0.40109200  0.75000000  1
  O  O39  1  0.47072800  0.59890800  0.25000000  1
  O  O40  1  0.00000000  0.00000000  0.75000000  1
  O  O41  1  0.00000000  0.00000000  0.25000000  1
