# generated using pymatgen
data_SrTl3O5
_symmetry_space_group_name_H-M   'P 1'
_cell_length_a   6.06000061
_cell_length_b   6.06000061
_cell_length_c   14.05792200
_cell_angle_alpha   90.00000000
_cell_angle_beta   90.00000000
_cell_angle_gamma   146.18706431
_symmetry_Int_Tables_number   1
_chemical_formula_structural   SrTl3O5
_chemical_formula_sum   'Sr2 Tl6 O10'
_cell_volume   287.28869246
_cell_formula_units_Z   2
loop_
 _symmetry_equiv_pos_site_id
 _symmetry_equiv_pos_as_xyz
  1  'x, y, z'
loop_
 _atom_site_type_symbol
 _atom_site_label
 _atom_site_symmetry_multiplicity
 _atom_site_fract_x
 _atom_site_fract_y
 _atom_site_fract_z
 _atom_site_occupancy
  Sr  Sr0  1  0.46941500  0.53058500  0.25000000  1
  Sr  Sr1  1  0.53058500  0.46941500  0.75000000  1
  Tl  Tl2  1  0.00000000  0.00000000  0.00000000  1
  Tl  Tl3  1  0.00000000  0.00000000  0.50000000  1
  Tl  Tl4  1  0.72553800  0.27446200  0.11071600  1
  Tl  Tl5  1  0.27446200  0.72553800  0.88928400  1
  Tl  Tl6  1  0.27446200  0.72553800  0.61071600  1
  Tl  Tl7  1  0.72553800  0.27446200  0.38928400  1
  O  O8  1  0.91733100  0.08266900  0.64182400  1
  O  O9  1  0.08266900  0.91733100  0.35817600  1
  O  O10  1  0.08266900  0.91733100  0.14182400  1
  O  O11  1  0.91733100  0.08266900  0.85817600  1
  O  O12  1  0.81707600  0.18292400  0.25000000  1
  O  O13  1  0.18292400  0.81707600  0.75000000  1
  O  O14  1  0.64478000  0.35522000  0.54353700  1
  O  O15  1  0.35522000  0.64478000  0.45646300  1
  O  O16  1  0.35522000  0.64478000  0.04353700  1
  O  O17  1  0.64478000  0.35522000  0.95646300  1
