# generated using pymatgen
data_V2Fe4Mo3O20
_symmetry_space_group_name_H-M   'P 1'
_cell_length_a   9.68804000
_cell_length_b   9.68804000
_cell_length_c   17.44894400
_cell_angle_alpha   90.00000000
_cell_angle_beta   90.00000000
_cell_angle_gamma   90.00000000
_symmetry_Int_Tables_number   1
_chemical_formula_structural   V2Fe4Mo3O20
_chemical_formula_sum   'V8 Fe16 Mo12 O80'
_cell_volume   1637.72506310
_cell_formula_units_Z   4
loop_
 _symmetry_equiv_pos_site_id
 _symmetry_equiv_pos_as_xyz
  1  'x, y, z'
loop_
 _atom_site_type_symbol
 _atom_site_label
 _atom_site_symmetry_multiplicity
 _atom_site_fract_x
 _atom_site_fract_y
 _atom_site_fract_z
 _atom_site_occupancy
  V  V0  1  0.50000000  0.16376800  0.00000000  1
  V  V1  1  0.50000000  0.83623200  0.50000000  1
  V  V2  1  0.83623200  0.50000000  0.25000000  1
  V  V3  1  0.16376800  0.50000000  0.75000000  1
  V  V4  1  0.00000000  0.66276100  0.00000000  1
  V  V5  1  0.00000000  0.33723900  0.50000000  1
  V  V6  1  0.33723900  0.00000000  0.25000000  1
  V  V7  1  0.66276100  0.00000000  0.75000000  1
  Fe  Fe8  1  0.09537000  0.25642800  0.31126000  1
  Fe  Fe9  1  0.90463000  0.74357200  0.81126000  1
  Fe  Fe10  1  0.74357200  0.09537000  0.56126000  1
  Fe  Fe11  1  0.90463000  0.25642800  0.68874000  1
  Fe  Fe12  1  0.25642800  0.90463000  0.06126000  1
  Fe  Fe13  1  0.09537000  0.74357200  0.18874000  1
  Fe  Fe14  1  0.25642800  0.09537000  0.43874000  1
  Fe  Fe15  1  0.74357200  0.90463000  0.93874000  1
  Fe  Fe16  1  0.59516000  0.24772800  0.18895100  1
  Fe  Fe17  1  0.40484000  0.75227200  0.68895100  1
  Fe  Fe18  1  0.75227200  0.59516000  0.43895100  1
  Fe  Fe19  1  0.40484000  0.24772800  0.81104900  1
  Fe  Fe20  1  0.24772800  0.40484000  0.93895100  1
  Fe  Fe21  1  0.59516000  0.75227200  0.31104900  1
  Fe  Fe22  1  0.24772800  0.59516000  0.56104900  1
  Fe  Fe23  1  0.75227200  0.40484000  0.06104900  1
  Mo  Mo24  1  0.00000000  0.15914400  0.00000000  1
  Mo  Mo25  1  0.00000000  0.84085600  0.50000000  1
  Mo  Mo26  1  0.84085600  0.00000000  0.25000000  1
  Mo  Mo27  1  0.15914400  0.00000000  0.75000000  1
  Mo  Mo28  1  0.26680200  0.40113500  0.15432900  1
  Mo  Mo29  1  0.73319800  0.59886500  0.65432900  1
  Mo  Mo30  1  0.59886500  0.26680200  0.40432900  1
  Mo  Mo31  1  0.73319800  0.40113500  0.84567100  1
  Mo  Mo32  1  0.40113500  0.73319800  0.90432900  1
  Mo  Mo33  1  0.26680200  0.59886500  0.34567100  1
  Mo  Mo34  1  0.40113500  0.26680200  0.59567100  1
  Mo  Mo35  1  0.59886500  0.73319800  0.09567100  1
  O  O36  1  0.24036300  0.09725400  0.32121500  1
  O  O37  1  0.75963700  0.90274600  0.82121500  1
  O  O38  1  0.90274600  0.24036300  0.57121500  1
  O  O39  1  0.75963700  0.09725400  0.67878500  1
  O  O40  1  0.09725400  0.75963700  0.07121500  1
  O  O41  1  0.24036300  0.90274600  0.17878500  1
  O  O42  1  0.09725400  0.24036300  0.42878500  1
  O  O43  1  0.90274600  0.75963700  0.92878500  1
  O  O44  1  0.59455000  0.26122000  0.07162400  1
  O  O45  1  0.40545000  0.73878000  0.57162400  1
  O  O46  1  0.73878000  0.59455000  0.32162400  1
  O  O47  1  0.40545000  0.26122000  0.92837600  1
  O  O48  1  0.26122000  0.40545000  0.82162400  1
  O  O49  1  0.59455000  0.73878000  0.42837600  1
  O  O50  1  0.26122000  0.59455000  0.67837600  1
  O  O51  1  0.73878000  0.40545000  0.17837600  1
  O  O52  1  0.25935700  0.37117700  0.05309200  1
  O  O53  1  0.74064300  0.62882300  0.55309200  1
  O  O54  1  0.62882300  0.25935700  0.30309200  1
  O  O55  1  0.74064300  0.37117700  0.94690800  1
  O  O56  1  0.37117700  0.74064300  0.80309200  1
  O  O57  1  0.25935700  0.62882300  0.44690800  1
  O  O58  1  0.37117700  0.25935700  0.69690800  1
  O  O59  1  0.62882300  0.74064300  0.19690800  1
  O  O60  1  0.44296400  0.10982700  0.20228000  1
  O  O61  1  0.55703600  0.89017300  0.70228000  1
  O  O62  1  0.89017300  0.44296400  0.45228000  1
  O  O63  1  0.55703600  0.10982700  0.79772000  1
  O  O64  1  0.10982700  0.55703600  0.95228000  1
  O  O65  1  0.44296400  0.89017300  0.29772000  1
  O  O66  1  0.10982700  0.44296400  0.54772000  1
  O  O67  1  0.89017300  0.55703600  0.04772000  1
  O  O68  1  0.21960300  0.42351900  0.32674200  1
  O  O69  1  0.78039700  0.57648100  0.82674200  1
  O  O70  1  0.57648100  0.21960300  0.57674200  1
  O  O71  1  0.78039700  0.42351900  0.67325800  1
  O  O72  1  0.42351900  0.78039700  0.07674200  1
  O  O73  1  0.21960300  0.57648100  0.17325800  1
  O  O74  1  0.42351900  0.21960300  0.42325800  1
  O  O75  1  0.57648100  0.78039700  0.92325800  1
  O  O76  1  0.11265300  0.04979700  0.05342600  1
  O  O77  1  0.88734700  0.95020300  0.55342600  1
  O  O78  1  0.95020300  0.11265300  0.30342600  1
  O  O79  1  0.88734700  0.04979700  0.94657400  1
  O  O80  1  0.04979700  0.88734700  0.80342600  1
  O  O81  1  0.11265300  0.95020300  0.44657400  1
  O  O82  1  0.04979700  0.11265300  0.69657400  1
  O  O83  1  0.95020300  0.88734700  0.19657400  1
  O  O84  1  0.44107200  0.38560600  0.18681000  1
  O  O85  1  0.55892800  0.61439400  0.68681000  1
  O  O86  1  0.61439400  0.44107200  0.43681000  1
  O  O87  1  0.55892800  0.38560600  0.81319000  1
  O  O88  1  0.38560600  0.55892800  0.93681000  1
  O  O89  1  0.44107200  0.61439400  0.31319000  1
  O  O90  1  0.38560600  0.44107200  0.56319000  1
  O  O91  1  0.61439400  0.55892800  0.06319000  1
  O  O92  1  0.73472700  0.09549200  0.18429200  1
  O  O93  1  0.26527300  0.90450800  0.68429200  1
  O  O94  1  0.90450800  0.73472700  0.43429200  1
  O  O95  1  0.26527300  0.09549200  0.81570800  1
  O  O96  1  0.09549200  0.26527300  0.93429200  1
  O  O97  1  0.73472700  0.90450800  0.31570800  1
  O  O98  1  0.09549200  0.73472700  0.56570800  1
  O  O99  1  0.90450800  0.26527300  0.06570800  1
  O  O100  1  0.15458900  0.27742400  0.20062500  1
  O  O101  1  0.84541100  0.72257600  0.70062500  1
  O  O102  1  0.72257600  0.15458900  0.45062500  1
  O  O103  1  0.84541100  0.27742400  0.79937500  1
  O  O104  1  0.27742400  0.84541100  0.95062500  1
  O  O105  1  0.15458900  0.72257600  0.29937500  1
  O  O106  1  0.27742400  0.15458900  0.54937500  1
  O  O107  1  0.72257600  0.84541100  0.04937500  1
  O  O108  1  0.38716200  0.06041400  0.04722700  1
  O  O109  1  0.61283800  0.93958600  0.54722700  1
  O  O110  1  0.93958600  0.38716200  0.29722700  1
  O  O111  1  0.61283800  0.06041400  0.95277300  1
  O  O112  1  0.06041400  0.61283800  0.79722700  1
  O  O113  1  0.38716200  0.93958600  0.45277300  1
  O  O114  1  0.06041400  0.38716200  0.70277300  1
  O  O115  1  0.93958600  0.61283800  0.20277300  1
