# generated using pymatgen
data_TbF4
_symmetry_space_group_name_H-M   'P 1'
_cell_length_a   8.38092823
_cell_length_b   8.38092823
_cell_length_c   8.01586905
_cell_angle_alpha   66.57009551
_cell_angle_beta   66.57009551
_cell_angle_gamma   85.04867113
_symmetry_Int_Tables_number   1
_chemical_formula_structural   TbF4
_chemical_formula_sum   'Tb6 F24'
_cell_volume   472.28770881
_cell_formula_units_Z   6
loop_
 _symmetry_equiv_pos_site_id
 _symmetry_equiv_pos_as_xyz
  1  'x, y, z'
loop_
 _atom_site_type_symbol
 _atom_site_label
 _atom_site_symmetry_multiplicity
 _atom_site_fract_x
 _atom_site_fract_y
 _atom_site_fract_z
 _atom_site_occupancy
  Tb  Tb0  1  0.63712700  0.77322900  0.64132700  1
  Tb  Tb1  1  0.36287300  0.22677100  0.35867300  1
  Tb  Tb2  1  0.22677100  0.36287300  0.85867300  1
  Tb  Tb3  1  0.77322900  0.63712700  0.14132700  1
  Tb  Tb4  1  0.80127200  0.19872800  0.75000000  1
  Tb  Tb5  1  0.19872800  0.80127200  0.25000000  1
  F  F6  1  0.34376600  0.26054200  0.62600700  1
  F  F7  1  0.65623400  0.73945800  0.37399300  1
  F  F8  1  0.73945800  0.65623400  0.87399300  1
  F  F9  1  0.26054200  0.34376600  0.12600700  1
  F  F10  1  0.82534500  0.92778900  0.94017900  1
  F  F11  1  0.17465500  0.07221100  0.05982100  1
  F  F12  1  0.07221100  0.17465500  0.55982100  1
  F  F13  1  0.92778900  0.82534500  0.44017900  1
  F  F14  1  0.39987300  0.60012700  0.75000000  1
  F  F15  1  0.60012700  0.39987300  0.25000000  1
  F  F16  1  0.50000000  0.00000000  0.50000000  1
  F  F17  1  0.00000000  0.50000000  0.00000000  1
  F  F18  1  0.50188300  0.23310700  0.83222100  1
  F  F19  1  0.49811700  0.76689300  0.16777900  1
  F  F20  1  0.76689300  0.49811700  0.66777900  1
  F  F21  1  0.23310700  0.50188300  0.33222100  1
  F  F22  1  0.41303800  0.79945200  0.95094000  1
  F  F23  1  0.58696200  0.20054800  0.04906000  1
  F  F24  1  0.20054800  0.58696200  0.54906000  1
  F  F25  1  0.79945200  0.41303800  0.45094000  1
  F  F26  1  0.72258800  0.02771800  0.63526300  1
  F  F27  1  0.27741200  0.97228200  0.36473700  1
  F  F28  1  0.97228200  0.27741200  0.86473700  1
  F  F29  1  0.02771800  0.72258800  0.13526300  1
