# generated using pymatgen
data_TmZr6(PO4)9
_symmetry_space_group_name_H-M   'P 1'
_cell_length_a   8.94228031
_cell_length_b   8.94228031
_cell_length_c   22.88307900
_cell_angle_alpha   90.00000000
_cell_angle_beta   90.00000000
_cell_angle_gamma   120.00000226
_symmetry_Int_Tables_number   1
_chemical_formula_structural   TmZr6(PO4)9
_chemical_formula_sum   'Tm2 Zr12 P18 O72'
_cell_volume   1584.68023083
_cell_formula_units_Z   2
loop_
 _symmetry_equiv_pos_site_id
 _symmetry_equiv_pos_as_xyz
  1  'x, y, z'
loop_
 _atom_site_type_symbol
 _atom_site_label
 _atom_site_symmetry_multiplicity
 _atom_site_fract_x
 _atom_site_fract_y
 _atom_site_fract_z
 _atom_site_occupancy
  Tm  Tm0  1  0.00000000  0.00000000  0.50000000  1
  Tm  Tm1  1  0.00000000  0.00000000  0.00000000  1
  Zr  Zr2  1  0.33333300  0.66666700  0.52834900  1
  Zr  Zr3  1  0.66666700  0.33333300  0.47165100  1
  Zr  Zr4  1  0.66666700  0.33333300  0.97165100  1
  Zr  Zr5  1  0.33333300  0.66666700  0.02834900  1
  Zr  Zr6  1  0.00000000  0.00000000  0.64896300  1
  Zr  Zr7  1  0.00000000  0.00000000  0.35103700  1
  Zr  Zr8  1  0.00000000  0.00000000  0.85103700  1
  Zr  Zr9  1  0.00000000  0.00000000  0.14896300  1
  Zr  Zr10  1  0.33333300  0.66666700  0.81291800  1
  Zr  Zr11  1  0.66666700  0.33333300  0.18708200  1
  Zr  Zr12  1  0.66666700  0.33333300  0.68708200  1
  Zr  Zr13  1  0.33333300  0.66666700  0.31291800  1
  P  P14  1  0.37239000  0.31881500  0.57869700  1
  P  P15  1  0.62761000  0.68118500  0.42130300  1
  P  P16  1  0.68118500  0.05357400  0.57869700  1
  P  P17  1  0.31881500  0.37239000  0.92130300  1
  P  P18  1  0.31881500  0.94642600  0.42130300  1
  P  P19  1  0.68118500  0.62761000  0.07869700  1
  P  P20  1  0.94642600  0.62761000  0.57869700  1
  P  P21  1  0.05357400  0.68118500  0.92130300  1
  P  P22  1  0.05357400  0.37239000  0.42130300  1
  P  P23  1  0.94642600  0.31881500  0.07869700  1
  P  P24  1  0.62761000  0.94642600  0.92130300  1
  P  P25  1  0.37239000  0.05357400  0.07869700  1
  P  P26  1  0.29220300  0.00000000  0.75000000  1
  P  P27  1  0.70779700  0.00000000  0.25000000  1
  P  P28  1  0.00000000  0.29220300  0.75000000  1
  P  P29  1  0.00000000  0.70779700  0.25000000  1
  P  P30  1  0.70779700  0.70779700  0.75000000  1
  P  P31  1  0.29220300  0.29220300  0.25000000  1
  O  O32  1  0.45403800  0.28311300  0.52533000  1
  O  O33  1  0.54596200  0.71688700  0.47467000  1
  O  O34  1  0.71688700  0.17092500  0.52533000  1
  O  O35  1  0.28311300  0.45403800  0.97467000  1
  O  O36  1  0.28311300  0.82907500  0.47467000  1
  O  O37  1  0.71688700  0.54596200  0.02533000  1
  O  O38  1  0.82907500  0.54596200  0.52533000  1
  O  O39  1  0.17092500  0.71688700  0.97467000  1
  O  O40  1  0.17092500  0.45403800  0.47467000  1
  O  O41  1  0.82907500  0.28311300  0.02533000  1
  O  O42  1  0.54596200  0.82907500  0.97467000  1
  O  O43  1  0.45403800  0.17092500  0.02533000  1
  O  O44  1  0.37524800  0.49148400  0.57475500  1
  O  O45  1  0.62475200  0.50851600  0.42524500  1
  O  O46  1  0.50851600  0.88376400  0.57475500  1
  O  O47  1  0.49148400  0.37524800  0.92524500  1
  O  O48  1  0.49148400  0.11623600  0.42524500  1
  O  O49  1  0.50851600  0.62475200  0.07475500  1
  O  O50  1  0.11623600  0.62475200  0.57475500  1
  O  O51  1  0.88376400  0.50851600  0.92524500  1
  O  O52  1  0.88376400  0.37524800  0.42524500  1
  O  O53  1  0.11623600  0.49148400  0.07475500  1
  O  O54  1  0.62475200  0.11623600  0.92524500  1
  O  O55  1  0.37524800  0.88376400  0.07475500  1
  O  O56  1  0.17590200  0.16764000  0.57735700  1
  O  O57  1  0.82409800  0.83236000  0.42264300  1
  O  O58  1  0.83236000  0.00826200  0.57735700  1
  O  O59  1  0.16764000  0.17590200  0.92264300  1
  O  O60  1  0.16764000  0.99173800  0.42264300  1
  O  O61  1  0.83236000  0.82409800  0.07735700  1
  O  O62  1  0.99173800  0.82409800  0.57735700  1
  O  O63  1  0.00826200  0.83236000  0.92264300  1
  O  O64  1  0.00826200  0.17590200  0.42264300  1
  O  O65  1  0.99173800  0.16764000  0.07735700  1
  O  O66  1  0.82409800  0.99173800  0.92264300  1
  O  O67  1  0.17590200  0.00826200  0.07735700  1
  O  O68  1  0.02974500  0.20451800  0.69574700  1
  O  O69  1  0.97025500  0.79548200  0.30425300  1
  O  O70  1  0.79548200  0.82522600  0.69574700  1
  O  O71  1  0.20451800  0.02974500  0.80425300  1
  O  O72  1  0.20451800  0.17477400  0.30425300  1
  O  O73  1  0.79548200  0.97025500  0.19574700  1
  O  O74  1  0.17477400  0.97025500  0.69574700  1
  O  O75  1  0.82522600  0.79548200  0.80425300  1
  O  O76  1  0.82522600  0.02974500  0.30425300  1
  O  O77  1  0.17477400  0.20451800  0.19574700  1
  O  O78  1  0.97025500  0.17477400  0.80425300  1
  O  O79  1  0.02974500  0.82522600  0.19574700  1
  O  O80  1  0.46042100  0.31388400  0.63553300  1
  O  O81  1  0.53957900  0.68611600  0.36446700  1
  O  O82  1  0.68611600  0.14653700  0.63553300  1
  O  O83  1  0.31388400  0.46042100  0.86446700  1
  O  O84  1  0.31388400  0.85346300  0.36446700  1
  O  O85  1  0.68611600  0.53957900  0.13553300  1
  O  O86  1  0.85346300  0.53957900  0.63553300  1
  O  O87  1  0.14653700  0.68611600  0.86446700  1
  O  O88  1  0.14653700  0.46042100  0.36446700  1
  O  O89  1  0.85346300  0.31388400  0.13553300  1
  O  O90  1  0.53957900  0.85346300  0.86446700  1
  O  O91  1  0.46042100  0.14653700  0.13553300  1
  O  O92  1  0.46866000  0.15944800  0.74041100  1
  O  O93  1  0.53134000  0.84055200  0.25958900  1
  O  O94  1  0.84055200  0.30921200  0.74041100  1
  O  O95  1  0.15944800  0.46866000  0.75958900  1
  O  O96  1  0.15944800  0.69078800  0.25958900  1
  O  O97  1  0.84055200  0.53134000  0.24041100  1
  O  O98  1  0.69078800  0.53134000  0.74041100  1
  O  O99  1  0.30921200  0.84055200  0.75958900  1
  O  O100  1  0.30921200  0.46866000  0.25958900  1
  O  O101  1  0.69078800  0.15944800  0.24041100  1
  O  O102  1  0.53134000  0.69078800  0.75958900  1
  O  O103  1  0.46866000  0.30921200  0.24041100  1
