# generated using pymatgen
data_Ta24Al19
_symmetry_space_group_name_H-M   'P 1'
_cell_length_a   9.92898600
_cell_length_b   9.93335900
_cell_length_c   16.40193883
_cell_angle_alpha   63.59946184
_cell_angle_beta   90.00000000
_cell_angle_gamma   90.00000000
_symmetry_Int_Tables_number   1
_chemical_formula_structural   Ta24Al19
_chemical_formula_sum   'Ta48 Al38'
_cell_volume   1448.98026049
_cell_formula_units_Z   2
loop_
 _symmetry_equiv_pos_site_id
 _symmetry_equiv_pos_as_xyz
  1  'x, y, z'
loop_
 _atom_site_type_symbol
 _atom_site_label
 _atom_site_symmetry_multiplicity
 _atom_site_fract_x
 _atom_site_fract_y
 _atom_site_fract_z
 _atom_site_occupancy
  Ta  Ta0  1  0.90221400  0.89756000  0.18445300  1
  Ta  Ta1  1  0.09778600  0.10244000  0.81554700  1
  Ta  Ta2  1  0.40221400  0.10244000  0.31554700  1
  Ta  Ta3  1  0.59778600  0.89756000  0.68445300  1
  Ta  Ta4  1  0.86066600  0.46023700  0.01215700  1
  Ta  Ta5  1  0.13933400  0.53976300  0.98784300  1
  Ta  Ta6  1  0.36066600  0.53976300  0.48784300  1
  Ta  Ta7  1  0.63933400  0.46023700  0.51215700  1
  Ta  Ta8  1  0.94501400  0.68358000  0.09092200  1
  Ta  Ta9  1  0.05498600  0.31642000  0.90907800  1
  Ta  Ta10  1  0.44501400  0.31642000  0.40907800  1
  Ta  Ta11  1  0.55498600  0.68358000  0.59092200  1
  Ta  Ta12  1  0.57862500  0.81998000  0.41151000  1
  Ta  Ta13  1  0.42137500  0.18002000  0.58849000  1
  Ta  Ta14  1  0.07862500  0.18002000  0.08849000  1
  Ta  Ta15  1  0.92137500  0.81998000  0.91151000  1
  Ta  Ta16  1  0.42922800  0.78762500  0.14036000  1
  Ta  Ta17  1  0.57077200  0.21237500  0.85964000  1
  Ta  Ta18  1  0.92922800  0.21237500  0.35964000  1
  Ta  Ta19  1  0.07077200  0.78762500  0.64036000  1
  Ta  Ta20  1  0.65474800  0.64948400  0.02965000  1
  Ta  Ta21  1  0.34525200  0.35051600  0.97035000  1
  Ta  Ta22  1  0.15474800  0.35051600  0.47035000  1
  Ta  Ta23  1  0.84525200  0.64948400  0.52965000  1
  Ta  Ta24  1  0.56748900  0.28205300  0.13702800  1
  Ta  Ta25  1  0.43251100  0.71794700  0.86297200  1
  Ta  Ta26  1  0.06748900  0.71794700  0.36297200  1
  Ta  Ta27  1  0.93251100  0.28205300  0.63702800  1
  Ta  Ta28  1  0.72654900  0.92111700  0.02057100  1
  Ta  Ta29  1  0.27345100  0.07888300  0.97942900  1
  Ta  Ta30  1  0.22654900  0.07888300  0.47942900  1
  Ta  Ta31  1  0.77345100  0.92111700  0.52057100  1
  Ta  Ta32  1  0.79601900  0.17972200  0.02232400  1
  Ta  Ta33  1  0.20398100  0.82027800  0.97767600  1
  Ta  Ta34  1  0.29601900  0.82027800  0.47767600  1
  Ta  Ta35  1  0.70398100  0.17972200  0.52232400  1
  Ta  Ta36  1  0.15801200  0.84561100  0.16553800  1
  Ta  Ta37  1  0.84198800  0.15438900  0.83446200  1
  Ta  Ta38  1  0.65801200  0.15438900  0.33446200  1
  Ta  Ta39  1  0.34198800  0.84561100  0.66553800  1
  Ta  Ta40  1  0.98580700  0.54002200  0.27694000  1
  Ta  Ta41  1  0.01419300  0.45997800  0.72306000  1
  Ta  Ta42  1  0.48580700  0.45997800  0.22306000  1
  Ta  Ta43  1  0.51419300  0.54002200  0.77694000  1
  Ta  Ta44  1  0.62110500  0.94844800  0.21867200  1
  Ta  Ta45  1  0.37889500  0.05155200  0.78132800  1
  Ta  Ta46  1  0.12110500  0.05155200  0.28132800  1
  Ta  Ta47  1  0.87889500  0.94844800  0.71867200  1
  Al  Al48  1  0.53131000  0.10078100  0.04090100  1
  Al  Al49  1  0.46869000  0.89921900  0.95909900  1
  Al  Al50  1  0.03131000  0.89921900  0.45909900  1
  Al  Al51  1  0.96869000  0.10078100  0.54090100  1
  Al  Al52  1  0.52684200  0.62716800  0.32897800  1
  Al  Al53  1  0.47315800  0.37283200  0.67102200  1
  Al  Al54  1  0.02684200  0.37283200  0.17102200  1
  Al  Al55  1  0.97315800  0.62716800  0.82897800  1
  Al  Al56  1  0.76983400  0.42656000  0.19028800  1
  Al  Al57  1  0.23016600  0.57344000  0.80971200  1
  Al  Al58  1  0.26983400  0.57344000  0.30971200  1
  Al  Al59  1  0.73016600  0.42656000  0.69028800  1
  Al  Al60  1  0.70331900  0.68817200  0.18787200  1
  Al  Al61  1  0.29668100  0.31182800  0.81212800  1
  Al  Al62  1  0.20331900  0.31182800  0.31212800  1
  Al  Al63  1  0.79668100  0.68817200  0.68787200  1
  Al  Al64  1  0.00000000  0.00000000  0.00000000  1
  Al  Al65  1  0.50000000  0.00000000  0.50000000  1
  Al  Al66  1  0.70846700  0.41245000  0.35025000  1
  Al  Al67  1  0.29153300  0.58755000  0.64975000  1
  Al  Al68  1  0.20846700  0.58755000  0.14975000  1
  Al  Al69  1  0.79153300  0.41245000  0.85025000  1
  Al  Al70  1  0.84496500  0.93360600  0.34869300  1
  Al  Al71  1  0.15503500  0.06639400  0.65130700  1
  Al  Al72  1  0.34496500  0.06639400  0.15130700  1
  Al  Al73  1  0.65503500  0.93360600  0.84869300  1
  Al  Al74  1  0.78580300  0.68251700  0.34955100  1
  Al  Al75  1  0.21419700  0.31748300  0.65044900  1
  Al  Al76  1  0.28580300  0.31748300  0.15044900  1
  Al  Al77  1  0.71419700  0.68251700  0.84955100  1
  Al  Al78  1  0.89740800  0.42824100  0.45631700  1
  Al  Al79  1  0.10259200  0.57175900  0.54368300  1
  Al  Al80  1  0.39740800  0.57175900  0.04368300  1
  Al  Al81  1  0.60259200  0.42824100  0.95631700  1
  Al  Al82  1  0.33901200  0.83167700  0.30994700  1
  Al  Al83  1  0.66098800  0.16832300  0.69005300  1
  Al  Al84  1  0.83901200  0.16832300  0.19005300  1
  Al  Al85  1  0.16098800  0.83167700  0.80994700  1
