# generated using pymatgen
data_Sr2YbTaO6
_symmetry_space_group_name_H-M   'P 1'
_cell_length_a   5.81232700
_cell_length_b   6.03223700
_cell_length_c   8.45777100
_cell_angle_alpha   90.00000000
_cell_angle_beta   90.00000000
_cell_angle_gamma   90.00000000
_symmetry_Int_Tables_number   1
_chemical_formula_structural   Sr2YbTaO6
_chemical_formula_sum   'Sr4 Yb2 Ta2 O12'
_cell_volume   296.54073380
_cell_formula_units_Z   2
loop_
 _symmetry_equiv_pos_site_id
 _symmetry_equiv_pos_as_xyz
  1  'x, y, z'
loop_
 _atom_site_type_symbol
 _atom_site_label
 _atom_site_symmetry_multiplicity
 _atom_site_fract_x
 _atom_site_fract_y
 _atom_site_fract_z
 _atom_site_occupancy
  Sr  Sr0  1  0.97503700  0.46228600  0.24997400  1
  Sr  Sr1  1  0.97503700  0.53771400  0.75002600  1
  Sr  Sr2  1  0.47503700  0.96228600  0.25002600  1
  Sr  Sr3  1  0.47503700  0.03771400  0.74997400  1
  Yb  Yb4  1  0.00370000  0.00000000  0.00000000  1
  Yb  Yb5  1  0.50370000  0.50000000  0.50000000  1
  Ta  Ta6  1  0.98434700  0.00000000  0.50000000  1
  Ta  Ta7  1  0.48434700  0.50000000  0.00000000  1
  O  O8  1  0.45966100  0.52976200  0.23502900  1
  O  O9  1  0.45966100  0.47023800  0.76497100  1
  O  O10  1  0.95966100  0.02976200  0.26497100  1
  O  O11  1  0.95966100  0.97023800  0.73502900  1
  O  O12  1  0.28385300  0.18367200  0.49293300  1
  O  O13  1  0.28385300  0.81632800  0.50706700  1
  O  O14  1  0.78385300  0.68367200  0.00706700  1
  O  O15  1  0.78385300  0.31632800  0.99293300  1
  O  O16  1  0.30352600  0.23082000  0.01916000  1
  O  O17  1  0.30352600  0.76918000  0.98084000  1
  O  O18  1  0.80352600  0.73082000  0.48084000  1
  O  O19  1  0.80352600  0.26918000  0.51916000  1
