# generated using pymatgen
data_Sr3Mn2O12
_symmetry_space_group_name_H-M   'P 1'
_cell_length_a   11.11277736
_cell_length_b   11.11277736
_cell_length_c   11.11277736
_cell_angle_alpha   109.47122063
_cell_angle_beta   109.47122063
_cell_angle_gamma   109.47122063
_symmetry_Int_Tables_number   1
_chemical_formula_structural   Sr3Mn2O12
_chemical_formula_sum   'Sr12 Mn8 O48'
_cell_volume   1056.44270795
_cell_formula_units_Z   4
loop_
 _symmetry_equiv_pos_site_id
 _symmetry_equiv_pos_as_xyz
  1  'x, y, z'
loop_
 _atom_site_type_symbol
 _atom_site_label
 _atom_site_symmetry_multiplicity
 _atom_site_fract_x
 _atom_site_fract_y
 _atom_site_fract_z
 _atom_site_occupancy
  Sr  Sr0  1  0.25000000  0.37500000  0.12500000  1
  Sr  Sr1  1  0.75000000  0.62500000  0.87500000  1
  Sr  Sr2  1  0.75000000  0.12500000  0.37500000  1
  Sr  Sr3  1  0.12500000  0.25000000  0.37500000  1
  Sr  Sr4  1  0.37500000  0.75000000  0.12500000  1
  Sr  Sr5  1  0.25000000  0.87500000  0.62500000  1
  Sr  Sr6  1  0.87500000  0.75000000  0.62500000  1
  Sr  Sr7  1  0.62500000  0.25000000  0.87500000  1
  Sr  Sr8  1  0.37500000  0.12500000  0.25000000  1
  Sr  Sr9  1  0.62500000  0.87500000  0.75000000  1
  Sr  Sr10  1  0.12500000  0.37500000  0.75000000  1
  Sr  Sr11  1  0.87500000  0.62500000  0.25000000  1
  Mn  Mn12  1  0.00000000  0.00000000  0.00000000  1
  Mn  Mn13  1  0.50000000  0.00000000  0.50000000  1
  Mn  Mn14  1  0.00000000  0.50000000  0.50000000  1
  Mn  Mn15  1  0.50000000  0.00000000  0.00000000  1
  Mn  Mn16  1  0.50000000  0.50000000  0.00000000  1
  Mn  Mn17  1  0.50000000  0.50000000  0.50000000  1
  Mn  Mn18  1  0.00000000  0.00000000  0.50000000  1
  Mn  Mn19  1  0.00000000  0.50000000  0.00000000  1
  O  O20  1  0.47783900  0.39922100  0.32065100  1
  O  O21  1  0.52216100  0.60077900  0.67934900  1
  O  O22  1  0.57857000  0.15718800  0.17934900  1
  O  O23  1  0.92143000  0.10077900  0.57861800  1
  O  O24  1  0.32065100  0.47783900  0.39922100  1
  O  O25  1  0.34281200  0.92143000  0.32065100  1
  O  O26  1  0.42143000  0.84281200  0.82065100  1
  O  O27  1  0.07857000  0.89922100  0.42138200  1
  O  O28  1  0.67934900  0.52216100  0.60077900  1
  O  O29  1  0.65718800  0.07857000  0.67934900  1
  O  O30  1  0.02216100  0.34281200  0.92138200  1
  O  O31  1  0.17934900  0.57857000  0.15718800  1
  O  O32  1  0.10077900  0.02216100  0.17934900  1
  O  O33  1  0.97783900  0.65718800  0.07861800  1
  O  O34  1  0.82065100  0.42143000  0.84281200  1
  O  O35  1  0.89922100  0.97783900  0.82065100  1
  O  O36  1  0.57861800  0.92143000  0.10077900  1
  O  O37  1  0.15718800  0.47783900  0.57861800  1
  O  O38  1  0.42138200  0.07857000  0.89922100  1
  O  O39  1  0.84281200  0.52216100  0.42138200  1
  O  O40  1  0.92138200  0.02216100  0.34281200  1
  O  O41  1  0.39922100  0.57857000  0.92138200  1
  O  O42  1  0.07861800  0.97783900  0.65718800  1
  O  O43  1  0.60077900  0.42143000  0.07861800  1
  O  O44  1  0.39922100  0.32065100  0.47783900  1
  O  O45  1  0.57857000  0.92138200  0.39922100  1
  O  O46  1  0.60077900  0.67934900  0.52216100  1
  O  O47  1  0.42143000  0.07861800  0.60077900  1
  O  O48  1  0.10077900  0.57861800  0.92143000  1
  O  O49  1  0.02216100  0.17934900  0.10077900  1
  O  O50  1  0.89922100  0.42138200  0.07857000  1
  O  O51  1  0.97783900  0.82065100  0.89922100  1
  O  O52  1  0.34281200  0.92138200  0.02216100  1
  O  O53  1  0.92143000  0.32065100  0.34281200  1
  O  O54  1  0.65718800  0.07861800  0.97783900  1
  O  O55  1  0.07857000  0.67934900  0.65718800  1
  O  O56  1  0.15718800  0.17934900  0.57857000  1
  O  O57  1  0.47783900  0.57861800  0.15718800  1
  O  O58  1  0.84281200  0.82065100  0.42143000  1
  O  O59  1  0.52216100  0.42138200  0.84281200  1
  O  O60  1  0.32065100  0.34281200  0.92143000  1
  O  O61  1  0.67934900  0.65718800  0.07857000  1
  O  O62  1  0.17934900  0.10077900  0.02216100  1
  O  O63  1  0.82065100  0.89922100  0.97783900  1
  O  O64  1  0.92138200  0.39922100  0.57857000  1
  O  O65  1  0.07861800  0.60077900  0.42143000  1
  O  O66  1  0.57861800  0.15718800  0.47783900  1
  O  O67  1  0.42138200  0.84281200  0.52216100  1
