# generated using pymatgen
data_Tb4Co
_symmetry_space_group_name_H-M   'P 1'
_cell_length_a   7.47769664
_cell_length_b   7.47769664
_cell_length_c   7.47769664
_cell_angle_alpha   60.00000000
_cell_angle_beta   60.00000000
_cell_angle_gamma   60.00000000
_symmetry_Int_Tables_number   1
_chemical_formula_structural   Tb4Co
_chemical_formula_sum   'Tb8 Co2'
_cell_volume   295.65724725
_cell_formula_units_Z   2
loop_
 _symmetry_equiv_pos_site_id
 _symmetry_equiv_pos_as_xyz
  1  'x, y, z'
loop_
 _atom_site_type_symbol
 _atom_site_label
 _atom_site_symmetry_multiplicity
 _atom_site_fract_x
 _atom_site_fract_y
 _atom_site_fract_z
 _atom_site_occupancy
  Tb  Tb0  1  0.38513100  0.38513100  0.38513100  1
  Tb  Tb1  1  0.38513100  0.38513100  0.84460600  1
  Tb  Tb2  1  0.38513100  0.84460600  0.38513100  1
  Tb  Tb3  1  0.86486900  0.86486900  0.40539400  1
  Tb  Tb4  1  0.86486900  0.86486900  0.86486900  1
  Tb  Tb5  1  0.84460600  0.38513100  0.38513100  1
  Tb  Tb6  1  0.86486900  0.40539400  0.86486900  1
  Tb  Tb7  1  0.40539400  0.86486900  0.86486900  1
  Co  Co8  1  0.00000000  0.00000000  0.00000000  1
  Co  Co9  1  0.25000000  0.25000000  0.25000000  1
