data_image0
_chemical_formula_structural       Cl4F2Tb2
_chemical_formula_sum              "Cl4 F2 Tb2"
_cell_length_a       5.29644
_cell_length_b       5.29644
_cell_length_c       6.80627
_cell_angle_alpha    106.34
_cell_angle_beta     106.34
_cell_angle_gamma    66.373

_space_group_name_H-M_alt    "P 1"
_space_group_IT_number       1

loop_
  _space_group_symop_operation_xyz
  'x, y, z'

loop_
  _atom_site_type_symbol
  _atom_site_label
  _atom_site_symmetry_multiplicity
  _atom_site_fract_x
  _atom_site_fract_y
  _atom_site_fract_z
  _atom_site_occupancy
  Cl  Cl1       1.0  0.66100  0.71600  0.10600  1.0000
  Cl  Cl2       1.0  0.28400  0.33900  0.39400  1.0000
  Cl  Cl3       1.0  0.71600  0.66100  0.60600  1.0000
  Cl  Cl4       1.0  0.33900  0.28400  0.89400  1.0000
  F   F1        1.0  0.00000  0.00000  0.00000  1.0000
  F   F2        1.0  0.00000  0.00000  0.50000  1.0000
  Tb  Tb1       1.0  0.76700  0.23300  0.25000  1.0000
  Tb  Tb2       1.0  0.23300  0.76700  0.75000  1.0000
