# generated using pymatgen
data_SrYbAl3SiN4O3
_symmetry_space_group_name_H-M   'P 1'
_cell_length_a   6.13986469
_cell_length_b   6.13986469
_cell_length_c   10.17434900
_cell_angle_alpha   90.00000000
_cell_angle_beta   90.00000000
_cell_angle_gamma   120.00000747
_symmetry_Int_Tables_number   1
_chemical_formula_structural   SrYbAl3SiN4O3
_chemical_formula_sum   'Sr2 Yb2 Al6 Si2 N8 O6'
_cell_volume   332.16573540
_cell_formula_units_Z   2
loop_
 _symmetry_equiv_pos_site_id
 _symmetry_equiv_pos_as_xyz
  1  'x, y, z'
loop_
 _atom_site_type_symbol
 _atom_site_label
 _atom_site_symmetry_multiplicity
 _atom_site_fract_x
 _atom_site_fract_y
 _atom_site_fract_z
 _atom_site_occupancy
  Sr  Sr0  1  0.66666700  0.33333300  0.55738200  1
  Sr  Sr1  1  0.33333300  0.66666700  0.05738200  1
  Yb  Yb2  1  0.66666700  0.33333300  0.92535500  1
  Yb  Yb3  1  0.33333300  0.66666700  0.42535500  1
  Al  Al4  1  0.16541000  0.33082000  0.74074100  1
  Al  Al5  1  0.16541000  0.83459000  0.74074100  1
  Al  Al6  1  0.83459000  0.66918000  0.24074100  1
  Al  Al7  1  0.66918000  0.83459000  0.74074100  1
  Al  Al8  1  0.83459000  0.16541000  0.24074100  1
  Al  Al9  1  0.33082000  0.16541000  0.24074100  1
  Si  Si10  1  0.00000000  0.00000000  0.00053700  1
  Si  Si11  1  0.00000000  0.00000000  0.50053700  1
  N  N12  1  0.15098300  0.30196500  0.55971700  1
  N  N13  1  0.15098300  0.84901700  0.55971700  1
  N  N14  1  0.84901700  0.69803500  0.05971700  1
  N  N15  1  0.69803500  0.84901700  0.55971700  1
  N  N16  1  0.84901700  0.15098300  0.05971700  1
  N  N17  1  0.30196500  0.15098300  0.05971700  1
  N  N18  1  0.00000000  0.00000000  0.82163900  1
  N  N19  1  0.00000000  0.00000000  0.32163900  1
  O  O20  1  0.48877000  0.97754000  0.79105100  1
  O  O21  1  0.48877000  0.51123000  0.79105100  1
  O  O22  1  0.51123000  0.02246000  0.29105100  1
  O  O23  1  0.02246000  0.51123000  0.79105100  1
  O  O24  1  0.51123000  0.48877000  0.29105100  1
  O  O25  1  0.97754000  0.48877000  0.29105100  1
