# generated using pymatgen
data_SrAl4Si2N8O
_symmetry_space_group_name_H-M   'P 1'
_cell_length_a   7.14067497
_cell_length_b   7.14067497
_cell_length_c   7.14067497
_cell_angle_alpha   137.14357273
_cell_angle_beta   107.02553480
_cell_angle_gamma   88.51826711
_symmetry_Int_Tables_number   1
_chemical_formula_structural   SrAl4Si2N8O
_chemical_formula_sum   'Sr1 Al4 Si2 N8 O1'
_cell_volume   226.59732501
_cell_formula_units_Z   1
loop_
 _symmetry_equiv_pos_site_id
 _symmetry_equiv_pos_as_xyz
  1  'x, y, z'
loop_
 _atom_site_type_symbol
 _atom_site_label
 _atom_site_symmetry_multiplicity
 _atom_site_fract_x
 _atom_site_fract_y
 _atom_site_fract_z
 _atom_site_occupancy
  Sr  Sr0  1  0.50000000  0.22476100  0.72476100  1
  Al  Al1  1  0.63985200  0.41259500  0.39105000  1
  Al  Al2  1  0.36014800  0.75119800  0.77274300  1
  Al  Al3  1  0.97845500  0.75119800  0.39105000  1
  Al  Al4  1  0.02154500  0.41259500  0.77274300  1
  Si  Si5  1  0.15828700  0.23997400  0.08168700  1
  Si  Si6  1  0.84171300  0.92340000  0.08168700  1
  N  N7  1  0.61696500  0.70467000  0.76107900  1
  N  N8  1  0.38303500  0.14411300  0.08770500  1
  N  N9  1  0.05640800  0.14411300  0.76107900  1
  N  N10  1  0.94359200  0.70467000  0.08770500  1
  N  N11  1  0.27144700  0.53983200  0.81128000  1
  N  N12  1  0.72855300  0.53983200  0.26838500  1
  N  N13  1  0.18926800  0.59587000  0.40660200  1
  N  N14  1  0.81073200  0.21733400  0.40660200  1
  O  O15  1  0.00000000  0.02654200  0.02654200  1
