data_image0
_chemical_formula_structural       Gd4Pt4
_chemical_formula_sum              "Gd4 Pt4"
_cell_length_a       7.08557
_cell_length_b       4.53573
_cell_length_c       5.60432
_cell_angle_alpha    90
_cell_angle_beta     90
_cell_angle_gamma    90

_space_group_name_H-M_alt    "P 1"
_space_group_IT_number       1

loop_
  _space_group_symop_operation_xyz
  'x, y, z'

loop_
  _atom_site_type_symbol
  _atom_site_label
  _atom_site_symmetry_multiplicity
  _atom_site_fract_x
  _atom_site_fract_y
  _atom_site_fract_z
  _atom_site_occupancy
  Gd  Gd1       1.0  0.18300  0.25000  0.14200  1.0000
  Gd  Gd2       1.0  0.68300  0.25000  0.35800  1.0000
  Gd  Gd3       1.0  0.31700  0.75000  0.64200  1.0000
  Gd  Gd4       1.0  0.81700  0.75000  0.85800  1.0000
  Pt  Pt1       1.0  0.45700  0.75000  0.15700  1.0000
  Pt  Pt2       1.0  0.95700  0.75000  0.34300  1.0000
  Pt  Pt3       1.0  0.04320  0.25000  0.65700  1.0000
  Pt  Pt4       1.0  0.54300  0.25000  0.84300  1.0000
