# generated using pymatgen
data_SrC2O5
_symmetry_space_group_name_H-M   'P 1'
_cell_length_a   6.48257830
_cell_length_b   6.48257830
_cell_length_c   6.55297993
_cell_angle_alpha   75.39235516
_cell_angle_beta   75.39235516
_cell_angle_gamma   72.68142132
_symmetry_Int_Tables_number   1
_chemical_formula_structural   SrC2O5
_chemical_formula_sum   'Sr2 C4 O10'
_cell_volume   249.67889597
_cell_formula_units_Z   2
loop_
 _symmetry_equiv_pos_site_id
 _symmetry_equiv_pos_as_xyz
  1  'x, y, z'
loop_
 _atom_site_type_symbol
 _atom_site_label
 _atom_site_symmetry_multiplicity
 _atom_site_fract_x
 _atom_site_fract_y
 _atom_site_fract_z
 _atom_site_occupancy
  Sr  Sr0  1  0.80974500  0.80974500  0.01734600  1
  Sr  Sr1  1  0.19025500  0.19025500  0.98265400  1
  C  C2  1  0.60276400  0.39723600  0.00000000  1
  C  C3  1  0.39723600  0.60276400  0.00000000  1
  C  C4  1  0.93371600  0.93371600  0.46310400  1
  C  C5  1  0.06628400  0.06628400  0.53689600  1
  O  O6  1  0.57140400  0.21503900  0.99457800  1
  O  O7  1  0.42859600  0.78496100  0.00542200  1
  O  O8  1  0.78496100  0.42859600  0.00542200  1
  O  O9  1  0.21503900  0.57140400  0.99457800  1
  O  O10  1  0.95328300  0.95328300  0.26335300  1
  O  O11  1  0.04671700  0.04671700  0.73664700  1
  O  O12  1  0.82322900  0.82322900  0.61167100  1
  O  O13  1  0.17677100  0.17677100  0.38832900  1
  O  O14  1  0.63298400  0.63298400  0.43253600  1
  O  O15  1  0.36701600  0.36701600  0.56746400  1
