# generated using pymatgen
data_NaHfMg30O31
_symmetry_space_group_name_H-M   'P 1'
_cell_length_a   8.56201200
_cell_length_b   8.58446400
_cell_length_c   8.59528600
_cell_angle_alpha   90.00000000
_cell_angle_beta   90.00000000
_cell_angle_gamma   90.00000000
_symmetry_Int_Tables_number   1
_chemical_formula_structural   NaHfMg30O31
_chemical_formula_sum   'Na1 Hf1 Mg30 O31'
_cell_volume   631.75596018
_cell_formula_units_Z   1
loop_
 _symmetry_equiv_pos_site_id
 _symmetry_equiv_pos_as_xyz
  1  'x, y, z'
loop_
 _atom_site_type_symbol
 _atom_site_label
 _atom_site_symmetry_multiplicity
 _atom_site_fract_x
 _atom_site_fract_y
 _atom_site_fract_z
 _atom_site_occupancy
  Na  Na0  1  0.00012300  0.00000000  0.00000000  1
  Hf  Hf1  1  0.98668900  0.50000000  0.00000000  1
  Mg  Mg2  1  0.99990000  0.00000000  0.50000000  1
  Mg  Mg3  1  0.00152800  0.50000000  0.50000000  1
  Mg  Mg4  1  0.49970200  0.00000000  0.00000000  1
  Mg  Mg5  1  0.49984900  0.50000000  0.00000000  1
  Mg  Mg6  1  0.50004600  0.00000000  0.50000000  1
  Mg  Mg7  1  0.49972700  0.50000000  0.50000000  1
  Mg  Mg8  1  0.99995900  0.75653600  0.74450500  1
  Mg  Mg9  1  0.99995900  0.24346400  0.74450500  1
  Mg  Mg10  1  0.99995900  0.75653600  0.25549500  1
  Mg  Mg11  1  0.99995900  0.24346400  0.25549500  1
  Mg  Mg12  1  0.50022400  0.75133200  0.74925300  1
  Mg  Mg13  1  0.50022400  0.24866800  0.74925300  1
  Mg  Mg14  1  0.50022400  0.75133200  0.25074700  1
  Mg  Mg15  1  0.50022400  0.24866800  0.25074700  1
  Mg  Mg16  1  0.74429900  0.75793700  0.00000000  1
  Mg  Mg17  1  0.74429900  0.24206300  0.00000000  1
  Mg  Mg18  1  0.74934400  0.75214100  0.50000000  1
  Mg  Mg19  1  0.74934400  0.24785900  0.50000000  1
  Mg  Mg20  1  0.25414700  0.75541900  0.00000000  1
  Mg  Mg21  1  0.25414700  0.24458100  0.00000000  1
  Mg  Mg22  1  0.25065600  0.75123200  0.50000000  1
  Mg  Mg23  1  0.25065600  0.24876800  0.50000000  1
  Mg  Mg24  1  0.75055500  0.00000000  0.74996800  1
  Mg  Mg25  1  0.74778400  0.50000000  0.74515700  1
  Mg  Mg26  1  0.75055500  0.00000000  0.25003200  1
  Mg  Mg27  1  0.74778400  0.50000000  0.25484300  1
  Mg  Mg28  1  0.24944200  0.00000000  0.75074500  1
  Mg  Mg29  1  0.25295800  0.50000000  0.74715500  1
  Mg  Mg30  1  0.24944200  0.00000000  0.24925500  1
  Mg  Mg31  1  0.25295800  0.50000000  0.25284500  1
  O  O32  1  0.73696300  0.00000000  0.00000000  1
  O  O33  1  0.74801400  0.00000000  0.50000000  1
  O  O34  1  0.75017600  0.50000000  0.50000000  1
  O  O35  1  0.26284100  0.00000000  0.00000000  1
  O  O36  1  0.25071000  0.50000000  0.00000000  1
  O  O37  1  0.25198300  0.00000000  0.50000000  1
  O  O38  1  0.25188000  0.50000000  0.50000000  1
  O  O39  1  0.75048400  0.75211000  0.74835300  1
  O  O40  1  0.75048400  0.24789000  0.74835300  1
  O  O41  1  0.75048400  0.75211000  0.25164700  1
  O  O42  1  0.75048400  0.24789000  0.25164700  1
  O  O43  1  0.24938600  0.74993900  0.75108600  1
  O  O44  1  0.24938600  0.25006100  0.75108600  1
  O  O45  1  0.24938600  0.74993900  0.24891400  1
  O  O46  1  0.24938600  0.25006100  0.24891400  1
  O  O47  1  0.99979500  0.73801300  0.00000000  1
  O  O48  1  0.99979500  0.26198700  0.00000000  1
  O  O49  1  0.00022400  0.74740300  0.50000000  1
  O  O50  1  0.00022400  0.25259700  0.50000000  1
  O  O51  1  0.49998200  0.74695800  0.00000000  1
  O  O52  1  0.49998200  0.25304200  0.00000000  1
  O  O53  1  0.49969800  0.74886300  0.50000000  1
  O  O54  1  0.49969800  0.25113700  0.50000000  1
  O  O55  1  0.00035000  0.00000000  0.73708000  1
  O  O56  1  0.00634800  0.50000000  0.74399900  1
  O  O57  1  0.00035000  0.00000000  0.26292000  1
  O  O58  1  0.00634800  0.50000000  0.25600100  1
  O  O59  1  0.49964100  0.00000000  0.74824000  1
  O  O60  1  0.49960400  0.50000000  0.74942900  1
  O  O61  1  0.49964100  0.00000000  0.25176000  1
  O  O62  1  0.49960400  0.50000000  0.25057100  1
