# generated using pymatgen
data_NaHfMg30O31
_symmetry_space_group_name_H-M   'P 1'
_cell_length_a   8.57252400
_cell_length_b   8.59732000
_cell_length_c   8.59878400
_cell_angle_alpha   90.00000000
_cell_angle_beta   90.00000000
_cell_angle_gamma   90.00000000
_symmetry_Int_Tables_number   1
_chemical_formula_structural   NaHfMg30O31
_chemical_formula_sum   'Na1 Hf1 Mg30 O31'
_cell_volume   633.73667542
_cell_formula_units_Z   1
loop_
 _symmetry_equiv_pos_site_id
 _symmetry_equiv_pos_as_xyz
  1  'x, y, z'
loop_
 _atom_site_type_symbol
 _atom_site_label
 _atom_site_symmetry_multiplicity
 _atom_site_fract_x
 _atom_site_fract_y
 _atom_site_fract_z
 _atom_site_occupancy
  Na  Na0  1  0.00000000  0.00025400  0.00000000  1
  Hf  Hf1  1  0.50000000  0.00010500  0.50000000  1
  Mg  Mg2  1  0.50000000  0.00222600  0.00000000  1
  Mg  Mg3  1  0.00000000  0.00009800  0.50000000  1
  Mg  Mg4  1  0.00000000  0.49962700  0.00000000  1
  Mg  Mg5  1  0.50000000  0.49855400  0.00000000  1
  Mg  Mg6  1  0.00000000  0.49991700  0.50000000  1
  Mg  Mg7  1  0.50000000  0.49953100  0.50000000  1
  Mg  Mg8  1  0.24329500  0.99988800  0.24136700  1
  Mg  Mg9  1  0.75670500  0.99988800  0.24136700  1
  Mg  Mg10  1  0.24329500  0.99988800  0.75863300  1
  Mg  Mg11  1  0.75670500  0.99988800  0.75863300  1
  Mg  Mg12  1  0.24884500  0.50005600  0.24803200  1
  Mg  Mg13  1  0.75115500  0.50005600  0.24803200  1
  Mg  Mg14  1  0.24884500  0.50005600  0.75196800  1
  Mg  Mg15  1  0.75115500  0.50005600  0.75196800  1
  Mg  Mg16  1  0.24583200  0.75010700  0.00000000  1
  Mg  Mg17  1  0.75416800  0.75010700  0.00000000  1
  Mg  Mg18  1  0.24382500  0.74372900  0.50000000  1
  Mg  Mg19  1  0.75617500  0.74372900  0.50000000  1
  Mg  Mg20  1  0.24752300  0.24980900  0.00000000  1
  Mg  Mg21  1  0.75247700  0.24980900  0.00000000  1
  Mg  Mg22  1  0.24414400  0.25630400  0.50000000  1
  Mg  Mg23  1  0.75585600  0.25630400  0.50000000  1
  Mg  Mg24  1  0.00000000  0.75038500  0.24798300  1
  Mg  Mg25  1  0.50000000  0.74592000  0.24604600  1
  Mg  Mg26  1  0.00000000  0.75038500  0.75201700  1
  Mg  Mg27  1  0.50000000  0.74592000  0.75395400  1
  Mg  Mg28  1  0.00000000  0.24958800  0.24750100  1
  Mg  Mg29  1  0.50000000  0.25360800  0.24534800  1
  Mg  Mg30  1  0.00000000  0.24958800  0.75249900  1
  Mg  Mg31  1  0.50000000  0.25360800  0.75465200  1
  O  O32  1  0.00000000  0.73684700  0.00000000  1
  O  O33  1  0.00000000  0.74881900  0.50000000  1
  O  O34  1  0.50000000  0.74681300  0.50000000  1
  O  O35  1  0.00000000  0.26288400  0.00000000  1
  O  O36  1  0.50000000  0.25243000  0.00000000  1
  O  O37  1  0.00000000  0.25119700  0.50000000  1
  O  O38  1  0.50000000  0.25330300  0.50000000  1
  O  O39  1  0.24974300  0.75092200  0.25209000  1
  O  O40  1  0.75025700  0.75092200  0.25209000  1
  O  O41  1  0.24974300  0.75092200  0.74791000  1
  O  O42  1  0.75025700  0.75092200  0.74791000  1
  O  O43  1  0.25065900  0.24903200  0.25110600  1
  O  O44  1  0.74934100  0.24903200  0.25110600  1
  O  O45  1  0.25065900  0.24903200  0.74889400  1
  O  O46  1  0.74934100  0.24903200  0.74889400  1
  O  O47  1  0.26290400  0.00025200  0.00000000  1
  O  O48  1  0.73709600  0.00025200  0.00000000  1
  O  O49  1  0.25573200  0.99998400  0.50000000  1
  O  O50  1  0.74426800  0.99998400  0.50000000  1
  O  O51  1  0.25191200  0.49921500  0.00000000  1
  O  O52  1  0.74808800  0.49921500  0.00000000  1
  O  O53  1  0.25074200  0.50002200  0.50000000  1
  O  O54  1  0.74925800  0.50002200  0.50000000  1
  O  O55  1  0.00000000  0.99998200  0.26435600  1
  O  O56  1  0.50000000  0.00097600  0.24915700  1
  O  O57  1  0.00000000  0.99998200  0.73564400  1
  O  O58  1  0.50000000  0.00097600  0.75084300  1
  O  O59  1  0.00000000  0.50002100  0.25309300  1
  O  O60  1  0.50000000  0.49900100  0.25180200  1
  O  O61  1  0.00000000  0.50002100  0.74690700  1
  O  O62  1  0.50000000  0.49900100  0.74819800  1
