# generated using pymatgen
data_SrCa2(TeO3)3
_symmetry_space_group_name_H-M   'P 1'
_cell_length_a   5.79288900
_cell_length_b   8.79071000
_cell_length_c   11.53671771
_cell_angle_alpha   70.28693738
_cell_angle_beta   90.00000000
_cell_angle_gamma   90.00000000
_symmetry_Int_Tables_number   1
_chemical_formula_structural   SrCa2(TeO3)3
_chemical_formula_sum   'Sr2 Ca4 Te6 O18'
_cell_volume   553.06057256
_cell_formula_units_Z   2
loop_
 _symmetry_equiv_pos_site_id
 _symmetry_equiv_pos_as_xyz
  1  'x, y, z'
loop_
 _atom_site_type_symbol
 _atom_site_label
 _atom_site_symmetry_multiplicity
 _atom_site_fract_x
 _atom_site_fract_y
 _atom_site_fract_z
 _atom_site_occupancy
  Sr  Sr0  1  0.50062500  0.99844300  0.13733200  1
  Sr  Sr1  1  0.00062500  0.00155700  0.86266800  1
  Ca  Ca2  1  0.44784800  0.98040800  0.61605600  1
  Ca  Ca3  1  0.94784800  0.01959200  0.38394400  1
  Ca  Ca4  1  0.99150200  0.30273000  0.05103000  1
  Ca  Ca5  1  0.49150200  0.69727000  0.94897000  1
  Te  Te6  1  0.99841000  0.74424500  0.17060600  1
  Te  Te7  1  0.49841000  0.25575500  0.82939400  1
  Te  Te8  1  0.42181300  0.69400600  0.47680600  1
  Te  Te9  1  0.92181300  0.30599400  0.52319400  1
  Te  Te10  1  0.43750400  0.33349700  0.24645500  1
  Te  Te11  1  0.93750400  0.66650300  0.75354500  1
  O  O12  1  0.75636300  0.78979500  0.05267400  1
  O  O13  1  0.25636300  0.21020500  0.94732600  1
  O  O14  1  0.18456300  0.81596700  0.51613900  1
  O  O15  1  0.68456300  0.18403300  0.48386100  1
  O  O16  1  0.20885000  0.76022100  0.79348100  1
  O  O17  1  0.70885000  0.23977900  0.20651900  1
  O  O18  1  0.38363900  0.73805700  0.30693700  1
  O  O19  1  0.88363900  0.26194300  0.69306300  1
  O  O20  1  0.92595300  0.92702300  0.21453300  1
  O  O21  1  0.42595300  0.07297700  0.78546700  1
  O  O22  1  0.33037700  0.46728100  0.08943100  1
  O  O23  1  0.83037700  0.53271900  0.91056900  1
  O  O24  1  0.23982800  0.16244500  0.24533500  1
  O  O25  1  0.73982800  0.83755500  0.75466500  1
  O  O26  1  0.23032800  0.83354800  0.05106600  1
  O  O27  1  0.73032800  0.16645200  0.94893400  1
  O  O28  1  0.65444800  0.83874300  0.48684200  1
  O  O29  1  0.15444800  0.16125700  0.51315800  1
