# generated using pymatgen
data_SrSiH2F6
_symmetry_space_group_name_H-M   'P 1'
_cell_length_a   10.07418900
_cell_length_b   6.00864600
_cell_length_c   10.76244089
_cell_angle_alpha   69.28423555
_cell_angle_beta   90.00000000
_cell_angle_gamma   90.00000000
_symmetry_Int_Tables_number   1
_chemical_formula_structural   SrSiH2F6
_chemical_formula_sum   'Sr4 Si4 H8 F24'
_cell_volume   609.35464871
_cell_formula_units_Z   4
loop_
 _symmetry_equiv_pos_site_id
 _symmetry_equiv_pos_as_xyz
  1  'x, y, z'
loop_
 _atom_site_type_symbol
 _atom_site_label
 _atom_site_symmetry_multiplicity
 _atom_site_fract_x
 _atom_site_fract_y
 _atom_site_fract_z
 _atom_site_occupancy
  Sr  Sr0  1  0.77555200  0.77681400  0.55489500  1
  Sr  Sr1  1  0.22444800  0.22318600  0.44510500  1
  Sr  Sr2  1  0.27555200  0.22318600  0.94510500  1
  Sr  Sr3  1  0.72444800  0.77681400  0.05489500  1
  Si  Si4  1  0.46878500  0.85266400  0.74665200  1
  Si  Si5  1  0.53121500  0.14733600  0.25334800  1
  Si  Si6  1  0.96878500  0.14733600  0.75334800  1
  Si  Si7  1  0.03121500  0.85266400  0.24665200  1
  H  H8  1  0.09077600  0.75774800  0.61122000  1
  H  H9  1  0.90922400  0.24225200  0.38878000  1
  H  H10  1  0.59077600  0.24225200  0.88878000  1
  H  H11  1  0.40922400  0.75774800  0.11122000  1
  H  H12  1  0.34233100  0.56607800  0.52810000  1
  H  H13  1  0.65766900  0.43392200  0.47190000  1
  H  H14  1  0.84233100  0.43392200  0.97190000  1
  H  H15  1  0.15766900  0.56607800  0.02810000  1
  F  F16  1  0.06634100  0.29939900  0.82791700  1
  F  F17  1  0.93365900  0.70060100  0.17208300  1
  F  F18  1  0.56634100  0.70060100  0.67208300  1
  F  F19  1  0.43365900  0.29939900  0.32791700  1
  F  F20  1  0.36717800  0.98921300  0.82842000  1
  F  F21  1  0.63282200  0.01078700  0.17158000  1
  F  F22  1  0.86717800  0.01078700  0.67158000  1
  F  F23  1  0.13282200  0.98921300  0.32842000  1
  F  F24  1  0.37099500  0.60009000  0.80877500  1
  F  F25  1  0.62900500  0.39991000  0.19122500  1
  F  F26  1  0.87099500  0.39991000  0.69122500  1
  F  F27  1  0.12900500  0.60009000  0.30877500  1
  F  F28  1  0.06634200  0.25316600  0.61110800  1
  F  F29  1  0.93365800  0.74683400  0.38889200  1
  F  F30  1  0.56634200  0.74683400  0.88889200  1
  F  F31  1  0.43365800  0.25316600  0.11110800  1
  F  F32  1  0.36550700  0.94964100  0.61049800  1
  F  F33  1  0.63449300  0.05035900  0.38950200  1
  F  F34  1  0.86550700  0.05035900  0.88950200  1
  F  F35  1  0.13449300  0.94964100  0.11049800  1
  F  F36  1  0.06259600  0.90551800  0.81371100  1
  F  F37  1  0.93740400  0.09448200  0.18628900  1
  F  F38  1  0.56259600  0.09448200  0.68628900  1
  F  F39  1  0.43740400  0.90551800  0.31371100  1
