# generated using pymatgen
data_SrV5NiO11
_symmetry_space_group_name_H-M   'P 1'
_cell_length_a   5.82066633
_cell_length_b   5.82066633
_cell_length_c   13.97196000
_cell_angle_alpha   90.00000000
_cell_angle_beta   90.00000000
_cell_angle_gamma   120.00000371
_symmetry_Int_Tables_number   1
_chemical_formula_structural   SrV5NiO11
_chemical_formula_sum   'Sr2 V10 Ni2 O22'
_cell_volume   409.95232769
_cell_formula_units_Z   2
loop_
 _symmetry_equiv_pos_site_id
 _symmetry_equiv_pos_as_xyz
  1  'x, y, z'
loop_
 _atom_site_type_symbol
 _atom_site_label
 _atom_site_symmetry_multiplicity
 _atom_site_fract_x
 _atom_site_fract_y
 _atom_site_fract_z
 _atom_site_occupancy
  Sr  Sr0  1  0.33333300  0.66666700  0.75000000  1
  Sr  Sr1  1  0.66666700  0.33333300  0.25000000  1
  V  V2  1  0.50000000  0.00000000  0.00000000  1
  V  V3  1  0.00000000  0.50000000  0.00000000  1
  V  V4  1  0.50000000  0.00000000  0.50000000  1
  V  V5  1  0.50000000  0.50000000  0.00000000  1
  V  V6  1  0.00000000  0.50000000  0.50000000  1
  V  V7  1  0.50000000  0.50000000  0.50000000  1
  V  V8  1  0.00000000  0.00000000  0.15030200  1
  V  V9  1  0.00000000  0.00000000  0.84969800  1
  V  V10  1  0.00000000  0.00000000  0.65030200  1
  V  V11  1  0.00000000  0.00000000  0.34969800  1
  Ni  Ni12  1  0.33333300  0.66666700  0.25000000  1
  Ni  Ni13  1  0.66666700  0.33333300  0.75000000  1
  O  O14  1  0.33333300  0.66666700  0.07399400  1
  O  O15  1  0.66666700  0.33333300  0.92600600  1
  O  O16  1  0.66666700  0.33333300  0.57399400  1
  O  O17  1  0.33333300  0.66666700  0.42600600  1
  O  O18  1  0.17385600  0.34771300  0.57666700  1
  O  O19  1  0.82614400  0.65228700  0.42333300  1
  O  O20  1  0.65228700  0.82614400  0.57666700  1
  O  O21  1  0.82614400  0.65228700  0.07666700  1
  O  O22  1  0.34771300  0.17385600  0.42333300  1
  O  O23  1  0.17385600  0.34771300  0.92333300  1
  O  O24  1  0.17385600  0.82614400  0.57666700  1
  O  O25  1  0.34771300  0.17385600  0.07666700  1
  O  O26  1  0.82614400  0.17385600  0.42333300  1
  O  O27  1  0.65228700  0.82614400  0.92333300  1
  O  O28  1  0.82614400  0.17385600  0.07666700  1
  O  O29  1  0.17385600  0.82614400  0.92333300  1
  O  O30  1  0.14816400  0.29632800  0.25000000  1
  O  O31  1  0.85183600  0.70367200  0.75000000  1
  O  O32  1  0.70367200  0.85183600  0.25000000  1
  O  O33  1  0.29632800  0.14816400  0.75000000  1
  O  O34  1  0.14816400  0.85183600  0.25000000  1
  O  O35  1  0.85183600  0.14816400  0.75000000  1
