# generated using pymatgen
data_Tb2ZnSn3
_symmetry_space_group_name_H-M   'P 1'
_cell_length_a   10.33624800
_cell_length_b   10.33624800
_cell_length_c   45.32274800
_cell_angle_alpha   90.00000000
_cell_angle_beta   90.00000000
_cell_angle_gamma   90.00000000
_symmetry_Int_Tables_number   1
_chemical_formula_structural   Tb2ZnSn3
_chemical_formula_sum   'Tb2 Zn1 Sn3'
_cell_volume   4842.19278044
_cell_formula_units_Z   1
loop_
 _symmetry_equiv_pos_site_id
 _symmetry_equiv_pos_as_xyz
  1  'x, y, z'
loop_
 _atom_site_type_symbol
 _atom_site_label
 _atom_site_symmetry_multiplicity
 _atom_site_fract_x
 _atom_site_fract_y
 _atom_site_fract_z
 _atom_site_occupancy
  Tb  Tb0  1  0.50000000  0.50000000  0.25014700  1
  Tb  Tb1  1  0.50000000  0.50000000  0.74985300  1
  Zn  Zn2  1  0.50000000  0.50000000  0.50000000  1
  Sn  Sn3  1  0.50000000  0.50000000  0.00000000  1
  Sn  Sn4  1  0.50000000  0.50000000  0.68504700  1
  Sn  Sn5  1  0.50000000  0.50000000  0.31495300  1
