# generated using pymatgen
data_Sr4Ir
_symmetry_space_group_name_H-M   'P 1'
_cell_length_a   8.84435303
_cell_length_b   8.84435303
_cell_length_c   8.84435303
_cell_angle_alpha   60.00000000
_cell_angle_beta   60.00000000
_cell_angle_gamma   60.00000000
_symmetry_Int_Tables_number   1
_chemical_formula_structural   Sr4Ir
_chemical_formula_sum   'Sr8 Ir2'
_cell_volume   489.19635233
_cell_formula_units_Z   2
loop_
 _symmetry_equiv_pos_site_id
 _symmetry_equiv_pos_as_xyz
  1  'x, y, z'
loop_
 _atom_site_type_symbol
 _atom_site_label
 _atom_site_symmetry_multiplicity
 _atom_site_fract_x
 _atom_site_fract_y
 _atom_site_fract_z
 _atom_site_occupancy
  Sr  Sr0  1  0.62230200  0.62230200  0.62230200  1
  Sr  Sr1  1  0.13309300  0.62230200  0.62230200  1
  Sr  Sr2  1  0.62230200  0.13309300  0.62230200  1
  Sr  Sr3  1  0.61690700  0.12769800  0.12769800  1
  Sr  Sr4  1  0.12769800  0.12769800  0.12769800  1
  Sr  Sr5  1  0.62230200  0.62230200  0.13309300  1
  Sr  Sr6  1  0.12769800  0.61690700  0.12769800  1
  Sr  Sr7  1  0.12769800  0.12769800  0.61690700  1
  Ir  Ir8  1  0.00000000  0.00000000  0.00000000  1
  Ir  Ir9  1  0.75000000  0.75000000  0.75000000  1
