# generated using pymatgen
data_Sr3Ti3(Ga2O5)4
_symmetry_space_group_name_H-M   'P 1'
_cell_length_a   9.86245367
_cell_length_b   9.86245367
_cell_length_c   5.17271733
_cell_angle_alpha   75.15020218
_cell_angle_beta   75.15020218
_cell_angle_gamma   73.58269747
_symmetry_Int_Tables_number   1
_chemical_formula_structural   Sr3Ti3(Ga2O5)4
_chemical_formula_sum   'Sr3 Ti3 Ga8 O20'
_cell_volume   457.24380126
_cell_formula_units_Z   1
loop_
 _symmetry_equiv_pos_site_id
 _symmetry_equiv_pos_as_xyz
  1  'x, y, z'
loop_
 _atom_site_type_symbol
 _atom_site_label
 _atom_site_symmetry_multiplicity
 _atom_site_fract_x
 _atom_site_fract_y
 _atom_site_fract_z
 _atom_site_occupancy
  Sr  Sr0  1  0.22522800  0.22522800  0.28486800  1
  Sr  Sr1  1  0.77477200  0.77477200  0.71513200  1
  Sr  Sr2  1  0.50000000  0.50000000  0.00000000  1
  Ti  Ti3  1  0.12677700  0.87322300  0.50000000  1
  Ti  Ti4  1  0.87322300  0.12677700  0.50000000  1
  Ti  Ti5  1  0.00000000  0.00000000  0.00000000  1
  Ga  Ga6  1  0.35859700  0.92345100  0.83240400  1
  Ga  Ga7  1  0.64140300  0.07654900  0.16759600  1
  Ga  Ga8  1  0.07654900  0.64140300  0.16759600  1
  Ga  Ga9  1  0.92345100  0.35859700  0.83240400  1
  Ga  Ga10  1  0.49194800  0.22158800  0.65350800  1
  Ga  Ga11  1  0.50805200  0.77841200  0.34649200  1
  Ga  Ga12  1  0.77841200  0.50805200  0.34649200  1
  Ga  Ga13  1  0.22158800  0.49194800  0.65350800  1
  O  O14  1  0.50270600  0.78077700  0.98722900  1
  O  O15  1  0.49729400  0.21922300  0.01277100  1
  O  O16  1  0.21922300  0.49729400  0.01277100  1
  O  O17  1  0.78077700  0.50270600  0.98722900  1
  O  O18  1  0.37528100  0.10559500  0.65015300  1
  O  O19  1  0.62471900  0.89440500  0.34984700  1
  O  O20  1  0.89440500  0.62471900  0.34984700  1
  O  O21  1  0.10559500  0.37528100  0.65015300  1
  O  O22  1  0.06994600  0.06994600  0.60026000  1
  O  O23  1  0.93005400  0.93005400  0.39974000  1
  O  O24  1  0.67105700  0.16570800  0.42520000  1
  O  O25  1  0.32894300  0.83429200  0.57480000  1
  O  O26  1  0.83429200  0.32894300  0.57480000  1
  O  O27  1  0.16570800  0.67105700  0.42520000  1
  O  O28  1  0.19523300  0.95670100  0.10768300  1
  O  O29  1  0.80476700  0.04329900  0.89231700  1
  O  O30  1  0.04329900  0.80476700  0.89231700  1
  O  O31  1  0.95670100  0.19523300  0.10768300  1
  O  O32  1  0.40628800  0.40628800  0.49545500  1
  O  O33  1  0.59371200  0.59371200  0.50454500  1
