# generated using pymatgen
data_SrICl
_symmetry_space_group_name_H-M   'P 1'
_cell_length_a   4.53904700
_cell_length_b   8.44836500
_cell_length_c   10.34183900
_cell_angle_alpha   90.00000000
_cell_angle_beta   90.00000000
_cell_angle_gamma   90.00000000
_symmetry_Int_Tables_number   1
_chemical_formula_structural   SrICl
_chemical_formula_sum   'Sr4 I4 Cl4'
_cell_volume   396.58393796
_cell_formula_units_Z   4
loop_
 _symmetry_equiv_pos_site_id
 _symmetry_equiv_pos_as_xyz
  1  'x, y, z'
loop_
 _atom_site_type_symbol
 _atom_site_label
 _atom_site_symmetry_multiplicity
 _atom_site_fract_x
 _atom_site_fract_y
 _atom_site_fract_z
 _atom_site_occupancy
  Sr  Sr0  1  0.25000000  0.68644500  0.62957500  1
  Sr  Sr1  1  0.75000000  0.31355500  0.37042500  1
  Sr  Sr2  1  0.75000000  0.81355500  0.12957500  1
  Sr  Sr3  1  0.25000000  0.18644500  0.87042500  1
  I  I4  1  0.25000000  0.50166300  0.17575400  1
  I  I5  1  0.75000000  0.49833700  0.82424600  1
  I  I6  1  0.75000000  0.99833700  0.67575400  1
  I  I7  1  0.25000000  0.00166300  0.32424600  1
  Cl  Cl8  1  0.25000000  0.84708800  0.95008600  1
  Cl  Cl9  1  0.75000000  0.15291200  0.04991400  1
  Cl  Cl10  1  0.75000000  0.65291200  0.45008600  1
  Cl  Cl11  1  0.25000000  0.34708800  0.54991400  1
