# generated using pymatgen
data_Tb6Al39V8
_symmetry_space_group_name_H-M   'P 1'
_cell_length_a   11.00666568
_cell_length_b   11.00666568
_cell_length_c   17.54978100
_cell_angle_alpha   90.00000000
_cell_angle_beta   90.00000000
_cell_angle_gamma   119.99999809
_symmetry_Int_Tables_number   1
_chemical_formula_structural   Tb6Al39V8
_chemical_formula_sum   'Tb12 Al78 V16'
_cell_volume   1841.25480053
_cell_formula_units_Z   2
loop_
 _symmetry_equiv_pos_site_id
 _symmetry_equiv_pos_as_xyz
  1  'x, y, z'
loop_
 _atom_site_type_symbol
 _atom_site_label
 _atom_site_symmetry_multiplicity
 _atom_site_fract_x
 _atom_site_fract_y
 _atom_site_fract_z
 _atom_site_occupancy
  Tb  Tb0  1  0.53446700  0.00000000  0.59887100  1
  Tb  Tb1  1  0.46553300  0.00000000  0.40112900  1
  Tb  Tb2  1  0.00000000  0.53446700  0.59887100  1
  Tb  Tb3  1  0.46553300  0.00000000  0.09887100  1
  Tb  Tb4  1  0.00000000  0.53446700  0.90112900  1
  Tb  Tb5  1  0.00000000  0.46553300  0.40112900  1
  Tb  Tb6  1  0.53446700  0.00000000  0.90112900  1
  Tb  Tb7  1  0.00000000  0.46553300  0.09887100  1
  Tb  Tb8  1  0.46553300  0.46553300  0.59887100  1
  Tb  Tb9  1  0.53446700  0.53446700  0.40112900  1
  Tb  Tb10  1  0.53446700  0.53446700  0.09887100  1
  Tb  Tb11  1  0.46553300  0.46553300  0.90112900  1
  Al  Al12  1  0.15397200  0.60390400  0.75000000  1
  Al  Al13  1  0.84602800  0.39609600  0.25000000  1
  Al  Al14  1  0.39609600  0.55006800  0.75000000  1
  Al  Al15  1  0.60390400  0.15397200  0.75000000  1
  Al  Al16  1  0.60390400  0.44993200  0.25000000  1
  Al  Al17  1  0.39609600  0.84602800  0.25000000  1
  Al  Al18  1  0.44993200  0.84602800  0.75000000  1
  Al  Al19  1  0.55006800  0.39609600  0.75000000  1
  Al  Al20  1  0.55006800  0.15397200  0.25000000  1
  Al  Al21  1  0.44993200  0.60390400  0.25000000  1
  Al  Al22  1  0.84602800  0.44993200  0.75000000  1
  Al  Al23  1  0.15397200  0.55006800  0.25000000  1
  Al  Al24  1  0.15273200  0.00000000  0.11757900  1
  Al  Al25  1  0.84726800  0.00000000  0.88242100  1
  Al  Al26  1  0.00000000  0.15273200  0.11757900  1
  Al  Al27  1  0.84726800  0.00000000  0.61757900  1
  Al  Al28  1  0.00000000  0.15273200  0.38242100  1
  Al  Al29  1  0.00000000  0.84726800  0.88242100  1
  Al  Al30  1  0.15273200  0.00000000  0.38242100  1
  Al  Al31  1  0.00000000  0.84726800  0.61757900  1
  Al  Al32  1  0.84726800  0.84726800  0.11757900  1
  Al  Al33  1  0.15273200  0.15273200  0.88242100  1
  Al  Al34  1  0.15273200  0.15273200  0.61757900  1
  Al  Al35  1  0.84726800  0.84726800  0.38242100  1
  Al  Al36  1  0.25017100  0.50034200  0.50000000  1
  Al  Al37  1  0.74982900  0.49965800  0.50000000  1
  Al  Al38  1  0.49965800  0.74982900  0.50000000  1
  Al  Al39  1  0.74982900  0.49965800  0.00000000  1
  Al  Al40  1  0.50034200  0.25017100  0.00000000  1
  Al  Al41  1  0.50034200  0.25017100  0.50000000  1
  Al  Al42  1  0.25017100  0.50034200  0.00000000  1
  Al  Al43  1  0.49965800  0.74982900  0.00000000  1
  Al  Al44  1  0.25017100  0.74982900  0.50000000  1
  Al  Al45  1  0.74982900  0.25017100  0.50000000  1
  Al  Al46  1  0.74982900  0.25017100  0.00000000  1
  Al  Al47  1  0.25017100  0.74982900  0.00000000  1
  Al  Al48  1  0.15201800  0.00000000  0.75000000  1
  Al  Al49  1  0.84798200  0.00000000  0.25000000  1
  Al  Al50  1  0.00000000  0.15201800  0.75000000  1
  Al  Al51  1  0.00000000  0.84798200  0.25000000  1
  Al  Al52  1  0.84798200  0.84798200  0.75000000  1
  Al  Al53  1  0.15201800  0.15201800  0.25000000  1
  Al  Al54  1  0.25072000  0.00000000  0.52840100  1
  Al  Al55  1  0.74928000  0.00000000  0.47159900  1
  Al  Al56  1  0.00000000  0.25072000  0.52840100  1
  Al  Al57  1  0.74928000  0.00000000  0.02840100  1
  Al  Al58  1  0.00000000  0.25072000  0.97159900  1
  Al  Al59  1  0.00000000  0.74928000  0.47159900  1
  Al  Al60  1  0.25072000  0.00000000  0.97159900  1
  Al  Al61  1  0.00000000  0.74928000  0.02840100  1
  Al  Al62  1  0.74928000  0.74928000  0.52840100  1
  Al  Al63  1  0.25072000  0.25072000  0.47159900  1
  Al  Al64  1  0.25072000  0.25072000  0.02840100  1
  Al  Al65  1  0.74928000  0.74928000  0.97159900  1
  Al  Al66  1  0.16285800  0.39629200  0.66204100  1
  Al  Al67  1  0.83714200  0.60370800  0.33795900  1
  Al  Al68  1  0.60370800  0.76656600  0.66204100  1
  Al  Al69  1  0.83714200  0.60370800  0.16204100  1
  Al  Al70  1  0.39629200  0.16285800  0.83795900  1
  Al  Al71  1  0.39629200  0.23343400  0.33795900  1
  Al  Al72  1  0.16285800  0.39629200  0.83795900  1
  Al  Al73  1  0.60370800  0.83714200  0.16204100  1
  Al  Al74  1  0.23343400  0.83714200  0.66204100  1
  Al  Al75  1  0.39629200  0.23343400  0.16204100  1
  Al  Al76  1  0.76656600  0.60370800  0.83795900  1
  Al  Al77  1  0.76656600  0.16285800  0.33795900  1
  Al  Al78  1  0.60370800  0.76656600  0.83795900  1
  Al  Al79  1  0.23343400  0.39629200  0.16204100  1
  Al  Al80  1  0.60370800  0.83714200  0.33795900  1
  Al  Al81  1  0.39629200  0.16285800  0.66204100  1
  Al  Al82  1  0.76656600  0.16285800  0.16204100  1
  Al  Al83  1  0.23343400  0.39629200  0.33795900  1
  Al  Al84  1  0.23343400  0.83714200  0.83795900  1
  Al  Al85  1  0.76656600  0.60370800  0.66204100  1
  Al  Al86  1  0.83714200  0.23343400  0.83795900  1
  Al  Al87  1  0.16285800  0.76656600  0.16204100  1
  Al  Al88  1  0.16285800  0.76656600  0.33795900  1
  Al  Al89  1  0.83714200  0.23343400  0.66204100  1
  V  V90  1  0.33333300  0.66666700  0.62995100  1
  V  V91  1  0.66666700  0.33333300  0.37004900  1
  V  V92  1  0.66666700  0.33333300  0.12995100  1
  V  V93  1  0.66666700  0.33333300  0.87004900  1
  V  V94  1  0.33333300  0.66666700  0.87004900  1
  V  V95  1  0.33333300  0.66666700  0.12995100  1
  V  V96  1  0.33333300  0.66666700  0.37004900  1
  V  V97  1  0.66666700  0.33333300  0.62995100  1
  V  V98  1  0.00000000  0.00000000  0.50000000  1
  V  V99  1  0.00000000  0.00000000  0.00000000  1
  V  V100  1  0.73707100  0.00000000  0.75000000  1
  V  V101  1  0.26292900  0.00000000  0.25000000  1
  V  V102  1  0.00000000  0.73707100  0.75000000  1
  V  V103  1  0.00000000  0.26292900  0.25000000  1
  V  V104  1  0.26292900  0.26292900  0.75000000  1
  V  V105  1  0.73707100  0.73707100  0.25000000  1
