# generated using pymatgen
data_SmMg5Sb4
_symmetry_space_group_name_H-M   'P 1'
_cell_length_a   4.67159753
_cell_length_b   4.67159753
_cell_length_c   14.60817400
_cell_angle_alpha   90.00000000
_cell_angle_beta   90.00000000
_cell_angle_gamma   119.99999332
_symmetry_Int_Tables_number   1
_chemical_formula_structural   SmMg5Sb4
_chemical_formula_sum   'Sm1 Mg5 Sb4'
_cell_volume   276.09429583
_cell_formula_units_Z   1
loop_
 _symmetry_equiv_pos_site_id
 _symmetry_equiv_pos_as_xyz
  1  'x, y, z'
loop_
 _atom_site_type_symbol
 _atom_site_label
 _atom_site_symmetry_multiplicity
 _atom_site_fract_x
 _atom_site_fract_y
 _atom_site_fract_z
 _atom_site_occupancy
  Sm  Sm0  1  0.00000000  0.00000000  0.00000000  1
  Mg  Mg1  1  0.33333300  0.66666700  0.32807300  1
  Mg  Mg2  1  0.66666700  0.33333300  0.67192700  1
  Mg  Mg3  1  0.00000000  0.00000000  0.50000000  1
  Mg  Mg4  1  0.33333300  0.66666700  0.80869500  1
  Mg  Mg5  1  0.66666700  0.33333300  0.19130500  1
  Sb  Sb6  1  0.33333300  0.66666700  0.12418800  1
  Sb  Sb7  1  0.66666700  0.33333300  0.87581200  1
  Sb  Sb8  1  0.33333300  0.66666700  0.61002100  1
  Sb  Sb9  1  0.66666700  0.33333300  0.38997900  1
