# generated using pymatgen
data_Sr3V3(BiO7)2
_symmetry_space_group_name_H-M   'P 1'
_cell_length_a   7.12185000
_cell_length_b   7.30849557
_cell_length_c   14.29994526
_cell_angle_alpha   99.11882618
_cell_angle_beta   96.83614266
_cell_angle_gamma   109.85482214
_symmetry_Int_Tables_number   1
_chemical_formula_structural   Sr3V3(BiO7)2
_chemical_formula_sum   'Sr6 V6 Bi4 O28'
_cell_volume   679.14043070
_cell_formula_units_Z   2
loop_
 _symmetry_equiv_pos_site_id
 _symmetry_equiv_pos_as_xyz
  1  'x, y, z'
loop_
 _atom_site_type_symbol
 _atom_site_label
 _atom_site_symmetry_multiplicity
 _atom_site_fract_x
 _atom_site_fract_y
 _atom_site_fract_z
 _atom_site_occupancy
  Sr  Sr0  1  0.74525700  0.31537100  0.83099300  1
  Sr  Sr1  1  0.25474300  0.68462900  0.16900700  1
  Sr  Sr2  1  0.77291300  0.83262600  0.05808700  1
  Sr  Sr3  1  0.22708700  0.16737400  0.94191300  1
  Sr  Sr4  1  0.74162200  0.91132500  0.55763900  1
  Sr  Sr5  1  0.25837800  0.08867500  0.44236100  1
  V  V6  1  0.73752800  0.39050600  0.56808800  1
  V  V7  1  0.26247200  0.60949400  0.43191200  1
  V  V8  1  0.72699000  0.83377700  0.79479400  1
  V  V9  1  0.27301000  0.16622300  0.20520600  1
  V  V10  1  0.20776000  0.65333200  0.91679400  1
  V  V11  1  0.79224000  0.34666800  0.08320600  1
  Bi  Bi12  1  0.22887200  0.87983000  0.68537800  1
  Bi  Bi13  1  0.77112800  0.12017000  0.31462200  1
  Bi  Bi14  1  0.72969400  0.63218000  0.30192300  1
  Bi  Bi15  1  0.27030600  0.36782000  0.69807700  1
  O  O16  1  0.33629200  0.81410100  0.53109400  1
  O  O17  1  0.66370800  0.18589900  0.46890600  1
  O  O18  1  0.87657400  0.92928600  0.39748700  1
  O  O19  1  0.12342600  0.07071400  0.60251300  1
  O  O20  1  0.29471400  0.83916100  0.85234000  1
  O  O21  1  0.70528600  0.16083900  0.14766000  1
  O  O22  1  0.98244500  0.65619600  0.94713200  1
  O  O23  1  0.01755500  0.34380400  0.05286800  1
  O  O24  1  0.87076600  0.32936300  0.66048100  1
  O  O25  1  0.12923400  0.67063700  0.33951900  1
  O  O26  1  0.63397200  0.82195900  0.22482500  1
  O  O27  1  0.36602800  0.17804100  0.77517500  1
  O  O28  1  0.58522500  0.58815100  0.79994900  1
  O  O29  1  0.41477500  0.41184900  0.20005100  1
  O  O30  1  0.58896100  0.93004900  0.71877700  1
  O  O31  1  0.41103900  0.06995100  0.28122300  1
  O  O32  1  0.60945600  0.31792300  0.98486500  1
  O  O33  1  0.39054400  0.68207700  0.01513500  1
  O  O34  1  0.49888400  0.61309000  0.40600400  1
  O  O35  1  0.50111600  0.38691000  0.59399600  1
  O  O36  1  0.85931800  0.58950900  0.15777200  1
  O  O37  1  0.14068200  0.41049100  0.84222800  1
  O  O38  1  0.87731700  0.61791900  0.54565700  1
  O  O39  1  0.12268300  0.38208100  0.45434300  1
  O  O40  1  0.93499200  0.85061200  0.74031000  1
  O  O41  1  0.06500800  0.14938800  0.25969000  1
  O  O42  1  0.81610000  0.99374300  0.90608400  1
  O  O43  1  0.18390000  0.00625700  0.09391600  1
