# generated using pymatgen
data_SmLuSe3
_symmetry_space_group_name_H-M   'P 1'
_cell_length_a   4.09875400
_cell_length_b   11.54514100
_cell_length_c   11.83752585
_cell_angle_alpha   71.12410394
_cell_angle_beta   90.00000000
_cell_angle_gamma   90.00000000
_symmetry_Int_Tables_number   1
_chemical_formula_structural   SmLuSe3
_chemical_formula_sum   'Sm4 Lu4 Se12'
_cell_volume   530.03538965
_cell_formula_units_Z   4
loop_
 _symmetry_equiv_pos_site_id
 _symmetry_equiv_pos_as_xyz
  1  'x, y, z'
loop_
 _atom_site_type_symbol
 _atom_site_label
 _atom_site_symmetry_multiplicity
 _atom_site_fract_x
 _atom_site_fract_y
 _atom_site_fract_z
 _atom_site_occupancy
  Sm  Sm0  1  0.25000000  0.31887200  0.50279200  1
  Sm  Sm1  1  0.75000000  0.68112800  0.49720800  1
  Sm  Sm2  1  0.25000000  0.95110200  0.69712600  1
  Sm  Sm3  1  0.75000000  0.04889800  0.30287400  1
  Lu  Lu4  1  0.25000000  0.84208100  0.08219400  1
  Lu  Lu5  1  0.75000000  0.15791900  0.91780600  1
  Lu  Lu6  1  0.25000000  0.56221500  0.83675100  1
  Lu  Lu7  1  0.75000000  0.43778500  0.16324900  1
  Se  Se8  1  0.25000000  0.60578400  0.06047100  1
  Se  Se9  1  0.75000000  0.39421600  0.93952900  1
  Se  Se10  1  0.25000000  0.26260000  0.26860700  1
  Se  Se11  1  0.75000000  0.73740000  0.73139300  1
  Se  Se12  1  0.25000000  0.19062100  0.75675300  1
  Se  Se13  1  0.75000000  0.80937900  0.24324700  1
  Se  Se14  1  0.25000000  0.08206000  0.09406200  1
  Se  Se15  1  0.75000000  0.91794000  0.90593800  1
  Se  Se16  1  0.25000000  0.88835900  0.46387300  1
  Se  Se17  1  0.75000000  0.11164100  0.53612700  1
  Se  Se18  1  0.25000000  0.51447900  0.62334900  1
  Se  Se19  1  0.75000000  0.48552100  0.37665100  1
