# generated using pymatgen
data_Si2Ag2O5
_symmetry_space_group_name_H-M   'P 1'
_cell_length_a   5.02776200
_cell_length_b   6.67175700
_cell_length_c   15.87350300
_cell_angle_alpha   90.00000000
_cell_angle_beta   90.00000000
_cell_angle_gamma   90.00000000
_symmetry_Int_Tables_number   1
_chemical_formula_structural   Si2Ag2O5
_chemical_formula_sum   'Si8 Ag8 O20'
_cell_volume   532.46088492
_cell_formula_units_Z   4
loop_
 _symmetry_equiv_pos_site_id
 _symmetry_equiv_pos_as_xyz
  1  'x, y, z'
loop_
 _atom_site_type_symbol
 _atom_site_label
 _atom_site_symmetry_multiplicity
 _atom_site_fract_x
 _atom_site_fract_y
 _atom_site_fract_z
 _atom_site_occupancy
  Si  Si0  1  0.79534500  0.61003800  0.83984500  1
  Si  Si1  1  0.20465500  0.38996200  0.16015500  1
  Si  Si2  1  0.70465500  0.88996200  0.33984500  1
  Si  Si3  1  0.79534500  0.38996200  0.66015500  1
  Si  Si4  1  0.29534500  0.11003800  0.66015500  1
  Si  Si5  1  0.20465500  0.61003800  0.33984500  1
  Si  Si6  1  0.70465500  0.11003800  0.16015500  1
  Si  Si7  1  0.29534500  0.88996200  0.83984500  1
  Ag  Ag8  1  0.76645300  0.88181500  0.55414500  1
  Ag  Ag9  1  0.23354700  0.11818500  0.44585500  1
  Ag  Ag10  1  0.73354700  0.61818500  0.05414500  1
  Ag  Ag11  1  0.76645300  0.11818500  0.94585500  1
  Ag  Ag12  1  0.26645300  0.38181500  0.94585500  1
  Ag  Ag13  1  0.23354700  0.88181500  0.05414500  1
  Ag  Ag14  1  0.73354700  0.38181500  0.44585500  1
  Ag  Ag15  1  0.26645300  0.61818500  0.55414500  1
  O  O16  1  0.74347800  0.50000000  0.75000000  1
  O  O17  1  0.25652200  0.50000000  0.25000000  1
  O  O18  1  0.75652200  0.00000000  0.25000000  1
  O  O19  1  0.24347800  0.00000000  0.75000000  1
  O  O20  1  0.74088300  0.53667200  0.58097700  1
  O  O21  1  0.25911700  0.46332800  0.41902300  1
  O  O22  1  0.75911700  0.96332800  0.08097700  1
  O  O23  1  0.74088300  0.46332800  0.91902300  1
  O  O24  1  0.24088300  0.03667200  0.91902300  1
  O  O25  1  0.25911700  0.53667200  0.08097700  1
  O  O26  1  0.75911700  0.03667200  0.41902300  1
  O  O27  1  0.24088300  0.96332800  0.58097700  1
  O  O28  1  0.60779600  0.81263600  0.84367800  1
  O  O29  1  0.39220400  0.18736400  0.15632200  1
  O  O30  1  0.89220400  0.68736400  0.34367800  1
  O  O31  1  0.60779600  0.18736400  0.65632200  1
  O  O32  1  0.10779600  0.31263600  0.65632200  1
  O  O33  1  0.39220400  0.81263600  0.34367800  1
  O  O34  1  0.89220400  0.31263600  0.15632200  1
  O  O35  1  0.10779600  0.68736400  0.84367800  1
