# generated using pymatgen
data_Tb23Cd4Rh7
_symmetry_space_group_name_H-M   'P 1'
_cell_length_a   9.76506580
_cell_length_b   9.76506580
_cell_length_c   21.99925100
_cell_angle_alpha   90.00000000
_cell_angle_beta   90.00000000
_cell_angle_gamma   119.99999868
_symmetry_Int_Tables_number   1
_chemical_formula_structural   Tb23Cd4Rh7
_chemical_formula_sum   'Tb46 Cd8 Rh14'
_cell_volume   1816.72369583
_cell_formula_units_Z   2
loop_
 _symmetry_equiv_pos_site_id
 _symmetry_equiv_pos_as_xyz
  1  'x, y, z'
loop_
 _atom_site_type_symbol
 _atom_site_label
 _atom_site_symmetry_multiplicity
 _atom_site_fract_x
 _atom_site_fract_y
 _atom_site_fract_z
 _atom_site_occupancy
  Tb  Tb0  1  0.20821900  0.41643800  0.72057000  1
  Tb  Tb1  1  0.20821900  0.79178100  0.72057000  1
  Tb  Tb2  1  0.79178100  0.58356200  0.22057000  1
  Tb  Tb3  1  0.58356200  0.79178100  0.72057000  1
  Tb  Tb4  1  0.79178100  0.20821900  0.22057000  1
  Tb  Tb5  1  0.41643800  0.20821900  0.22057000  1
  Tb  Tb6  1  0.79211000  0.58422100  0.94722100  1
  Tb  Tb7  1  0.79211000  0.20789000  0.94722100  1
  Tb  Tb8  1  0.20789000  0.41577900  0.44722100  1
  Tb  Tb9  1  0.41577900  0.20789000  0.94722100  1
  Tb  Tb10  1  0.20789000  0.79211000  0.44722100  1
  Tb  Tb11  1  0.58422100  0.79211000  0.44722100  1
  Tb  Tb12  1  0.21031900  0.42063900  0.99021700  1
  Tb  Tb13  1  0.21031900  0.78968100  0.99021700  1
  Tb  Tb14  1  0.78968100  0.57936100  0.49021700  1
  Tb  Tb15  1  0.57936100  0.78968100  0.99021700  1
  Tb  Tb16  1  0.78968100  0.21031900  0.49021700  1
  Tb  Tb17  1  0.42063900  0.21031900  0.49021700  1
  Tb  Tb18  1  0.87258000  0.74516000  0.63615400  1
  Tb  Tb19  1  0.87258000  0.12742000  0.63615400  1
  Tb  Tb20  1  0.12742000  0.25484000  0.13615400  1
  Tb  Tb21  1  0.25484000  0.12742000  0.63615400  1
  Tb  Tb22  1  0.12742000  0.87258000  0.13615400  1
  Tb  Tb23  1  0.74516000  0.87258000  0.13615400  1
  Tb  Tb24  1  0.45796000  0.91592100  0.85651200  1
  Tb  Tb25  1  0.45796000  0.54204000  0.85651200  1
  Tb  Tb26  1  0.54204000  0.08407900  0.35651200  1
  Tb  Tb27  1  0.08407900  0.54204000  0.85651200  1
  Tb  Tb28  1  0.54204000  0.45796000  0.35651200  1
  Tb  Tb29  1  0.91592100  0.45796000  0.35651200  1
  Tb  Tb30  1  0.00000000  0.00000000  0.99675200  1
  Tb  Tb31  1  0.00000000  0.00000000  0.49675200  1
  Tb  Tb32  1  0.45983100  0.91966200  0.58448600  1
  Tb  Tb33  1  0.45983100  0.54016900  0.58448600  1
  Tb  Tb34  1  0.54016900  0.08033800  0.08448600  1
  Tb  Tb35  1  0.08033800  0.54016900  0.58448600  1
  Tb  Tb36  1  0.54016900  0.45983100  0.08448600  1
  Tb  Tb37  1  0.91966200  0.45983100  0.08448600  1
  Tb  Tb38  1  0.79825200  0.59650300  0.78289600  1
  Tb  Tb39  1  0.79825200  0.20174800  0.78289600  1
  Tb  Tb40  1  0.20174800  0.40349700  0.28289600  1
  Tb  Tb41  1  0.40349700  0.20174800  0.78289600  1
  Tb  Tb42  1  0.20174800  0.79825200  0.28289600  1
  Tb  Tb43  1  0.59650300  0.79825200  0.28289600  1
  Tb  Tb44  1  0.66666700  0.33333300  0.64371700  1
  Tb  Tb45  1  0.33333300  0.66666700  0.14371700  1
  Cd  Cd46  1  0.00000000  0.00000000  0.74973100  1
  Cd  Cd47  1  0.00000000  0.00000000  0.24973100  1
  Cd  Cd48  1  0.10766200  0.21532500  0.86350500  1
  Cd  Cd49  1  0.10766200  0.89233800  0.86350500  1
  Cd  Cd50  1  0.89233800  0.78467500  0.36350500  1
  Cd  Cd51  1  0.78467500  0.89233800  0.86350500  1
  Cd  Cd52  1  0.89233800  0.10766200  0.36350500  1
  Cd  Cd53  1  0.21532500  0.10766200  0.36350500  1
  Rh  Rh54  1  0.52186900  0.04373900  0.70928700  1
  Rh  Rh55  1  0.52186900  0.47813100  0.70928700  1
  Rh  Rh56  1  0.47813100  0.95626100  0.20928700  1
  Rh  Rh57  1  0.95626100  0.47813100  0.70928700  1
  Rh  Rh58  1  0.47813100  0.52186900  0.20928700  1
  Rh  Rh59  1  0.04373900  0.52186900  0.20928700  1
  Rh  Rh60  1  0.66666700  0.33333300  0.86255200  1
  Rh  Rh61  1  0.33333300  0.66666700  0.36255200  1
  Rh  Rh62  1  0.14311200  0.28622400  0.56380800  1
  Rh  Rh63  1  0.14311200  0.85688800  0.56380800  1
  Rh  Rh64  1  0.85688800  0.71377600  0.06380800  1
  Rh  Rh65  1  0.71377600  0.85688800  0.56380800  1
  Rh  Rh66  1  0.85688800  0.14311200  0.06380800  1
  Rh  Rh67  1  0.28622400  0.14311200  0.06380800  1
