# generated using pymatgen
data_Sr2HoCu2(BiO4)2
_symmetry_space_group_name_H-M   'P 1'
_cell_length_a   15.54074601
_cell_length_b   15.54074601
_cell_length_c   15.54074601
_cell_angle_alpha   166.03692518
_cell_angle_beta   166.03692518
_cell_angle_gamma   19.79626131
_symmetry_Int_Tables_number   1
_chemical_formula_structural   Sr2HoCu2(BiO4)2
_chemical_formula_sum   'Sr2 Ho1 Cu2 Bi2 O8'
_cell_volume   218.50877318
_cell_formula_units_Z   1
loop_
 _symmetry_equiv_pos_site_id
 _symmetry_equiv_pos_as_xyz
  1  'x, y, z'
loop_
 _atom_site_type_symbol
 _atom_site_label
 _atom_site_symmetry_multiplicity
 _atom_site_fract_x
 _atom_site_fract_y
 _atom_site_fract_z
 _atom_site_occupancy
  Sr  Sr0  1  0.11484800  0.11484800  0.00000000  1
  Sr  Sr1  1  0.88515200  0.88515200  0.00000000  1
  Ho  Ho2  1  0.00000000  0.00000000  0.00000000  1
  Cu  Cu3  1  0.44885400  0.44885400  0.00000000  1
  Cu  Cu4  1  0.55114600  0.55114600  0.00000000  1
  Bi  Bi5  1  0.29549500  0.29549500  0.00000000  1
  Bi  Bi6  1  0.70450500  0.70450500  0.00000000  1
  O  O7  1  0.54802800  0.04802800  0.50000000  1
  O  O8  1  0.45197200  0.95197200  0.50000000  1
  O  O9  1  0.04802800  0.54802800  0.50000000  1
  O  O10  1  0.95197200  0.45197200  0.50000000  1
  O  O11  1  0.19952800  0.19952800  0.00000000  1
  O  O12  1  0.80047200  0.80047200  0.00000000  1
  O  O13  1  0.36501300  0.36501300  0.00000000  1
  O  O14  1  0.63498700  0.63498700  0.00000000  1
