# generated using pymatgen
data_NaMg30BO31
_symmetry_space_group_name_H-M   'P 1'
_cell_length_a   8.38246100
_cell_length_b   8.57466700
_cell_length_c   8.64456800
_cell_angle_alpha   90.00000000
_cell_angle_beta   90.00000000
_cell_angle_gamma   90.00000000
_symmetry_Int_Tables_number   1
_chemical_formula_structural   NaMg30BO31
_chemical_formula_sum   'Na1 Mg30 B1 O31'
_cell_volume   621.34398650
_cell_formula_units_Z   1
loop_
 _symmetry_equiv_pos_site_id
 _symmetry_equiv_pos_as_xyz
  1  'x, y, z'
loop_
 _atom_site_type_symbol
 _atom_site_label
 _atom_site_symmetry_multiplicity
 _atom_site_fract_x
 _atom_site_fract_y
 _atom_site_fract_z
 _atom_site_occupancy
  Na  Na0  1  0.00000000  0.00280900  0.00000000  1
  Mg  Mg1  1  0.00000000  0.00174100  0.50000000  1
  Mg  Mg2  1  0.50000000  0.00362600  0.50000000  1
  Mg  Mg3  1  0.00000000  0.50155100  0.00000000  1
  Mg  Mg4  1  0.50000000  0.50129200  0.00000000  1
  Mg  Mg5  1  0.00000000  0.49976700  0.50000000  1
  Mg  Mg6  1  0.50000000  0.49871500  0.50000000  1
  Mg  Mg7  1  0.25625700  0.00027600  0.25655700  1
  Mg  Mg8  1  0.74374300  0.00027600  0.25655700  1
  Mg  Mg9  1  0.25625700  0.00027600  0.74344300  1
  Mg  Mg10  1  0.74374300  0.00027600  0.74344300  1
  Mg  Mg11  1  0.25016900  0.50130500  0.25016600  1
  Mg  Mg12  1  0.74983100  0.50130500  0.25016600  1
  Mg  Mg13  1  0.25016900  0.50130500  0.74983400  1
  Mg  Mg14  1  0.74983100  0.50130500  0.74983400  1
  Mg  Mg15  1  0.24873900  0.74886500  0.00000000  1
  Mg  Mg16  1  0.75126100  0.74886500  0.00000000  1
  Mg  Mg17  1  0.24807900  0.75027600  0.50000000  1
  Mg  Mg18  1  0.75192100  0.75027600  0.50000000  1
  Mg  Mg19  1  0.25919300  0.25681700  0.00000000  1
  Mg  Mg20  1  0.74080700  0.25681700  0.00000000  1
  Mg  Mg21  1  0.25030600  0.25094900  0.50000000  1
  Mg  Mg22  1  0.74969400  0.25094900  0.50000000  1
  Mg  Mg23  1  0.00000000  0.75315500  0.24876300  1
  Mg  Mg24  1  0.50000000  0.75405300  0.26071100  1
  Mg  Mg25  1  0.00000000  0.75315500  0.75123700  1
  Mg  Mg26  1  0.50000000  0.75405300  0.73928900  1
  Mg  Mg27  1  0.00000000  0.24845900  0.24692000  1
  Mg  Mg28  1  0.50000000  0.24513600  0.24251400  1
  Mg  Mg29  1  0.00000000  0.24845900  0.75308000  1
  Mg  Mg30  1  0.50000000  0.24513600  0.75748600  1
  B  B31  1  0.50000000  0.92958400  0.00000000  1
  O  O32  1  0.00000000  0.74487200  0.00000000  1
  O  O33  1  0.00000000  0.74870200  0.50000000  1
  O  O34  1  0.50000000  0.74661200  0.50000000  1
  O  O35  1  0.00000000  0.26021400  0.00000000  1
  O  O36  1  0.50000000  0.27278700  0.00000000  1
  O  O37  1  0.00000000  0.25263300  0.50000000  1
  O  O38  1  0.50000000  0.25448100  0.50000000  1
  O  O39  1  0.25063800  0.75266600  0.24752300  1
  O  O40  1  0.74936200  0.75266600  0.24752300  1
  O  O41  1  0.25063800  0.75266600  0.75247700  1
  O  O42  1  0.74936200  0.75266600  0.75247700  1
  O  O43  1  0.25059100  0.24822300  0.24583500  1
  O  O44  1  0.74940900  0.24822300  0.24583500  1
  O  O45  1  0.25059100  0.24822300  0.75416500  1
  O  O46  1  0.74940900  0.24822300  0.75416500  1
  O  O47  1  0.33657700  0.98742100  0.00000000  1
  O  O48  1  0.66342300  0.98742100  0.00000000  1
  O  O49  1  0.24822600  0.00065900  0.50000000  1
  O  O50  1  0.75177400  0.00065900  0.50000000  1
  O  O51  1  0.25242600  0.50759200  0.00000000  1
  O  O52  1  0.74757400  0.50759200  0.00000000  1
  O  O53  1  0.24998300  0.50053300  0.50000000  1
  O  O54  1  0.75001700  0.50053300  0.50000000  1
  O  O55  1  0.00000000  0.00049200  0.25684900  1
  O  O56  1  0.50000000  0.99829200  0.26973300  1
  O  O57  1  0.00000000  0.00049200  0.74315100  1
  O  O58  1  0.50000000  0.99829200  0.73026700  1
  O  O59  1  0.00000000  0.50116300  0.25077900  1
  O  O60  1  0.50000000  0.50650300  0.24937200  1
  O  O61  1  0.00000000  0.50116300  0.74922100  1
  O  O62  1  0.50000000  0.50650300  0.75062800  1
