# generated using pymatgen
data_Sm2NiRuO6
_symmetry_space_group_name_H-M   'P 1'
_cell_length_a   5.78638400
_cell_length_b   5.38883400
_cell_length_c   9.42088000
_cell_angle_alpha   55.46220148
_cell_angle_beta   90.00000000
_cell_angle_gamma   90.00000000
_symmetry_Int_Tables_number   1
_chemical_formula_structural   Sm2NiRuO6
_chemical_formula_sum   'Sm4 Ni2 Ru2 O12'
_cell_volume   241.98597345
_cell_formula_units_Z   2
loop_
 _symmetry_equiv_pos_site_id
 _symmetry_equiv_pos_as_xyz
  1  'x, y, z'
loop_
 _atom_site_type_symbol
 _atom_site_label
 _atom_site_symmetry_multiplicity
 _atom_site_fract_x
 _atom_site_fract_y
 _atom_site_fract_z
 _atom_site_occupancy
  Sm  Sm0  1  0.42864900  0.22885200  0.74916900  1
  Sm  Sm1  1  0.57135100  0.77114800  0.25083100  1
  Sm  Sm2  1  0.92864900  0.77114800  0.75083100  1
  Sm  Sm3  1  0.07135100  0.22885200  0.24916900  1
  Ni  Ni4  1  0.00000000  0.50000000  0.50000000  1
  Ni  Ni5  1  0.50000000  0.50000000  0.00000000  1
  Ru  Ru6  1  0.00000000  0.00000000  0.00000000  1
  Ru  Ru7  1  0.50000000  0.00000000  0.50000000  1
  O  O8  1  0.03654100  0.35535200  0.75380100  1
  O  O9  1  0.96345900  0.64464800  0.24619900  1
  O  O10  1  0.53654100  0.64464800  0.74619900  1
  O  O11  1  0.46345900  0.35535200  0.25380100  1
  O  O12  1  0.70203100  0.86900900  0.94228900  1
  O  O13  1  0.29796900  0.13099100  0.05771100  1
  O  O14  1  0.20203100  0.13099100  0.55771100  1
  O  O15  1  0.79796900  0.86900900  0.44228900  1
  O  O16  1  0.19371800  0.74761300  0.94821000  1
  O  O17  1  0.80628200  0.25238700  0.05179000  1
  O  O18  1  0.69371800  0.25238700  0.55179000  1
  O  O19  1  0.30628200  0.74761300  0.44821000  1
