# generated using pymatgen
data_Sm4MgPt
_symmetry_space_group_name_H-M   'P 1'
_cell_length_a   9.98048412
_cell_length_b   9.98048412
_cell_length_c   9.98048412
_cell_angle_alpha   60.00000000
_cell_angle_beta   60.00000000
_cell_angle_gamma   60.00000000
_symmetry_Int_Tables_number   1
_chemical_formula_structural   Sm4MgPt
_chemical_formula_sum   'Sm16 Mg4 Pt4'
_cell_volume   702.97491184
_cell_formula_units_Z   4
loop_
 _symmetry_equiv_pos_site_id
 _symmetry_equiv_pos_as_xyz
  1  'x, y, z'
loop_
 _atom_site_type_symbol
 _atom_site_label
 _atom_site_symmetry_multiplicity
 _atom_site_fract_x
 _atom_site_fract_y
 _atom_site_fract_z
 _atom_site_occupancy
  Sm  Sm0  1  0.59789400  0.59789400  0.59789400  1
  Sm  Sm1  1  0.59789400  0.59789400  0.20631900  1
  Sm  Sm2  1  0.59789400  0.20631900  0.59789400  1
  Sm  Sm3  1  0.20631900  0.59789400  0.59789400  1
  Sm  Sm4  1  0.06074500  0.43925500  0.43925500  1
  Sm  Sm5  1  0.43925500  0.06074500  0.06074500  1
  Sm  Sm6  1  0.43925500  0.06074500  0.43925500  1
  Sm  Sm7  1  0.06074500  0.43925500  0.06074500  1
  Sm  Sm8  1  0.43925500  0.43925500  0.06074500  1
  Sm  Sm9  1  0.06074500  0.06074500  0.43925500  1
  Sm  Sm10  1  0.18429300  0.81570700  0.81570700  1
  Sm  Sm11  1  0.81570700  0.18429300  0.18429300  1
  Sm  Sm12  1  0.81570700  0.18429300  0.81570700  1
  Sm  Sm13  1  0.18429300  0.81570700  0.18429300  1
  Sm  Sm14  1  0.81570700  0.81570700  0.18429300  1
  Sm  Sm15  1  0.18429300  0.18429300  0.81570700  1
  Mg  Mg16  1  0.82994500  0.82994500  0.82994500  1
  Mg  Mg17  1  0.82994500  0.82994500  0.51016500  1
  Mg  Mg18  1  0.82994500  0.51016500  0.82994500  1
  Mg  Mg19  1  0.51016500  0.82994500  0.82994500  1
  Pt  Pt20  1  0.39221200  0.39221200  0.39221200  1
  Pt  Pt21  1  0.39221200  0.39221200  0.82336400  1
  Pt  Pt22  1  0.39221200  0.82336400  0.39221200  1
  Pt  Pt23  1  0.82336400  0.39221200  0.39221200  1
