# generated using pymatgen
data_Sr3Co2O9
_symmetry_space_group_name_H-M   'P 1'
_cell_length_a   12.67790417
_cell_length_b   12.67790417
_cell_length_c   3.77874505
_cell_angle_alpha   81.82532173
_cell_angle_beta   81.82532173
_cell_angle_gamma   17.80341754
_symmetry_Int_Tables_number   1
_chemical_formula_structural   Sr3Co2O9
_chemical_formula_sum   'Sr3 Co2 O9'
_cell_volume   183.76662741
_cell_formula_units_Z   1
loop_
 _symmetry_equiv_pos_site_id
 _symmetry_equiv_pos_as_xyz
  1  'x, y, z'
loop_
 _atom_site_type_symbol
 _atom_site_label
 _atom_site_symmetry_multiplicity
 _atom_site_fract_x
 _atom_site_fract_y
 _atom_site_fract_z
 _atom_site_occupancy
  Sr  Sr0  1  0.65810600  0.65810600  0.34173800  1
  Sr  Sr1  1  0.34189400  0.34189400  0.65826200  1
  Sr  Sr2  1  0.50000000  0.50000000  0.50000000  1
  Co  Co3  1  0.92286000  0.92286000  0.08358200  1
  Co  Co4  1  0.07714000  0.07714000  0.91641800  1
  O  O5  1  0.58885400  0.58885400  0.91047700  1
  O  O6  1  0.41114600  0.41114600  0.08952300  1
  O  O7  1  0.81849700  0.81849700  0.18555200  1
  O  O8  1  0.18150300  0.18150300  0.81444800  1
  O  O9  1  0.76356000  0.76356000  0.22634100  1
  O  O10  1  0.23644000  0.23644000  0.77365900  1
  O  O11  1  0.91213600  0.91213600  0.59044000  1
  O  O12  1  0.08786400  0.08786400  0.40956000  1
  O  O13  1  0.00000000  0.00000000  0.00000000  1
