# generated using pymatgen
data_Sm2FeAs2O
_symmetry_space_group_name_H-M   'P 1'
_cell_length_a   3.26175700
_cell_length_b   3.26175700
_cell_length_c   15.16261800
_cell_angle_alpha   90.00000000
_cell_angle_beta   90.00000000
_cell_angle_gamma   90.00000000
_symmetry_Int_Tables_number   1
_chemical_formula_structural   Sm2FeAs2O
_chemical_formula_sum   'Sm2 Fe1 As2 O1'
_cell_volume   161.31598336
_cell_formula_units_Z   1
loop_
 _symmetry_equiv_pos_site_id
 _symmetry_equiv_pos_as_xyz
  1  'x, y, z'
loop_
 _atom_site_type_symbol
 _atom_site_label
 _atom_site_symmetry_multiplicity
 _atom_site_fract_x
 _atom_site_fract_y
 _atom_site_fract_z
 _atom_site_occupancy
  Sm  Sm0  1  0.50000000  0.50000000  0.63694600  1
  Sm  Sm1  1  0.50000000  0.50000000  0.36305300  1
  Fe  Fe2  1  0.50000000  0.50000000  0.00000000  1
  As  As3  1  0.50000000  0.50000000  0.16268000  1
  As  As4  1  0.50000000  0.50000000  0.83732000  1
  O  O5  1  0.50000000  0.50000000  0.50000000  1
