# generated using pymatgen
data_Sr2YCu2(BiO4)2
_symmetry_space_group_name_H-M   'P 1'
_cell_length_a   15.59802851
_cell_length_b   15.59802851
_cell_length_c   5.35020500
_cell_angle_alpha   90.00000000
_cell_angle_beta   90.00000000
_cell_angle_gamma   159.66889246
_symmetry_Int_Tables_number   1
_chemical_formula_structural   Sr2YCu2(BiO4)2
_chemical_formula_sum   'Sr4 Y2 Cu4 Bi4 O16'
_cell_volume   452.26779988
_cell_formula_units_Z   2
loop_
 _symmetry_equiv_pos_site_id
 _symmetry_equiv_pos_as_xyz
  1  'x, y, z'
loop_
 _atom_site_type_symbol
 _atom_site_label
 _atom_site_symmetry_multiplicity
 _atom_site_fract_x
 _atom_site_fract_y
 _atom_site_fract_z
 _atom_site_occupancy
  Sr  Sr0  1  0.61360700  0.89012200  0.00000000  1
  Sr  Sr1  1  0.38639300  0.10987800  0.00000000  1
  Sr  Sr2  1  0.10987800  0.38639300  0.50000000  1
  Sr  Sr3  1  0.89012200  0.61360700  0.50000000  1
  Y  Y4  1  0.50000000  0.00000000  0.00000000  1
  Y  Y5  1  0.00000000  0.50000000  0.50000000  1
  Cu  Cu6  1  0.05098700  0.44911100  0.00000000  1
  Cu  Cu7  1  0.94901300  0.55088900  0.00000000  1
  Cu  Cu8  1  0.55088900  0.94901300  0.50000000  1
  Cu  Cu9  1  0.44911100  0.05098700  0.50000000  1
  Bi  Bi10  1  0.22380500  0.31992700  0.00000000  1
  Bi  Bi11  1  0.77619500  0.68007300  0.00000000  1
  Bi  Bi12  1  0.68007300  0.77619500  0.50000000  1
  Bi  Bi13  1  0.31992700  0.22380500  0.50000000  1
  O  O14  1  0.12189400  0.35430400  0.00000000  1
  O  O15  1  0.87810600  0.64569600  0.00000000  1
  O  O16  1  0.64569600  0.87810600  0.50000000  1
  O  O17  1  0.35430400  0.12189400  0.50000000  1
  O  O18  1  0.70149200  0.29850800  0.25000000  1
  O  O19  1  0.29850800  0.70149200  0.75000000  1
  O  O20  1  0.29850800  0.70149200  0.25000000  1
  O  O21  1  0.70149200  0.29850800  0.75000000  1
  O  O22  1  0.61396600  0.71532200  0.00000000  1
  O  O23  1  0.38603400  0.28467800  0.00000000  1
  O  O24  1  0.28467800  0.38603400  0.50000000  1
  O  O25  1  0.71532200  0.61396600  0.50000000  1
  O  O26  1  0.79818300  0.20181700  0.25000000  1
  O  O27  1  0.20181700  0.79818300  0.75000000  1
  O  O28  1  0.20181700  0.79818300  0.25000000  1
  O  O29  1  0.79818300  0.20181700  0.75000000  1
