# generated using pymatgen
data_Sm2CuSe2O
_symmetry_space_group_name_H-M   'P 1'
_cell_length_a   3.48318300
_cell_length_b   3.48318300
_cell_length_c   14.37426200
_cell_angle_alpha   90.00000000
_cell_angle_beta   90.00000000
_cell_angle_gamma   90.00000000
_symmetry_Int_Tables_number   1
_chemical_formula_structural   Sm2CuSe2O
_chemical_formula_sum   'Sm2 Cu1 Se2 O1'
_cell_volume   174.39665096
_cell_formula_units_Z   1
loop_
 _symmetry_equiv_pos_site_id
 _symmetry_equiv_pos_as_xyz
  1  'x, y, z'
loop_
 _atom_site_type_symbol
 _atom_site_label
 _atom_site_symmetry_multiplicity
 _atom_site_fract_x
 _atom_site_fract_y
 _atom_site_fract_z
 _atom_site_occupancy
  Sm  Sm0  1  0.50000000  0.50000000  0.64531200  1
  Sm  Sm1  1  0.50000000  0.50000000  0.35468800  1
  Cu  Cu2  1  0.50000000  0.50000000  0.00000000  1
  Se  Se3  1  0.50000000  0.50000000  0.15580100  1
  Se  Se4  1  0.50000000  0.50000000  0.84419900  1
  O  O5  1  0.50000000  0.50000000  0.50000000  1
