# generated using pymatgen
data_Sm4PdO7
_symmetry_space_group_name_H-M   'P 1'
_cell_length_a   6.87125900
_cell_length_b   7.21295054
_cell_length_c   7.92142395
_cell_angle_alpha   110.04847923
_cell_angle_beta   108.11376846
_cell_angle_gamma   83.94092044
_symmetry_Int_Tables_number   1
_chemical_formula_structural   Sm4PdO7
_chemical_formula_sum   'Sm8 Pd2 O14'
_cell_volume   350.53333073
_cell_formula_units_Z   2
loop_
 _symmetry_equiv_pos_site_id
 _symmetry_equiv_pos_as_xyz
  1  'x, y, z'
loop_
 _atom_site_type_symbol
 _atom_site_label
 _atom_site_symmetry_multiplicity
 _atom_site_fract_x
 _atom_site_fract_y
 _atom_site_fract_z
 _atom_site_occupancy
  Sm  Sm0  1  0.22051700  0.61101400  0.21091400  1
  Sm  Sm1  1  0.77948300  0.38898600  0.78908600  1
  Sm  Sm2  1  0.64279900  0.85349300  0.14283300  1
  Sm  Sm3  1  0.35720100  0.14650700  0.85716700  1
  Sm  Sm4  1  0.79053200  0.39946500  0.27469600  1
  Sm  Sm5  1  0.20946800  0.60053500  0.72530400  1
  Sm  Sm6  1  0.66587500  0.83216400  0.62176700  1
  Sm  Sm7  1  0.33412500  0.16783600  0.37823300  1
  Pd  Pd8  1  0.00000000  0.00000000  0.00000000  1
  Pd  Pd9  1  0.00000000  0.00000000  0.50000000  1
  O  O10  1  0.29795300  0.91697800  0.50719600  1
  O  O11  1  0.70204700  0.08302200  0.49280400  1
  O  O12  1  0.85256800  0.58292000  0.10107200  1
  O  O13  1  0.14743200  0.41708000  0.89892800  1
  O  O14  1  0.47219900  0.24106700  0.17663600  1
  O  O15  1  0.52780100  0.75893300  0.82336400  1
  O  O16  1  0.56902700  0.66798600  0.30260400  1
  O  O17  1  0.43097300  0.33201400  0.69739600  1
  O  O18  1  0.94371200  0.07028100  0.25709000  1
  O  O19  1  0.05628800  0.92971900  0.74291000  1
  O  O20  1  0.26950700  0.86009900  0.08673100  1
  O  O21  1  0.73049300  0.13990100  0.91326900  1
  O  O22  1  0.84263400  0.54104600  0.59806300  1
  O  O23  1  0.15736600  0.45895400  0.40193700  1
