# generated using pymatgen
data_Ti3C70Cl13
_symmetry_space_group_name_H-M   'P 1'
_cell_length_a   10.36693966
_cell_length_b   14.01482885
_cell_length_c   16.90445543
_cell_angle_alpha   86.16301302
_cell_angle_beta   89.13619044
_cell_angle_gamma   79.53941935
_symmetry_Int_Tables_number   1
_chemical_formula_structural   Ti3C70Cl13
_chemical_formula_sum   'Ti6 C140 Cl26'
_cell_volume   2409.81910880
_cell_formula_units_Z   2
loop_
 _symmetry_equiv_pos_site_id
 _symmetry_equiv_pos_as_xyz
  1  'x, y, z'
loop_
 _atom_site_type_symbol
 _atom_site_label
 _atom_site_symmetry_multiplicity
 _atom_site_fract_x
 _atom_site_fract_y
 _atom_site_fract_z
 _atom_site_occupancy
  Ti  Ti0  1  0.07183201  0.77093942  0.13131808  1
  Ti  Ti1  1  0.92816799  0.22906058  0.86868192  1
  Ti  Ti2  1  0.07365700  0.78457178  0.36312174  1
  Ti  Ti3  1  0.92634300  0.21542822  0.63687826  1
  Ti  Ti4  1  0.18872393  0.34314055  0.73691850  1
  Ti  Ti5  1  0.81127607  0.65685945  0.26308150  1
  C  C6  1  0.26436556  0.05359555  0.13926872  1
  C  C7  1  0.73563444  0.94640445  0.86073128  1
  C  C8  1  0.40123221  0.21783497  0.49461149  1
  C  C9  1  0.59876779  0.78216503  0.50538851  1
  C  C10  1  0.14862322  0.21765739  0.09551852  1
  C  C11  1  0.85137678  0.78234261  0.90448148  1
  C  C12  1  0.47016552  0.18728129  0.00985920  1
  C  C13  1  0.52983448  0.81271871  0.99014080  1
  C  C14  1  0.17548617  0.43693140  0.19757871  1
  C  C15  1  0.82451383  0.56306860  0.80242129  1
  C  C16  1  0.77968208  0.19722495  0.20629213  1
  C  C17  1  0.22031792  0.80277505  0.79370787  1
  C  C18  1  0.58857412  0.28550836  0.46507122  1
  C  C19  1  0.41142588  0.71449164  0.53492878  1
  C  C20  1  0.74188744  0.30361899  0.20354945  1
  C  C21  1  0.25811256  0.69638101  0.79645055  1
  C  C22  1  0.52287187  0.46443645  0.22181943  1
  C  C23  1  0.47712813  0.53556355  0.77818057  1
  C  C24  1  0.69584539  0.04892374  0.37586149  1
  C  C25  1  0.30415461  0.95107626  0.62413851  1
  C  C26  1  0.56313346  0.43160753  0.14573875  1
  C  C27  1  0.43686654  0.56839247  0.85426125  1
  C  C28  1  0.11519337  0.15731956  0.22569089  1
  C  C29  1  0.88480663  0.84268044  0.77430911  1
  C  C30  1  0.48863413  0.01538920  0.11203556  1
  C  C31  1  0.51136587  0.98461080  0.88796444  1
  C  C32  1  0.59157952  0.14184743  0.04152195  1
  C  C33  1  0.40842048  0.85815257  0.95847805  1
  C  C34  1  0.73920690  0.29551363  0.35166812  1
  C  C35  1  0.26079310  0.70448637  0.64833188  1
  C  C36  1  0.71719866  0.13510791  0.41345680  1
  C  C37  1  0.28280134  0.86489209  0.58654320  1
  C  C38  1  0.09962548  0.29899022  0.14291817  1
  C  C39  1  0.90037452  0.70100978  0.85708183  1
  C  C40  1  0.37235006  0.38904682  0.44200174  1
  C  C41  1  0.62764994  0.61095318  0.55799826  1
  C  C42  1  0.24346422  0.38077820  0.41232350  1
  C  C43  1  0.75653578  0.61922180  0.58767650  1
  C  C44  1  0.09674362  0.31458949  0.28981694  1
  C  C45  1  0.90325638  0.68541051  0.71018306  1
  C  C46  1  0.62409994  0.17951233  0.46746130  1
  C  C47  1  0.37590006  0.82048767  0.53253870  1
  C  C48  1  0.36300775  0.06184003  0.07890173  1
  C  C49  1  0.63699225  0.93815997  0.92109827  1
  C  C50  1  0.53213482  0.02160736  0.80786450  1
  C  C51  1  0.46786518  0.97839264  0.19213550  1
  C  C52  1  0.24529708  0.39474111  0.06977536  1
  C  C53  1  0.75470292  0.60525889  0.93022464  1
  C  C54  1  0.12647949  0.25891026  0.36283845  1
  C  C55  1  0.87352051  0.74108974  0.63716155  1
  C  C56  1  0.58542037  0.00852440  0.39380779  1
  C  C57  1  0.41457963  0.99147560  0.60619221  1
  C  C58  1  0.29353459  0.31650432  0.02412837  1
  C  C59  1  0.70646541  0.68349568  0.97587163  1
  C  C60  1  0.67993607  0.19942671  0.07213604  1
  C  C61  1  0.32006393  0.80057329  0.92786396  1
  C  C62  1  0.48463966  0.02262594  0.66830030  1
  C  C63  1  0.51536034  0.97737406  0.33169970  1
  C  C64  1  0.79072003  0.14475456  0.28168006  1
  C  C65  1  0.20927997  0.85524544  0.71831994  1
  C  C66  1  0.19639224  0.29356309  0.42525978  1
  C  C67  1  0.80360776  0.70643691  0.57474022  1
  C  C68  1  0.14723162  0.38559621  0.13038723  1
  C  C69  1  0.85276838  0.61440379  0.86961277  1
  C  C70  1  0.62379463  0.99853877  0.65147085  1
  C  C71  1  0.37620537  0.00146123  0.34852915  1
  C  C72  1  0.35878443  0.04766656  0.42121226  1
  C  C73  1  0.64121557  0.95233344  0.57878774  1
  C  C74  1  0.16324582  0.15476739  0.36538514  1
  C  C75  1  0.83675418  0.84523261  0.63461486  1
  C  C76  1  0.29162310  0.47757997  0.17914008  1
  C  C77  1  0.70837690  0.52242003  0.82085992  1
  C  C78  1  0.61014729  0.42954564  0.28537134  1
  C  C79  1  0.38985271  0.57045436  0.71462866  1
  C  C80  1  0.22285300  0.43499466  0.33722404  1
  C  C81  1  0.77714700  0.56500534  0.66277596  1
  C  C82  1  0.50905135  0.14016740  0.48631561  1
  C  C83  1  0.49094865  0.85983260  0.51368439  1
  C  C84  1  0.15919466  0.13015893  0.14742230  1
  C  C85  1  0.84080534  0.86984107  0.85257770  1
  C  C86  1  0.64477981  0.34213686  0.40854171  1
  C  C87  1  0.35522019  0.65786314  0.59145829  1
  C  C88  1  0.64437843  0.30042336  0.06954375  1
  C  C89  1  0.35562157  0.69957664  0.93045625  1
  C  C90  1  0.74436993  0.14723763  0.14165776  1
  C  C91  1  0.25563007  0.85276237  0.85834224  1
  C  C92  1  0.46931398  0.42852295  0.08445653  1
  C  C93  1  0.53068602  0.57147705  0.91554347  1
  C  C94  1  0.68142506  0.01576137  0.23282396  1
  C  C95  1  0.31857494  0.98423863  0.76717604  1
  C  C96  1  0.74182772  0.05535346  0.29478268  1
  C  C97  1  0.25817228  0.94464654  0.70521732  1
  C  C98  1  0.43666719  0.02489256  0.74817979  1
  C  C99  1  0.56333281  0.97510744  0.25182021  1
  C  C100  1  0.14729566  0.40556112  0.27636607  1
  C  C101  1  0.85270434  0.59443888  0.72363393  1
  C  C102  1  0.56486969  0.42496087  0.36650363  1
  C  C103  1  0.43513031  0.57503913  0.63349637  1
  C  C104  1  0.17095333  0.10354458  0.29512745  1
  C  C105  1  0.82904667  0.89645542  0.70487255  1
  C  C106  1  0.77495376  0.19414081  0.35465791  1
  C  C107  1  0.22504624  0.80585919  0.64534209  1
  C  C108  1  0.51932274  0.34771577  0.03626780  1
  C  C109  1  0.48067726  0.65228423  0.96373220  1
  C  C110  1  0.44936332  0.30951797  0.48220299  1
  C  C111  1  0.55063668  0.69048203  0.51779701  1
  C  C112  1  0.33494559  0.45133116  0.10099479  1
  C  C113  1  0.66505441  0.54866884  0.89900521  1
  C  C114  1  0.33867285  0.47654674  0.31867886  1
  C  C115  1  0.66132715  0.52345326  0.68132114  1
  C  C116  1  0.07858633  0.26163987  0.22303644  1
  C  C117  1  0.92141367  0.73836013  0.77696356  1
  C  C118  1  0.69577459  0.05749919  0.15481735  1
  C  C119  1  0.30422541  0.94250081  0.84518265  1
  C  C120  1  0.67176173  0.35230072  0.13672374  1
  C  C121  1  0.32823827  0.64769928  0.86327626  1
  C  C122  1  0.38180088  0.48856808  0.23912491  1
  C  C123  1  0.61819912  0.51143192  0.76087509  1
  C  C124  1  0.43061564  0.44832582  0.38304827  1
  C  C125  1  0.56938436  0.55167418  0.61695173  1
  C  C126  1  0.49158645  0.04107990  0.46200650  1
  C  C127  1  0.50841355  0.95892010  0.53799350  1
  C  C128  1  0.27573567  0.21105966  0.46714398  1
  C  C129  1  0.72426433  0.78894034  0.53285602  1
  C  C130  1  0.35348914  0.14646965  0.02880059  1
  C  C131  1  0.64651086  0.85353035  0.97119941  1
  C  C132  1  0.24447636  0.22597503  0.03747552  1
  C  C133  1  0.75552364  0.77402497  0.96252448  1
  C  C134  1  0.71840955  0.34979098  0.27654690  1
  C  C135  1  0.28159045  0.65020902  0.72345310  1
  C  C136  1  0.25556429  0.12464834  0.42948817  1
  C  C137  1  0.74443571  0.87535166  0.57051183  1
  C  C138  1  0.60093845  0.05456570  0.09368487  1
  C  C139  1  0.39906155  0.94543430  0.90631513  1
  C  C140  1  0.43319517  0.29254919  0.00693449  1
  C  C141  1  0.56680483  0.70745081  0.99306551  1
  C  C142  1  0.67137326  0.99763637  0.79096211  1
  C  C143  1  0.32862674  0.00236363  0.20903789  1
  C  C144  1  0.28172690  0.02382117  0.28614067  1
  C  C145  1  0.71827310  0.97617883  0.71385933  1
  Cl  Cl146  1  0.03682638  0.91537097  0.43282899  1
  Cl  Cl147  1  0.96317362  0.08462903  0.56717101  1
  Cl  Cl148  1  0.15444716  0.44857295  0.63062249  1
  Cl  Cl149  1  0.84555284  0.55142705  0.36937751  1
  Cl  Cl150  1  0.16049155  0.45465218  0.82680360  1
  Cl  Cl151  1  0.83950845  0.54534782  0.17319640  1
  Cl  Cl152  1  0.29063644  0.76494377  0.34735616  1
  Cl  Cl153  1  0.70936356  0.23505623  0.65264384  1
  Cl  Cl154  1  0.04533860  0.88990728  0.23722736  1
  Cl  Cl155  1  0.95466140  0.11009272  0.76277264  1
  Cl  Cl156  1  0.06491351  0.65804951  0.25893298  1
  Cl  Cl157  1  0.93508649  0.34195049  0.74106702  1
  Cl  Cl158  1  0.40454737  0.30217357  0.73522494  1
  Cl  Cl159  1  0.59545263  0.69782643  0.26477506  1
  Cl  Cl160  1  0.03612926  0.89184959  0.03968906  1
  Cl  Cl161  1  0.96387074  0.10815041  0.96031094  1
  Cl  Cl162  1  0.08102532  0.66631245  0.45918099  1
  Cl  Cl163  1  0.91897468  0.33368755  0.54081901  1
  Cl  Cl164  1  0.17172781  0.21698653  0.84545930  1
  Cl  Cl165  1  0.82827219  0.78301347  0.15454070  1
  Cl  Cl166  1  0.06926756  0.64675675  0.05565078  1
  Cl  Cl167  1  0.93073244  0.35324325  0.94434922  1
  Cl  Cl168  1  0.28917838  0.75018623  0.14279812  1
  Cl  Cl169  1  0.71082162  0.24981377  0.85720188  1
  Cl  Cl170  1  0.16779373  0.20858567  0.65061398  1
  Cl  Cl171  1  0.83220627  0.79141433  0.34938602  1
