# generated using pymatgen
data_SrIn5Au3
_symmetry_space_group_name_H-M   'P 1'
_cell_length_a   4.52642300
_cell_length_b   12.82314600
_cell_length_c   15.35934600
_cell_angle_alpha   90.00000000
_cell_angle_beta   90.00000000
_cell_angle_gamma   90.00000000
_symmetry_Int_Tables_number   1
_chemical_formula_structural   SrIn5Au3
_chemical_formula_sum   'Sr4 In20 Au12'
_cell_volume   891.50225857
_cell_formula_units_Z   4
loop_
 _symmetry_equiv_pos_site_id
 _symmetry_equiv_pos_as_xyz
  1  'x, y, z'
loop_
 _atom_site_type_symbol
 _atom_site_label
 _atom_site_symmetry_multiplicity
 _atom_site_fract_x
 _atom_site_fract_y
 _atom_site_fract_z
 _atom_site_occupancy
  Sr  Sr0  1  0.25000000  0.89593600  0.29589300  1
  Sr  Sr1  1  0.75000000  0.10406400  0.70410700  1
  Sr  Sr2  1  0.75000000  0.39593600  0.20410700  1
  Sr  Sr3  1  0.25000000  0.60406400  0.79589300  1
  In  In4  1  0.25000000  0.41168000  0.00606400  1
  In  In5  1  0.75000000  0.58832000  0.99393600  1
  In  In6  1  0.75000000  0.91168000  0.49393600  1
  In  In7  1  0.25000000  0.08832000  0.50606400  1
  In  In8  1  0.25000000  0.60472900  0.31074700  1
  In  In9  1  0.75000000  0.39527100  0.68925300  1
  In  In10  1  0.75000000  0.10472900  0.18925300  1
  In  In11  1  0.25000000  0.89527100  0.81074700  1
  In  In12  1  0.25000000  0.01467900  0.06926100  1
  In  In13  1  0.75000000  0.98532100  0.93073900  1
  In  In14  1  0.75000000  0.51467900  0.43073900  1
  In  In15  1  0.25000000  0.48532100  0.56926100  1
  In  In16  1  0.25000000  0.77396800  0.02596100  1
  In  In17  1  0.75000000  0.22603200  0.97403900  1
  In  In18  1  0.75000000  0.27396800  0.47403900  1
  In  In19  1  0.25000000  0.72603200  0.52596100  1
  In  In20  1  0.25000000  0.19861100  0.30468600  1
  In  In21  1  0.75000000  0.80138900  0.69531400  1
  In  In22  1  0.75000000  0.69861100  0.19531400  1
  In  In23  1  0.25000000  0.30138900  0.80468600  1
  Au  Au24  1  0.25000000  0.57870400  0.12466100  1
  Au  Au25  1  0.75000000  0.42129600  0.87533900  1
  Au  Au26  1  0.75000000  0.07870400  0.37533900  1
  Au  Au27  1  0.25000000  0.92129600  0.62466100  1
  Au  Au28  1  0.25000000  0.23155200  0.11077200  1
  Au  Au29  1  0.75000000  0.76844800  0.88922800  1
  Au  Au30  1  0.75000000  0.73155200  0.38922800  1
  Au  Au31  1  0.25000000  0.26844800  0.61077200  1
  Au  Au32  1  0.25000000  0.39206400  0.38174300  1
  Au  Au33  1  0.75000000  0.60793600  0.61825700  1
  Au  Au34  1  0.75000000  0.89206400  0.11825700  1
  Au  Au35  1  0.25000000  0.10793600  0.88174300  1
