# generated using pymatgen
data_RbYb(WO4)2
_symmetry_space_group_name_H-M   'P 1'
_cell_length_a   6.19333796
_cell_length_b   6.19333796
_cell_length_c   8.19255600
_cell_angle_alpha   90.00000000
_cell_angle_beta   90.00000000
_cell_angle_gamma   119.99999961
_symmetry_Int_Tables_number   1
_chemical_formula_structural   RbYb(WO4)2
_chemical_formula_sum   'Rb1 Yb1 W2 O8'
_cell_volume   272.14453108
_cell_formula_units_Z   1
loop_
 _symmetry_equiv_pos_site_id
 _symmetry_equiv_pos_as_xyz
  1  'x, y, z'
loop_
 _atom_site_type_symbol
 _atom_site_label
 _atom_site_symmetry_multiplicity
 _atom_site_fract_x
 _atom_site_fract_y
 _atom_site_fract_z
 _atom_site_occupancy
  Rb  Rb0  1  0.00000000  0.00000000  0.00000000  1
  Yb  Yb1  1  0.00000000  0.00000000  0.50000000  1
  W  W2  1  0.33333300  0.66666700  0.26448100  1
  W  W3  1  0.66666700  0.33333300  0.73551900  1
  O  O4  1  0.17176100  0.82823900  0.33361800  1
  O  O5  1  0.82823900  0.17176100  0.66638200  1
  O  O6  1  0.17176100  0.34352300  0.33361800  1
  O  O7  1  0.82823900  0.65647700  0.66638200  1
  O  O8  1  0.65647700  0.82823900  0.33361800  1
  O  O9  1  0.34352300  0.17176100  0.66638200  1
  O  O10  1  0.33333300  0.66666700  0.04503700  1
  O  O11  1  0.66666700  0.33333300  0.95496300  1
