# generated using pymatgen
data_Sn9Pd13
_symmetry_space_group_name_H-M   'P 1'
_cell_length_a   8.98541109
_cell_length_b   8.98541109
_cell_length_c   17.13476200
_cell_angle_alpha   90.00000000
_cell_angle_beta   90.00000000
_cell_angle_gamma   119.99999327
_symmetry_Int_Tables_number   1
_chemical_formula_structural   Sn9Pd13
_chemical_formula_sum   'Sn27 Pd39'
_cell_volume   1198.07674845
_cell_formula_units_Z   3
loop_
 _symmetry_equiv_pos_site_id
 _symmetry_equiv_pos_as_xyz
  1  'x, y, z'
loop_
 _atom_site_type_symbol
 _atom_site_label
 _atom_site_symmetry_multiplicity
 _atom_site_fract_x
 _atom_site_fract_y
 _atom_site_fract_z
 _atom_site_occupancy
  Sn  Sn0  1  0.19286900  0.30691000  0.58175800  1
  Sn  Sn1  1  0.69309000  0.88595900  0.91509200  1
  Sn  Sn2  1  0.30691000  0.19286900  0.41824200  1
  Sn  Sn3  1  0.11404100  0.80713100  0.24842500  1
  Sn  Sn4  1  0.88595900  0.69309000  0.08490800  1
  Sn  Sn5  1  0.80713100  0.11404100  0.75157500  1
  Sn  Sn6  1  0.61575300  0.30576400  0.57806400  1
  Sn  Sn7  1  0.69423600  0.30998900  0.91139700  1
  Sn  Sn8  1  0.30576400  0.61575300  0.42193600  1
  Sn  Sn9  1  0.69001100  0.38424700  0.24473100  1
  Sn  Sn10  1  0.30998900  0.69423600  0.08860300  1
  Sn  Sn11  1  0.38424700  0.69001100  0.75526900  1
  Sn  Sn12  1  0.49695400  0.00000000  0.33333300  1
  Sn  Sn13  1  0.00000000  0.49695400  0.66666700  1
  Sn  Sn14  1  0.50304600  0.50304600  0.00000000  1
  Sn  Sn15  1  0.11608600  0.31049800  0.91081400  1
  Sn  Sn16  1  0.68950200  0.80558800  0.24414800  1
  Sn  Sn17  1  0.31049800  0.11608600  0.08918600  1
  Sn  Sn18  1  0.19441200  0.88391400  0.57748100  1
  Sn  Sn19  1  0.80558800  0.68950200  0.75585200  1
  Sn  Sn20  1  0.88391400  0.19441200  0.42251900  1
  Sn  Sn21  1  0.33538500  0.16797000  0.75337200  1
  Sn  Sn22  1  0.83203000  0.16741500  0.08670600  1
  Sn  Sn23  1  0.16797000  0.33538500  0.24662800  1
  Sn  Sn24  1  0.83258500  0.66461500  0.42003900  1
  Sn  Sn25  1  0.16741500  0.83203000  0.91329400  1
  Sn  Sn26  1  0.66461500  0.83258500  0.57996100  1
  Pd  Pd27  1  0.15984500  0.33796600  0.74821600  1
  Pd  Pd28  1  0.66203400  0.82187900  0.08154900  1
  Pd  Pd29  1  0.33796600  0.15984500  0.25178400  1
  Pd  Pd30  1  0.17812100  0.84015500  0.41488200  1
  Pd  Pd31  1  0.82187900  0.66203400  0.91845100  1
  Pd  Pd32  1  0.84015500  0.17812100  0.58511800  1
  Pd  Pd33  1  0.49532700  0.00000000  0.83333300  1
  Pd  Pd34  1  0.00000000  0.49532700  0.16666700  1
  Pd  Pd35  1  0.50467300  0.50467300  0.50000000  1
  Pd  Pd36  1  0.33861800  0.17877000  0.92506900  1
  Pd  Pd37  1  0.82123000  0.15984800  0.25840200  1
  Pd  Pd38  1  0.17877000  0.33861800  0.07493100  1
  Pd  Pd39  1  0.84015200  0.66138200  0.59173600  1
  Pd  Pd40  1  0.15984800  0.82123000  0.74159800  1
  Pd  Pd41  1  0.66138200  0.84015200  0.40826400  1
  Pd  Pd42  1  0.00204000  0.00000000  0.83333300  1
  Pd  Pd43  1  0.00000000  0.00204000  0.16666700  1
  Pd  Pd44  1  0.99796000  0.99796000  0.50000000  1
  Pd  Pd45  1  0.50058600  0.00022300  0.66632800  1
  Pd  Pd46  1  0.99977700  0.50036300  0.99966200  1
  Pd  Pd47  1  0.00022300  0.50058600  0.33367200  1
  Pd  Pd48  1  0.49963700  0.49941400  0.33299500  1
  Pd  Pd49  1  0.50036300  0.99977700  0.00033800  1
  Pd  Pd50  1  0.49941400  0.49963700  0.66700500  1
  Pd  Pd51  1  0.31867300  0.65916900  0.58715300  1
  Pd  Pd52  1  0.34083100  0.65950500  0.92048600  1
  Pd  Pd53  1  0.65916900  0.31867300  0.41284700  1
  Pd  Pd54  1  0.34049500  0.68132700  0.25381900  1
  Pd  Pd55  1  0.65950500  0.34083100  0.07951400  1
  Pd  Pd56  1  0.68132700  0.34049500  0.74618100  1
  Pd  Pd57  1  0.99994500  0.00000000  0.33333300  1
  Pd  Pd58  1  0.00000000  0.99994500  0.66666700  1
  Pd  Pd59  1  0.00005500  0.00005500  0.00000000  1
  Pd  Pd60  1  0.00291000  0.50579800  0.83005100  1
  Pd  Pd61  1  0.49420200  0.49711200  0.16338400  1
  Pd  Pd62  1  0.50579800  0.00291000  0.16994900  1
  Pd  Pd63  1  0.50288800  0.99709000  0.49671800  1
  Pd  Pd64  1  0.49711200  0.49420200  0.83661600  1
  Pd  Pd65  1  0.99709000  0.50288800  0.50328200  1
