# generated using pymatgen
data_TlCr(SO10)2
_symmetry_space_group_name_H-M   'P 1'
_cell_length_a   11.33943900
_cell_length_b   11.33943900
_cell_length_c   11.33943900
_cell_angle_alpha   90.00000000
_cell_angle_beta   90.00000000
_cell_angle_gamma   90.00000000
_symmetry_Int_Tables_number   1
_chemical_formula_structural   TlCr(SO10)2
_chemical_formula_sum   'Tl4 Cr4 S8 O80'
_cell_volume   1458.05768831
_cell_formula_units_Z   4
loop_
 _symmetry_equiv_pos_site_id
 _symmetry_equiv_pos_as_xyz
  1  'x, y, z'
loop_
 _atom_site_type_symbol
 _atom_site_label
 _atom_site_symmetry_multiplicity
 _atom_site_fract_x
 _atom_site_fract_y
 _atom_site_fract_z
 _atom_site_occupancy
  Tl  Tl0  1  0.00000000  0.00000000  0.00000000  1
  Tl  Tl1  1  0.50000000  0.00000000  0.50000000  1
  Tl  Tl2  1  0.00000000  0.50000000  0.50000000  1
  Tl  Tl3  1  0.50000000  0.50000000  0.00000000  1
  Cr  Cr4  1  0.50000000  0.50000000  0.50000000  1
  Cr  Cr5  1  0.00000000  0.50000000  0.00000000  1
  Cr  Cr6  1  0.50000000  0.00000000  0.00000000  1
  Cr  Cr7  1  0.00000000  0.00000000  0.50000000  1
  S  S8  1  0.19810500  0.19810500  0.19810500  1
  S  S9  1  0.80189500  0.80189500  0.80189500  1
  S  S10  1  0.30189500  0.80189500  0.69810500  1
  S  S11  1  0.80189500  0.69810500  0.30189500  1
  S  S12  1  0.69810500  0.19810500  0.30189500  1
  S  S13  1  0.19810500  0.30189500  0.69810500  1
  S  S14  1  0.69810500  0.30189500  0.80189500  1
  S  S15  1  0.30189500  0.69810500  0.19810500  1
  O  O16  1  0.98348800  0.98727600  0.31660500  1
  O  O17  1  0.01651200  0.01272400  0.68339500  1
  O  O18  1  0.51651200  0.01272400  0.81660500  1
  O  O19  1  0.01651200  0.48727600  0.18339500  1
  O  O20  1  0.31660500  0.98348800  0.98727600  1
  O  O21  1  0.48348800  0.98727600  0.18339500  1
  O  O22  1  0.98348800  0.51272400  0.81660500  1
  O  O23  1  0.68339500  0.01651200  0.01272400  1
  O  O24  1  0.48348800  0.51272400  0.68339500  1
  O  O25  1  0.81660500  0.51651200  0.01272400  1
  O  O26  1  0.51651200  0.48727600  0.31660500  1
  O  O27  1  0.18339500  0.48348800  0.98727600  1
  O  O28  1  0.18339500  0.01651200  0.48727600  1
  O  O29  1  0.81660500  0.98348800  0.51272400  1
  O  O30  1  0.68339500  0.48348800  0.51272400  1
  O  O31  1  0.31660500  0.51651200  0.48727600  1
  O  O32  1  0.98727600  0.31660500  0.98348800  1
  O  O33  1  0.01272400  0.68339500  0.01651200  1
  O  O34  1  0.48727600  0.18339500  0.01651200  1
  O  O35  1  0.51272400  0.81660500  0.98348800  1
  O  O36  1  0.51272400  0.68339500  0.48348800  1
  O  O37  1  0.48727600  0.31660500  0.51651200  1
  O  O38  1  0.01272400  0.81660500  0.51651200  1
  O  O39  1  0.98727600  0.18339500  0.48348800  1
  O  O40  1  0.24910400  0.47237200  0.41077100  1
  O  O41  1  0.75089600  0.52762800  0.58922900  1
  O  O42  1  0.25089600  0.52762800  0.91077100  1
  O  O43  1  0.75089600  0.97237200  0.08922900  1
  O  O44  1  0.41077100  0.24910400  0.47237200  1
  O  O45  1  0.74910400  0.47237200  0.08922900  1
  O  O46  1  0.24910400  0.02762800  0.91077100  1
  O  O47  1  0.58922900  0.75089600  0.52762800  1
  O  O48  1  0.74910400  0.02762800  0.58922900  1
  O  O49  1  0.91077100  0.25089600  0.52762800  1
  O  O50  1  0.25089600  0.97237200  0.41077100  1
  O  O51  1  0.08922900  0.74910400  0.47237200  1
  O  O52  1  0.08922900  0.75089600  0.97237200  1
  O  O53  1  0.91077100  0.24910400  0.02762800  1
  O  O54  1  0.58922900  0.74910400  0.02762800  1
  O  O55  1  0.41077100  0.25089600  0.97237200  1
  O  O56  1  0.47237200  0.41077100  0.24910400  1
  O  O57  1  0.52762800  0.58922900  0.75089600  1
  O  O58  1  0.97237200  0.08922900  0.75089600  1
  O  O59  1  0.02762800  0.91077100  0.24910400  1
  O  O60  1  0.02762800  0.58922900  0.74910400  1
  O  O61  1  0.97237200  0.41077100  0.25089600  1
  O  O62  1  0.52762800  0.91077100  0.25089600  1
  O  O63  1  0.47237200  0.08922900  0.74910400  1
  O  O64  1  0.07515100  0.19527800  0.24473000  1
  O  O65  1  0.92484900  0.80472200  0.75527000  1
  O  O66  1  0.42484900  0.80472200  0.74473000  1
  O  O67  1  0.92484900  0.69527800  0.25527000  1
  O  O68  1  0.24473000  0.07515100  0.19527800  1
  O  O69  1  0.57515100  0.19527800  0.25527000  1
  O  O70  1  0.07515100  0.30472200  0.74473000  1
  O  O71  1  0.75527000  0.92484900  0.80472200  1
  O  O72  1  0.57515100  0.30472200  0.75527000  1
  O  O73  1  0.74473000  0.42484900  0.80472200  1
  O  O74  1  0.42484900  0.69527800  0.24473000  1
  O  O75  1  0.25527000  0.57515100  0.19527800  1
  O  O76  1  0.25527000  0.92484900  0.69527800  1
  O  O77  1  0.74473000  0.07515100  0.30472200  1
  O  O78  1  0.75527000  0.57515100  0.30472200  1
  O  O79  1  0.24473000  0.42484900  0.69527800  1
  O  O80  1  0.19527800  0.24473000  0.07515100  1
  O  O81  1  0.80472200  0.75527000  0.92484900  1
  O  O82  1  0.69527800  0.25527000  0.92484900  1
  O  O83  1  0.30472200  0.74473000  0.07515100  1
  O  O84  1  0.30472200  0.75527000  0.57515100  1
  O  O85  1  0.69527800  0.24473000  0.42484900  1
  O  O86  1  0.80472200  0.74473000  0.42484900  1
  O  O87  1  0.19527800  0.25527000  0.57515100  1
  O  O88  1  0.27347900  0.27347900  0.27347900  1
  O  O89  1  0.72652100  0.72652100  0.72652100  1
  O  O90  1  0.22652100  0.72652100  0.77347900  1
  O  O91  1  0.72652100  0.77347900  0.22652100  1
  O  O92  1  0.77347900  0.27347900  0.22652100  1
  O  O93  1  0.27347900  0.22652100  0.77347900  1
  O  O94  1  0.77347900  0.22652100  0.72652100  1
  O  O95  1  0.22652100  0.77347900  0.27347900  1
