# generated using pymatgen
data_Sc3(NbSi2)2
_symmetry_space_group_name_H-M   'P 1'
_cell_length_a   6.73998400
_cell_length_b   6.98747800
_cell_length_c   13.16658100
_cell_angle_alpha   90.00000000
_cell_angle_beta   90.00000000
_cell_angle_gamma   90.00000000
_symmetry_Int_Tables_number   1
_chemical_formula_structural   Sc3(NbSi2)2
_chemical_formula_sum   'Sc12 Nb8 Si16'
_cell_volume   620.08658277
_cell_formula_units_Z   4
loop_
 _symmetry_equiv_pos_site_id
 _symmetry_equiv_pos_as_xyz
  1  'x, y, z'
loop_
 _atom_site_type_symbol
 _atom_site_label
 _atom_site_symmetry_multiplicity
 _atom_site_fract_x
 _atom_site_fract_y
 _atom_site_fract_z
 _atom_site_occupancy
  Sc  Sc0  1  0.15840800  0.50577400  0.75000000  1
  Sc  Sc1  1  0.84159200  0.49422600  0.25000000  1
  Sc  Sc2  1  0.34159200  0.00577400  0.25000000  1
  Sc  Sc3  1  0.65840800  0.99422600  0.75000000  1
  Sc  Sc4  1  0.33736300  0.17397700  0.62527100  1
  Sc  Sc5  1  0.66263700  0.82602300  0.37472900  1
  Sc  Sc6  1  0.16263700  0.67397700  0.37472900  1
  Sc  Sc7  1  0.66263700  0.82602300  0.12527100  1
  Sc  Sc8  1  0.83736300  0.32602300  0.62527100  1
  Sc  Sc9  1  0.33736300  0.17397700  0.87472900  1
  Sc  Sc10  1  0.83736300  0.32602300  0.87472900  1
  Sc  Sc11  1  0.16263700  0.67397700  0.12527100  1
  Nb  Nb12  1  0.00530600  0.18027100  0.09714100  1
  Nb  Nb13  1  0.99469400  0.81972900  0.90285900  1
  Nb  Nb14  1  0.49469400  0.68027100  0.90285900  1
  Nb  Nb15  1  0.99469400  0.81972900  0.59714100  1
  Nb  Nb16  1  0.50530600  0.31972900  0.09714100  1
  Nb  Nb17  1  0.00530600  0.18027100  0.40285900  1
  Nb  Nb18  1  0.50530600  0.31972900  0.40285900  1
  Nb  Nb19  1  0.49469400  0.68027100  0.59714100  1
  Si  Si20  1  0.03295400  0.09277900  0.75000000  1
  Si  Si21  1  0.96704600  0.90722100  0.25000000  1
  Si  Si22  1  0.46704600  0.59277900  0.25000000  1
  Si  Si23  1  0.53295400  0.40722100  0.75000000  1
  Si  Si24  1  0.28836700  0.85889700  0.75000000  1
  Si  Si25  1  0.71163300  0.14110300  0.25000000  1
  Si  Si26  1  0.21163300  0.35889700  0.25000000  1
  Si  Si27  1  0.78836700  0.64110300  0.75000000  1
  Si  Si28  1  0.17441000  0.46670100  0.53756300  1
  Si  Si29  1  0.82559000  0.53329900  0.46243700  1
  Si  Si30  1  0.32559000  0.96670100  0.46243700  1
  Si  Si31  1  0.82559000  0.53329900  0.03756300  1
  Si  Si32  1  0.67441000  0.03329900  0.53756300  1
  Si  Si33  1  0.17441000  0.46670100  0.96243700  1
  Si  Si34  1  0.67441000  0.03329900  0.96243700  1
  Si  Si35  1  0.32559000  0.96670100  0.03756300  1
