# generated using pymatgen
data_Rh2WO6
_symmetry_space_group_name_H-M   'P 1'
_cell_length_a   4.62791300
_cell_length_b   4.62791300
_cell_length_c   9.47933800
_cell_angle_alpha   90.00000000
_cell_angle_beta   90.00000000
_cell_angle_gamma   90.00000000
_symmetry_Int_Tables_number   1
_chemical_formula_structural   Rh2WO6
_chemical_formula_sum   'Rh4 W2 O12'
_cell_volume   203.02446798
_cell_formula_units_Z   2
loop_
 _symmetry_equiv_pos_site_id
 _symmetry_equiv_pos_as_xyz
  1  'x, y, z'
loop_
 _atom_site_type_symbol
 _atom_site_label
 _atom_site_symmetry_multiplicity
 _atom_site_fract_x
 _atom_site_fract_y
 _atom_site_fract_z
 _atom_site_occupancy
  Rh  Rh0  1  0.00000000  0.00000000  0.33194200  1
  Rh  Rh1  1  0.00000000  0.00000000  0.66805800  1
  Rh  Rh2  1  0.50000000  0.50000000  0.83194200  1
  Rh  Rh3  1  0.50000000  0.50000000  0.16805800  1
  W  W4  1  0.00000000  0.00000000  0.00000000  1
  W  W5  1  0.50000000  0.50000000  0.50000000  1
  O  O6  1  0.30255800  0.30255800  0.00000000  1
  O  O7  1  0.69744200  0.69744200  0.00000000  1
  O  O8  1  0.19744200  0.80255800  0.50000000  1
  O  O9  1  0.80255800  0.19744200  0.50000000  1
  O  O10  1  0.30573800  0.30573800  0.33508300  1
  O  O11  1  0.69426200  0.69426200  0.66491700  1
  O  O12  1  0.69426200  0.69426200  0.33508300  1
  O  O13  1  0.19426200  0.80573800  0.83508300  1
  O  O14  1  0.19426200  0.80573800  0.16491700  1
  O  O15  1  0.30573800  0.30573800  0.66491700  1
  O  O16  1  0.80573800  0.19426200  0.16491700  1
  O  O17  1  0.80573800  0.19426200  0.83508300  1
