# generated using pymatgen
data_Sc5Si4
_symmetry_space_group_name_H-M   'P 1'
_cell_length_a   7.02952400
_cell_length_b   7.14176500
_cell_length_c   13.64316600
_cell_angle_alpha   90.00000000
_cell_angle_beta   90.00000000
_cell_angle_gamma   90.00000000
_symmetry_Int_Tables_number   1
_chemical_formula_structural   Sc5Si4
_chemical_formula_sum   'Sc20 Si16'
_cell_volume   684.93070689
_cell_formula_units_Z   4
loop_
 _symmetry_equiv_pos_site_id
 _symmetry_equiv_pos_as_xyz
  1  'x, y, z'
loop_
 _atom_site_type_symbol
 _atom_site_label
 _atom_site_symmetry_multiplicity
 _atom_site_fract_x
 _atom_site_fract_y
 _atom_site_fract_z
 _atom_site_occupancy
  Sc  Sc0  1  0.20797100  0.00142200  0.75000000  1
  Sc  Sc1  1  0.79202900  0.99857800  0.25000000  1
  Sc  Sc2  1  0.29202900  0.50142200  0.25000000  1
  Sc  Sc3  1  0.70797100  0.49857800  0.75000000  1
  Sc  Sc4  1  0.02358400  0.67909200  0.59934800  1
  Sc  Sc5  1  0.97641600  0.32090800  0.40065200  1
  Sc  Sc6  1  0.47641600  0.17909200  0.40065200  1
  Sc  Sc7  1  0.97641600  0.32090800  0.09934800  1
  Sc  Sc8  1  0.52358400  0.82090800  0.59934800  1
  Sc  Sc9  1  0.02358400  0.67909200  0.90065200  1
  Sc  Sc10  1  0.52358400  0.82090800  0.90065200  1
  Sc  Sc11  1  0.47641600  0.17909200  0.09934800  1
  Sc  Sc12  1  0.37603200  0.33137500  0.62108100  1
  Sc  Sc13  1  0.62396800  0.66862500  0.37891900  1
  Sc  Sc14  1  0.12396800  0.83137500  0.37891900  1
  Sc  Sc15  1  0.62396800  0.66862500  0.12108100  1
  Sc  Sc16  1  0.87603200  0.16862500  0.62108100  1
  Sc  Sc17  1  0.37603200  0.33137500  0.87891900  1
  Sc  Sc18  1  0.87603200  0.16862500  0.87891900  1
  Sc  Sc19  1  0.12396800  0.83137500  0.12108100  1
  Si  Si20  1  0.08076900  0.38960200  0.75000000  1
  Si  Si21  1  0.91923100  0.61039800  0.25000000  1
  Si  Si22  1  0.41923100  0.88960200  0.25000000  1
  Si  Si23  1  0.58076900  0.11039800  0.75000000  1
  Si  Si24  1  0.32602200  0.63403100  0.75000000  1
  Si  Si25  1  0.67397800  0.36596900  0.25000000  1
  Si  Si26  1  0.17397800  0.13403100  0.25000000  1
  Si  Si27  1  0.82602200  0.86596900  0.75000000  1
  Si  Si28  1  0.20895100  0.03295100  0.54119700  1
  Si  Si29  1  0.79104900  0.96704900  0.45880300  1
  Si  Si30  1  0.29104900  0.53295100  0.45880300  1
  Si  Si31  1  0.79104900  0.96704900  0.04119700  1
  Si  Si32  1  0.70895100  0.46704900  0.54119700  1
  Si  Si33  1  0.20895100  0.03295100  0.95880300  1
  Si  Si34  1  0.70895100  0.46704900  0.95880300  1
  Si  Si35  1  0.29104900  0.53295100  0.04119700  1
