# generated using pymatgen
data_Sm(SeO4)2
_symmetry_space_group_name_H-M   'P 1'
_cell_length_a   6.59712400
_cell_length_b   7.15670400
_cell_length_c   16.15606100
_cell_angle_alpha   90.00000000
_cell_angle_beta   90.00000000
_cell_angle_gamma   90.00000000
_symmetry_Int_Tables_number   1
_chemical_formula_structural   Sm(SeO4)2
_chemical_formula_sum   'Sm4 Se8 O32'
_cell_volume   762.78683108
_cell_formula_units_Z   4
loop_
 _symmetry_equiv_pos_site_id
 _symmetry_equiv_pos_as_xyz
  1  'x, y, z'
loop_
 _atom_site_type_symbol
 _atom_site_label
 _atom_site_symmetry_multiplicity
 _atom_site_fract_x
 _atom_site_fract_y
 _atom_site_fract_z
 _atom_site_occupancy
  Sm  Sm0  1  0.11802300  0.40437200  0.22360200  1
  Sm  Sm1  1  0.38197700  0.59562800  0.72360200  1
  Sm  Sm2  1  0.88197700  0.90437200  0.27639800  1
  Sm  Sm3  1  0.61802300  0.09562800  0.77639800  1
  Se  Se4  1  0.14388700  0.11568400  0.71674600  1
  Se  Se5  1  0.35611300  0.88431600  0.21674600  1
  Se  Se6  1  0.85611300  0.61568400  0.78325400  1
  Se  Se7  1  0.64388700  0.38431600  0.28325400  1
  Se  Se8  1  0.13505900  0.22225000  0.44249100  1
  Se  Se9  1  0.36494100  0.77775000  0.94249100  1
  Se  Se10  1  0.86494100  0.72225000  0.05750900  1
  Se  Se11  1  0.63505900  0.27775000  0.55750900  1
  O  O12  1  0.19234600  0.07361700  0.22970000  1
  O  O13  1  0.30765400  0.92638300  0.72970000  1
  O  O14  1  0.80765400  0.57361700  0.27030000  1
  O  O15  1  0.69234600  0.42638300  0.77030000  1
  O  O16  1  0.46992000  0.40888500  0.20662000  1
  O  O17  1  0.03008000  0.59111500  0.70662000  1
  O  O18  1  0.53008000  0.90888500  0.29338000  1
  O  O19  1  0.96992000  0.09111500  0.79338000  1
  O  O20  1  0.99652800  0.29320300  0.52529000  1
  O  O21  1  0.50347200  0.70679700  0.02529000  1
  O  O22  1  0.00347200  0.79320300  0.97471000  1
  O  O23  1  0.49652800  0.20679700  0.47471000  1
  O  O24  1  0.18505700  0.72221200  0.25929300  1
  O  O25  1  0.31494300  0.27778800  0.75929300  1
  O  O26  1  0.81494300  0.22221200  0.24070700  1
  O  O27  1  0.68505700  0.77778800  0.74070700  1
  O  O28  1  0.99803600  0.54517000  0.10071200  1
  O  O29  1  0.50196400  0.45483000  0.60071200  1
  O  O30  1  0.00196400  0.04517000  0.39928800  1
  O  O31  1  0.49803600  0.95483000  0.89928800  1
  O  O32  1  0.12346900  0.17858100  0.03919500  1
  O  O33  1  0.37653100  0.82141900  0.53919500  1
  O  O34  1  0.87653100  0.67858100  0.46080500  1
  O  O35  1  0.62346900  0.32141900  0.96080500  1
  O  O36  1  0.15811200  0.39208300  0.37057800  1
  O  O37  1  0.34188800  0.60791700  0.87057800  1
  O  O38  1  0.84188800  0.89208300  0.12942200  1
  O  O39  1  0.65811200  0.10791700  0.62942200  1
  O  O40  1  0.61063300  0.23512400  0.02647800  1
  O  O41  1  0.88936700  0.76487600  0.52647800  1
  O  O42  1  0.38936700  0.73512400  0.47352200  1
  O  O43  1  0.11063300  0.26487600  0.97352200  1
