# generated using pymatgen
data_Sr2Al4Fe3P4(H2O13)2
_symmetry_space_group_name_H-M   'P 1'
_cell_length_a   5.37404466
_cell_length_b   9.26713126
_cell_length_c   9.87883305
_cell_angle_alpha   110.00841260
_cell_angle_beta   91.24399776
_cell_angle_gamma   97.92019833
_symmetry_Int_Tables_number   1
_chemical_formula_structural   Sr2Al4Fe3P4(H2O13)2
_chemical_formula_sum   'Sr2 Al4 Fe3 P4 H4 O26'
_cell_volume   456.62561620
_cell_formula_units_Z   1
loop_
 _symmetry_equiv_pos_site_id
 _symmetry_equiv_pos_as_xyz
  1  'x, y, z'
loop_
 _atom_site_type_symbol
 _atom_site_label
 _atom_site_symmetry_multiplicity
 _atom_site_fract_x
 _atom_site_fract_y
 _atom_site_fract_z
 _atom_site_occupancy
  Sr  Sr0  1  0.12387100  0.26442100  0.41146400  1
  Sr  Sr1  1  0.87612900  0.73558000  0.58853600  1
  Al  Al2  1  0.51242400  0.07167700  0.15888300  1
  Al  Al3  1  0.48757600  0.92832300  0.84111700  1
  Al  Al4  1  0.50000000  0.00000000  0.50000000  1
  Al  Al5  1  0.50000000  0.50000000  0.00000000  1
  Fe  Fe6  1  0.00000000  0.00000000  0.00000000  1
  Fe  Fe7  1  0.24045000  0.63183900  0.28178700  1
  Fe  Fe8  1  0.75955000  0.36816100  0.71821300  1
  P  P9  1  0.69362000  0.42806400  0.26976000  1
  P  P10  1  0.30638000  0.57193600  0.73024000  1
  P  P11  1  0.22319200  0.17766600  0.76185300  1
  P  P12  1  0.77680800  0.82233400  0.23814700  1
  H  H13  1  0.23871600  0.93279600  0.27716400  1
  H  H14  1  0.76128400  0.06720400  0.72283600  1
  H  H15  1  0.05232300  0.40780300  0.03882300  1
  H  H16  1  0.94767700  0.59219700  0.96117700  1
  O  O17  1  0.69032100  0.41916300  0.11261500  1
  O  O18  1  0.30967900  0.58083700  0.88738500  1
  O  O19  1  0.53943600  0.69914400  0.16599200  1
  O  O20  1  0.46056400  0.30085600  0.83400800  1
  O  O21  1  0.21608500  0.46015900  0.08996600  1
  O  O22  1  0.78391500  0.53984100  0.91003400  1
  O  O23  1  0.71756500  0.19056600  0.54532200  1
  O  O24  1  0.28243500  0.80943400  0.45467800  1
  O  O25  1  0.04714000  0.48314900  0.64650400  1
  O  O26  1  0.95286000  0.51685100  0.35349600  1
  O  O27  1  0.21283400  0.03893000  0.82054700  1
  O  O28  1  0.78716600  0.96107000  0.17945300  1
  O  O29  1  0.30519200  0.91038800  0.00643700  1
  O  O30  1  0.69480800  0.08961200  0.99356300  1
  O  O31  1  0.68056900  0.26309400  0.28156100  1
  O  O32  1  0.31943100  0.73690600  0.71843900  1
  O  O33  1  0.01856800  0.75193000  0.19829500  1
  O  O34  1  0.98143200  0.24807000  0.80170500  1
  O  O35  1  0.48403200  0.51196500  0.35415200  1
  O  O36  1  0.51596800  0.48803500  0.64584800  1
  O  O37  1  0.22233400  0.15900300  0.13554400  1
  O  O38  1  0.77766600  0.84099700  0.86445600  1
  O  O39  1  0.37015400  0.02461000  0.32067100  1
  O  O40  1  0.62984600  0.97539000  0.67932900  1
  O  O41  1  0.24249200  0.11614700  0.59712700  1
  O  O42  1  0.75750800  0.88385300  0.40287300  1
