# generated using pymatgen
data_Sc2Be17
_symmetry_space_group_name_H-M   'P 1'
_cell_length_a   7.52152995
_cell_length_b   7.52152995
_cell_length_c   7.32840900
_cell_angle_alpha   90.00000000
_cell_angle_beta   90.00000000
_cell_angle_gamma   119.99999958
_symmetry_Int_Tables_number   1
_chemical_formula_structural   Sc2Be17
_chemical_formula_sum   'Sc4 Be34'
_cell_volume   359.04816500
_cell_formula_units_Z   2
loop_
 _symmetry_equiv_pos_site_id
 _symmetry_equiv_pos_as_xyz
  1  'x, y, z'
loop_
 _atom_site_type_symbol
 _atom_site_label
 _atom_site_symmetry_multiplicity
 _atom_site_fract_x
 _atom_site_fract_y
 _atom_site_fract_z
 _atom_site_occupancy
  Sc  Sc0  1  0.00000000  0.00000000  0.25000000  1
  Sc  Sc1  1  0.00000000  0.00000000  0.75000000  1
  Sc  Sc2  1  0.33333300  0.66666700  0.25000000  1
  Sc  Sc3  1  0.66666700  0.33333300  0.75000000  1
  Be  Be4  1  0.16619400  0.33238800  0.01152000  1
  Be  Be5  1  0.83380600  0.66761200  0.98848000  1
  Be  Be6  1  0.66761200  0.83380600  0.01152000  1
  Be  Be7  1  0.83380600  0.66761200  0.51152000  1
  Be  Be8  1  0.33238800  0.16619400  0.98848000  1
  Be  Be9  1  0.16619400  0.33238800  0.48848000  1
  Be  Be10  1  0.16619400  0.83380600  0.01152000  1
  Be  Be11  1  0.33238800  0.16619400  0.51152000  1
  Be  Be12  1  0.83380600  0.16619400  0.98848000  1
  Be  Be13  1  0.66761200  0.83380600  0.48848000  1
  Be  Be14  1  0.83380600  0.16619400  0.51152000  1
  Be  Be15  1  0.16619400  0.83380600  0.48848000  1
  Be  Be16  1  0.33333300  0.66666700  0.60516800  1
  Be  Be17  1  0.66666700  0.33333300  0.39483200  1
  Be  Be18  1  0.66666700  0.33333300  0.10516800  1
  Be  Be19  1  0.33333300  0.66666700  0.89483200  1
  Be  Be20  1  0.95321400  0.33146700  0.25000000  1
  Be  Be21  1  0.04678600  0.66853300  0.75000000  1
  Be  Be22  1  0.66853300  0.62174600  0.25000000  1
  Be  Be23  1  0.33146700  0.95321400  0.75000000  1
  Be  Be24  1  0.33146700  0.37825400  0.75000000  1
  Be  Be25  1  0.66853300  0.04678600  0.25000000  1
  Be  Be26  1  0.37825400  0.04678600  0.25000000  1
  Be  Be27  1  0.62174600  0.66853300  0.75000000  1
  Be  Be28  1  0.62174600  0.95321400  0.75000000  1
  Be  Be29  1  0.37825400  0.33146700  0.25000000  1
  Be  Be30  1  0.04678600  0.37825400  0.75000000  1
  Be  Be31  1  0.95321400  0.62174600  0.25000000  1
  Be  Be32  1  0.50000000  0.00000000  0.00000000  1
  Be  Be33  1  0.00000000  0.50000000  0.00000000  1
  Be  Be34  1  0.50000000  0.00000000  0.50000000  1
  Be  Be35  1  0.50000000  0.50000000  0.00000000  1
  Be  Be36  1  0.00000000  0.50000000  0.50000000  1
  Be  Be37  1  0.50000000  0.50000000  0.50000000  1
