# generated using pymatgen
data_Sn3IF5
_symmetry_space_group_name_H-M   'P 1'
_cell_length_a   13.18936300
_cell_length_b   4.34173400
_cell_length_c   13.95069346
_cell_angle_alpha   72.14721850
_cell_angle_beta   90.00000000
_cell_angle_gamma   90.00000000
_symmetry_Int_Tables_number   1
_chemical_formula_structural   Sn3IF5
_chemical_formula_sum   'Sn12 I4 F20'
_cell_volume   760.41407673
_cell_formula_units_Z   4
loop_
 _symmetry_equiv_pos_site_id
 _symmetry_equiv_pos_as_xyz
  1  'x, y, z'
loop_
 _atom_site_type_symbol
 _atom_site_label
 _atom_site_symmetry_multiplicity
 _atom_site_fract_x
 _atom_site_fract_y
 _atom_site_fract_z
 _atom_site_occupancy
  Sn  Sn0  1  0.65641900  0.20461400  0.86899400  1
  Sn  Sn1  1  0.34358100  0.79538600  0.13100600  1
  Sn  Sn2  1  0.15641900  0.79538600  0.63100600  1
  Sn  Sn3  1  0.84358100  0.20461400  0.36899400  1
  Sn  Sn4  1  0.37971000  0.77761900  0.84978400  1
  Sn  Sn5  1  0.62029000  0.22238100  0.15021600  1
  Sn  Sn6  1  0.87971000  0.22238100  0.65021600  1
  Sn  Sn7  1  0.12029000  0.77761900  0.34978400  1
  Sn  Sn8  1  0.11015600  0.16503900  0.89409200  1
  Sn  Sn9  1  0.88984400  0.83496100  0.10590800  1
  Sn  Sn10  1  0.61015600  0.83496100  0.60590800  1
  Sn  Sn11  1  0.38984400  0.16503900  0.39409200  1
  I  I12  1  0.38108400  0.39037400  0.62036000  1
  I  I13  1  0.61891600  0.60962600  0.37964000  1
  I  I14  1  0.88108400  0.60962600  0.87964000  1
  I  I15  1  0.11891600  0.39037400  0.12036000  1
  F  F16  1  0.11996700  0.56057300  0.51424000  1
  F  F17  1  0.88003300  0.43942700  0.48576000  1
  F  F18  1  0.61996700  0.43942700  0.98576000  1
  F  F19  1  0.38003300  0.56057300  0.01424000  1
  F  F20  1  0.27964400  0.11981300  0.89514200  1
  F  F21  1  0.72035600  0.88018700  0.10485800  1
  F  F22  1  0.77964400  0.88018700  0.60485800  1
  F  F23  1  0.22035600  0.11981300  0.39514200  1
  F  F24  1  0.10546400  0.31012500  0.72464300  1
  F  F25  1  0.89453600  0.68987500  0.27535700  1
  F  F26  1  0.60546400  0.68987500  0.77535700  1
  F  F27  1  0.39453600  0.31012500  0.22464300  1
  F  F28  1  0.16174600  0.67614700  0.84004600  1
  F  F29  1  0.83825400  0.32385300  0.15995400  1
  F  F30  1  0.66174600  0.32385300  0.65995400  1
  F  F31  1  0.33825400  0.67614700  0.34004600  1
  F  F32  1  0.49137400  0.11860800  0.87801400  1
  F  F33  1  0.50862600  0.88139200  0.12198600  1
  F  F34  1  0.99137400  0.88139200  0.62198600  1
  F  F35  1  0.00862600  0.11860800  0.37801400  1
