# generated using pymatgen
data_ScS2NO8
_symmetry_space_group_name_H-M   'P 1'
_cell_length_a   5.08206801
_cell_length_b   5.08206801
_cell_length_c   8.64817000
_cell_angle_alpha   90.00000000
_cell_angle_beta   90.00000000
_cell_angle_gamma   120.00000009
_symmetry_Int_Tables_number   1
_chemical_formula_structural   ScS2NO8
_chemical_formula_sum   'Sc1 S2 N1 O8'
_cell_volume   193.43532797
_cell_formula_units_Z   1
loop_
 _symmetry_equiv_pos_site_id
 _symmetry_equiv_pos_as_xyz
  1  'x, y, z'
loop_
 _atom_site_type_symbol
 _atom_site_label
 _atom_site_symmetry_multiplicity
 _atom_site_fract_x
 _atom_site_fract_y
 _atom_site_fract_z
 _atom_site_occupancy
  Sc  Sc0  1  0.00000000  0.00000000  0.00000000  1
  S  S1  1  0.33333300  0.66666700  0.21093800  1
  S  S2  1  0.66666700  0.33333300  0.78906200  1
  N  N3  1  0.00000000  0.00000000  0.50000000  1
  O  O4  1  0.09457100  0.36623300  0.14861200  1
  O  O5  1  0.63376700  0.72833700  0.14861200  1
  O  O6  1  0.36623300  0.09457100  0.85138800  1
  O  O7  1  0.27166300  0.90542900  0.14861200  1
  O  O8  1  0.72833700  0.63376700  0.85138800  1
  O  O9  1  0.90542900  0.27166300  0.85138800  1
  O  O10  1  0.33333300  0.66666700  0.37844700  1
  O  O11  1  0.66666700  0.33333300  0.62155300  1
