# generated using pymatgen
data_RbYbZnTe3
_symmetry_space_group_name_H-M   'P 1'
_cell_length_a   8.80915147
_cell_length_b   8.80915147
_cell_length_c   11.75148200
_cell_angle_alpha   90.00000000
_cell_angle_beta   90.00000000
_cell_angle_gamma   151.92776862
_symmetry_Int_Tables_number   1
_chemical_formula_structural   RbYbZnTe3
_chemical_formula_sum   'Rb2 Yb2 Zn2 Te6'
_cell_volume   429.13924114
_cell_formula_units_Z   2
loop_
 _symmetry_equiv_pos_site_id
 _symmetry_equiv_pos_as_xyz
  1  'x, y, z'
loop_
 _atom_site_type_symbol
 _atom_site_label
 _atom_site_symmetry_multiplicity
 _atom_site_fract_x
 _atom_site_fract_y
 _atom_site_fract_z
 _atom_site_occupancy
  Rb  Rb0  1  0.25453000  0.74547000  0.25000000  1
  Rb  Rb1  1  0.74547000  0.25453000  0.75000000  1
  Yb  Yb2  1  0.00000000  0.00000000  0.00000000  1
  Yb  Yb3  1  0.00000000  0.00000000  0.50000000  1
  Zn  Zn4  1  0.53770300  0.46229700  0.25000000  1
  Zn  Zn5  1  0.46229700  0.53770300  0.75000000  1
  Te  Te6  1  0.62690500  0.37309500  0.06377900  1
  Te  Te7  1  0.37309500  0.62690500  0.93622100  1
  Te  Te8  1  0.37309500  0.62690500  0.56377900  1
  Te  Te9  1  0.62690500  0.37309500  0.43622100  1
  Te  Te10  1  0.93785900  0.06214100  0.25000000  1
  Te  Te11  1  0.06214100  0.93785900  0.75000000  1
