# generated using pymatgen
data_RbYbBeF6
_symmetry_space_group_name_H-M   'P 1'
_cell_length_a   6.09499100
_cell_length_b   6.47975000
_cell_length_c   7.30612532
_cell_angle_alpha   67.41836195
_cell_angle_beta   90.00000000
_cell_angle_gamma   90.00000000
_symmetry_Int_Tables_number   1
_chemical_formula_structural   RbYbBeF6
_chemical_formula_sum   'Rb2 Yb2 Be2 F12'
_cell_volume   266.42621054
_cell_formula_units_Z   2
loop_
 _symmetry_equiv_pos_site_id
 _symmetry_equiv_pos_as_xyz
  1  'x, y, z'
loop_
 _atom_site_type_symbol
 _atom_site_label
 _atom_site_symmetry_multiplicity
 _atom_site_fract_x
 _atom_site_fract_y
 _atom_site_fract_z
 _atom_site_occupancy
  Rb  Rb0  1  0.25000000  0.08213200  0.77061700  1
  Rb  Rb1  1  0.75000000  0.91786800  0.22938300  1
  Yb  Yb2  1  0.25000000  0.35658100  0.22251300  1
  Yb  Yb3  1  0.75000000  0.64341900  0.77748700  1
  Be  Be4  1  0.25000000  0.76797800  0.46138500  1
  Be  Be5  1  0.75000000  0.23202200  0.53861500  1
  F  F6  1  0.45755900  0.77242300  0.58387000  1
  F  F7  1  0.54244100  0.22757700  0.41613000  1
  F  F8  1  0.95755900  0.22757700  0.41613000  1
  F  F9  1  0.04244100  0.77242300  0.58387000  1
  F  F10  1  0.25000000  0.56137600  0.40467400  1
  F  F11  1  0.75000000  0.43862400  0.59532600  1
  F  F12  1  0.49742900  0.63772500  0.02732700  1
  F  F13  1  0.50257100  0.36227500  0.97267300  1
  F  F14  1  0.99742900  0.36227500  0.97267300  1
  F  F15  1  0.00257100  0.63772500  0.02732700  1
  F  F16  1  0.25000000  0.98566500  0.25857500  1
  F  F17  1  0.75000000  0.01433500  0.74142500  1
