# generated using pymatgen
data_U3P2(PbO8)2
_symmetry_space_group_name_H-M   'P 1'
_cell_length_a   7.03806517
_cell_length_b   6.86425391
_cell_length_c   17.10610400
_cell_angle_alpha   90.00000000
_cell_angle_beta   90.00000000
_cell_angle_gamma   107.66108102
_symmetry_Int_Tables_number   1
_chemical_formula_structural   U3P2(PbO8)2
_chemical_formula_sum   'U6 P4 Pb4 O32'
_cell_volume   787.46339409
_cell_formula_units_Z   2
loop_
 _symmetry_equiv_pos_site_id
 _symmetry_equiv_pos_as_xyz
  1  'x, y, z'
loop_
 _atom_site_type_symbol
 _atom_site_label
 _atom_site_symmetry_multiplicity
 _atom_site_fract_x
 _atom_site_fract_y
 _atom_site_fract_z
 _atom_site_occupancy
  U  U0  1  0.19821300  0.89581200  0.85820800  1
  U  U1  1  0.80178700  0.10418800  0.14179200  1
  U  U2  1  0.80178700  0.10418800  0.35820800  1
  U  U3  1  0.19821300  0.89581200  0.64179200  1
  U  U4  1  0.69977100  0.89576600  0.75000000  1
  U  U5  1  0.30022900  0.10423400  0.25000000  1
  P  P6  1  0.69402300  0.90110200  0.94299300  1
  P  P7  1  0.30597700  0.09889800  0.05700700  1
  P  P8  1  0.30597700  0.09889800  0.44299300  1
  P  P9  1  0.69402300  0.90110200  0.55700700  1
  Pb  Pb10  1  0.60196700  0.38541600  0.89983000  1
  Pb  Pb11  1  0.39803300  0.61458400  0.10017000  1
  Pb  Pb12  1  0.39803300  0.61458400  0.39983000  1
  Pb  Pb13  1  0.60196700  0.38541600  0.60017000  1
  O  O14  1  0.71892400  0.81719200  0.35443300  1
  O  O15  1  0.28107600  0.18280800  0.64556700  1
  O  O16  1  0.28107600  0.18280800  0.85443300  1
  O  O17  1  0.71892400  0.81719200  0.14556700  1
  O  O18  1  0.57307900  0.69265900  0.52156400  1
  O  O19  1  0.42692100  0.30734100  0.47843600  1
  O  O20  1  0.42692100  0.30734100  0.02156400  1
  O  O21  1  0.57307900  0.69265900  0.97843600  1
  O  O22  1  0.01531600  0.88740400  0.75000000  1
  O  O23  1  0.98468400  0.11259600  0.25000000  1
  O  O24  1  0.22188900  0.93355700  0.99557400  1
  O  O25  1  0.77811100  0.06644300  0.00442600  1
  O  O26  1  0.77811100  0.06644300  0.49557400  1
  O  O27  1  0.22188900  0.93355700  0.50442600  1
  O  O28  1  0.61572600  0.61160400  0.75000000  1
  O  O29  1  0.38427400  0.38839600  0.25000000  1
  O  O30  1  0.55852300  0.97720800  0.88500700  1
  O  O31  1  0.44147700  0.02279200  0.11499300  1
  O  O32  1  0.44147700  0.02279200  0.38500700  1
  O  O33  1  0.55852300  0.97720800  0.61499300  1
  O  O34  1  0.13229800  0.62150500  0.87492800  1
  O  O35  1  0.86770200  0.37849500  0.12507200  1
  O  O36  1  0.86770200  0.37849500  0.37492800  1
  O  O37  1  0.13229800  0.62150500  0.62507200  1
  O  O38  1  0.37700200  0.87233500  0.75000000  1
  O  O39  1  0.62299800  0.12766500  0.25000000  1
  O  O40  1  0.85317700  0.86249800  0.88717100  1
  O  O41  1  0.14682300  0.13750200  0.11282900  1
  O  O42  1  0.14682300  0.13750200  0.38717100  1
  O  O43  1  0.85317700  0.86249800  0.61282900  1
  O  O44  1  0.78039400  0.17472900  0.75000000  1
  O  O45  1  0.21960600  0.82527100  0.25000000  1
