# generated using pymatgen
data_Se(OF)2
_symmetry_space_group_name_H-M   'P 1'
_cell_length_a   5.83168500
_cell_length_b   5.83168500
_cell_length_c   11.81126800
_cell_angle_alpha   90.00000000
_cell_angle_beta   90.00000000
_cell_angle_gamma   90.00000000
_symmetry_Int_Tables_number   1
_chemical_formula_structural   Se(OF)2
_chemical_formula_sum   'Se4 O8 F8'
_cell_volume   401.68409762
_cell_formula_units_Z   4
loop_
 _symmetry_equiv_pos_site_id
 _symmetry_equiv_pos_as_xyz
  1  'x, y, z'
loop_
 _atom_site_type_symbol
 _atom_site_label
 _atom_site_symmetry_multiplicity
 _atom_site_fract_x
 _atom_site_fract_y
 _atom_site_fract_z
 _atom_site_occupancy
  Se  Se0  1  0.09349500  0.09349500  0.00000000  1
  Se  Se1  1  0.90650500  0.90650500  0.50000000  1
  Se  Se2  1  0.40650500  0.59349500  0.25000000  1
  Se  Se3  1  0.59349500  0.40650500  0.75000000  1
  O  O4  1  0.33047500  0.03048100  0.06188200  1
  O  O5  1  0.66952500  0.96951900  0.56188200  1
  O  O6  1  0.46951900  0.83047500  0.31188200  1
  O  O7  1  0.16952500  0.53048100  0.18811800  1
  O  O8  1  0.53048100  0.16952500  0.81188200  1
  O  O9  1  0.83047500  0.46951900  0.68811800  1
  O  O10  1  0.03048100  0.33047500  0.93811800  1
  O  O11  1  0.96951900  0.66952500  0.43811800  1
  F  F12  1  0.97023500  0.12814300  0.40535200  1
  F  F13  1  0.02976500  0.87185700  0.90535200  1
  F  F14  1  0.37185700  0.47023500  0.65535200  1
  F  F15  1  0.52976500  0.62814300  0.84464800  1
  F  F16  1  0.62814300  0.52976500  0.15535200  1
  F  F17  1  0.47023500  0.37185700  0.34464800  1
  F  F18  1  0.12814300  0.97023500  0.59464800  1
  F  F19  1  0.87185700  0.02976500  0.09464800  1
