# generated using pymatgen
data_CsNaMg30O31
_symmetry_space_group_name_H-M   'P 1'
_cell_length_a   8.58652500
_cell_length_b   8.73921400
_cell_length_c   8.79965500
_cell_angle_alpha   90.00000000
_cell_angle_beta   90.00000000
_cell_angle_gamma   90.00000000
_symmetry_Int_Tables_number   1
_chemical_formula_structural   CsNaMg30O31
_chemical_formula_sum   'Cs1 Na1 Mg30 O31'
_cell_volume   660.32153090
_cell_formula_units_Z   1
loop_
 _symmetry_equiv_pos_site_id
 _symmetry_equiv_pos_as_xyz
  1  'x, y, z'
loop_
 _atom_site_type_symbol
 _atom_site_label
 _atom_site_symmetry_multiplicity
 _atom_site_fract_x
 _atom_site_fract_y
 _atom_site_fract_z
 _atom_site_occupancy
  Cs  Cs0  1  0.50000000  0.50000000  0.97485700  1
  Na  Na1  1  0.00000000  0.00000000  0.99623400  1
  Mg  Mg2  1  0.00000000  0.50000000  0.97739900  1
  Mg  Mg3  1  0.50000000  0.00000000  0.99836700  1
  Mg  Mg4  1  0.00000000  0.00000000  0.50182100  1
  Mg  Mg5  1  0.00000000  0.50000000  0.51870800  1
  Mg  Mg6  1  0.50000000  0.00000000  0.49998500  1
  Mg  Mg7  1  0.50000000  0.50000000  0.48824100  1
  Mg  Mg8  1  0.24533500  0.24391700  0.00671200  1
  Mg  Mg9  1  0.24533500  0.75608300  0.00671200  1
  Mg  Mg10  1  0.75466500  0.24391700  0.00671200  1
  Mg  Mg11  1  0.75466500  0.75608300  0.00671200  1
  Mg  Mg12  1  0.24806500  0.24449700  0.49657200  1
  Mg  Mg13  1  0.24806500  0.75550300  0.49657200  1
  Mg  Mg14  1  0.75193500  0.24449700  0.49657200  1
  Mg  Mg15  1  0.75193500  0.75550300  0.49657200  1
  Mg  Mg16  1  0.00000000  0.22641600  0.24385000  1
  Mg  Mg17  1  0.00000000  0.77358400  0.24385000  1
  Mg  Mg18  1  0.50000000  0.23914700  0.25169100  1
  Mg  Mg19  1  0.50000000  0.76085300  0.25169100  1
  Mg  Mg20  1  0.00000000  0.24530500  0.75553100  1
  Mg  Mg21  1  0.00000000  0.75469500  0.75553100  1
  Mg  Mg22  1  0.50000000  0.24329300  0.73897300  1
  Mg  Mg23  1  0.50000000  0.75670700  0.73897300  1
  Mg  Mg24  1  0.25295100  0.00000000  0.24883300  1
  Mg  Mg25  1  0.26928600  0.50000000  0.25719700  1
  Mg  Mg26  1  0.74704900  0.00000000  0.24883300  1
  Mg  Mg27  1  0.73071400  0.50000000  0.25719700  1
  Mg  Mg28  1  0.24933900  0.00000000  0.75430500  1
  Mg  Mg29  1  0.25318600  0.50000000  0.72603300  1
  Mg  Mg30  1  0.75066100  0.00000000  0.75430500  1
  Mg  Mg31  1  0.74681400  0.50000000  0.72603300  1
  O  O32  1  0.00000000  0.00000000  0.26611200  1
  O  O33  1  0.50000000  0.00000000  0.26361200  1
  O  O34  1  0.50000000  0.50000000  0.27383800  1
  O  O35  1  0.00000000  0.00000000  0.73425000  1
  O  O36  1  0.00000000  0.50000000  0.74603200  1
  O  O37  1  0.50000000  0.00000000  0.74193300  1
  O  O38  1  0.50000000  0.50000000  0.69795400  1
  O  O39  1  0.24486800  0.24797300  0.25496800  1
  O  O40  1  0.24486800  0.75202700  0.25496800  1
  O  O41  1  0.75513200  0.24797300  0.25496800  1
  O  O42  1  0.75513200  0.75202700  0.25496800  1
  O  O43  1  0.25154600  0.25720900  0.75062400  1
  O  O44  1  0.25154600  0.74279100  0.75062400  1
  O  O45  1  0.74845400  0.25720900  0.75062400  1
  O  O46  1  0.74845400  0.74279100  0.75062400  1
  O  O47  1  0.00000000  0.25779800  0.00058900  1
  O  O48  1  0.00000000  0.74220200  0.00058900  1
  O  O49  1  0.50000000  0.21786400  0.01429000  1
  O  O50  1  0.50000000  0.78213600  0.01429000  1
  O  O51  1  0.00000000  0.25741100  0.49479800  1
  O  O52  1  0.00000000  0.74258900  0.49479800  1
  O  O53  1  0.50000000  0.24455900  0.49614500  1
  O  O54  1  0.50000000  0.75544100  0.49614500  1
  O  O55  1  0.25723500  0.00000000  0.99969700  1
  O  O56  1  0.21025500  0.50000000  0.04336400  1
  O  O57  1  0.74276500  0.00000000  0.99969700  1
  O  O58  1  0.78974500  0.50000000  0.04336400  1
  O  O59  1  0.24859700  0.00000000  0.50360900  1
  O  O60  1  0.23674100  0.50000000  0.48867100  1
  O  O61  1  0.75140300  0.00000000  0.50360900  1
  O  O62  1  0.76325900  0.50000000  0.48867100  1
