# generated using pymatgen
data_SmNi3Sn2
_symmetry_space_group_name_H-M   'P 1'
_cell_length_a   4.10239100
_cell_length_b   9.58246961
_cell_length_c   9.58246961
_cell_angle_alpha   119.99999730
_cell_angle_beta   90.00000000
_cell_angle_gamma   90.00000000
_symmetry_Int_Tables_number   1
_chemical_formula_structural   SmNi3Sn2
_chemical_formula_sum   'Sm3 Ni9 Sn6'
_cell_volume   326.22902292
_cell_formula_units_Z   3
loop_
 _symmetry_equiv_pos_site_id
 _symmetry_equiv_pos_as_xyz
  1  'x, y, z'
loop_
 _atom_site_type_symbol
 _atom_site_label
 _atom_site_symmetry_multiplicity
 _atom_site_fract_x
 _atom_site_fract_y
 _atom_site_fract_z
 _atom_site_occupancy
  Sm  Sm0  1  0.00000000  0.00000000  0.00000000  1
  Sm  Sm1  1  0.50000000  0.66666700  0.33333300  1
  Sm  Sm2  1  0.50000000  0.33333300  0.66666700  1
  Ni  Ni3  1  0.00000000  0.81492100  0.18507900  1
  Ni  Ni4  1  0.00000000  0.18507900  0.81492100  1
  Ni  Ni5  1  0.00000000  0.37015800  0.18507900  1
  Ni  Ni6  1  0.00000000  0.62984200  0.81492100  1
  Ni  Ni7  1  0.00000000  0.81492100  0.62984200  1
  Ni  Ni8  1  0.00000000  0.18507900  0.37015800  1
  Ni  Ni9  1  0.00000000  0.50000000  0.50000000  1
  Ni  Ni10  1  0.00000000  0.00000000  0.50000000  1
  Ni  Ni11  1  0.00000000  0.50000000  0.00000000  1
  Sn  Sn12  1  0.50000000  0.67742200  0.67742200  1
  Sn  Sn13  1  0.50000000  0.32257800  0.32257800  1
  Sn  Sn14  1  0.50000000  0.00000000  0.32257800  1
  Sn  Sn15  1  0.50000000  0.00000000  0.67742200  1
  Sn  Sn16  1  0.50000000  0.32257800  0.00000000  1
  Sn  Sn17  1  0.50000000  0.67742200  0.00000000  1
