# generated using pymatgen
data_ScNF4
_symmetry_space_group_name_H-M   'P 1'
_cell_length_a   3.95671400
_cell_length_b   5.85123376
_cell_length_c   7.82301700
_cell_angle_alpha   90.00000000
_cell_angle_beta   90.00000000
_cell_angle_gamma   109.76172890
_symmetry_Int_Tables_number   1
_chemical_formula_structural   ScNF4
_chemical_formula_sum   'Sc2 N2 F8'
_cell_volume   170.44933191
_cell_formula_units_Z   2
loop_
 _symmetry_equiv_pos_site_id
 _symmetry_equiv_pos_as_xyz
  1  'x, y, z'
loop_
 _atom_site_type_symbol
 _atom_site_label
 _atom_site_symmetry_multiplicity
 _atom_site_fract_x
 _atom_site_fract_y
 _atom_site_fract_z
 _atom_site_occupancy
  Sc  Sc0  1  0.00000000  0.00000000  0.00000000  1
  Sc  Sc1  1  0.00000000  0.00000000  0.50000000  1
  N  N2  1  0.31042000  0.62083900  0.25000000  1
  N  N3  1  0.68958000  0.37916100  0.75000000  1
  F  F4  1  0.50000000  0.00000000  0.00000000  1
  F  F5  1  0.50000000  0.00000000  0.50000000  1
  F  F6  1  0.17408400  0.34816700  0.59268100  1
  F  F7  1  0.82591600  0.65183300  0.40731900  1
  F  F8  1  0.82591600  0.65183300  0.09268100  1
  F  F9  1  0.17408400  0.34816700  0.90731900  1
  F  F10  1  0.05672200  0.11344400  0.25000000  1
  F  F11  1  0.94327800  0.88655600  0.75000000  1
