# generated using pymatgen
data_SiH14C4S2(N4F3)2
_symmetry_space_group_name_H-M   'P 1'
_cell_length_a   7.27986227
_cell_length_b   8.20086176
_cell_length_c   8.04156586
_cell_angle_alpha   87.07939477
_cell_angle_beta   86.67535794
_cell_angle_gamma   59.26984909
_symmetry_Int_Tables_number   1
_chemical_formula_structural   SiH14C4S2(N4F3)2
_chemical_formula_sum   'Si1 H14 C4 S2 N8 F6'
_cell_volume   411.85633128
_cell_formula_units_Z   1
loop_
 _symmetry_equiv_pos_site_id
 _symmetry_equiv_pos_as_xyz
  1  'x, y, z'
loop_
 _atom_site_type_symbol
 _atom_site_label
 _atom_site_symmetry_multiplicity
 _atom_site_fract_x
 _atom_site_fract_y
 _atom_site_fract_z
 _atom_site_occupancy
  Si  Si0  1  0.50000000  0.50000000  0.00000000  1
  H  H1  1  0.87449000  0.36099200  0.22732800  1
  H  H2  1  0.12551000  0.63900800  0.77267200  1
  H  H3  1  0.22441500  0.57390300  0.35899900  1
  H  H4  1  0.77558500  0.42609700  0.64100100  1
  H  H5  1  0.65940300  0.03811900  0.62518900  1
  H  H6  1  0.34059700  0.96188100  0.37481100  1
  H  H7  1  0.21987800  0.02783000  0.94835100  1
  H  H8  1  0.78012200  0.97217000  0.05164900  1
  H  H9  1  0.30777900  0.50374700  0.56531400  1
  H  H10  1  0.69222100  0.49625300  0.43468600  1
  H  H11  1  0.41985700  0.85214600  0.17467100  1
  H  H12  1  0.58014300  0.14785400  0.82532900  1
  H  H13  1  0.98489100  0.24762400  0.97449900  1
  H  H14  1  0.01510900  0.75237600  0.02550100  1
  C  C15  1  0.15808000  0.11746300  0.18511200  1
  C  C16  1  0.84192000  0.88253700  0.81488800  1
  C  C17  1  0.00580400  0.73553800  0.54064600  1
  C  C18  1  0.99419600  0.26446200  0.45935400  1
  S  S19  1  0.18291400  0.11268900  0.58927800  1
  S  S20  1  0.81708600  0.88731100  0.41072200  1
  N  N21  1  0.67085100  0.03270300  0.75324900  1
  N  N22  1  0.32914900  0.96729700  0.24675100  1
  N  N23  1  0.19283100  0.59022600  0.48439600  1
  N  N24  1  0.80716900  0.40977400  0.51560400  1
  N  N25  1  0.01034600  0.25909700  0.28634100  1
  N  N26  1  0.98965400  0.74090300  0.71365900  1
  N  N27  1  0.12358700  0.13910200  0.02278900  1
  N  N28  1  0.87641300  0.86089800  0.97721100  1
  F  F29  1  0.26522700  0.56266600  0.11264000  1
  F  F30  1  0.73477300  0.43733400  0.88736000  1
  F  F31  1  0.59369600  0.26676700  0.05029500  1
  F  F32  1  0.40630400  0.73323300  0.94970500  1
  F  F33  1  0.61048900  0.52385700  0.17725400  1
  F  F34  1  0.38951100  0.47614300  0.82274600  1
