# generated using pymatgen
data_RbMg30BO31
_symmetry_space_group_name_H-M   'P 1'
_cell_length_a   8.33913500
_cell_length_b   8.71938000
_cell_length_c   8.82529600
_cell_angle_alpha   90.00000000
_cell_angle_beta   90.00000000
_cell_angle_gamma   90.00000000
_symmetry_Int_Tables_number   1
_chemical_formula_structural   RbMg30BO31
_chemical_formula_sum   'Rb1 Mg30 B1 O31'
_cell_volume   641.70568999
_cell_formula_units_Z   1
loop_
 _symmetry_equiv_pos_site_id
 _symmetry_equiv_pos_as_xyz
  1  'x, y, z'
loop_
 _atom_site_type_symbol
 _atom_site_label
 _atom_site_symmetry_multiplicity
 _atom_site_fract_x
 _atom_site_fract_y
 _atom_site_fract_z
 _atom_site_occupancy
  Rb  Rb0  1  0.00000000  0.00617200  0.00000000  1
  Mg  Mg1  1  0.00000000  0.00269800  0.50000000  1
  Mg  Mg2  1  0.50000000  0.00611000  0.50000000  1
  Mg  Mg3  1  0.00000000  0.50478800  0.00000000  1
  Mg  Mg4  1  0.50000000  0.50114400  0.00000000  1
  Mg  Mg5  1  0.00000000  0.50020500  0.50000000  1
  Mg  Mg6  1  0.50000000  0.49739000  0.50000000  1
  Mg  Mg7  1  0.25705700  0.99950100  0.26457300  1
  Mg  Mg8  1  0.74294300  0.99950100  0.26457300  1
  Mg  Mg9  1  0.25705700  0.99950100  0.73542700  1
  Mg  Mg10  1  0.74294300  0.99950100  0.73542700  1
  Mg  Mg11  1  0.25127000  0.50283800  0.25166100  1
  Mg  Mg12  1  0.74873000  0.50283800  0.25166100  1
  Mg  Mg13  1  0.25127000  0.50283800  0.74833900  1
  Mg  Mg14  1  0.74873000  0.50283800  0.74833900  1
  Mg  Mg15  1  0.25071600  0.74368600  0.00000000  1
  Mg  Mg16  1  0.74928400  0.74368600  0.00000000  1
  Mg  Mg17  1  0.24835300  0.74917800  0.50000000  1
  Mg  Mg18  1  0.75164700  0.74917800  0.50000000  1
  Mg  Mg19  1  0.25768300  0.26872500  0.00000000  1
  Mg  Mg20  1  0.74231700  0.26872500  0.00000000  1
  Mg  Mg21  1  0.25141400  0.25229200  0.50000000  1
  Mg  Mg22  1  0.74858600  0.25229200  0.50000000  1
  Mg  Mg23  1  0.00000000  0.74901800  0.25533400  1
  Mg  Mg24  1  0.50000000  0.75425300  0.26404500  1
  Mg  Mg25  1  0.00000000  0.74901800  0.74466600  1
  Mg  Mg26  1  0.50000000  0.75425300  0.73595500  1
  Mg  Mg27  1  0.00000000  0.25510300  0.25276400  1
  Mg  Mg28  1  0.50000000  0.24260800  0.24016700  1
  Mg  Mg29  1  0.00000000  0.25510300  0.74723600  1
  Mg  Mg30  1  0.50000000  0.24260800  0.75983300  1
  B  B31  1  0.50000000  0.91938100  0.00000000  1
  O  O32  1  0.00000000  0.72756100  0.00000000  1
  O  O33  1  0.00000000  0.74423800  0.50000000  1
  O  O34  1  0.50000000  0.74464200  0.50000000  1
  O  O35  1  0.00000000  0.28305400  0.00000000  1
  O  O36  1  0.50000000  0.27452300  0.00000000  1
  O  O37  1  0.00000000  0.25702600  0.50000000  1
  O  O38  1  0.50000000  0.25572800  0.50000000  1
  O  O39  1  0.25001100  0.75258200  0.24934700  1
  O  O40  1  0.74998900  0.75258200  0.24934700  1
  O  O41  1  0.25001100  0.75258200  0.75065300  1
  O  O42  1  0.74998900  0.75258200  0.75065300  1
  O  O43  1  0.24986700  0.24726300  0.24348700  1
  O  O44  1  0.75013300  0.24726300  0.24348700  1
  O  O45  1  0.24986700  0.24726300  0.75651300  1
  O  O46  1  0.75013300  0.24726300  0.75651300  1
  O  O47  1  0.34147100  0.97655500  0.00000000  1
  O  O48  1  0.65852900  0.97655500  0.00000000  1
  O  O49  1  0.25081100  0.00159100  0.50000000  1
  O  O50  1  0.74918900  0.00159100  0.50000000  1
  O  O51  1  0.25564500  0.50901100  0.00000000  1
  O  O52  1  0.74435500  0.50901100  0.00000000  1
  O  O53  1  0.25101400  0.49976000  0.50000000  1
  O  O54  1  0.74898600  0.49976000  0.50000000  1
  O  O55  1  0.00000000  0.99955000  0.27688500  1
  O  O56  1  0.50000000  0.99901000  0.27554800  1
  O  O57  1  0.00000000  0.99955000  0.72311500  1
  O  O58  1  0.50000000  0.99901000  0.72445200  1
  O  O59  1  0.00000000  0.50177100  0.25556500  1
  O  O60  1  0.50000000  0.50618600  0.25052000  1
  O  O61  1  0.00000000  0.50177100  0.74443500  1
  O  O62  1  0.50000000  0.50618600  0.74948000  1
