# generated using pymatgen
data_RbH(CO2)2
_symmetry_space_group_name_H-M   'P 1'
_cell_length_a   13.84507300
_cell_length_b   4.32249400
_cell_length_c   7.72093033
_cell_angle_alpha   78.60798306
_cell_angle_beta   90.00000000
_cell_angle_gamma   90.00000000
_symmetry_Int_Tables_number   1
_chemical_formula_structural   RbH(CO2)2
_chemical_formula_sum   'Rb4 H4 C8 O16'
_cell_volume   452.95776736
_cell_formula_units_Z   4
loop_
 _symmetry_equiv_pos_site_id
 _symmetry_equiv_pos_as_xyz
  1  'x, y, z'
loop_
 _atom_site_type_symbol
 _atom_site_label
 _atom_site_symmetry_multiplicity
 _atom_site_fract_x
 _atom_site_fract_y
 _atom_site_fract_z
 _atom_site_occupancy
  Rb  Rb0  1  0.06563600  0.78805300  0.76094400  1
  Rb  Rb1  1  0.93436400  0.21194700  0.23905600  1
  Rb  Rb2  1  0.56563600  0.21194700  0.73905600  1
  Rb  Rb3  1  0.43436400  0.78805300  0.26094400  1
  H  H4  1  0.27105800  0.13586600  0.51190700  1
  H  H5  1  0.72894200  0.86413400  0.48809300  1
  H  H6  1  0.77105800  0.86413400  0.98809300  1
  H  H7  1  0.22894200  0.13586600  0.01190700  1
  C  C8  1  0.34081600  0.69877000  0.71017800  1
  C  C9  1  0.65918400  0.30123000  0.28982200  1
  C  C10  1  0.84081600  0.30123000  0.78982200  1
  C  C11  1  0.15918400  0.69877000  0.21017800  1
  C  C12  1  0.32385000  0.42182200  0.87142400  1
  C  C13  1  0.67615000  0.57817800  0.12857600  1
  C  C14  1  0.82385000  0.57817800  0.62857600  1
  C  C15  1  0.17615000  0.42182200  0.37142400  1
  O  O16  1  0.26672800  0.86384500  0.65378200  1
  O  O17  1  0.73327200  0.13615500  0.34621800  1
  O  O18  1  0.76672800  0.13615500  0.84621800  1
  O  O19  1  0.23327200  0.86384500  0.15378200  1
  O  O20  1  0.42534400  0.73613500  0.65164400  1
  O  O21  1  0.57465600  0.26386500  0.34835600  1
  O  O22  1  0.92534400  0.26386500  0.84835600  1
  O  O23  1  0.07465600  0.73613500  0.15164400  1
  O  O24  1  0.23296200  0.33906400  0.90562900  1
  O  O25  1  0.76703800  0.66093600  0.09437100  1
  O  O26  1  0.73296200  0.66093600  0.59437100  1
  O  O27  1  0.26703800  0.33906400  0.40562900  1
  O  O28  1  0.89415600  0.70331000  0.54425400  1
  O  O29  1  0.10584400  0.29669000  0.45574600  1
  O  O30  1  0.39415600  0.29669000  0.95574600  1
  O  O31  1  0.60584400  0.70331000  0.04425400  1
