# generated using pymatgen
data_RbO2F
_symmetry_space_group_name_H-M   'P 1'
_cell_length_a   12.17326000
_cell_length_b   12.17326000
_cell_length_c   4.34308800
_cell_angle_alpha   90.00000000
_cell_angle_beta   90.00000000
_cell_angle_gamma   90.00000000
_symmetry_Int_Tables_number   1
_chemical_formula_structural   RbO2F
_chemical_formula_sum   'Rb8 O16 F8'
_cell_volume   643.59464952
_cell_formula_units_Z   8
loop_
 _symmetry_equiv_pos_site_id
 _symmetry_equiv_pos_as_xyz
  1  'x, y, z'
loop_
 _atom_site_type_symbol
 _atom_site_label
 _atom_site_symmetry_multiplicity
 _atom_site_fract_x
 _atom_site_fract_y
 _atom_site_fract_z
 _atom_site_occupancy
  Rb  Rb0  1  0.73384200  0.76615800  0.75078100  1
  Rb  Rb1  1  0.26615800  0.23384200  0.75078100  1
  Rb  Rb2  1  0.23384200  0.73384200  0.24921900  1
  Rb  Rb3  1  0.76615800  0.26615800  0.24921900  1
  Rb  Rb4  1  0.00000000  0.50000000  0.25888500  1
  Rb  Rb5  1  0.50000000  0.00000000  0.74111500  1
  Rb  Rb6  1  0.00000000  0.00000000  0.00000000  1
  Rb  Rb7  1  0.50000000  0.50000000  0.00000000  1
  O  O8  1  0.29487400  0.49257900  0.38187800  1
  O  O9  1  0.70512600  0.50742100  0.38187800  1
  O  O10  1  0.50742100  0.29487400  0.61812200  1
  O  O11  1  0.20512600  0.99257900  0.61812200  1
  O  O12  1  0.49257900  0.70512600  0.61812200  1
  O  O13  1  0.79487400  0.00742100  0.61812200  1
  O  O14  1  0.99257900  0.79487400  0.38187800  1
  O  O15  1  0.00742100  0.20512600  0.38187800  1
  O  O16  1  0.21507100  0.99786400  0.33161000  1
  O  O17  1  0.78492900  0.00213600  0.33161000  1
  O  O18  1  0.00213600  0.21507100  0.66839000  1
  O  O19  1  0.28492900  0.49786400  0.66839000  1
  O  O20  1  0.99786400  0.78492900  0.66839000  1
  O  O21  1  0.71507100  0.50213600  0.66839000  1
  O  O22  1  0.49786400  0.71507100  0.33161000  1
  O  O23  1  0.50213600  0.28492900  0.33161000  1
  F  F24  1  0.16924400  0.33075600  0.23703700  1
  F  F25  1  0.83075600  0.66924400  0.23703700  1
  F  F26  1  0.66924400  0.16924400  0.76296300  1
  F  F27  1  0.33075600  0.83075600  0.76296300  1
  F  F28  1  0.62034600  0.87965400  0.22703000  1
  F  F29  1  0.37965400  0.12034600  0.22703000  1
  F  F30  1  0.12034600  0.62034600  0.77297000  1
  F  F31  1  0.87965400  0.37965400  0.77297000  1
