# generated using pymatgen
data_RbTm(WO4)2
_symmetry_space_group_name_H-M   'P 1'
_cell_length_a   8.02873125
_cell_length_b   9.04158036
_cell_length_c   10.36747200
_cell_angle_alpha   90.00000000
_cell_angle_beta   90.00000000
_cell_angle_gamma   99.24836784
_symmetry_Int_Tables_number   1
_chemical_formula_structural   RbTm(WO4)2
_chemical_formula_sum   'Rb4 Tm4 W8 O32'
_cell_volume   742.81678218
_cell_formula_units_Z   4
loop_
 _symmetry_equiv_pos_site_id
 _symmetry_equiv_pos_as_xyz
  1  'x, y, z'
loop_
 _atom_site_type_symbol
 _atom_site_label
 _atom_site_symmetry_multiplicity
 _atom_site_fract_x
 _atom_site_fract_y
 _atom_site_fract_z
 _atom_site_occupancy
  Rb  Rb0  1  0.07288300  0.51181400  0.21335300  1
  Rb  Rb1  1  0.92711700  0.48818600  0.78664700  1
  Rb  Rb2  1  0.42711700  0.48818600  0.71335300  1
  Rb  Rb3  1  0.57288300  0.51181400  0.28664700  1
  Tm  Tm4  1  0.02139400  0.06031900  0.77685500  1
  Tm  Tm5  1  0.97860600  0.93968100  0.22314500  1
  Tm  Tm6  1  0.47860600  0.93968100  0.27685500  1
  Tm  Tm7  1  0.52139400  0.06031900  0.72314500  1
  W  W8  1  0.28699500  0.22018000  0.00964800  1
  W  W9  1  0.71300500  0.77982000  0.99035200  1
  W  W10  1  0.21300500  0.77982000  0.50964800  1
  W  W11  1  0.78699500  0.22018000  0.49035200  1
  W  W12  1  0.17877600  0.16230000  0.48932800  1
  W  W13  1  0.82122400  0.83770000  0.51067200  1
  W  W14  1  0.32122400  0.83770000  0.98932800  1
  W  W15  1  0.67877600  0.16230000  0.01067200  1
  O  O16  1  0.25631000  0.00861900  0.38947200  1
  O  O17  1  0.74369000  0.99138100  0.61052800  1
  O  O18  1  0.24369000  0.99138100  0.88947200  1
  O  O19  1  0.75631000  0.00861900  0.11052800  1
  O  O20  1  0.34998300  0.39453100  0.08653200  1
  O  O21  1  0.65001700  0.60546900  0.91346800  1
  O  O22  1  0.15001700  0.60546900  0.58653200  1
  O  O23  1  0.84998300  0.39453100  0.41346800  1
  O  O24  1  0.11285800  0.13323500  0.11465800  1
  O  O25  1  0.88714200  0.86676500  0.88534200  1
  O  O26  1  0.38714200  0.86676500  0.61465800  1
  O  O27  1  0.61285800  0.13323500  0.38534200  1
  O  O28  1  0.33517300  0.73240000  0.36882200  1
  O  O29  1  0.66482700  0.26760000  0.63117800  1
  O  O30  1  0.16482700  0.26760000  0.86882200  1
  O  O31  1  0.83517300  0.73240000  0.13117800  1
  O  O32  1  0.26792800  0.32969800  0.41270400  1
  O  O33  1  0.73207200  0.67030200  0.58729600  1
  O  O34  1  0.23207200  0.67030200  0.91270400  1
  O  O35  1  0.76792800  0.32969800  0.08729600  1
  O  O36  1  0.00329200  0.22541600  0.60398600  1
  O  O37  1  0.99670800  0.77458400  0.39601400  1
  O  O38  1  0.49670800  0.77458400  0.10398600  1
  O  O39  1  0.50329200  0.22541600  0.89601400  1
  O  O40  1  0.30520100  0.15319400  0.63746800  1
  O  O41  1  0.69479900  0.84680600  0.36253200  1
  O  O42  1  0.19479900  0.84680600  0.13746800  1
  O  O43  1  0.80520100  0.15319400  0.86253200  1
  O  O44  1  0.45145500  0.08996300  0.10235900  1
  O  O45  1  0.54854500  0.91003700  0.89764100  1
  O  O46  1  0.04854500  0.91003700  0.60235900  1
  O  O47  1  0.95145500  0.08996300  0.39764100  1
