# generated using pymatgen
data_Tb2Sn3(PbS4)3
_symmetry_space_group_name_H-M   'P 1'
_cell_length_a   3.95635900
_cell_length_b   11.69057400
_cell_length_c   20.54841400
_cell_angle_alpha   90.00000000
_cell_angle_beta   90.00000000
_cell_angle_gamma   90.00000000
_symmetry_Int_Tables_number   1
_chemical_formula_structural   Tb2Sn3(PbS4)3
_chemical_formula_sum   'Tb4 Sn6 Pb6 S24'
_cell_volume   950.40745657
_cell_formula_units_Z   2
loop_
 _symmetry_equiv_pos_site_id
 _symmetry_equiv_pos_as_xyz
  1  'x, y, z'
loop_
 _atom_site_type_symbol
 _atom_site_label
 _atom_site_symmetry_multiplicity
 _atom_site_fract_x
 _atom_site_fract_y
 _atom_site_fract_z
 _atom_site_occupancy
  Tb  Tb0  1  0.50000000  0.64783700  0.41235400  1
  Tb  Tb1  1  0.50000000  0.14783700  0.58764600  1
  Tb  Tb2  1  0.50000000  0.82545700  0.89484200  1
  Tb  Tb3  1  0.50000000  0.32545700  0.10515800  1
  Sn  Sn4  1  0.00000000  0.00177300  0.75026900  1
  Sn  Sn5  1  0.00000000  0.50177300  0.24973100  1
  Sn  Sn6  1  0.00000000  0.51929400  0.91201000  1
  Sn  Sn7  1  0.00000000  0.01929400  0.08799000  1
  Sn  Sn8  1  0.00000000  0.99302600  0.42623500  1
  Sn  Sn9  1  0.00000000  0.49302600  0.57376500  1
  Pb  Pb10  1  0.50000000  0.40431900  0.74157900  1
  Pb  Pb11  1  0.50000000  0.90431900  0.25842100  1
  Pb  Pb12  1  0.50000000  0.19927300  0.91396000  1
  Pb  Pb13  1  0.50000000  0.69927300  0.08604000  1
  Pb  Pb14  1  0.50000000  0.77156400  0.62215100  1
  Pb  Pb15  1  0.50000000  0.27156400  0.37784900  1
  S  S16  1  0.00000000  0.99186000  0.87570900  1
  S  S17  1  0.00000000  0.49186000  0.12429100  1
  S  S18  1  0.00000000  0.98366800  0.62611400  1
  S  S19  1  0.00000000  0.48366800  0.37388600  1
  S  S20  1  0.00000000  0.68275600  0.50925400  1
  S  S21  1  0.00000000  0.18275600  0.49074600  1
  S  S22  1  0.50000000  0.64658300  0.25846400  1
  S  S23  1  0.50000000  0.14658300  0.74153600  1
  S  S24  1  0.50000000  0.85022000  0.75703400  1
  S  S25  1  0.50000000  0.35022000  0.24296600  1
  S  S26  1  0.50000000  0.60149100  0.84146500  1
  S  S27  1  0.50000000  0.10149100  0.15853500  1
  S  S28  1  0.50000000  0.43664500  0.98234500  1
  S  S29  1  0.50000000  0.93664500  0.01765500  1
  S  S30  1  0.50000000  0.93654200  0.49242100  1
  S  S31  1  0.50000000  0.43654200  0.50757900  1
  S  S32  1  0.00000000  0.33798800  0.84268900  1
  S  S33  1  0.00000000  0.83798800  0.15731100  1
  S  S34  1  0.00000000  0.71385700  0.97001100  1
  S  S35  1  0.00000000  0.21385700  0.02998900  1
  S  S36  1  0.00000000  0.80450600  0.36076400  1
  S  S37  1  0.00000000  0.30450600  0.63923600  1
  S  S38  1  0.00000000  0.60063900  0.67639000  1
  S  S39  1  0.00000000  0.10063900  0.32361000  1
