# generated using pymatgen
data_Sb2Cl7F3
_symmetry_space_group_name_H-M   'P 1'
_cell_length_a   10.32379735
_cell_length_b   10.32379735
_cell_length_c   13.44392111
_cell_angle_alpha   49.44974894
_cell_angle_beta   49.44974894
_cell_angle_gamma   45.60573876
_symmetry_Int_Tables_number   1
_chemical_formula_structural   Sb2Cl7F3
_chemical_formula_sum   'Sb4 Cl14 F6'
_cell_volume   725.87921203
_cell_formula_units_Z   2
loop_
 _symmetry_equiv_pos_site_id
 _symmetry_equiv_pos_as_xyz
  1  'x, y, z'
loop_
 _atom_site_type_symbol
 _atom_site_label
 _atom_site_symmetry_multiplicity
 _atom_site_fract_x
 _atom_site_fract_y
 _atom_site_fract_z
 _atom_site_occupancy
  Sb  Sb0  1  0.25712600  0.17686400  0.82959000  1
  Sb  Sb1  1  0.82313600  0.74287400  0.17041000  1
  Sb  Sb2  1  0.98812800  0.91812000  0.26617900  1
  Sb  Sb3  1  0.08188000  0.01187200  0.73382100  1
  Cl  Cl4  1  0.11800400  0.99624300  0.29985200  1
  Cl  Cl5  1  0.00375700  0.88199600  0.70014800  1
  Cl  Cl6  1  0.71272600  0.22119600  0.23511400  1
  Cl  Cl7  1  0.77880400  0.28727400  0.76488600  1
  Cl  Cl8  1  0.36686600  0.72630100  0.76956500  1
  Cl  Cl9  1  0.27369900  0.63313400  0.23043500  1
  Cl  Cl10  1  0.31615200  0.27708900  0.90277700  1
  Cl  Cl11  1  0.72291100  0.68384800  0.09722300  1
  Cl  Cl12  1  0.40511900  0.30428200  0.58816300  1
  Cl  Cl13  1  0.69571800  0.59488100  0.41183700  1
  Cl  Cl14  1  0.83156600  0.76862900  0.49853700  1
  Cl  Cl15  1  0.23137100  0.16843400  0.50146300  1
  Cl  Cl16  1  0.51399800  0.85991600  0.85928200  1
  Cl  Cl17  1  0.14008400  0.48600200  0.14071800  1
  F  F18  1  0.14493000  0.09721800  0.80170700  1
  F  F19  1  0.90278200  0.85507000  0.19829300  1
  F  F20  1  0.00560400  0.39946000  0.83246700  1
  F  F21  1  0.60054000  0.99439600  0.16753300  1
  F  F22  1  0.10481900  0.05472200  0.03963800  1
  F  F23  1  0.94527800  0.89518100  0.96036200  1
