# generated using pymatgen
data_SbC2O5
_symmetry_space_group_name_H-M   'P 1'
_cell_length_a   5.74104300
_cell_length_b   6.19656000
_cell_length_c   11.22866900
_cell_angle_alpha   90.00000000
_cell_angle_beta   90.00000000
_cell_angle_gamma   90.00000000
_symmetry_Int_Tables_number   1
_chemical_formula_structural   SbC2O5
_chemical_formula_sum   'Sb4 C8 O20'
_cell_volume   399.45672659
_cell_formula_units_Z   4
loop_
 _symmetry_equiv_pos_site_id
 _symmetry_equiv_pos_as_xyz
  1  'x, y, z'
loop_
 _atom_site_type_symbol
 _atom_site_label
 _atom_site_symmetry_multiplicity
 _atom_site_fract_x
 _atom_site_fract_y
 _atom_site_fract_z
 _atom_site_occupancy
  Sb  Sb0  1  0.30742000  0.56016900  0.75000000  1
  Sb  Sb1  1  0.69258000  0.43983100  0.25000000  1
  Sb  Sb2  1  0.19258000  0.06016900  0.25000000  1
  Sb  Sb3  1  0.80742000  0.93983100  0.75000000  1
  C  C4  1  0.10785000  0.06256900  0.52353600  1
  C  C5  1  0.89215000  0.93743100  0.47646400  1
  C  C6  1  0.39215000  0.56256900  0.47646400  1
  C  C7  1  0.89215000  0.93743100  0.02353600  1
  C  C8  1  0.60785000  0.43743100  0.52353600  1
  C  C9  1  0.10785000  0.06256900  0.97646400  1
  C  C10  1  0.60785000  0.43743100  0.97646400  1
  C  C11  1  0.39215000  0.56256900  0.02353600  1
  O  O12  1  0.48182300  0.82758300  0.75000000  1
  O  O13  1  0.51817700  0.17241700  0.25000000  1
  O  O14  1  0.01817700  0.32758300  0.25000000  1
  O  O15  1  0.98182300  0.67241700  0.75000000  1
  O  O16  1  0.11098000  0.11275100  0.63219600  1
  O  O17  1  0.88902000  0.88724900  0.36780400  1
  O  O18  1  0.38902000  0.61275100  0.36780400  1
  O  O19  1  0.88902000  0.88724900  0.13219600  1
  O  O20  1  0.61098000  0.38724900  0.63219600  1
  O  O21  1  0.11098000  0.11275100  0.86780400  1
  O  O22  1  0.61098000  0.38724900  0.86780400  1
  O  O23  1  0.38902000  0.61275100  0.13219600  1
  O  O24  1  0.26711200  0.10551300  0.05072100  1
  O  O25  1  0.73288800  0.89448700  0.94927900  1
  O  O26  1  0.23288800  0.60551300  0.94927900  1
  O  O27  1  0.73288800  0.89448700  0.55072100  1
  O  O28  1  0.76711200  0.39448700  0.05072100  1
  O  O29  1  0.26711200  0.10551300  0.44927900  1
  O  O30  1  0.76711200  0.39448700  0.44927900  1
  O  O31  1  0.23288800  0.60551300  0.55072100  1
