# generated using pymatgen
data_RbSm2Cl5
_symmetry_space_group_name_H-M   'P 1'
_cell_length_a   7.14251600
_cell_length_b   8.97870700
_cell_length_c   13.39282696
_cell_angle_alpha   89.11546027
_cell_angle_beta   90.00000000
_cell_angle_gamma   90.00000000
_symmetry_Int_Tables_number   1
_chemical_formula_structural   RbSm2Cl5
_chemical_formula_sum   'Rb4 Sm8 Cl20'
_cell_volume   858.78712178
_cell_formula_units_Z   4
loop_
 _symmetry_equiv_pos_site_id
 _symmetry_equiv_pos_as_xyz
  1  'x, y, z'
loop_
 _atom_site_type_symbol
 _atom_site_label
 _atom_site_symmetry_multiplicity
 _atom_site_fract_x
 _atom_site_fract_y
 _atom_site_fract_z
 _atom_site_occupancy
  Rb  Rb0  1  0.06802900  0.50010600  0.33742800  1
  Rb  Rb1  1  0.93197100  0.49989400  0.66257200  1
  Rb  Rb2  1  0.56802900  0.49989400  0.16257200  1
  Rb  Rb3  1  0.43197100  0.50010600  0.83742800  1
  Sm  Sm4  1  0.10276300  0.99102000  0.34085000  1
  Sm  Sm5  1  0.89723700  0.00898000  0.65915000  1
  Sm  Sm6  1  0.60276300  0.00898000  0.15915000  1
  Sm  Sm7  1  0.39723700  0.99102000  0.84085000  1
  Sm  Sm8  1  0.02737100  0.19598000  0.99880900  1
  Sm  Sm9  1  0.97262900  0.80402000  0.00119100  1
  Sm  Sm10  1  0.52737100  0.80402000  0.50119100  1
  Sm  Sm11  1  0.47262900  0.19598000  0.49880900  1
  Cl  Cl12  1  0.16546600  0.54065800  0.07847000  1
  Cl  Cl13  1  0.83453400  0.45934200  0.92153000  1
  Cl  Cl14  1  0.66546600  0.45934200  0.42153000  1
  Cl  Cl15  1  0.33453400  0.54065800  0.57847000  1
  Cl  Cl16  1  0.86216700  0.23571400  0.18735200  1
  Cl  Cl17  1  0.13783300  0.76428600  0.81264800  1
  Cl  Cl18  1  0.36216700  0.76428600  0.31264800  1
  Cl  Cl19  1  0.63783300  0.23571400  0.68735200  1
  Cl  Cl20  1  0.34341200  0.22550600  0.29191800  1
  Cl  Cl21  1  0.65658800  0.77449400  0.70808200  1
  Cl  Cl22  1  0.84341200  0.77449400  0.20808200  1
  Cl  Cl23  1  0.15658800  0.22550600  0.79191800  1
  Cl  Cl24  1  0.44591800  0.20125800  0.99908900  1
  Cl  Cl25  1  0.55408200  0.79874200  0.00091100  1
  Cl  Cl26  1  0.94591800  0.79874200  0.50091100  1
  Cl  Cl27  1  0.05408200  0.20125800  0.49908900  1
  Cl  Cl28  1  0.69464500  0.02377000  0.36698600  1
  Cl  Cl29  1  0.30535500  0.97623000  0.63301400  1
  Cl  Cl30  1  0.19464500  0.97623000  0.13301400  1
  Cl  Cl31  1  0.80535500  0.02377000  0.86698600  1
