# generated using pymatgen
data_RbSbClF3
_symmetry_space_group_name_H-M   'P 1'
_cell_length_a   8.23839100
_cell_length_b   8.53066600
_cell_length_c   15.41551700
_cell_angle_alpha   90.00000000
_cell_angle_beta   90.00000000
_cell_angle_gamma   90.00000000
_symmetry_Int_Tables_number   1
_chemical_formula_structural   RbSbClF3
_chemical_formula_sum   'Rb8 Sb8 Cl8 F24'
_cell_volume   1083.38653343
_cell_formula_units_Z   8
loop_
 _symmetry_equiv_pos_site_id
 _symmetry_equiv_pos_as_xyz
  1  'x, y, z'
loop_
 _atom_site_type_symbol
 _atom_site_label
 _atom_site_symmetry_multiplicity
 _atom_site_fract_x
 _atom_site_fract_y
 _atom_site_fract_z
 _atom_site_occupancy
  Rb  Rb0  1  0.18154100  0.19247200  0.44224100  1
  Rb  Rb1  1  0.81845900  0.80752800  0.55775900  1
  Rb  Rb2  1  0.31845900  0.80752800  0.94224100  1
  Rb  Rb3  1  0.81845900  0.69247200  0.05775900  1
  Rb  Rb4  1  0.68154100  0.19247200  0.05775900  1
  Rb  Rb5  1  0.18154100  0.30752800  0.94224100  1
  Rb  Rb6  1  0.68154100  0.30752800  0.55775900  1
  Rb  Rb7  1  0.31845900  0.69247200  0.44224100  1
  Sb  Sb8  1  0.12902400  0.00356700  0.17572600  1
  Sb  Sb9  1  0.87097600  0.99643300  0.82427400  1
  Sb  Sb10  1  0.37097600  0.99643300  0.67572600  1
  Sb  Sb11  1  0.87097600  0.50356700  0.32427400  1
  Sb  Sb12  1  0.62902400  0.00356700  0.32427400  1
  Sb  Sb13  1  0.12902400  0.49643300  0.67572600  1
  Sb  Sb14  1  0.62902400  0.49643300  0.82427400  1
  Sb  Sb15  1  0.37097600  0.50356700  0.17572600  1
  Cl  Cl16  1  0.01834400  0.37811400  0.14973600  1
  Cl  Cl17  1  0.98165600  0.62188600  0.85026400  1
  Cl  Cl18  1  0.48165600  0.62188600  0.64973600  1
  Cl  Cl19  1  0.98165600  0.87811400  0.35026400  1
  Cl  Cl20  1  0.51834400  0.37811400  0.35026400  1
  Cl  Cl21  1  0.01834400  0.12188600  0.64973600  1
  Cl  Cl22  1  0.51834400  0.12188600  0.85026400  1
  Cl  Cl23  1  0.48165600  0.87811400  0.14973600  1
  F  F24  1  0.15788300  0.04251000  0.04997000  1
  F  F25  1  0.84211700  0.95749000  0.95003000  1
  F  F26  1  0.34211700  0.95749000  0.54997000  1
  F  F27  1  0.84211700  0.54251000  0.45003000  1
  F  F28  1  0.65788300  0.04251000  0.45003000  1
  F  F29  1  0.15788300  0.45749000  0.54997000  1
  F  F30  1  0.65788300  0.45749000  0.95003000  1
  F  F31  1  0.34211700  0.54251000  0.04997000  1
  F  F32  1  0.39120300  0.00303300  0.34562300  1
  F  F33  1  0.60879700  0.99696700  0.65437700  1
  F  F34  1  0.10879700  0.99696700  0.84562300  1
  F  F35  1  0.60879700  0.50303300  0.15437700  1
  F  F36  1  0.89120300  0.00303300  0.15437700  1
  F  F37  1  0.39120300  0.49696700  0.84562300  1
  F  F38  1  0.89120300  0.49696700  0.65437700  1
  F  F39  1  0.10879700  0.50303300  0.34562300  1
  F  F40  1  0.38702800  0.27894500  0.14641200  1
  F  F41  1  0.61297200  0.72105500  0.85358800  1
  F  F42  1  0.11297200  0.72105500  0.64641200  1
  F  F43  1  0.61297200  0.77894500  0.35358800  1
  F  F44  1  0.88702800  0.27894500  0.35358800  1
  F  F45  1  0.38702800  0.22105500  0.64641200  1
  F  F46  1  0.88702800  0.22105500  0.85358800  1
  F  F47  1  0.11297200  0.77894500  0.14641200  1
