# generated using pymatgen
data_Sr2DyCu2(BiO4)2
_symmetry_space_group_name_H-M   'P 1'
_cell_length_a   15.64966049
_cell_length_b   15.64966049
_cell_length_c   5.35504500
_cell_angle_alpha   90.00000000
_cell_angle_beta   90.00000000
_cell_angle_gamma   159.74206417
_symmetry_Int_Tables_number   1
_chemical_formula_structural   Sr2DyCu2(BiO4)2
_chemical_formula_sum   'Sr4 Dy2 Cu4 Bi4 O16'
_cell_volume   454.10782255
_cell_formula_units_Z   2
loop_
 _symmetry_equiv_pos_site_id
 _symmetry_equiv_pos_as_xyz
  1  'x, y, z'
loop_
 _atom_site_type_symbol
 _atom_site_label
 _atom_site_symmetry_multiplicity
 _atom_site_fract_x
 _atom_site_fract_y
 _atom_site_fract_z
 _atom_site_occupancy
  Sr  Sr0  1  0.61295900  0.88971500  0.50000000  1
  Sr  Sr1  1  0.38704100  0.11028500  0.50000000  1
  Sr  Sr2  1  0.11028500  0.38704100  0.00000000  1
  Sr  Sr3  1  0.88971500  0.61295900  0.00000000  1
  Dy  Dy4  1  0.50000000  0.00000000  0.50000000  1
  Dy  Dy5  1  0.00000000  0.50000000  0.00000000  1
  Cu  Cu6  1  0.05028300  0.45023200  0.50000000  1
  Cu  Cu7  1  0.94971700  0.54976800  0.50000000  1
  Cu  Cu8  1  0.54976800  0.94971700  0.00000000  1
  Cu  Cu9  1  0.45023200  0.05028300  0.00000000  1
  Bi  Bi10  1  0.22430300  0.32066300  0.50000000  1
  Bi  Bi11  1  0.77569700  0.67933700  0.50000000  1
  Bi  Bi12  1  0.67933700  0.77569700  0.00000000  1
  Bi  Bi13  1  0.32066300  0.22430300  0.00000000  1
  O  O14  1  0.12588100  0.35836700  0.50000000  1
  O  O15  1  0.87411900  0.64163300  0.50000000  1
  O  O16  1  0.64163300  0.87411900  0.00000000  1
  O  O17  1  0.35836700  0.12588100  0.00000000  1
  O  O18  1  0.70195900  0.29804100  0.75000000  1
  O  O19  1  0.29804100  0.70195900  0.25000000  1
  O  O20  1  0.29804100  0.70195900  0.75000000  1
  O  O21  1  0.70195900  0.29804100  0.25000000  1
  O  O22  1  0.61483100  0.71594600  0.50000000  1
  O  O23  1  0.38516900  0.28405400  0.50000000  1
  O  O24  1  0.28405400  0.38516900  0.00000000  1
  O  O25  1  0.71594600  0.61483100  0.00000000  1
  O  O26  1  0.79801200  0.20198800  0.75000000  1
  O  O27  1  0.20198800  0.79801200  0.25000000  1
  O  O28  1  0.20198800  0.79801200  0.75000000  1
  O  O29  1  0.79801200  0.20198800  0.25000000  1
