# generated using pymatgen
data_RbNaMg30O31
_symmetry_space_group_name_H-M   'P 1'
_cell_length_a   8.63476900
_cell_length_b   8.67226300
_cell_length_c   8.68838800
_cell_angle_alpha   90.00000000
_cell_angle_beta   90.00000000
_cell_angle_gamma   90.00000000
_symmetry_Int_Tables_number   1
_chemical_formula_structural   RbNaMg30O31
_chemical_formula_sum   'Rb1 Na1 Mg30 O31'
_cell_volume   650.61245184
_cell_formula_units_Z   1
loop_
 _symmetry_equiv_pos_site_id
 _symmetry_equiv_pos_as_xyz
  1  'x, y, z'
loop_
 _atom_site_type_symbol
 _atom_site_label
 _atom_site_symmetry_multiplicity
 _atom_site_fract_x
 _atom_site_fract_y
 _atom_site_fract_z
 _atom_site_occupancy
  Rb  Rb0  1  0.01264100  0.50000000  0.00000000  1
  Na  Na1  1  0.00906900  0.00000000  0.00000000  1
  Mg  Mg2  1  0.00550100  0.00000000  0.50000000  1
  Mg  Mg3  1  0.00262900  0.50000000  0.50000000  1
  Mg  Mg4  1  0.48489400  0.00000000  0.00000000  1
  Mg  Mg5  1  0.50369500  0.50000000  0.00000000  1
  Mg  Mg6  1  0.49716700  0.00000000  0.50000000  1
  Mg  Mg7  1  0.49905200  0.50000000  0.50000000  1
  Mg  Mg8  1  0.99665100  0.75454400  0.74941200  1
  Mg  Mg9  1  0.99665100  0.24545600  0.74941200  1
  Mg  Mg10  1  0.99665100  0.75454400  0.25058800  1
  Mg  Mg11  1  0.99665100  0.24545600  0.25058800  1
  Mg  Mg12  1  0.50125300  0.75117200  0.74977400  1
  Mg  Mg13  1  0.50125300  0.24882800  0.74977400  1
  Mg  Mg14  1  0.50125300  0.75117200  0.25022600  1
  Mg  Mg15  1  0.50125300  0.24882800  0.25022600  1
  Mg  Mg16  1  0.74937300  0.72807000  0.00000000  1
  Mg  Mg17  1  0.74937300  0.27193000  0.00000000  1
  Mg  Mg18  1  0.75044100  0.74665100  0.50000000  1
  Mg  Mg19  1  0.75044100  0.25334900  0.50000000  1
  Mg  Mg20  1  0.25244500  0.75381200  0.00000000  1
  Mg  Mg21  1  0.25244500  0.24618800  0.00000000  1
  Mg  Mg22  1  0.24855300  0.74949200  0.50000000  1
  Mg  Mg23  1  0.24855300  0.25050800  0.50000000  1
  Mg  Mg24  1  0.75400200  0.00000000  0.72675700  1
  Mg  Mg25  1  0.74978800  0.50000000  0.74257300  1
  Mg  Mg26  1  0.75400200  0.00000000  0.27324300  1
  Mg  Mg27  1  0.74978800  0.50000000  0.25742700  1
  Mg  Mg28  1  0.24477100  0.00000000  0.75126700  1
  Mg  Mg29  1  0.25378800  0.50000000  0.74710800  1
  Mg  Mg30  1  0.24477100  0.00000000  0.24873300  1
  Mg  Mg31  1  0.25378800  0.50000000  0.25289200  1
  O  O32  1  0.72473700  0.50000000  0.00000000  1
  O  O33  1  0.74399800  0.00000000  0.50000000  1
  O  O34  1  0.74245300  0.50000000  0.50000000  1
  O  O35  1  0.26061800  0.00000000  0.00000000  1
  O  O36  1  0.28641300  0.50000000  0.00000000  1
  O  O37  1  0.25506500  0.00000000  0.50000000  1
  O  O38  1  0.25618900  0.50000000  0.50000000  1
  O  O39  1  0.74776400  0.75441800  0.75053600  1
  O  O40  1  0.74776400  0.24558200  0.75053600  1
  O  O41  1  0.74776400  0.75441800  0.24946400  1
  O  O42  1  0.74776400  0.24558200  0.24946400  1
  O  O43  1  0.24964100  0.75092000  0.75404900  1
  O  O44  1  0.24964100  0.24908000  0.75404900  1
  O  O45  1  0.24964100  0.75092000  0.24595100  1
  O  O46  1  0.24964100  0.24908000  0.24595100  1
  O  O47  1  0.97634200  0.77110800  0.00000000  1
  O  O48  1  0.97634200  0.22889200  0.00000000  1
  O  O49  1  0.99961400  0.75425600  0.50000000  1
  O  O50  1  0.99961400  0.24574400  0.50000000  1
  O  O51  1  0.51097300  0.76287900  0.00000000  1
  O  O52  1  0.51097300  0.23712100  0.00000000  1
  O  O53  1  0.49896600  0.75293500  0.50000000  1
  O  O54  1  0.49896600  0.24706500  0.50000000  1
  O  O55  1  0.99660200  0.00000000  0.73363900  1
  O  O56  1  0.99627700  0.50000000  0.72101500  1
  O  O57  1  0.99660200  0.00000000  0.26636100  1
  O  O58  1  0.99627700  0.50000000  0.27898500  1
  O  O59  1  0.50795300  0.00000000  0.75431300  1
  O  O60  1  0.50243100  0.50000000  0.74514800  1
  O  O61  1  0.50795300  0.00000000  0.24568700  1
  O  O62  1  0.50243100  0.50000000  0.25485200  1
