# generated using pymatgen
data_ScCu(WO4)2
_symmetry_space_group_name_H-M   'P 1'
_cell_length_a   7.56922505
_cell_length_b   7.56922505
_cell_length_c   5.08545610
_cell_angle_alpha   89.35669171
_cell_angle_beta   89.35669171
_cell_angle_gamma   100.80906986
_symmetry_Int_Tables_number   1
_chemical_formula_structural   ScCu(WO4)2
_chemical_formula_sum   'Sc2 Cu2 W4 O16'
_cell_volume   286.14801581
_cell_formula_units_Z   2
loop_
 _symmetry_equiv_pos_site_id
 _symmetry_equiv_pos_as_xyz
  1  'x, y, z'
loop_
 _atom_site_type_symbol
 _atom_site_label
 _atom_site_symmetry_multiplicity
 _atom_site_fract_x
 _atom_site_fract_y
 _atom_site_fract_z
 _atom_site_occupancy
  Sc  Sc0  1  0.83110300  0.16889700  0.75000000  1
  Sc  Sc1  1  0.16889700  0.83110300  0.25000000  1
  Cu  Cu2  1  0.33271300  0.66728700  0.75000000  1
  Cu  Cu3  1  0.66728700  0.33271300  0.25000000  1
  W  W4  1  0.33880200  0.16914800  0.75093600  1
  W  W5  1  0.66119800  0.83085200  0.24906400  1
  W  W6  1  0.83085200  0.66119800  0.74906400  1
  W  W7  1  0.16914800  0.33880200  0.25093600  1
  O  O8  1  0.69636800  0.05860000  0.09564400  1
  O  O9  1  0.30363200  0.94140000  0.90435600  1
  O  O10  1  0.94140000  0.30363200  0.40435600  1
  O  O11  1  0.05860000  0.69636800  0.59564400  1
  O  O12  1  0.80216900  0.91564800  0.56527900  1
  O  O13  1  0.19783100  0.08435200  0.43472100  1
  O  O14  1  0.08435200  0.19783100  0.93472100  1
  O  O15  1  0.91564800  0.80216900  0.06527900  1
  O  O16  1  0.56679500  0.18864600  0.61131100  1
  O  O17  1  0.43320500  0.81135400  0.38868900  1
  O  O18  1  0.81135400  0.43320500  0.88868900  1
  O  O19  1  0.18864600  0.56679500  0.11131100  1
  O  O20  1  0.59285300  0.69677500  0.93148700  1
  O  O21  1  0.40714700  0.30322500  0.06851300  1
  O  O22  1  0.30322500  0.40714700  0.56851300  1
  O  O23  1  0.69677500  0.59285300  0.43148700  1
