# generated using pymatgen
data_Sc(NF2)3
_symmetry_space_group_name_H-M   'P 1'
_cell_length_a   5.30343800
_cell_length_b   5.56511600
_cell_length_c   11.55853422
_cell_angle_alpha   65.53192937
_cell_angle_beta   90.00000000
_cell_angle_gamma   90.00000000
_symmetry_Int_Tables_number   1
_chemical_formula_structural   Sc(NF2)3
_chemical_formula_sum   'Sc2 N6 F12'
_cell_volume   310.50428843
_cell_formula_units_Z   2
loop_
 _symmetry_equiv_pos_site_id
 _symmetry_equiv_pos_as_xyz
  1  'x, y, z'
loop_
 _atom_site_type_symbol
 _atom_site_label
 _atom_site_symmetry_multiplicity
 _atom_site_fract_x
 _atom_site_fract_y
 _atom_site_fract_z
 _atom_site_occupancy
  Sc  Sc0  1  0.00000000  0.00000000  0.00000000  1
  Sc  Sc1  1  0.50000000  0.00000000  0.50000000  1
  N  N2  1  0.00000000  0.50000000  0.50000000  1
  N  N3  1  0.50000000  0.50000000  0.00000000  1
  N  N4  1  0.38709600  0.74637200  0.24563000  1
  N  N5  1  0.61290400  0.25362800  0.75437000  1
  N  N6  1  0.88709600  0.25362800  0.25437000  1
  N  N7  1  0.11290400  0.74637200  0.74563000  1
  F  F8  1  0.73108300  0.06211500  0.09335300  1
  F  F9  1  0.26891700  0.93788500  0.90664700  1
  F  F10  1  0.23108300  0.93788500  0.40664700  1
  F  F11  1  0.76891700  0.06211500  0.59335300  1
  F  F12  1  0.14257300  0.73525000  0.20549700  1
  F  F13  1  0.85742700  0.26475000  0.79450300  1
  F  F14  1  0.64257300  0.26475000  0.29450300  1
  F  F15  1  0.35742700  0.73525000  0.70549700  1
  F  F16  1  0.22061400  0.30207900  0.01057600  1
  F  F17  1  0.77938600  0.69792100  0.98942400  1
  F  F18  1  0.72061400  0.69792100  0.48942400  1
  F  F19  1  0.27938600  0.30207900  0.51057600  1
