# generated using pymatgen
data_RbSc3F10
_symmetry_space_group_name_H-M   'P 1'
_cell_length_a   6.83196700
_cell_length_b   7.66649400
_cell_length_c   8.16632600
_cell_angle_alpha   90.00000000
_cell_angle_beta   90.00000000
_cell_angle_gamma   90.00000000
_symmetry_Int_Tables_number   1
_chemical_formula_structural   RbSc3F10
_chemical_formula_sum   'Rb2 Sc6 F20'
_cell_volume   427.72956793
_cell_formula_units_Z   2
loop_
 _symmetry_equiv_pos_site_id
 _symmetry_equiv_pos_as_xyz
  1  'x, y, z'
loop_
 _atom_site_type_symbol
 _atom_site_label
 _atom_site_symmetry_multiplicity
 _atom_site_fract_x
 _atom_site_fract_y
 _atom_site_fract_z
 _atom_site_occupancy
  Rb  Rb0  1  0.99115300  0.50000000  0.00000000  1
  Rb  Rb1  1  0.00884700  0.50000000  0.50000000  1
  Sc  Sc2  1  0.00000000  0.00463800  0.25000000  1
  Sc  Sc3  1  0.00000000  0.99536200  0.75000000  1
  Sc  Sc4  1  0.50000000  0.73534200  0.25000000  1
  Sc  Sc5  1  0.50000000  0.26465800  0.75000000  1
  Sc  Sc6  1  0.50000000  0.27522200  0.25000000  1
  Sc  Sc7  1  0.50000000  0.72477800  0.75000000  1
  F  F8  1  0.32470400  0.50534400  0.24208300  1
  F  F9  1  0.67529600  0.49465600  0.74208300  1
  F  F10  1  0.67529600  0.50534400  0.25791700  1
  F  F11  1  0.32470400  0.49465600  0.75791700  1
  F  F12  1  0.50000000  0.00497800  0.25000000  1
  F  F13  1  0.50000000  0.99502200  0.75000000  1
  F  F14  1  0.19940100  0.19023200  0.73443300  1
  F  F15  1  0.80059900  0.80976800  0.23443300  1
  F  F16  1  0.80059900  0.19023200  0.76556700  1
  F  F17  1  0.19940100  0.80976800  0.26556600  1
  F  F18  1  0.49947200  0.27634600  0.00002000  1
  F  F19  1  0.50052800  0.72365400  0.50002000  1
  F  F20  1  0.50052800  0.27634600  0.49998000  1
  F  F21  1  0.49947200  0.72365400  0.99998000  1
  F  F22  1  0.01924900  0.00000000  0.00000000  1
  F  F23  1  0.98075100  0.00000000  0.50000000  1
  F  F24  1  0.19810100  0.20155100  0.25440500  1
  F  F25  1  0.80189900  0.79844900  0.75440500  1
  F  F26  1  0.80189900  0.20155100  0.24559500  1
  F  F27  1  0.19810100  0.79844900  0.74559500  1
