# generated using pymatgen
data_Sm2RuO5
_symmetry_space_group_name_H-M   'P 1'
_cell_length_a   3.93631300
_cell_length_b   10.53945300
_cell_length_c   11.52952900
_cell_angle_alpha   90.00000000
_cell_angle_beta   90.00000000
_cell_angle_gamma   90.00000000
_symmetry_Int_Tables_number   1
_chemical_formula_structural   Sm2RuO5
_chemical_formula_sum   'Sm8 Ru4 O20'
_cell_volume   478.32079475
_cell_formula_units_Z   4
loop_
 _symmetry_equiv_pos_site_id
 _symmetry_equiv_pos_as_xyz
  1  'x, y, z'
loop_
 _atom_site_type_symbol
 _atom_site_label
 _atom_site_symmetry_multiplicity
 _atom_site_fract_x
 _atom_site_fract_y
 _atom_site_fract_z
 _atom_site_occupancy
  Sm  Sm0  1  0.25000000  0.60418300  0.23121000  1
  Sm  Sm1  1  0.75000000  0.39581700  0.76879000  1
  Sm  Sm2  1  0.75000000  0.89581700  0.73121000  1
  Sm  Sm3  1  0.25000000  0.10418300  0.26879000  1
  Sm  Sm4  1  0.25000000  0.63280600  0.56491300  1
  Sm  Sm5  1  0.75000000  0.36719400  0.43508700  1
  Sm  Sm6  1  0.75000000  0.86719400  0.06491300  1
  Sm  Sm7  1  0.25000000  0.13280600  0.93508700  1
  Ru  Ru8  1  0.25000000  0.68683000  0.88304100  1
  Ru  Ru9  1  0.75000000  0.31317000  0.11695900  1
  Ru  Ru10  1  0.75000000  0.81317000  0.38304100  1
  Ru  Ru11  1  0.25000000  0.18683000  0.61695900  1
  O  O12  1  0.25000000  0.98991500  0.09688200  1
  O  O13  1  0.75000000  0.01008500  0.90311800  1
  O  O14  1  0.75000000  0.51008500  0.59688200  1
  O  O15  1  0.25000000  0.48991500  0.40311800  1
  O  O16  1  0.25000000  0.72126500  0.04626500  1
  O  O17  1  0.75000000  0.27873500  0.95373500  1
  O  O18  1  0.75000000  0.77873500  0.54626500  1
  O  O19  1  0.25000000  0.22126500  0.45373500  1
  O  O20  1  0.25000000  0.77128900  0.72819600  1
  O  O21  1  0.75000000  0.22871100  0.27180400  1
  O  O22  1  0.75000000  0.72871100  0.22819600  1
  O  O23  1  0.25000000  0.27128900  0.77180400  1
  O  O24  1  0.25000000  0.52890600  0.80338400  1
  O  O25  1  0.75000000  0.47109400  0.19661600  1
  O  O26  1  0.75000000  0.97109400  0.30338400  1
  O  O27  1  0.25000000  0.02890600  0.69661600  1
  O  O28  1  0.25000000  0.76282500  0.38577700  1
  O  O29  1  0.75000000  0.23717500  0.61422300  1
  O  O30  1  0.75000000  0.73717500  0.88577700  1
  O  O31  1  0.25000000  0.26282500  0.11422300  1
