# generated using pymatgen
data_RbGd(MoO4)2
_symmetry_space_group_name_H-M   'P 1'
_cell_length_a   7.59452343
_cell_length_b   7.59452343
_cell_length_c   7.81054980
_cell_angle_alpha   61.93790013
_cell_angle_beta   61.93790013
_cell_angle_gamma   88.55743662
_symmetry_Int_Tables_number   1
_chemical_formula_structural   RbGd(MoO4)2
_chemical_formula_sum   'Rb2 Gd2 Mo4 O16'
_cell_volume   339.48440520
_cell_formula_units_Z   2
loop_
 _symmetry_equiv_pos_site_id
 _symmetry_equiv_pos_as_xyz
  1  'x, y, z'
loop_
 _atom_site_type_symbol
 _atom_site_label
 _atom_site_symmetry_multiplicity
 _atom_site_fract_x
 _atom_site_fract_y
 _atom_site_fract_z
 _atom_site_occupancy
  Rb  Rb0  1  0.19910200  0.80089800  0.75000000  1
  Rb  Rb1  1  0.80089800  0.19910200  0.25000000  1
  Gd  Gd2  1  0.77053800  0.22946200  0.75000000  1
  Gd  Gd3  1  0.22946200  0.77053800  0.25000000  1
  Mo  Mo4  1  0.69447500  0.69607000  0.76263900  1
  Mo  Mo5  1  0.30552500  0.30393000  0.23736100  1
  Mo  Mo6  1  0.30393000  0.30552500  0.73736100  1
  Mo  Mo7  1  0.69607000  0.69447500  0.26263900  1
  O  O8  1  0.61569800  0.76450100  0.56237400  1
  O  O9  1  0.38430200  0.23549900  0.43762600  1
  O  O10  1  0.23549900  0.38430200  0.93762600  1
  O  O11  1  0.76450100  0.61569800  0.06237400  1
  O  O12  1  0.38330100  0.07031500  0.87269300  1
  O  O13  1  0.61669900  0.92968500  0.12730700  1
  O  O14  1  0.92968500  0.61669900  0.62730700  1
  O  O15  1  0.07031500  0.38330100  0.37269300  1
  O  O16  1  0.58354400  0.36831500  0.97146600  1
  O  O17  1  0.41645600  0.63168500  0.02853400  1
  O  O18  1  0.63168500  0.41645600  0.52853400  1
  O  O19  1  0.36831500  0.58354400  0.47146600  1
  O  O20  1  0.79258300  0.94973300  0.69214800  1
  O  O21  1  0.20741700  0.05026700  0.30785200  1
  O  O22  1  0.05026700  0.20741700  0.80785200  1
  O  O23  1  0.94973300  0.79258300  0.19214800  1
