# generated using pymatgen
data_Rb2Cr(ICl)2
_symmetry_space_group_name_H-M   'P 1'
_cell_length_a   9.71964716
_cell_length_b   9.71964716
_cell_length_c   7.49351100
_cell_angle_alpha   90.00000000
_cell_angle_beta   90.00000000
_cell_angle_gamma   134.64671277
_symmetry_Int_Tables_number   1
_chemical_formula_structural   Rb2Cr(ICl)2
_chemical_formula_sum   'Rb4 Cr2 I4 Cl4'
_cell_volume   503.65456737
_cell_formula_units_Z   2
loop_
 _symmetry_equiv_pos_site_id
 _symmetry_equiv_pos_as_xyz
  1  'x, y, z'
loop_
 _atom_site_type_symbol
 _atom_site_label
 _atom_site_symmetry_multiplicity
 _atom_site_fract_x
 _atom_site_fract_y
 _atom_site_fract_z
 _atom_site_occupancy
  Rb  Rb0  1  0.12638800  0.87361200  0.50000000  1
  Rb  Rb1  1  0.87361200  0.12638800  0.50000000  1
  Rb  Rb2  1  0.37361200  0.62638800  0.00000000  1
  Rb  Rb3  1  0.62638800  0.37361200  0.00000000  1
  Cr  Cr4  1  0.50000000  0.50000000  0.50000000  1
  Cr  Cr5  1  0.00000000  0.00000000  0.00000000  1
  I  I6  1  0.34418000  0.65582000  0.50000000  1
  I  I7  1  0.65582000  0.34418000  0.50000000  1
  I  I8  1  0.15582000  0.84418000  0.00000000  1
  I  I9  1  0.84418000  0.15582000  0.00000000  1
  Cl  Cl10  1  0.72897300  0.72897300  0.72851600  1
  Cl  Cl11  1  0.27102700  0.27102700  0.27148400  1
  Cl  Cl12  1  0.77102700  0.77102700  0.22851600  1
  Cl  Cl13  1  0.22897300  0.22897300  0.77148400  1
