# generated using pymatgen
data_Rb2FeH2Br5O
_symmetry_space_group_name_H-M   'P 1'
_cell_length_a   7.63370700
_cell_length_b   10.49647800
_cell_length_c   14.75867000
_cell_angle_alpha   90.00000000
_cell_angle_beta   90.00000000
_cell_angle_gamma   90.00000000
_symmetry_Int_Tables_number   1
_chemical_formula_structural   Rb2FeH2Br5O
_chemical_formula_sum   'Rb8 Fe4 H8 Br20 O4'
_cell_volume   1182.56850578
_cell_formula_units_Z   4
loop_
 _symmetry_equiv_pos_site_id
 _symmetry_equiv_pos_as_xyz
  1  'x, y, z'
loop_
 _atom_site_type_symbol
 _atom_site_label
 _atom_site_symmetry_multiplicity
 _atom_site_fract_x
 _atom_site_fract_y
 _atom_site_fract_z
 _atom_site_occupancy
  Rb  Rb0  1  0.84411400  0.50169900  0.85614300  1
  Rb  Rb1  1  0.15588600  0.49830100  0.14385700  1
  Rb  Rb2  1  0.34411400  0.49830100  0.64385700  1
  Rb  Rb3  1  0.15588600  0.00169900  0.14385700  1
  Rb  Rb4  1  0.65588600  0.50169900  0.35614300  1
  Rb  Rb5  1  0.84411400  0.99830100  0.85614300  1
  Rb  Rb6  1  0.65588600  0.99830100  0.35614300  1
  Rb  Rb7  1  0.34411400  0.00169900  0.64385700  1
  Fe  Fe8  1  0.80572400  0.75000000  0.61309000  1
  Fe  Fe9  1  0.19427600  0.25000000  0.38691000  1
  Fe  Fe10  1  0.30572400  0.25000000  0.88691000  1
  Fe  Fe11  1  0.69427600  0.75000000  0.11309000  1
  H  H12  1  0.96609400  0.17371700  0.52719900  1
  H  H13  1  0.03390600  0.82628300  0.47280100  1
  H  H14  1  0.46609400  0.82628300  0.97280100  1
  H  H15  1  0.03390600  0.67371700  0.47280100  1
  H  H16  1  0.53390600  0.17371700  0.02719900  1
  H  H17  1  0.96609400  0.32628300  0.52719900  1
  H  H18  1  0.53390600  0.32628300  0.02719900  1
  H  H19  1  0.46609400  0.67371700  0.97280100  1
  Br  Br20  1  0.06907800  0.75000000  0.72026200  1
  Br  Br21  1  0.93092200  0.25000000  0.27973800  1
  Br  Br22  1  0.56907800  0.25000000  0.77973800  1
  Br  Br23  1  0.43092200  0.75000000  0.22026200  1
  Br  Br24  1  0.81866200  0.50486900  0.60250700  1
  Br  Br25  1  0.18133800  0.49513100  0.39749300  1
  Br  Br26  1  0.31866200  0.49513100  0.89749300  1
  Br  Br27  1  0.18133800  0.00486900  0.39749300  1
  Br  Br28  1  0.68133800  0.50486900  0.10250700  1
  Br  Br29  1  0.81866200  0.99513100  0.60250700  1
  Br  Br30  1  0.68133800  0.99513100  0.10250700  1
  Br  Br31  1  0.31866200  0.00486900  0.89749300  1
  Br  Br32  1  0.60045600  0.75000000  0.74850800  1
  Br  Br33  1  0.39954400  0.25000000  0.25149200  1
  Br  Br34  1  0.10045600  0.25000000  0.75149200  1
  Br  Br35  1  0.89954400  0.75000000  0.24850800  1
  Br  Br36  1  0.53539800  0.75000000  0.50689000  1
  Br  Br37  1  0.46460200  0.25000000  0.49311000  1
  Br  Br38  1  0.03539800  0.25000000  0.99311000  1
  Br  Br39  1  0.96460200  0.75000000  0.00689000  1
  O  O40  1  0.97471500  0.75000000  0.49734600  1
  O  O41  1  0.02528500  0.25000000  0.50265400  1
  O  O42  1  0.47471500  0.25000000  0.00265400  1
  O  O43  1  0.52528500  0.75000000  0.99734600  1
