# generated using pymatgen
data_PrSBr
_symmetry_space_group_name_H-M   'P 1'
_cell_length_a   6.96305900
_cell_length_b   7.14042100
_cell_length_c   13.92027000
_cell_angle_alpha   90.00000000
_cell_angle_beta   90.00000000
_cell_angle_gamma   90.00000000
_symmetry_Int_Tables_number   1
_chemical_formula_structural   PrSBr
_chemical_formula_sum   'Pr8 S8 Br8'
_cell_volume   692.10430827
_cell_formula_units_Z   8
loop_
 _symmetry_equiv_pos_site_id
 _symmetry_equiv_pos_as_xyz
  1  'x, y, z'
loop_
 _atom_site_type_symbol
 _atom_site_label
 _atom_site_symmetry_multiplicity
 _atom_site_fract_x
 _atom_site_fract_y
 _atom_site_fract_z
 _atom_site_occupancy
  Pr  Pr0  1  0.25968700  0.96732900  0.90720000  1
  Pr  Pr1  1  0.74031300  0.03267100  0.09280000  1
  Pr  Pr2  1  0.24031300  0.46732900  0.09280000  1
  Pr  Pr3  1  0.74031300  0.53267100  0.40720000  1
  Pr  Pr4  1  0.75968700  0.53267100  0.90720000  1
  Pr  Pr5  1  0.25968700  0.46732900  0.59280000  1
  Pr  Pr6  1  0.75968700  0.03267100  0.59280000  1
  Pr  Pr7  1  0.24031300  0.96732900  0.40720000  1
  S  S8  1  0.99818700  0.74111600  0.52450700  1
  S  S9  1  0.00181300  0.25888400  0.47549300  1
  S  S10  1  0.50181300  0.24111600  0.47549300  1
  S  S11  1  0.00181300  0.75888400  0.02450700  1
  S  S12  1  0.49818700  0.75888400  0.52450700  1
  S  S13  1  0.99818700  0.24111600  0.97549300  1
  S  S14  1  0.49818700  0.25888400  0.97549300  1
  S  S15  1  0.50181300  0.74111600  0.02450700  1
  Br  Br16  1  0.17958000  0.59930700  0.79712100  1
  Br  Br17  1  0.82042000  0.40069300  0.20287900  1
  Br  Br18  1  0.32042000  0.09930700  0.20287900  1
  Br  Br19  1  0.82042000  0.90069300  0.29712100  1
  Br  Br20  1  0.67958000  0.90069300  0.79712100  1
  Br  Br21  1  0.17958000  0.09930700  0.70287900  1
  Br  Br22  1  0.67958000  0.40069300  0.70287900  1
  Br  Br23  1  0.32042000  0.59930700  0.29712100  1
