# generated using pymatgen
data_Rb3Au3Br8
_symmetry_space_group_name_H-M   'P 1'
_cell_length_a   7.63768688
_cell_length_b   7.63768688
_cell_length_c   19.72442942
_cell_angle_alpha   83.59274780
_cell_angle_beta   83.59274780
_cell_angle_gamma   64.02929253
_symmetry_Int_Tables_number   1
_chemical_formula_structural   Rb3Au3Br8
_chemical_formula_sum   'Rb6 Au6 Br16'
_cell_volume   1025.42119329
_cell_formula_units_Z   2
loop_
 _symmetry_equiv_pos_site_id
 _symmetry_equiv_pos_as_xyz
  1  'x, y, z'
loop_
 _atom_site_type_symbol
 _atom_site_label
 _atom_site_symmetry_multiplicity
 _atom_site_fract_x
 _atom_site_fract_y
 _atom_site_fract_z
 _atom_site_occupancy
  Rb  Rb0  1  0.67715800  0.68702400  0.41555800  1
  Rb  Rb1  1  0.32284200  0.31297600  0.58444200  1
  Rb  Rb2  1  0.31297600  0.32284200  0.08444200  1
  Rb  Rb3  1  0.68702400  0.67715800  0.91555800  1
  Rb  Rb4  1  0.98392100  0.01607900  0.25000000  1
  Rb  Rb5  1  0.01607900  0.98392100  0.75000000  1
  Au  Au6  1  0.00000000  0.00000000  0.00000000  1
  Au  Au7  1  0.00000000  0.00000000  0.50000000  1
  Au  Au8  1  0.61456000  0.61853700  0.18967300  1
  Au  Au9  1  0.38544000  0.38146300  0.81032700  1
  Au  Au10  1  0.38146300  0.38544000  0.31032700  1
  Au  Au11  1  0.61853700  0.61456000  0.68967300  1
  Br  Br12  1  0.32619900  0.75635700  0.12330600  1
  Br  Br13  1  0.67380100  0.24364300  0.87669400  1
  Br  Br14  1  0.24364300  0.67380100  0.37669400  1
  Br  Br15  1  0.75635700  0.32619900  0.62330600  1
  Br  Br16  1  0.50025000  0.09427700  0.24559400  1
  Br  Br17  1  0.49975000  0.90572300  0.75440600  1
  Br  Br18  1  0.90572300  0.49975000  0.25440600  1
  Br  Br19  1  0.09427700  0.50025000  0.74559400  1
  Br  Br20  1  0.79218900  0.85088100  0.06384000  1
  Br  Br21  1  0.20781100  0.14911900  0.93616000  1
  Br  Br22  1  0.14911900  0.20781100  0.43616000  1
  Br  Br23  1  0.85088100  0.79218900  0.56384000  1
  Br  Br24  1  0.70943300  0.16238800  0.42785300  1
  Br  Br25  1  0.29056700  0.83761200  0.57214700  1
  Br  Br26  1  0.83761200  0.29056700  0.07214700  1
  Br  Br27  1  0.16238800  0.70943300  0.92785300  1
