# generated using pymatgen
data_RbH2CN5
_symmetry_space_group_name_H-M   'P 1'
_cell_length_a   6.77237400
_cell_length_b   8.22654800
_cell_length_c   9.12598000
_cell_angle_alpha   90.00000000
_cell_angle_beta   90.00000000
_cell_angle_gamma   90.00000000
_symmetry_Int_Tables_number   1
_chemical_formula_structural   RbH2CN5
_chemical_formula_sum   'Rb4 H8 C4 N20'
_cell_volume   508.43809453
_cell_formula_units_Z   4
loop_
 _symmetry_equiv_pos_site_id
 _symmetry_equiv_pos_as_xyz
  1  'x, y, z'
loop_
 _atom_site_type_symbol
 _atom_site_label
 _atom_site_symmetry_multiplicity
 _atom_site_fract_x
 _atom_site_fract_y
 _atom_site_fract_z
 _atom_site_occupancy
  Rb  Rb0  1  0.75000000  0.98094600  0.28960700  1
  Rb  Rb1  1  0.25000000  0.01905400  0.71039300  1
  Rb  Rb2  1  0.25000000  0.51905400  0.78960700  1
  Rb  Rb3  1  0.75000000  0.48094600  0.21039300  1
  H  H4  1  0.87703900  0.72088800  0.57023700  1
  H  H5  1  0.12296100  0.27911200  0.42976300  1
  H  H6  1  0.12296100  0.77911200  0.07023700  1
  H  H7  1  0.37703900  0.27911200  0.42976300  1
  H  H8  1  0.87703900  0.22088800  0.92976300  1
  H  H9  1  0.62296100  0.72088800  0.57023700  1
  H  H10  1  0.62296100  0.22088800  0.92976300  1
  H  H11  1  0.37703900  0.77911200  0.07023700  1
  C  C12  1  0.75000000  0.78553400  0.76051700  1
  C  C13  1  0.25000000  0.21446600  0.23948300  1
  C  C14  1  0.25000000  0.71446600  0.26051700  1
  C  C15  1  0.75000000  0.28553400  0.73948300  1
  N  N16  1  0.91516200  0.79415900  0.84295000  1
  N  N17  1  0.08483800  0.20584100  0.15705000  1
  N  N18  1  0.08483800  0.70584100  0.34295000  1
  N  N19  1  0.41516200  0.20584100  0.15705000  1
  N  N20  1  0.91516200  0.29415900  0.65705000  1
  N  N21  1  0.58483800  0.79415900  0.84295000  1
  N  N22  1  0.58483800  0.29415900  0.65705000  1
  N  N23  1  0.41516200  0.70584100  0.34295000  1
  N  N24  1  0.75000000  0.77261600  0.60954900  1
  N  N25  1  0.25000000  0.22738400  0.39045100  1
  N  N26  1  0.25000000  0.72738400  0.10954900  1
  N  N27  1  0.75000000  0.27261600  0.89045100  1
  N  N28  1  0.84701600  0.80719800  0.98253600  1
  N  N29  1  0.15298400  0.19280200  0.01746400  1
  N  N30  1  0.15298400  0.69280200  0.48253600  1
  N  N31  1  0.34701600  0.19280200  0.01746400  1
  N  N32  1  0.84701600  0.30719800  0.51746400  1
  N  N33  1  0.65298400  0.80719800  0.98253600  1
  N  N34  1  0.65298400  0.30719800  0.51746400  1
  N  N35  1  0.34701600  0.69280200  0.48253600  1
