# generated using pymatgen
data_RbBi3Se5
_symmetry_space_group_name_H-M   'P 1'
_cell_length_a   18.64438330
_cell_length_b   18.64438330
_cell_length_c   25.07573846
_cell_angle_alpha   60.47604993
_cell_angle_beta   60.47604993
_cell_angle_gamma   13.46874390
_symmetry_Int_Tables_number   1
_chemical_formula_structural   RbBi3Se5
_chemical_formula_sum   'Rb6 Bi18 Se30'
_cell_volume   1762.65691246
_cell_formula_units_Z   6
loop_
 _symmetry_equiv_pos_site_id
 _symmetry_equiv_pos_as_xyz
  1  'x, y, z'
loop_
 _atom_site_type_symbol
 _atom_site_label
 _atom_site_symmetry_multiplicity
 _atom_site_fract_x
 _atom_site_fract_y
 _atom_site_fract_z
 _atom_site_occupancy
  Rb  Rb0  1  0.82656200  0.82656200  0.69250700  1
  Rb  Rb1  1  0.17343800  0.17343800  0.30749300  1
  Rb  Rb2  1  0.52263500  0.52263500  0.28849100  1
  Rb  Rb3  1  0.47736500  0.47736500  0.71150900  1
  Rb  Rb4  1  0.33858400  0.33858400  0.15184900  1
  Rb  Rb5  1  0.66141600  0.66141600  0.84815100  1
  Bi  Bi6  1  0.84312400  0.84312400  0.84014900  1
  Bi  Bi7  1  0.15687600  0.15687600  0.15985100  1
  Bi  Bi8  1  0.61140100  0.61140100  0.06177300  1
  Bi  Bi9  1  0.38859900  0.38859900  0.93822700  1
  Bi  Bi10  1  0.69448300  0.69448300  0.50817800  1
  Bi  Bi11  1  0.30551700  0.30551700  0.49182200  1
  Bi  Bi12  1  0.45640400  0.45640400  0.16046200  1
  Bi  Bi13  1  0.54359600  0.54359600  0.83953800  1
  Bi  Bi14  1  0.77716300  0.77716300  0.05439500  1
  Bi  Bi15  1  0.22283700  0.22283700  0.94560500  1
  Bi  Bi16  1  0.88809500  0.88809500  0.32402000  1
  Bi  Bi17  1  0.11190500  0.11190500  0.67598000  1
  Bi  Bi18  1  0.91130500  0.91130500  0.48500800  1
  Bi  Bi19  1  0.08869500  0.08869500  0.51499200  1
  Bi  Bi20  1  0.50000000  0.50000000  0.50000000  1
  Bi  Bi21  1  0.72505700  0.72505700  0.65806700  1
  Bi  Bi22  1  0.27494300  0.27494300  0.34193300  1
  Bi  Bi23  1  0.00000000  0.00000000  0.00000000  1
  Se  Se24  1  0.81343800  0.81343800  0.56119900  1
  Se  Se25  1  0.18656200  0.18656200  0.43880100  1
  Se  Se26  1  0.60328600  0.60328600  0.59330700  1
  Se  Se27  1  0.39671400  0.39671400  0.40669300  1
  Se  Se28  1  0.62997800  0.62997800  0.24240400  1
  Se  Se29  1  0.37002200  0.37002200  0.75759600  1
  Se  Se30  1  0.97018000  0.97018000  0.23470000  1
  Se  Se31  1  0.02982000  0.02982000  0.76530000  1
  Se  Se32  1  0.85818400  0.85818400  0.03255900  1
  Se  Se33  1  0.14181600  0.14181600  0.96744100  1
  Se  Se34  1  0.78745700  0.78745700  0.42295900  1
  Se  Se35  1  0.21254300  0.21254300  0.57704100  1
  Se  Se36  1  0.59214700  0.59214700  0.43873600  1
  Se  Se37  1  0.40785300  0.40785300  0.56126400  1
  Se  Se38  1  0.76419400  0.76419400  0.28018200  1
  Se  Se39  1  0.23580600  0.23580600  0.71981800  1
  Se  Se40  1  0.92424300  0.92424300  0.12118200  1
  Se  Se41  1  0.07575700  0.07575700  0.87881800  1
  Se  Se42  1  0.53238200  0.53238200  0.04494400  1
  Se  Se43  1  0.46761800  0.46761800  0.95505600  1
  Se  Se44  1  0.99933700  0.99933700  0.41997600  1
  Se  Se45  1  0.00066300  0.00066300  0.58002400  1
  Se  Se46  1  0.24821300  0.24821300  0.13816200  1
  Se  Se47  1  0.75178700  0.75178700  0.86183800  1
  Se  Se48  1  0.91710100  0.91710100  0.84818900  1
  Se  Se49  1  0.08289900  0.08289900  0.15181100  1
  Se  Se50  1  0.69147400  0.69147400  0.05197300  1
  Se  Se51  1  0.30852600  0.30852600  0.94802700  1
  Se  Se52  1  0.36741900  0.36741900  0.26952900  1
  Se  Se53  1  0.63258100  0.63258100  0.73047100  1
