# generated using pymatgen
data_RbAlAgF6
_symmetry_space_group_name_H-M   'P 1'
_cell_length_a   7.16394100
_cell_length_b   7.33516000
_cell_length_c   10.47738800
_cell_angle_alpha   90.00000000
_cell_angle_beta   90.00000000
_cell_angle_gamma   90.00000000
_symmetry_Int_Tables_number   1
_chemical_formula_structural   RbAlAgF6
_chemical_formula_sum   'Rb4 Al4 Ag4 F24'
_cell_volume   550.57263124
_cell_formula_units_Z   4
loop_
 _symmetry_equiv_pos_site_id
 _symmetry_equiv_pos_as_xyz
  1  'x, y, z'
loop_
 _atom_site_type_symbol
 _atom_site_label
 _atom_site_symmetry_multiplicity
 _atom_site_fract_x
 _atom_site_fract_y
 _atom_site_fract_z
 _atom_site_occupancy
  Rb  Rb0  1  0.01792600  0.25000000  0.63595400  1
  Rb  Rb1  1  0.98207400  0.75000000  0.36404600  1
  Rb  Rb2  1  0.48207400  0.75000000  0.13595400  1
  Rb  Rb3  1  0.51792600  0.25000000  0.86404600  1
  Al  Al4  1  0.00000000  0.00000000  0.00000000  1
  Al  Al5  1  0.50000000  0.00000000  0.50000000  1
  Al  Al6  1  0.00000000  0.50000000  0.00000000  1
  Al  Al7  1  0.50000000  0.50000000  0.50000000  1
  Ag  Ag8  1  0.21556900  0.25000000  0.25356500  1
  Ag  Ag9  1  0.78443100  0.75000000  0.74643500  1
  Ag  Ag10  1  0.28443100  0.75000000  0.75356500  1
  Ag  Ag11  1  0.71556900  0.25000000  0.24643500  1
  F  F12  1  0.28718300  0.02582400  0.40839300  1
  F  F13  1  0.71281700  0.97417600  0.59160700  1
  F  F14  1  0.21281700  0.97417600  0.90839300  1
  F  F15  1  0.71281700  0.52582400  0.59160700  1
  F  F16  1  0.78718300  0.02582400  0.09160700  1
  F  F17  1  0.28718300  0.47417600  0.40839300  1
  F  F18  1  0.78718300  0.47417600  0.09160700  1
  F  F19  1  0.21281700  0.52582400  0.90839300  1
  F  F20  1  0.53955500  0.25000000  0.49765600  1
  F  F21  1  0.46044500  0.75000000  0.50234400  1
  F  F22  1  0.96044500  0.75000000  0.99765600  1
  F  F23  1  0.03955500  0.25000000  0.00234400  1
  F  F24  1  0.13513300  0.52127200  0.14705300  1
  F  F25  1  0.86486700  0.47872800  0.85294700  1
  F  F26  1  0.36486700  0.47872800  0.64705300  1
  F  F27  1  0.86486700  0.02127200  0.85294700  1
  F  F28  1  0.63513300  0.52127200  0.35294700  1
  F  F29  1  0.13513300  0.97872800  0.14705300  1
  F  F30  1  0.63513300  0.97872800  0.35294700  1
  F  F31  1  0.36486700  0.02127200  0.64705300  1
  F  F32  1  0.46175100  0.25000000  0.14556600  1
  F  F33  1  0.53824900  0.75000000  0.85443400  1
  F  F34  1  0.03824900  0.75000000  0.64556600  1
  F  F35  1  0.96175100  0.25000000  0.35443400  1
