# generated using pymatgen
data_Pr3(ReO5)2
_symmetry_space_group_name_H-M   'P 1'
_cell_length_a   5.56136770
_cell_length_b   5.56136770
_cell_length_c   7.14916708
_cell_angle_alpha   72.47879480
_cell_angle_beta   72.47879480
_cell_angle_gamma   89.40328781
_symmetry_Int_Tables_number   1
_chemical_formula_structural   Pr3(ReO5)2
_chemical_formula_sum   'Pr3 Re2 O10'
_cell_volume   200.29020873
_cell_formula_units_Z   1
loop_
 _symmetry_equiv_pos_site_id
 _symmetry_equiv_pos_as_xyz
  1  'x, y, z'
loop_
 _atom_site_type_symbol
 _atom_site_label
 _atom_site_symmetry_multiplicity
 _atom_site_fract_x
 _atom_site_fract_y
 _atom_site_fract_z
 _atom_site_occupancy
  Pr  Pr0  1  0.00000000  0.00000000  0.50000000  1
  Pr  Pr1  1  0.74308000  0.25692000  0.00000000  1
  Pr  Pr2  1  0.25692000  0.74308000  0.00000000  1
  Re  Re3  1  0.63476600  0.63476600  0.32356300  1
  Re  Re4  1  0.36523400  0.36523400  0.67643700  1
  O  O5  1  0.39805500  0.87713700  0.28646900  1
  O  O6  1  0.60194500  0.12286300  0.71353100  1
  O  O7  1  0.12286300  0.60194500  0.71353100  1
  O  O8  1  0.87713700  0.39805500  0.28646900  1
  O  O9  1  0.64723400  0.64723400  0.59716000  1
  O  O10  1  0.35276600  0.35276600  0.40284000  1
  O  O11  1  0.67090400  0.67090400  0.02726800  1
  O  O12  1  0.32909600  0.32909600  0.97273200  1
  O  O13  1  0.90737100  0.90737100  0.21814900  1
  O  O14  1  0.09262900  0.09262900  0.78185100  1
