# generated using pymatgen
data_ThN3O14
_symmetry_space_group_name_H-M   'P 1'
_cell_length_a   8.04083800
_cell_length_b   7.03036000
_cell_length_c   26.79243315
_cell_angle_alpha   76.95603091
_cell_angle_beta   90.00000000
_cell_angle_gamma   90.00000000
_symmetry_Int_Tables_number   1
_chemical_formula_structural   ThN3O14
_chemical_formula_sum   'Th4 N12 O56'
_cell_volume   1475.49549181
_cell_formula_units_Z   4
loop_
 _symmetry_equiv_pos_site_id
 _symmetry_equiv_pos_as_xyz
  1  'x, y, z'
loop_
 _atom_site_type_symbol
 _atom_site_label
 _atom_site_symmetry_multiplicity
 _atom_site_fract_x
 _atom_site_fract_y
 _atom_site_fract_z
 _atom_site_occupancy
  Th  Th0  1  0.93245100  0.14082300  0.94360800  1
  Th  Th1  1  0.06754900  0.85917700  0.05639200  1
  Th  Th2  1  0.43245100  0.85917700  0.55639200  1
  Th  Th3  1  0.56754900  0.14082300  0.44360800  1
  N  N4  1  0.67652000  0.99540800  0.62408700  1
  N  N5  1  0.32348000  0.00459200  0.37591300  1
  N  N6  1  0.17652000  0.00459200  0.87591300  1
  N  N7  1  0.82348000  0.99540800  0.12408700  1
  N  N8  1  0.77469400  0.39601300  0.49252300  1
  N  N9  1  0.22530600  0.60398700  0.50747700  1
  N  N10  1  0.27469400  0.60398700  0.00747700  1
  N  N11  1  0.72530600  0.39601300  0.99252300  1
  N  N12  1  0.79600200  0.91117000  0.77613700  1
  N  N13  1  0.20399800  0.08883000  0.22386300  1
  N  N14  1  0.29600200  0.08883000  0.72386300  1
  N  N15  1  0.70399800  0.91117000  0.27613700  1
  O  O16  1  0.79665600  0.20797700  0.50153600  1
  O  O17  1  0.20334400  0.79202300  0.49846400  1
  O  O18  1  0.29665600  0.79202300  0.99846400  1
  O  O19  1  0.70334400  0.20797700  0.00153600  1
  O  O20  1  0.79383000  0.79536400  0.74674900  1
  O  O21  1  0.20617000  0.20463600  0.25325100  1
  O  O22  1  0.29383000  0.20463600  0.75325100  1
  O  O23  1  0.70617000  0.79536400  0.24674900  1
  O  O24  1  0.99738500  0.54696000  0.83814600  1
  O  O25  1  0.00261500  0.45304000  0.16185400  1
  O  O26  1  0.49738500  0.45304000  0.66185400  1
  O  O27  1  0.50261500  0.54696000  0.33814600  1
  O  O28  1  0.10015500  0.13698600  0.00482000  1
  O  O29  1  0.89984500  0.86301400  0.99518000  1
  O  O30  1  0.60015500  0.86301400  0.49518000  1
  O  O31  1  0.39984500  0.13698600  0.50482000  1
  O  O32  1  0.78956700  0.07047300  0.64286900  1
  O  O33  1  0.21043300  0.92952700  0.35713100  1
  O  O34  1  0.28956700  0.92952700  0.85713100  1
  O  O35  1  0.71043300  0.07047300  0.14286900  1
  O  O36  1  0.69217600  0.82888700  0.61093700  1
  O  O37  1  0.30782400  0.17111300  0.38906300  1
  O  O38  1  0.19217600  0.17111300  0.88906300  1
  O  O39  1  0.80782400  0.82888700  0.11093700  1
  O  O40  1  0.88241900  0.06309900  0.76514300  1
  O  O41  1  0.11758100  0.93690100  0.23485700  1
  O  O42  1  0.38241900  0.93690100  0.73485700  1
  O  O43  1  0.61758100  0.06309900  0.26514300  1
  O  O44  1  0.11089300  0.83600600  0.61351600  1
  O  O45  1  0.88910700  0.16399400  0.38648400  1
  O  O46  1  0.61089300  0.16399400  0.88648400  1
  O  O47  1  0.38910700  0.83600600  0.11351600  1
  O  O48  1  0.52996700  0.31617200  0.87326600  1
  O  O49  1  0.47003300  0.68382800  0.12673400  1
  O  O50  1  0.02996700  0.68382800  0.62673400  1
  O  O51  1  0.97003300  0.31617200  0.37326600  1
  O  O52  1  0.81678800  0.46653900  0.95226200  1
  O  O53  1  0.18321200  0.53346100  0.04773800  1
  O  O54  1  0.31678800  0.53346100  0.54773800  1
  O  O55  1  0.68321200  0.46653900  0.45226200  1
  O  O56  1  0.41455600  0.57640600  0.67733700  1
  O  O57  1  0.58544400  0.42359400  0.32266300  1
  O  O58  1  0.91455600  0.42359400  0.82266300  1
  O  O59  1  0.08544400  0.57640600  0.17733700  1
  O  O60  1  0.71194000  0.87349900  0.81650400  1
  O  O61  1  0.28806000  0.12650100  0.18349600  1
  O  O62  1  0.21194000  0.12650100  0.68349600  1
  O  O63  1  0.78806000  0.87349900  0.31650400  1
  O  O64  1  0.53120500  0.07623600  0.61466200  1
  O  O65  1  0.46879500  0.92376400  0.38533800  1
  O  O66  1  0.03120500  0.92376400  0.88533800  1
  O  O67  1  0.96879500  0.07623600  0.11466200  1
  O  O68  1  0.83155100  0.49614700  0.51975100  1
  O  O69  1  0.16844900  0.50385300  0.48024900  1
  O  O70  1  0.33155100  0.50385300  0.98024900  1
  O  O71  1  0.66844900  0.49614700  0.01975100  1
