# generated using pymatgen
data_Rb3Au3I8
_symmetry_space_group_name_H-M   'P 1'
_cell_length_a   8.09441362
_cell_length_b   8.09441362
_cell_length_c   20.73222800
_cell_angle_alpha   84.28014178
_cell_angle_beta   84.28014178
_cell_angle_gamma   65.21071175
_symmetry_Int_Tables_number   1
_chemical_formula_structural   Rb3Au3I8
_chemical_formula_sum   'Rb6 Au6 I16'
_cell_volume   1224.53931429
_cell_formula_units_Z   2
loop_
 _symmetry_equiv_pos_site_id
 _symmetry_equiv_pos_as_xyz
  1  'x, y, z'
loop_
 _atom_site_type_symbol
 _atom_site_label
 _atom_site_symmetry_multiplicity
 _atom_site_fract_x
 _atom_site_fract_y
 _atom_site_fract_z
 _atom_site_occupancy
  Rb  Rb0  1  0.32312200  0.31360900  0.58503600  1
  Rb  Rb1  1  0.67687800  0.68639100  0.41496400  1
  Rb  Rb2  1  0.68639100  0.67687800  0.91496400  1
  Rb  Rb3  1  0.31360900  0.32312200  0.08503600  1
  Rb  Rb4  1  0.01558800  0.98441200  0.75000000  1
  Rb  Rb5  1  0.98441200  0.01558800  0.25000000  1
  Au  Au6  1  0.00000000  0.00000000  0.00000000  1
  Au  Au7  1  0.00000000  0.00000000  0.50000000  1
  Au  Au8  1  0.38431800  0.38008200  0.81071400  1
  Au  Au9  1  0.61568200  0.61991800  0.18928600  1
  Au  Au10  1  0.61991800  0.61568200  0.68928600  1
  Au  Au11  1  0.38008200  0.38431800  0.31071400  1
  I  I12  1  0.67323300  0.24389300  0.87667100  1
  I  I13  1  0.32676700  0.75610700  0.12332900  1
  I  I14  1  0.75610700  0.32676700  0.62332900  1
  I  I15  1  0.24389300  0.67323300  0.37667100  1
  I  I16  1  0.50105800  0.90439000  0.75507500  1
  I  I17  1  0.49894200  0.09561000  0.24492500  1
  I  I18  1  0.09561000  0.49894200  0.74492500  1
  I  I19  1  0.90439000  0.50105800  0.25507500  1
  I  I20  1  0.21234800  0.15237900  0.93472400  1
  I  I21  1  0.78765200  0.84762100  0.06527600  1
  I  I22  1  0.84762100  0.78765200  0.56527600  1
  I  I23  1  0.15237900  0.21234800  0.43472400  1
  I  I24  1  0.29283500  0.84095800  0.57286000  1
  I  I25  1  0.70716500  0.15904200  0.42714000  1
  I  I26  1  0.15904200  0.70716500  0.92714000  1
  I  I27  1  0.84095800  0.29283500  0.07286000  1
