# generated using pymatgen
data_Rb2HoCl5
_symmetry_space_group_name_H-M   'P 1'
_cell_length_a   7.42820500
_cell_length_b   9.57961700
_cell_length_c   14.92784500
_cell_angle_alpha   90.00000000
_cell_angle_beta   90.00000000
_cell_angle_gamma   90.00000000
_symmetry_Int_Tables_number   1
_chemical_formula_structural   Rb2HoCl5
_chemical_formula_sum   'Rb8 Ho4 Cl20'
_cell_volume   1062.25587992
_cell_formula_units_Z   4
loop_
 _symmetry_equiv_pos_site_id
 _symmetry_equiv_pos_as_xyz
  1  'x, y, z'
loop_
 _atom_site_type_symbol
 _atom_site_label
 _atom_site_symmetry_multiplicity
 _atom_site_fract_x
 _atom_site_fract_y
 _atom_site_fract_z
 _atom_site_occupancy
  Rb  Rb0  1  0.25000000  0.66391400  0.91680600  1
  Rb  Rb1  1  0.75000000  0.33608600  0.08319400  1
  Rb  Rb2  1  0.75000000  0.83608600  0.41680600  1
  Rb  Rb3  1  0.25000000  0.16391400  0.58319400  1
  Rb  Rb4  1  0.25000000  0.97671700  0.21256500  1
  Rb  Rb5  1  0.75000000  0.02328300  0.78743500  1
  Rb  Rb6  1  0.75000000  0.52328300  0.71256500  1
  Rb  Rb7  1  0.25000000  0.47671700  0.28743500  1
  Ho  Ho8  1  0.25000000  0.67927000  0.56566900  1
  Ho  Ho9  1  0.75000000  0.32073000  0.43433100  1
  Ho  Ho10  1  0.75000000  0.82073000  0.06566900  1
  Ho  Ho11  1  0.25000000  0.17927000  0.93433100  1
  Cl  Cl12  1  0.25000000  0.51927200  0.70458600  1
  Cl  Cl13  1  0.75000000  0.48072800  0.29541400  1
  Cl  Cl14  1  0.75000000  0.98072800  0.20458600  1
  Cl  Cl15  1  0.25000000  0.01927200  0.79541400  1
  Cl  Cl16  1  0.50728400  0.83504900  0.61855700  1
  Cl  Cl17  1  0.49271600  0.16495100  0.38144300  1
  Cl  Cl18  1  0.49271600  0.66495100  0.11855700  1
  Cl  Cl19  1  0.00728400  0.16495100  0.38144300  1
  Cl  Cl20  1  0.50728400  0.33504900  0.88144300  1
  Cl  Cl21  1  0.99271600  0.83504900  0.61855700  1
  Cl  Cl22  1  0.99271600  0.33504900  0.88144300  1
  Cl  Cl23  1  0.00728400  0.66495100  0.11855700  1
  Cl  Cl24  1  0.25000000  0.78709800  0.40309600  1
  Cl  Cl25  1  0.75000000  0.21290200  0.59690400  1
  Cl  Cl26  1  0.75000000  0.71290200  0.90309600  1
  Cl  Cl27  1  0.25000000  0.28709800  0.09690400  1
  Cl  Cl28  1  0.00000000  0.50000000  0.50000000  1
  Cl  Cl29  1  0.00000000  0.00000000  0.00000000  1
  Cl  Cl30  1  0.50000000  0.50000000  0.50000000  1
  Cl  Cl31  1  0.50000000  0.00000000  0.00000000  1
