# generated using pymatgen
data_RbP4(WO4)8
_symmetry_space_group_name_H-M   'P 1'
_cell_length_a   9.58046324
_cell_length_b   9.58046324
_cell_length_c   10.45242430
_cell_angle_alpha   68.81044272
_cell_angle_beta   68.81044272
_cell_angle_gamma   47.58507306
_symmetry_Int_Tables_number   1
_chemical_formula_structural   RbP4(WO4)8
_chemical_formula_sum   'Rb1 P4 W8 O32'
_cell_volume   650.68414085
_cell_formula_units_Z   1
loop_
 _symmetry_equiv_pos_site_id
 _symmetry_equiv_pos_as_xyz
  1  'x, y, z'
loop_
 _atom_site_type_symbol
 _atom_site_label
 _atom_site_symmetry_multiplicity
 _atom_site_fract_x
 _atom_site_fract_y
 _atom_site_fract_z
 _atom_site_occupancy
  Rb  Rb0  1  0.50000000  0.50000000  0.00000000  1
  P  P1  1  0.62142500  0.02341900  0.11634100  1
  P  P2  1  0.37857500  0.97658100  0.88365900  1
  P  P3  1  0.97658100  0.37857500  0.88365900  1
  P  P4  1  0.02341900  0.62142500  0.11634100  1
  W  W5  1  0.61818200  0.11960300  0.41105400  1
  W  W6  1  0.38181800  0.88039700  0.58894600  1
  W  W7  1  0.88039700  0.38181800  0.58894600  1
  W  W8  1  0.11960300  0.61818200  0.41105400  1
  W  W9  1  0.35760900  0.85936800  0.24046700  1
  W  W10  1  0.64239100  0.14063200  0.75953300  1
  W  W11  1  0.14063200  0.64239100  0.75953300  1
  W  W12  1  0.85936800  0.35760900  0.24046700  1
  O  O13  1  0.60962800  0.12007000  0.21252000  1
  O  O14  1  0.39037200  0.87993000  0.78748000  1
  O  O15  1  0.87993000  0.39037200  0.78748000  1
  O  O16  1  0.12007000  0.60962800  0.21252000  1
  O  O17  1  0.80425100  0.80425100  0.13431600  1
  O  O18  1  0.19574900  0.19574900  0.86568400  1
  O  O19  1  0.45616300  0.01827600  0.15231800  1
  O  O20  1  0.54383700  0.98172400  0.84768200  1
  O  O21  1  0.98172400  0.54383700  0.84768200  1
  O  O22  1  0.01827600  0.45616300  0.15231800  1
  O  O23  1  0.62248900  0.62248900  0.21914100  1
  O  O24  1  0.37751100  0.37751100  0.78085900  1
  O  O25  1  0.63025400  0.63025400  0.60003800  1
  O  O26  1  0.36974600  0.36974600  0.39996200  1
  O  O27  1  0.89145000  0.89145000  0.76021800  1
  O  O28  1  0.10855000  0.10855000  0.23978200  1
  O  O29  1  0.36976000  0.86111400  0.41799600  1
  O  O30  1  0.63024000  0.13888600  0.58200400  1
  O  O31  1  0.13888600  0.63024000  0.58200400  1
  O  O32  1  0.86111400  0.36976000  0.41799600  1
  O  O33  1  0.35794400  0.87711700  0.03336400  1
  O  O34  1  0.64205600  0.12288300  0.96663600  1
  O  O35  1  0.12288300  0.64205600  0.96663600  1
  O  O36  1  0.87711700  0.35794400  0.03336400  1
  O  O37  1  0.73373600  0.25496700  0.30414000  1
  O  O38  1  0.26626400  0.74503300  0.69586000  1
  O  O39  1  0.74503300  0.26626400  0.69586000  1
  O  O40  1  0.25496700  0.73373600  0.30414000  1
  O  O41  1  0.50000000  0.00000000  0.50000000  1
  O  O42  1  0.00000000  0.50000000  0.50000000  1
  O  O43  1  0.87316800  0.87316800  0.39895100  1
  O  O44  1  0.12683200  0.12683200  0.60104900  1
