# generated using pymatgen
data_Sm23Mg4Ni7
_symmetry_space_group_name_H-M   'P 1'
_cell_length_a   9.88849176
_cell_length_b   9.88849176
_cell_length_c   22.38926200
_cell_angle_alpha   90.00000000
_cell_angle_beta   90.00000000
_cell_angle_gamma   119.99999839
_symmetry_Int_Tables_number   1
_chemical_formula_structural   Sm23Mg4Ni7
_chemical_formula_sum   'Sm46 Mg8 Ni14'
_cell_volume   1895.96593116
_cell_formula_units_Z   2
loop_
 _symmetry_equiv_pos_site_id
 _symmetry_equiv_pos_as_xyz
  1  'x, y, z'
loop_
 _atom_site_type_symbol
 _atom_site_label
 _atom_site_symmetry_multiplicity
 _atom_site_fract_x
 _atom_site_fract_y
 _atom_site_fract_z
 _atom_site_occupancy
  Sm  Sm0  1  0.20756800  0.41513600  0.71914900  1
  Sm  Sm1  1  0.20756800  0.79243200  0.71914900  1
  Sm  Sm2  1  0.79243200  0.58486400  0.21914900  1
  Sm  Sm3  1  0.58486400  0.79243200  0.71914900  1
  Sm  Sm4  1  0.79243200  0.20756800  0.21914900  1
  Sm  Sm5  1  0.41513600  0.20756800  0.21914900  1
  Sm  Sm6  1  0.79213700  0.58427400  0.94780000  1
  Sm  Sm7  1  0.79213700  0.20786300  0.94780000  1
  Sm  Sm8  1  0.20786300  0.41572600  0.44780000  1
  Sm  Sm9  1  0.41572600  0.20786300  0.94780000  1
  Sm  Sm10  1  0.20786300  0.79213700  0.44780000  1
  Sm  Sm11  1  0.58427400  0.79213700  0.44780000  1
  Sm  Sm12  1  0.21124700  0.42249400  0.99095400  1
  Sm  Sm13  1  0.21124700  0.78875300  0.99095400  1
  Sm  Sm14  1  0.78875300  0.57750600  0.49095400  1
  Sm  Sm15  1  0.57750600  0.78875300  0.99095400  1
  Sm  Sm16  1  0.78875300  0.21124700  0.49095400  1
  Sm  Sm17  1  0.42249400  0.21124700  0.49095400  1
  Sm  Sm18  1  0.87130600  0.74261200  0.63394900  1
  Sm  Sm19  1  0.87130600  0.12869400  0.63394900  1
  Sm  Sm20  1  0.12869400  0.25738800  0.13394900  1
  Sm  Sm21  1  0.25738800  0.12869400  0.63394900  1
  Sm  Sm22  1  0.12869400  0.87130600  0.13394900  1
  Sm  Sm23  1  0.74261200  0.87130600  0.13394900  1
  Sm  Sm24  1  0.45731300  0.91462700  0.85620200  1
  Sm  Sm25  1  0.45731300  0.54268700  0.85620200  1
  Sm  Sm26  1  0.54268700  0.08537300  0.35620200  1
  Sm  Sm27  1  0.08537300  0.54268700  0.85620200  1
  Sm  Sm28  1  0.54268700  0.45731300  0.35620200  1
  Sm  Sm29  1  0.91462700  0.45731300  0.35620200  1
  Sm  Sm30  1  0.00000000  0.00000000  0.00054900  1
  Sm  Sm31  1  0.00000000  0.00000000  0.50054900  1
  Sm  Sm32  1  0.46039100  0.92078300  0.58538800  1
  Sm  Sm33  1  0.46039100  0.53960900  0.58538800  1
  Sm  Sm34  1  0.53960900  0.07921700  0.08538800  1
  Sm  Sm35  1  0.07921700  0.53960900  0.58538800  1
  Sm  Sm36  1  0.53960900  0.46039100  0.08538800  1
  Sm  Sm37  1  0.92078300  0.46039100  0.08538800  1
  Sm  Sm38  1  0.79503300  0.59006500  0.78181600  1
  Sm  Sm39  1  0.79503300  0.20496700  0.78181600  1
  Sm  Sm40  1  0.20496700  0.40993500  0.28181600  1
  Sm  Sm41  1  0.40993500  0.20496700  0.78181600  1
  Sm  Sm42  1  0.20496700  0.79503300  0.28181600  1
  Sm  Sm43  1  0.59006500  0.79503300  0.28181600  1
  Sm  Sm44  1  0.66666700  0.33333300  0.64467700  1
  Sm  Sm45  1  0.33333300  0.66666700  0.14467700  1
  Mg  Mg46  1  0.00000000  0.00000000  0.74988000  1
  Mg  Mg47  1  0.00000000  0.00000000  0.24988000  1
  Mg  Mg48  1  0.10580000  0.21159900  0.86299600  1
  Mg  Mg49  1  0.10580000  0.89420000  0.86299600  1
  Mg  Mg50  1  0.89420000  0.78840100  0.36299600  1
  Mg  Mg51  1  0.78840100  0.89420000  0.86299600  1
  Mg  Mg52  1  0.89420000  0.10580000  0.36299600  1
  Mg  Mg53  1  0.21159900  0.10580000  0.36299600  1
  Ni  Ni54  1  0.52122700  0.04245300  0.71002400  1
  Ni  Ni55  1  0.52122700  0.47877300  0.71002400  1
  Ni  Ni56  1  0.47877300  0.95754700  0.21002400  1
  Ni  Ni57  1  0.95754700  0.47877300  0.71002400  1
  Ni  Ni58  1  0.47877300  0.52122700  0.21002400  1
  Ni  Ni59  1  0.04245300  0.52122700  0.21002400  1
  Ni  Ni60  1  0.66666700  0.33333300  0.86340600  1
  Ni  Ni61  1  0.33333300  0.66666700  0.36340600  1
  Ni  Ni62  1  0.14331000  0.28661900  0.56445800  1
  Ni  Ni63  1  0.14331000  0.85669000  0.56445800  1
  Ni  Ni64  1  0.85669000  0.71338100  0.06445800  1
  Ni  Ni65  1  0.71338100  0.85669000  0.56445800  1
  Ni  Ni66  1  0.85669000  0.14331000  0.06445800  1
  Ni  Ni67  1  0.28661900  0.14331000  0.06445800  1
