# generated using pymatgen
data_Rb2Ti2(PO4)3
_symmetry_space_group_name_H-M   'P 1'
_cell_length_a   10.08629500
_cell_length_b   10.08629500
_cell_length_c   10.08629500
_cell_angle_alpha   90.00000000
_cell_angle_beta   90.00000000
_cell_angle_gamma   90.00000000
_symmetry_Int_Tables_number   1
_chemical_formula_structural   Rb2Ti2(PO4)3
_chemical_formula_sum   'Rb8 Ti8 P12 O48'
_cell_volume   1026.11254743
_cell_formula_units_Z   4
loop_
 _symmetry_equiv_pos_site_id
 _symmetry_equiv_pos_as_xyz
  1  'x, y, z'
loop_
 _atom_site_type_symbol
 _atom_site_label
 _atom_site_symmetry_multiplicity
 _atom_site_fract_x
 _atom_site_fract_y
 _atom_site_fract_z
 _atom_site_occupancy
  Rb  Rb0  1  0.04229100  0.04229100  0.04229100  1
  Rb  Rb1  1  0.45770900  0.95770900  0.54229100  1
  Rb  Rb2  1  0.95770900  0.54229100  0.45770900  1
  Rb  Rb3  1  0.54229100  0.45770900  0.95770900  1
  Rb  Rb4  1  0.82025900  0.82025900  0.82025900  1
  Rb  Rb5  1  0.67974100  0.17974100  0.32025900  1
  Rb  Rb6  1  0.17974100  0.32025900  0.67974100  1
  Rb  Rb7  1  0.32025900  0.67974100  0.17974100  1
  Ti  Ti8  1  0.60759300  0.60759300  0.60759300  1
  Ti  Ti9  1  0.89240700  0.39240700  0.10759300  1
  Ti  Ti10  1  0.39240700  0.10759300  0.89240700  1
  Ti  Ti11  1  0.10759300  0.89240700  0.39240700  1
  Ti  Ti12  1  0.33628800  0.33628800  0.33628800  1
  Ti  Ti13  1  0.16371200  0.66371200  0.83628800  1
  Ti  Ti14  1  0.66371200  0.83628800  0.16371200  1
  Ti  Ti15  1  0.83628800  0.16371200  0.66371200  1
  P  P16  1  0.02090600  0.20703700  0.37560800  1
  P  P17  1  0.47909400  0.79296300  0.87560800  1
  P  P18  1  0.97909400  0.70703700  0.12439200  1
  P  P19  1  0.37560800  0.02090600  0.20703700  1
  P  P20  1  0.52090600  0.29296300  0.62439200  1
  P  P21  1  0.87560800  0.47909400  0.79296300  1
  P  P22  1  0.12439200  0.97909400  0.70703700  1
  P  P23  1  0.62439200  0.52090600  0.29296300  1
  P  P24  1  0.20703700  0.37560800  0.02090600  1
  P  P25  1  0.70703700  0.12439200  0.97909400  1
  P  P26  1  0.29296300  0.62439200  0.52090600  1
  P  P27  1  0.79296300  0.87560800  0.47909400  1
  O  O28  1  0.01704500  0.05904200  0.33430100  1
  O  O29  1  0.48295500  0.94095800  0.83430100  1
  O  O30  1  0.98295500  0.55904200  0.16569900  1
  O  O31  1  0.33430100  0.01704500  0.05904200  1
  O  O32  1  0.51704500  0.44095800  0.66569900  1
  O  O33  1  0.83430100  0.48295500  0.94095800  1
  O  O34  1  0.16569900  0.98295500  0.55904200  1
  O  O35  1  0.66569900  0.51704500  0.44095800  1
  O  O36  1  0.05904200  0.33430100  0.01704500  1
  O  O37  1  0.55904200  0.16569900  0.98295500  1
  O  O38  1  0.44095800  0.66569900  0.51704500  1
  O  O39  1  0.94095800  0.83430100  0.48295500  1
  O  O40  1  0.16439400  0.25623100  0.39755200  1
  O  O41  1  0.33560600  0.74376900  0.89755200  1
  O  O42  1  0.83560600  0.75623100  0.10244800  1
  O  O43  1  0.39755200  0.16439400  0.25623100  1
  O  O44  1  0.66439400  0.24376900  0.60244800  1
  O  O45  1  0.89755200  0.33560600  0.74376900  1
  O  O46  1  0.10244800  0.83560600  0.75623100  1
  O  O47  1  0.60244800  0.66439400  0.24376900  1
  O  O48  1  0.25623100  0.39755200  0.16439400  1
  O  O49  1  0.75623100  0.10244800  0.83560600  1
  O  O50  1  0.24376900  0.60244800  0.66439400  1
  O  O51  1  0.74376900  0.89755200  0.33560600  1
  O  O52  1  0.27065100  0.49533700  0.44012800  1
  O  O53  1  0.22934900  0.50466300  0.94012800  1
  O  O54  1  0.72934900  0.99533700  0.05987200  1
  O  O55  1  0.44012800  0.27065100  0.49533700  1
  O  O56  1  0.77065100  0.00466300  0.55987200  1
  O  O57  1  0.94012800  0.22934900  0.50466300  1
  O  O58  1  0.05987200  0.72934900  0.99533700  1
  O  O59  1  0.55987200  0.77065100  0.00466300  1
  O  O60  1  0.49533700  0.44012800  0.27065100  1
  O  O61  1  0.99533700  0.05987200  0.72934900  1
  O  O62  1  0.00466300  0.55987200  0.77065100  1
  O  O63  1  0.50466300  0.94012800  0.22934900  1
  O  O64  1  0.04735900  0.79059700  0.23384400  1
  O  O65  1  0.45264100  0.20940300  0.73384400  1
  O  O66  1  0.95264100  0.29059700  0.26615600  1
  O  O67  1  0.23384400  0.04735900  0.79059700  1
  O  O68  1  0.54735900  0.70940300  0.76615600  1
  O  O69  1  0.73384400  0.45264100  0.20940300  1
  O  O70  1  0.26615600  0.95264100  0.29059700  1
  O  O71  1  0.76615600  0.54735900  0.70940300  1
  O  O72  1  0.79059700  0.23384400  0.04735900  1
  O  O73  1  0.29059700  0.26615600  0.95264100  1
  O  O74  1  0.70940300  0.76615600  0.54735900  1
  O  O75  1  0.20940300  0.73384400  0.45264100  1
