# generated using pymatgen
data_CsCeMg30O32
_symmetry_space_group_name_H-M   'P 1'
_cell_length_a   8.75179500
_cell_length_b   8.75179500
_cell_length_c   8.84399100
_cell_angle_alpha   90.00000000
_cell_angle_beta   90.00000000
_cell_angle_gamma   90.00000000
_symmetry_Int_Tables_number   1
_chemical_formula_structural   CsCeMg30O32
_chemical_formula_sum   'Cs1 Ce1 Mg30 O32'
_cell_volume   677.39590130
_cell_formula_units_Z   1
loop_
 _symmetry_equiv_pos_site_id
 _symmetry_equiv_pos_as_xyz
  1  'x, y, z'
loop_
 _atom_site_type_symbol
 _atom_site_label
 _atom_site_symmetry_multiplicity
 _atom_site_fract_x
 _atom_site_fract_y
 _atom_site_fract_z
 _atom_site_occupancy
  Cs  Cs0  1  0.00000000  0.00000000  0.50000000  1
  Ce  Ce1  1  0.00000000  0.00000000  0.00000000  1
  Mg  Mg2  1  0.00000000  0.50000000  0.00000000  1
  Mg  Mg3  1  0.00000000  0.50000000  0.50000000  1
  Mg  Mg4  1  0.50000000  0.00000000  0.00000000  1
  Mg  Mg5  1  0.50000000  0.00000000  0.50000000  1
  Mg  Mg6  1  0.50000000  0.50000000  0.00000000  1
  Mg  Mg7  1  0.50000000  0.50000000  0.50000000  1
  Mg  Mg8  1  0.00000000  0.26484700  0.25474300  1
  Mg  Mg9  1  0.00000000  0.26484700  0.74525700  1
  Mg  Mg10  1  0.00000000  0.73515300  0.25474300  1
  Mg  Mg11  1  0.00000000  0.73515300  0.74525700  1
  Mg  Mg12  1  0.50000000  0.25227700  0.25136000  1
  Mg  Mg13  1  0.50000000  0.25227700  0.74864000  1
  Mg  Mg14  1  0.50000000  0.74772300  0.25136000  1
  Mg  Mg15  1  0.50000000  0.74772300  0.74864000  1
  Mg  Mg16  1  0.26484700  0.00000000  0.25474300  1
  Mg  Mg17  1  0.26484700  0.00000000  0.74525700  1
  Mg  Mg18  1  0.25227700  0.50000000  0.25136000  1
  Mg  Mg19  1  0.25227700  0.50000000  0.74864000  1
  Mg  Mg20  1  0.73515300  0.00000000  0.25474300  1
  Mg  Mg21  1  0.73515300  0.00000000  0.74525700  1
  Mg  Mg22  1  0.74772300  0.50000000  0.25136000  1
  Mg  Mg23  1  0.74772300  0.50000000  0.74864000  1
  Mg  Mg24  1  0.25827500  0.25827500  0.00000000  1
  Mg  Mg25  1  0.25612200  0.25612200  0.50000000  1
  Mg  Mg26  1  0.25827500  0.74172500  0.00000000  1
  Mg  Mg27  1  0.25612200  0.74387800  0.50000000  1
  Mg  Mg28  1  0.74172500  0.25827500  0.00000000  1
  Mg  Mg29  1  0.74387800  0.25612200  0.50000000  1
  Mg  Mg30  1  0.74172500  0.74172500  0.00000000  1
  Mg  Mg31  1  0.74387800  0.74387800  0.50000000  1
  O  O32  1  0.26852400  0.00000000  0.00000000  1
  O  O33  1  0.28617500  0.00000000  0.50000000  1
  O  O34  1  0.25463100  0.50000000  0.00000000  1
  O  O35  1  0.25796900  0.50000000  0.50000000  1
  O  O36  1  0.73147600  0.00000000  0.00000000  1
  O  O37  1  0.71382500  0.00000000  0.50000000  1
  O  O38  1  0.74536900  0.50000000  0.00000000  1
  O  O39  1  0.74203100  0.50000000  0.50000000  1
  O  O40  1  0.24915300  0.24915300  0.25023200  1
  O  O41  1  0.24915300  0.24915300  0.74976800  1
  O  O42  1  0.24915300  0.75084700  0.25023200  1
  O  O43  1  0.24915300  0.75084700  0.74976800  1
  O  O44  1  0.75084700  0.24915300  0.25023200  1
  O  O45  1  0.75084700  0.24915300  0.74976800  1
  O  O46  1  0.75084700  0.75084700  0.25023200  1
  O  O47  1  0.75084700  0.75084700  0.74976800  1
  O  O48  1  0.00000000  0.00000000  0.23133100  1
  O  O49  1  0.00000000  0.00000000  0.76866900  1
  O  O50  1  0.00000000  0.50000000  0.24445400  1
  O  O51  1  0.00000000  0.50000000  0.75554600  1
  O  O52  1  0.50000000  0.00000000  0.24445400  1
  O  O53  1  0.50000000  0.00000000  0.75554600  1
  O  O54  1  0.50000000  0.50000000  0.24776100  1
  O  O55  1  0.50000000  0.50000000  0.75223900  1
  O  O56  1  0.00000000  0.26852400  0.00000000  1
  O  O57  1  0.00000000  0.28617500  0.50000000  1
  O  O58  1  0.00000000  0.73147600  0.00000000  1
  O  O59  1  0.00000000  0.71382500  0.50000000  1
  O  O60  1  0.50000000  0.25463100  0.00000000  1
  O  O61  1  0.50000000  0.25796900  0.50000000  1
  O  O62  1  0.50000000  0.74536900  0.00000000  1
  O  O63  1  0.50000000  0.74203100  0.50000000  1
