# generated using pymatgen
data_RbNd2Br5
_symmetry_space_group_name_H-M   'P 1'
_cell_length_a   7.64394700
_cell_length_b   9.39997300
_cell_length_c   14.15831160
_cell_angle_alpha   89.68453862
_cell_angle_beta   90.00000000
_cell_angle_gamma   90.00000000
_symmetry_Int_Tables_number   1
_chemical_formula_structural   RbNd2Br5
_chemical_formula_sum   'Rb4 Nd8 Br20'
_cell_volume   1017.30026299
_cell_formula_units_Z   4
loop_
 _symmetry_equiv_pos_site_id
 _symmetry_equiv_pos_as_xyz
  1  'x, y, z'
loop_
 _atom_site_type_symbol
 _atom_site_label
 _atom_site_symmetry_multiplicity
 _atom_site_fract_x
 _atom_site_fract_y
 _atom_site_fract_z
 _atom_site_occupancy
  Rb  Rb0  1  0.07020300  0.50035000  0.33651100  1
  Rb  Rb1  1  0.92979700  0.49965000  0.66348900  1
  Rb  Rb2  1  0.57020300  0.49965000  0.16348900  1
  Rb  Rb3  1  0.42979700  0.50035000  0.83651100  1
  Nd  Nd4  1  0.10283000  0.99329800  0.34126000  1
  Nd  Nd5  1  0.89717000  0.00670200  0.65874000  1
  Nd  Nd6  1  0.60283000  0.00670200  0.15874000  1
  Nd  Nd7  1  0.39717000  0.99329800  0.84126000  1
  Nd  Nd8  1  0.03319400  0.19850800  0.99846100  1
  Nd  Nd9  1  0.96680600  0.80149200  0.00153900  1
  Nd  Nd10  1  0.53319400  0.80149200  0.50153900  1
  Nd  Nd11  1  0.46680600  0.19850800  0.49846100  1
  Br  Br12  1  0.17055700  0.52745200  0.07776400  1
  Br  Br13  1  0.82944300  0.47254800  0.92223600  1
  Br  Br14  1  0.67055700  0.47254800  0.42223600  1
  Br  Br15  1  0.32944300  0.52745200  0.57776400  1
  Br  Br16  1  0.86208500  0.23665200  0.18886300  1
  Br  Br17  1  0.13791500  0.76334800  0.81113700  1
  Br  Br18  1  0.36208500  0.76334800  0.31113700  1
  Br  Br19  1  0.63791500  0.23665200  0.68886300  1
  Br  Br20  1  0.34490300  0.23029300  0.29086100  1
  Br  Br21  1  0.65509700  0.76970700  0.70913900  1
  Br  Br22  1  0.84490300  0.76970700  0.20913900  1
  Br  Br23  1  0.15509700  0.23029300  0.79086100  1
  Br  Br24  1  0.45064300  0.20556200  0.99885800  1
  Br  Br25  1  0.54935700  0.79443800  0.00114200  1
  Br  Br26  1  0.95064300  0.79443800  0.50114200  1
  Br  Br27  1  0.04935700  0.20556200  0.49885800  1
  Br  Br28  1  0.69319100  0.02444300  0.36937300  1
  Br  Br29  1  0.30680900  0.97555700  0.63062700  1
  Br  Br30  1  0.19319100  0.97555700  0.13062700  1
  Br  Br31  1  0.80680900  0.02444300  0.86937300  1
