# generated using pymatgen
data_RbU3F10
_symmetry_space_group_name_H-M   'P 1'
_cell_length_a   8.63244107
_cell_length_b   8.63244107
_cell_length_c   14.08315300
_cell_angle_alpha   90.00000000
_cell_angle_beta   90.00000000
_cell_angle_gamma   119.99999291
_symmetry_Int_Tables_number   1
_chemical_formula_structural   RbU3F10
_chemical_formula_sum   'Rb4 U12 F40'
_cell_volume   908.86170607
_cell_formula_units_Z   4
loop_
 _symmetry_equiv_pos_site_id
 _symmetry_equiv_pos_as_xyz
  1  'x, y, z'
loop_
 _atom_site_type_symbol
 _atom_site_label
 _atom_site_symmetry_multiplicity
 _atom_site_fract_x
 _atom_site_fract_y
 _atom_site_fract_z
 _atom_site_occupancy
  Rb  Rb0  1  0.66666700  0.33333300  0.73449200  1
  Rb  Rb1  1  0.33333300  0.66666700  0.23449200  1
  Rb  Rb2  1  0.00000000  0.00000000  0.97812600  1
  Rb  Rb3  1  0.00000000  0.00000000  0.47812600  1
  U  U4  1  0.17907800  0.35815500  0.72214800  1
  U  U5  1  0.17907800  0.82092200  0.72214800  1
  U  U6  1  0.82092200  0.64184500  0.22214800  1
  U  U7  1  0.64184500  0.82092200  0.72214800  1
  U  U8  1  0.82092200  0.17907800  0.22214800  1
  U  U9  1  0.35815500  0.17907800  0.22214800  1
  U  U10  1  0.50792200  0.01584400  0.98717100  1
  U  U11  1  0.50792200  0.49207800  0.98717100  1
  U  U12  1  0.49207800  0.98415600  0.48717100  1
  U  U13  1  0.98415600  0.49207800  0.98717100  1
  U  U14  1  0.49207800  0.50792200  0.48717100  1
  U  U15  1  0.01584400  0.50792200  0.48717100  1
  F  F16  1  0.17489100  0.34978300  0.54501600  1
  F  F17  1  0.17489100  0.82510900  0.54501600  1
  F  F18  1  0.82510900  0.65021700  0.04501600  1
  F  F19  1  0.65021700  0.82510900  0.54501600  1
  F  F20  1  0.82510900  0.17489100  0.04501600  1
  F  F21  1  0.34978300  0.17489100  0.04501600  1
  F  F22  1  0.66666700  0.33333300  0.93279100  1
  F  F23  1  0.33333300  0.66666700  0.43279100  1
  F  F24  1  0.66666700  0.33333300  0.29680500  1
  F  F25  1  0.33333300  0.66666700  0.79680500  1
  F  F26  1  0.77740600  0.55481300  0.52146900  1
  F  F27  1  0.77740600  0.22259400  0.52146900  1
  F  F28  1  0.22259400  0.44518700  0.02146900  1
  F  F29  1  0.44518700  0.22259400  0.52146900  1
  F  F30  1  0.22259400  0.77740600  0.02146900  1
  F  F31  1  0.55481300  0.77740600  0.02146900  1
  F  F32  1  0.89095100  0.78190300  0.69352900  1
  F  F33  1  0.89095100  0.10904900  0.69352900  1
  F  F34  1  0.10904900  0.21809700  0.19352900  1
  F  F35  1  0.21809700  0.10904900  0.69352900  1
  F  F36  1  0.10904900  0.89095100  0.19352900  1
  F  F37  1  0.78190300  0.89095100  0.19352900  1
  F  F38  1  0.66137900  0.66385500  0.85404500  1
  F  F39  1  0.00247600  0.33862100  0.85404500  1
  F  F40  1  0.33862100  0.33614500  0.35404500  1
  F  F41  1  0.00247600  0.66385500  0.85404500  1
  F  F42  1  0.33614500  0.99752400  0.85404500  1
  F  F43  1  0.99752400  0.66137900  0.35404500  1
  F  F44  1  0.33614500  0.33862100  0.85404500  1
  F  F45  1  0.99752400  0.33614500  0.35404500  1
  F  F46  1  0.66385500  0.00247600  0.35404500  1
  F  F47  1  0.66385500  0.66137900  0.35404500  1
  F  F48  1  0.66137900  0.99752400  0.85404500  1
  F  F49  1  0.33862100  0.00247600  0.35404500  1
  F  F50  1  0.49275900  0.98551900  0.66347200  1
  F  F51  1  0.49275900  0.50724100  0.66347200  1
  F  F52  1  0.50724100  0.01448100  0.16347200  1
  F  F53  1  0.01448100  0.50724100  0.66347200  1
  F  F54  1  0.50724100  0.49275900  0.16347200  1
  F  F55  1  0.98551900  0.49275900  0.16347200  1
