# generated using pymatgen
data_PuAsO4
_symmetry_space_group_name_H-M   'P 1'
_cell_length_a   7.21208100
_cell_length_b   6.72347200
_cell_length_c   8.30998200
_cell_angle_alpha   54.48179880
_cell_angle_beta   90.00000000
_cell_angle_gamma   90.00000000
_symmetry_Int_Tables_number   1
_chemical_formula_structural   PuAsO4
_chemical_formula_sum   'Pu4 As4 O16'
_cell_volume   327.97585406
_cell_formula_units_Z   4
loop_
 _symmetry_equiv_pos_site_id
 _symmetry_equiv_pos_as_xyz
  1  'x, y, z'
loop_
 _atom_site_type_symbol
 _atom_site_label
 _atom_site_symmetry_multiplicity
 _atom_site_fract_x
 _atom_site_fract_y
 _atom_site_fract_z
 _atom_site_occupancy
  Pu  Pu0  1  0.34374700  0.81162000  0.28542300  1
  Pu  Pu1  1  0.65625300  0.18838000  0.71457700  1
  Pu  Pu2  1  0.84374700  0.18838000  0.21457700  1
  Pu  Pu3  1  0.15625300  0.81162000  0.78542300  1
  As  As4  1  0.83572800  0.69323300  0.19626700  1
  As  As5  1  0.16427200  0.30676700  0.80373300  1
  As  As6  1  0.33572800  0.30676700  0.30373300  1
  As  As7  1  0.66427200  0.69323300  0.69626700  1
  O  O8  1  0.00402300  0.83018300  0.25083100  1
  O  O9  1  0.99597700  0.16981700  0.74916900  1
  O  O10  1  0.50402300  0.16981700  0.24916900  1
  O  O11  1  0.49597700  0.83018300  0.75083100  1
  O  O12  1  0.89317200  0.64966600  0.01661900  1
  O  O13  1  0.10682800  0.35033400  0.98338100  1
  O  O14  1  0.39317200  0.35033400  0.48338100  1
  O  O15  1  0.60682800  0.64966600  0.51661900  1
  O  O16  1  0.65594200  0.90220100  0.10574100  1
  O  O17  1  0.34405800  0.09779900  0.89425900  1
  O  O18  1  0.15594200  0.09779900  0.39425900  1
  O  O19  1  0.84405800  0.90220100  0.60574100  1
  O  O20  1  0.78259800  0.39217000  0.38082900  1
  O  O21  1  0.21740200  0.60783000  0.61917100  1
  O  O22  1  0.28259800  0.60783000  0.11917100  1
  O  O23  1  0.71740200  0.39217000  0.88082900  1
