# generated using pymatgen
data_Pu2Br2O
_symmetry_space_group_name_H-M   'P 1'
_cell_length_a   3.74489200
_cell_length_b   3.74489200
_cell_length_c   13.09052700
_cell_angle_alpha   90.00000000
_cell_angle_beta   90.00000000
_cell_angle_gamma   90.00000000
_symmetry_Int_Tables_number   1
_chemical_formula_structural   Pu2Br2O
_chemical_formula_sum   'Pu2 Br2 O1'
_cell_volume   183.58437940
_cell_formula_units_Z   1
loop_
 _symmetry_equiv_pos_site_id
 _symmetry_equiv_pos_as_xyz
  1  'x, y, z'
loop_
 _atom_site_type_symbol
 _atom_site_label
 _atom_site_symmetry_multiplicity
 _atom_site_fract_x
 _atom_site_fract_y
 _atom_site_fract_z
 _atom_site_occupancy
  Pu  Pu0  1  0.50000000  0.50000000  0.15636200  1
  Pu  Pu1  1  0.50000000  0.50000000  0.84363800  1
  Br  Br2  1  0.50000000  0.50000000  0.64169000  1
  Br  Br3  1  0.50000000  0.50000000  0.35831000  1
  O  O4  1  0.50000000  0.50000000  0.00000000  1
