# generated using pymatgen
data_RbB(CN)2
_symmetry_space_group_name_H-M   'P 1'
_cell_length_a   9.40730584
_cell_length_b   9.40730584
_cell_length_c   9.40730584
_cell_angle_alpha   122.15625268
_cell_angle_beta   122.15625268
_cell_angle_gamma   86.30414898
_symmetry_Int_Tables_number   1
_chemical_formula_structural   RbB(CN)2
_chemical_formula_sum   'Rb4 B4 C8 N8'
_cell_volume   568.20861597
_cell_formula_units_Z   4
loop_
 _symmetry_equiv_pos_site_id
 _symmetry_equiv_pos_as_xyz
  1  'x, y, z'
loop_
 _atom_site_type_symbol
 _atom_site_label
 _atom_site_symmetry_multiplicity
 _atom_site_fract_x
 _atom_site_fract_y
 _atom_site_fract_z
 _atom_site_occupancy
  Rb  Rb0  1  0.87500000  0.62500000  0.25000000  1
  Rb  Rb1  1  0.37500000  0.62500000  0.75000000  1
  Rb  Rb2  1  0.37500000  0.62500000  0.25000000  1
  Rb  Rb3  1  0.37500000  0.12500000  0.75000000  1
  B  B4  1  0.37500000  0.12500000  0.25000000  1
  B  B5  1  0.87500000  0.12500000  0.75000000  1
  B  B6  1  0.87500000  0.12500000  0.25000000  1
  B  B7  1  0.87500000  0.62500000  0.75000000  1
  C  C8  1  0.30117500  0.26876400  0.28416900  1
  C  C9  1  0.98459500  0.01700600  0.71583100  1
  C  C10  1  0.01876400  0.23459500  0.46759000  1
  C  C11  1  0.44882500  0.98123600  0.21583100  1
  C  C12  1  0.76700600  0.55117500  0.53241000  1
  C  C13  1  0.76540500  0.23299400  0.78416900  1
  C  C14  1  0.73123600  0.01540500  0.03241000  1
  C  C15  1  0.98299400  0.69882500  0.96759000  1
  N  N16  1  0.24736900  0.39344900  0.31795000  1
  N  N17  1  0.07549900  0.92941900  0.68205000  1
  N  N18  1  0.14344900  0.32549900  0.64608000  1
  N  N19  1  0.50263100  0.85655100  0.18205000  1
  N  N20  1  0.67941900  0.49736900  0.35392000  1
  N  N21  1  0.67450100  0.32058100  0.81795000  1
  N  N22  1  0.60655100  0.92450100  0.85392000  1
  N  N23  1  0.07058100  0.75263100  0.14608000  1
