# generated using pymatgen
data_Rb2Zn2(MoO4)3
_symmetry_space_group_name_H-M   'P 1'
_cell_length_a   9.37723000
_cell_length_b   7.19193700
_cell_length_c   20.95777848
_cell_angle_alpha   70.89464542
_cell_angle_beta   90.00000000
_cell_angle_gamma   90.00000000
_symmetry_Int_Tables_number   1
_chemical_formula_structural   Rb2Zn2(MoO4)3
_chemical_formula_sum   'Rb8 Zn8 Mo12 O48'
_cell_volume   1335.54941409
_cell_formula_units_Z   4
loop_
 _symmetry_equiv_pos_site_id
 _symmetry_equiv_pos_as_xyz
  1  'x, y, z'
loop_
 _atom_site_type_symbol
 _atom_site_label
 _atom_site_symmetry_multiplicity
 _atom_site_fract_x
 _atom_site_fract_y
 _atom_site_fract_z
 _atom_site_occupancy
  Rb  Rb0  1  0.03076600  0.79668400  0.90816500  1
  Rb  Rb1  1  0.96923400  0.20331600  0.09183500  1
  Rb  Rb2  1  0.53076600  0.20331600  0.59183500  1
  Rb  Rb3  1  0.46923400  0.79668400  0.40816500  1
  Rb  Rb4  1  0.11663200  0.40343900  0.78726400  1
  Rb  Rb5  1  0.88336800  0.59656100  0.21273600  1
  Rb  Rb6  1  0.61663200  0.59656100  0.71273600  1
  Rb  Rb7  1  0.38336800  0.40343900  0.28726400  1
  Zn  Zn8  1  0.40936600  0.93864300  0.93680100  1
  Zn  Zn9  1  0.59063400  0.06135700  0.06319900  1
  Zn  Zn10  1  0.90936600  0.06135700  0.56319900  1
  Zn  Zn11  1  0.09063400  0.93864300  0.43680100  1
  Zn  Zn12  1  0.14445800  0.27038600  0.63538200  1
  Zn  Zn13  1  0.85554200  0.72961400  0.36461800  1
  Zn  Zn14  1  0.64445800  0.72961400  0.86461800  1
  Zn  Zn15  1  0.35554200  0.27038600  0.13538200  1
  Mo  Mo16  1  0.22292200  0.80210800  0.59824600  1
  Mo  Mo17  1  0.77707800  0.19789200  0.40175400  1
  Mo  Mo18  1  0.72292200  0.19789200  0.90175400  1
  Mo  Mo19  1  0.27707800  0.80210800  0.09824600  1
  Mo  Mo20  1  0.32825600  0.95079500  0.77427200  1
  Mo  Mo21  1  0.67174400  0.04920500  0.22572800  1
  Mo  Mo22  1  0.82825600  0.04920500  0.72572800  1
  Mo  Mo23  1  0.17174400  0.95079500  0.27427200  1
  Mo  Mo24  1  0.34318800  0.41547500  0.96468600  1
  Mo  Mo25  1  0.65681200  0.58452500  0.03531400  1
  Mo  Mo26  1  0.84318800  0.58452500  0.53531400  1
  Mo  Mo27  1  0.15681200  0.41547500  0.46468600  1
  O  O28  1  0.78971000  0.98339300  0.65038500  1
  O  O29  1  0.21029000  0.01660700  0.34961500  1
  O  O30  1  0.28971000  0.01660700  0.84961500  1
  O  O31  1  0.71029000  0.98339300  0.15038500  1
  O  O32  1  0.49910600  0.82649600  0.78593800  1
  O  O33  1  0.50089400  0.17350400  0.21406200  1
  O  O34  1  0.99910600  0.17350400  0.71406200  1
  O  O35  1  0.00089400  0.82649600  0.28593800  1
  O  O36  1  0.81914400  0.83084900  0.80082700  1
  O  O37  1  0.18085600  0.16915100  0.19917300  1
  O  O38  1  0.31914400  0.16915100  0.69917300  1
  O  O39  1  0.68085600  0.83084900  0.30082700  1
  O  O40  1  0.19360200  0.78931700  0.76695300  1
  O  O41  1  0.80639800  0.21068300  0.23304700  1
  O  O42  1  0.69360200  0.21068300  0.73304700  1
  O  O43  1  0.30639800  0.78931700  0.26695300  1
  O  O44  1  0.15986700  0.55549000  0.64172400  1
  O  O45  1  0.84013300  0.44451000  0.35827600  1
  O  O46  1  0.65986700  0.44451000  0.85827600  1
  O  O47  1  0.34013300  0.55549000  0.14172400  1
  O  O48  1  0.25215400  0.36751600  0.54325900  1
  O  O49  1  0.74784600  0.63248400  0.45674100  1
  O  O50  1  0.75215400  0.63248400  0.95674100  1
  O  O51  1  0.24784600  0.36751600  0.04325900  1
  O  O52  1  0.20554700  0.46332300  0.90523400  1
  O  O53  1  0.79445300  0.53667700  0.09476600  1
  O  O54  1  0.70554700  0.53667700  0.59476600  1
  O  O55  1  0.29445300  0.46332300  0.40523400  1
  O  O56  1  0.39289600  0.82558000  0.63085400  1
  O  O57  1  0.60710400  0.17442000  0.36914600  1
  O  O58  1  0.89289600  0.17442000  0.86914600  1
  O  O59  1  0.10710400  0.82558000  0.13085400  1
  O  O60  1  0.93630600  0.80194000  0.54040700  1
  O  O61  1  0.06369400  0.19806000  0.45959300  1
  O  O62  1  0.43630600  0.19806000  0.95959300  1
  O  O63  1  0.56369400  0.80194000  0.04040700  1
  O  O64  1  0.10850000  0.99578600  0.61099900  1
  O  O65  1  0.89150000  0.00421400  0.38900100  1
  O  O66  1  0.60850000  0.00421400  0.88900100  1
  O  O67  1  0.39150000  0.99578600  0.11099900  1
  O  O68  1  0.24792000  0.84449000  0.50870700  1
  O  O69  1  0.75208000  0.15551000  0.49129300  1
  O  O70  1  0.74792000  0.15551000  0.99129300  1
  O  O71  1  0.25208000  0.84449000  0.00870700  1
  O  O72  1  0.45459400  0.64297500  0.93955800  1
  O  O73  1  0.54540600  0.35702500  0.06044200  1
  O  O74  1  0.95459400  0.35702500  0.56044200  1
  O  O75  1  0.04540600  0.64297500  0.43955800  1
