data_image0
_chemical_formula_structural       Au3Rb3Sb2
_chemical_formula_sum              "Au3 Rb3 Sb2"
_cell_length_a       6.50161
_cell_length_b       6.50161
_cell_length_c       8.20752
_cell_angle_alpha    113.333
_cell_angle_beta     66.6669
_cell_angle_gamma    120

_space_group_name_H-M_alt    "P 1"
_space_group_IT_number       1

loop_
  _space_group_symop_operation_xyz
  'x, y, z'

loop_
  _atom_site_type_symbol
  _atom_site_label
  _atom_site_symmetry_multiplicity
  _atom_site_fract_x
  _atom_site_fract_y
  _atom_site_fract_z
  _atom_site_occupancy
  Au  Au1       1.0  0.50000  0.00000  0.00000  1.0000
  Au  Au2       1.0  0.00000  0.50000  0.00000  1.0000
  Au  Au3       1.0  0.50000  0.50000  0.00000  1.0000
  Rb  Rb1       1.0  0.91800  0.08150  0.24500  1.0000
  Rb  Rb2       1.0  0.50000  0.50000  0.50000  1.0000
  Rb  Rb3       1.0  0.08150  0.91800  0.75500  1.0000
  Sb  Sb1       1.0  0.24500  0.75500  0.26400  1.0000
  Sb  Sb2       1.0  0.75500  0.24500  0.73600  1.0000
