# generated using pymatgen
data_PrH6(CO3)3
_symmetry_space_group_name_H-M   'P 1'
_cell_length_a   6.13988672
_cell_length_b   7.79603393
_cell_length_c   9.02285468
_cell_angle_alpha   98.88192273
_cell_angle_beta   98.43454726
_cell_angle_gamma   97.64521641
_symmetry_Int_Tables_number   1
_chemical_formula_structural   PrH6(CO3)3
_chemical_formula_sum   'Pr2 H12 C6 O18'
_cell_volume   416.71051710
_cell_formula_units_Z   2
loop_
 _symmetry_equiv_pos_site_id
 _symmetry_equiv_pos_as_xyz
  1  'x, y, z'
loop_
 _atom_site_type_symbol
 _atom_site_label
 _atom_site_symmetry_multiplicity
 _atom_site_fract_x
 _atom_site_fract_y
 _atom_site_fract_z
 _atom_site_occupancy
  Pr  Pr0  1  0.48726100  0.19527800  0.20544800  1
  Pr  Pr1  1  0.51273900  0.80472200  0.79455200  1
  H  H2  1  0.14465300  0.76030900  0.49589100  1
  H  H3  1  0.85534700  0.23969100  0.50410900  1
  H  H4  1  0.30057300  0.81819700  0.28210300  1
  H  H5  1  0.69942700  0.18180300  0.71789700  1
  H  H6  1  0.45684400  0.11524700  0.62224500  1
  H  H7  1  0.54315600  0.88475300  0.37775500  1
  H  H8  1  0.08108900  0.38935000  0.70408200  1
  H  H9  1  0.91891100  0.61065000  0.29591800  1
  H  H10  1  0.94767400  0.15040600  0.35699800  1
  H  H11  1  0.05232600  0.84959400  0.64300200  1
  H  H12  1  0.11088600  0.55075000  0.20971400  1
  H  H13  1  0.88911400  0.44925000  0.79028600  1
  C  C14  1  0.42012500  0.43408200  0.53144900  1
  C  C15  1  0.57987500  0.56591800  0.46855100  1
  C  C16  1  0.38163100  0.51659000  0.01375600  1
  C  C17  1  0.61836900  0.48341000  0.98624400  1
  C  C18  1  0.94488100  0.02998700  0.06938700  1
  C  C19  1  0.05511900  0.97001300  0.93061300  1
  O  O20  1  0.28324600  0.41798100  0.09174100  1
  O  O21  1  0.71675400  0.58201900  0.90825900  1
  O  O22  1  0.07789600  0.64168900  0.28914400  1
  O  O23  1  0.92210400  0.35831100  0.71085600  1
  O  O24  1  0.69515200  0.36099300  0.04261100  1
  O  O25  1  0.30484800  0.63900700  0.95738900  1
  O  O26  1  0.37406100  0.27757400  0.45886300  1
  O  O27  1  0.62593900  0.72242600  0.54113700  1
  O  O28  1  0.07486900  0.10314800  0.19088900  1
  O  O29  1  0.92513100  0.89685200  0.80911100  1
  O  O30  1  0.26665400  0.99918200  0.94950800  1
  O  O31  1  0.73334600  0.00081800  0.05049200  1
  O  O32  1  0.34937500  0.49264200  0.65094700  1
  O  O33  1  0.65062500  0.50735800  0.34905300  1
  O  O34  1  0.81304800  0.16445500  0.40301000  1
  O  O35  1  0.18695200  0.83554500  0.59699000  1
  O  O36  1  0.56109800  0.09778700  0.70973400  1
  O  O37  1  0.43890200  0.90221300  0.29026600  1
