# generated using pymatgen
data_Rb2MoO8
_symmetry_space_group_name_H-M   'P 1'
_cell_length_a   8.79506500
_cell_length_b   7.08928700
_cell_length_c   13.63250563
_cell_angle_alpha   63.80833288
_cell_angle_beta   90.00000000
_cell_angle_gamma   90.00000000
_symmetry_Int_Tables_number   1
_chemical_formula_structural   Rb2MoO8
_chemical_formula_sum   'Rb8 Mo4 O32'
_cell_volume   762.72132611
_cell_formula_units_Z   4
loop_
 _symmetry_equiv_pos_site_id
 _symmetry_equiv_pos_as_xyz
  1  'x, y, z'
loop_
 _atom_site_type_symbol
 _atom_site_label
 _atom_site_symmetry_multiplicity
 _atom_site_fract_x
 _atom_site_fract_y
 _atom_site_fract_z
 _atom_site_occupancy
  Rb  Rb0  1  0.98093700  0.99170500  0.76885100  1
  Rb  Rb1  1  0.01906300  0.00829500  0.23114900  1
  Rb  Rb2  1  0.48093700  0.00829500  0.73114900  1
  Rb  Rb3  1  0.51906300  0.99170500  0.26885100  1
  Rb  Rb4  1  0.81151200  0.65546000  0.59291200  1
  Rb  Rb5  1  0.18848800  0.34454000  0.40708800  1
  Rb  Rb6  1  0.31151200  0.34454000  0.90708800  1
  Rb  Rb7  1  0.68848800  0.65546000  0.09291200  1
  Mo  Mo8  1  0.27923200  0.67916400  0.58447400  1
  Mo  Mo9  1  0.72076800  0.32083600  0.41552600  1
  Mo  Mo10  1  0.77923200  0.32083600  0.91552600  1
  Mo  Mo11  1  0.22076800  0.67916400  0.08447400  1
  O  O12  1  0.44827800  0.64217700  0.68951500  1
  O  O13  1  0.55172200  0.35782300  0.31048500  1
  O  O14  1  0.94827800  0.35782300  0.81048500  1
  O  O15  1  0.05172200  0.64217700  0.18951500  1
  O  O16  1  0.23976400  0.36756500  0.65940700  1
  O  O17  1  0.76023600  0.63243500  0.34059300  1
  O  O18  1  0.73976400  0.63243500  0.84059300  1
  O  O19  1  0.26023600  0.36756500  0.15940700  1
  O  O20  1  0.48921000  0.79645000  0.57736400  1
  O  O21  1  0.51079000  0.20355000  0.42263600  1
  O  O22  1  0.98921000  0.20355000  0.92263600  1
  O  O23  1  0.01079000  0.79645000  0.07736400  1
  O  O24  1  0.24522300  0.84901600  0.92167400  1
  O  O25  1  0.75477700  0.15098400  0.07832600  1
  O  O26  1  0.74522300  0.15098400  0.57832600  1
  O  O27  1  0.25477700  0.84901600  0.42167400  1
  O  O28  1  0.37820600  0.71142800  0.97183500  1
  O  O29  1  0.62179400  0.28857200  0.02816500  1
  O  O30  1  0.87820600  0.28857200  0.52816500  1
  O  O31  1  0.12179400  0.71142800  0.47183500  1
  O  O32  1  0.19795800  0.91803900  0.60929200  1
  O  O33  1  0.80204200  0.08196100  0.39070800  1
  O  O34  1  0.69795800  0.08196100  0.89070800  1
  O  O35  1  0.30204200  0.91803900  0.10929200  1
  O  O36  1  0.35697500  0.42621900  0.57286800  1
  O  O37  1  0.64302500  0.57378100  0.42713200  1
  O  O38  1  0.85697500  0.57378100  0.92713200  1
  O  O39  1  0.14302500  0.42621900  0.07286800  1
  O  O40  1  0.12683200  0.71450100  0.68363800  1
  O  O41  1  0.87316800  0.28549900  0.31636200  1
  O  O42  1  0.62683200  0.28549900  0.81636200  1
  O  O43  1  0.37316800  0.71450100  0.18363800  1
