# generated using pymatgen
data_NdP4NO12
_symmetry_space_group_name_H-M   'P 1'
_cell_length_a   7.49141412
_cell_length_b   7.49141412
_cell_length_c   10.75789468
_cell_angle_alpha   79.18039948
_cell_angle_beta   79.18039948
_cell_angle_gamma   115.02145217
_symmetry_Int_Tables_number   1
_chemical_formula_structural   NdP4NO12
_chemical_formula_sum   'Nd2 P8 N2 O24'
_cell_volume   512.58896280
_cell_formula_units_Z   2
loop_
 _symmetry_equiv_pos_site_id
 _symmetry_equiv_pos_as_xyz
  1  'x, y, z'
loop_
 _atom_site_type_symbol
 _atom_site_label
 _atom_site_symmetry_multiplicity
 _atom_site_fract_x
 _atom_site_fract_y
 _atom_site_fract_z
 _atom_site_occupancy
  Nd  Nd0  1  0.88123300  0.11876700  0.75000000  1
  Nd  Nd1  1  0.11876700  0.88123300  0.25000000  1
  P  P2  1  0.69171200  0.73626700  0.55808700  1
  P  P3  1  0.30828800  0.26373300  0.44191300  1
  P  P4  1  0.26373300  0.30828800  0.94191300  1
  P  P5  1  0.73626700  0.69171200  0.05808700  1
  P  P6  1  0.62816400  0.28668300  0.99977300  1
  P  P7  1  0.37183600  0.71331700  0.00022700  1
  P  P8  1  0.71331700  0.37183600  0.50022700  1
  P  P9  1  0.28668300  0.62816400  0.49977300  1
  N  N10  1  0.18235500  0.81764500  0.75000000  1
  N  N11  1  0.81764500  0.18235500  0.25000000  1
  O  O12  1  0.15948200  0.13780800  0.57830000  1
  O  O13  1  0.84051800  0.86219200  0.42170000  1
  O  O14  1  0.86219200  0.84051800  0.92170000  1
  O  O15  1  0.13780800  0.15948200  0.07830000  1
  O  O16  1  0.51400100  0.90616700  0.88810800  1
  O  O17  1  0.48599900  0.09383300  0.11189200  1
  O  O18  1  0.09383300  0.48599900  0.61189200  1
  O  O19  1  0.90616700  0.51400100  0.38810800  1
  O  O20  1  0.50233600  0.36023300  0.91297900  1
  O  O21  1  0.49766400  0.63976700  0.08702100  1
  O  O22  1  0.63976700  0.49766400  0.58702100  1
  O  O23  1  0.36023300  0.50233600  0.41297900  1
  O  O24  1  0.70252700  0.19347100  0.59771900  1
  O  O25  1  0.29747300  0.80652900  0.40228100  1
  O  O26  1  0.80652900  0.29747300  0.90228100  1
  O  O27  1  0.19347100  0.70252700  0.09771900  1
  O  O28  1  0.75005000  0.80834800  0.67219200  1
  O  O29  1  0.24995000  0.19165200  0.32780800  1
  O  O30  1  0.19165200  0.24995000  0.82780800  1
  O  O31  1  0.80834800  0.75005000  0.17219200  1
  O  O32  1  0.47166200  0.72341100  0.56397400  1
  O  O33  1  0.52833800  0.27658900  0.43602600  1
  O  O34  1  0.27658900  0.52833800  0.93602600  1
  O  O35  1  0.72341100  0.47166200  0.06397400  1
