# generated using pymatgen
data_Rb2HPd(CN)4
_symmetry_space_group_name_H-M   'P 1'
_cell_length_a   7.65895200
_cell_length_b   10.07707800
_cell_length_c   13.76851800
_cell_angle_alpha   90.00000000
_cell_angle_beta   90.00000000
_cell_angle_gamma   90.00000000
_symmetry_Int_Tables_number   1
_chemical_formula_structural   Rb2HPd(CN)4
_chemical_formula_sum   'Rb8 H4 Pd4 C16 N16'
_cell_volume   1062.65224624
_cell_formula_units_Z   4
loop_
 _symmetry_equiv_pos_site_id
 _symmetry_equiv_pos_as_xyz
  1  'x, y, z'
loop_
 _atom_site_type_symbol
 _atom_site_label
 _atom_site_symmetry_multiplicity
 _atom_site_fract_x
 _atom_site_fract_y
 _atom_site_fract_z
 _atom_site_occupancy
  Rb  Rb0  1  0.28941800  0.25000000  0.25000000  1
  Rb  Rb1  1  0.71058200  0.75000000  0.75000000  1
  Rb  Rb2  1  0.21058200  0.75000000  0.25000000  1
  Rb  Rb3  1  0.78941800  0.25000000  0.75000000  1
  Rb  Rb4  1  0.25000000  0.00000000  0.59600600  1
  Rb  Rb5  1  0.75000000  0.00000000  0.40399400  1
  Rb  Rb6  1  0.25000000  0.50000000  0.90399400  1
  Rb  Rb7  1  0.75000000  0.50000000  0.09600600  1
  H  H8  1  0.74971700  0.25000000  0.25000000  1
  H  H9  1  0.25028300  0.75000000  0.75000000  1
  H  H10  1  0.75028300  0.75000000  0.25000000  1
  H  H11  1  0.24971700  0.25000000  0.75000000  1
  Pd  Pd12  1  0.00000000  0.00000000  0.00000000  1
  Pd  Pd13  1  0.50000000  0.00000000  0.00000000  1
  Pd  Pd14  1  0.50000000  0.50000000  0.50000000  1
  Pd  Pd15  1  0.00000000  0.50000000  0.50000000  1
  C  C16  1  0.00731700  0.01181400  0.14442700  1
  C  C17  1  0.99268300  0.98818600  0.85557300  1
  C  C18  1  0.49268300  0.98818600  0.14442700  1
  C  C19  1  0.49268300  0.51181400  0.35557300  1
  C  C20  1  0.50731700  0.01181400  0.85557300  1
  C  C21  1  0.50731700  0.48818600  0.64442700  1
  C  C22  1  0.00731700  0.48818600  0.35557300  1
  C  C23  1  0.99268300  0.51181400  0.64442700  1
  C  C24  1  0.52966800  0.19708800  0.99036700  1
  C  C25  1  0.47033200  0.80291200  0.00963300  1
  C  C26  1  0.97033200  0.80291200  0.99036700  1
  C  C27  1  0.97033200  0.69708800  0.50963300  1
  C  C28  1  0.02966800  0.19708800  0.00963300  1
  C  C29  1  0.02966800  0.30291200  0.49036700  1
  C  C30  1  0.52966800  0.30291200  0.50963300  1
  C  C31  1  0.47033200  0.69708800  0.49036700  1
  N  N32  1  0.01736200  0.02701600  0.22908300  1
  N  N33  1  0.98263800  0.97298400  0.77091700  1
  N  N34  1  0.48263800  0.97298400  0.22908300  1
  N  N35  1  0.48263800  0.52701600  0.27091700  1
  N  N36  1  0.51736200  0.02701600  0.77091700  1
  N  N37  1  0.51736200  0.47298400  0.72908300  1
  N  N38  1  0.01736200  0.47298400  0.27091700  1
  N  N39  1  0.98263800  0.52701600  0.72908300  1
  N  N40  1  0.54691200  0.31127000  0.97607900  1
  N  N41  1  0.45308800  0.68873000  0.02392100  1
  N  N42  1  0.95308800  0.68873000  0.97607900  1
  N  N43  1  0.95308800  0.81127000  0.52392100  1
  N  N44  1  0.04691200  0.31127000  0.02392100  1
  N  N45  1  0.04691200  0.18873000  0.47607900  1
  N  N46  1  0.54691200  0.18873000  0.52392100  1
  N  N47  1  0.45308800  0.81127000  0.47607900  1
