# generated using pymatgen
data_Re3Br9O2
_symmetry_space_group_name_H-M   'P 1'
_cell_length_a   9.33432624
_cell_length_b   9.33432624
_cell_length_c   10.85098441
_cell_angle_alpha   78.04066045
_cell_angle_beta   78.04066045
_cell_angle_gamma   69.27576957
_symmetry_Int_Tables_number   1
_chemical_formula_structural   Re3Br9O2
_chemical_formula_sum   'Re6 Br18 O4'
_cell_volume   855.76240428
_cell_formula_units_Z   2
loop_
 _symmetry_equiv_pos_site_id
 _symmetry_equiv_pos_as_xyz
  1  'x, y, z'
loop_
 _atom_site_type_symbol
 _atom_site_label
 _atom_site_symmetry_multiplicity
 _atom_site_fract_x
 _atom_site_fract_y
 _atom_site_fract_z
 _atom_site_occupancy
  Re  Re0  1  0.71046000  0.71046000  0.13242000  1
  Re  Re1  1  0.28954000  0.28954000  0.86758000  1
  Re  Re2  1  0.69706600  0.91539900  0.35966600  1
  Re  Re3  1  0.30293400  0.08460100  0.64033400  1
  Re  Re4  1  0.08460100  0.30293400  0.64033400  1
  Re  Re5  1  0.91539900  0.69706600  0.35966600  1
  Br  Br6  1  0.49730300  0.18249400  0.47652400  1
  Br  Br7  1  0.50269700  0.81750600  0.52347600  1
  Br  Br8  1  0.81750600  0.50269700  0.52347600  1
  Br  Br9  1  0.18249400  0.49730300  0.47652400  1
  Br  Br10  1  0.11831000  0.79286500  0.23126200  1
  Br  Br11  1  0.88169000  0.20713500  0.76873800  1
  Br  Br12  1  0.20713500  0.88169000  0.76873800  1
  Br  Br13  1  0.79286500  0.11831000  0.23126200  1
  Br  Br14  1  0.51501500  0.95962100  0.19626300  1
  Br  Br15  1  0.48498500  0.04037900  0.80373700  1
  Br  Br16  1  0.04037900  0.48498500  0.80373700  1
  Br  Br17  1  0.95962100  0.51501500  0.19626300  1
  Br  Br18  1  0.56677700  0.56677700  0.29868900  1
  Br  Br19  1  0.43322300  0.43322300  0.70131100  1
  Br  Br20  1  0.86588100  0.86588100  0.99799800  1
  Br  Br21  1  0.13411900  0.13411900  0.00200200  1
  Br  Br22  1  0.86889700  0.86889700  0.53070000  1
  Br  Br23  1  0.13110300  0.13110300  0.46930000  1
  O  O24  1  0.75278400  0.24721600  0.00000000  1
  O  O25  1  0.24721600  0.75278400  0.00000000  1
  O  O26  1  0.66060900  0.66060900  0.01007100  1
  O  O27  1  0.33939100  0.33939100  0.98992900  1
