# generated using pymatgen
data_KHfMg30O31
_symmetry_space_group_name_H-M   'P 1'
_cell_length_a   8.58863200
_cell_length_b   8.68321900
_cell_length_c   8.71979700
_cell_angle_alpha   90.00000000
_cell_angle_beta   90.00000000
_cell_angle_gamma   90.00000000
_symmetry_Int_Tables_number   1
_chemical_formula_structural   KHfMg30O31
_chemical_formula_sum   'K1 Hf1 Mg30 O31'
_cell_volume   650.29606165
_cell_formula_units_Z   1
loop_
 _symmetry_equiv_pos_site_id
 _symmetry_equiv_pos_as_xyz
  1  'x, y, z'
loop_
 _atom_site_type_symbol
 _atom_site_label
 _atom_site_symmetry_multiplicity
 _atom_site_fract_x
 _atom_site_fract_y
 _atom_site_fract_z
 _atom_site_occupancy
  K  K0  1  0.01298400  0.00000000  0.00000000  1
  Hf  Hf1  1  0.99895000  0.00000000  0.50000000  1
  Mg  Mg2  1  0.99873100  0.50000000  0.00000000  1
  Mg  Mg3  1  0.99976700  0.50000000  0.50000000  1
  Mg  Mg4  1  0.49210500  0.00000000  0.00000000  1
  Mg  Mg5  1  0.50171600  0.00000000  0.50000000  1
  Mg  Mg6  1  0.50179200  0.50000000  0.00000000  1
  Mg  Mg7  1  0.50020200  0.50000000  0.50000000  1
  Mg  Mg8  1  0.99991300  0.25854900  0.24364800  1
  Mg  Mg9  1  0.99991300  0.25854900  0.75635200  1
  Mg  Mg10  1  0.99991300  0.74145100  0.24364800  1
  Mg  Mg11  1  0.99991300  0.74145100  0.75635200  1
  Mg  Mg12  1  0.50039400  0.25103300  0.24841600  1
  Mg  Mg13  1  0.50039400  0.25103300  0.75158400  1
  Mg  Mg14  1  0.50039400  0.74896700  0.24841600  1
  Mg  Mg15  1  0.50039400  0.74896700  0.75158400  1
  Mg  Mg16  1  0.25997700  0.00000000  0.24908500  1
  Mg  Mg17  1  0.25997700  0.00000000  0.75091500  1
  Mg  Mg18  1  0.25123200  0.50000000  0.24983500  1
  Mg  Mg19  1  0.25123200  0.50000000  0.75016500  1
  Mg  Mg20  1  0.74287800  0.00000000  0.24183700  1
  Mg  Mg21  1  0.74287800  0.00000000  0.75816300  1
  Mg  Mg22  1  0.74878300  0.50000000  0.24834300  1
  Mg  Mg23  1  0.74878300  0.50000000  0.75165700  1
  Mg  Mg24  1  0.25403200  0.25832100  0.00000000  1
  Mg  Mg25  1  0.25531200  0.25659400  0.50000000  1
  Mg  Mg26  1  0.25403200  0.74167900  0.00000000  1
  Mg  Mg27  1  0.25531200  0.74340600  0.50000000  1
  Mg  Mg28  1  0.74837900  0.25126300  0.00000000  1
  Mg  Mg29  1  0.74463600  0.25572000  0.50000000  1
  Mg  Mg30  1  0.74837900  0.74873700  0.00000000  1
  Mg  Mg31  1  0.74463600  0.74428000  0.50000000  1
  O  O32  1  0.24916000  0.00000000  0.50000000  1
  O  O33  1  0.25423500  0.50000000  0.00000000  1
  O  O34  1  0.24982400  0.50000000  0.50000000  1
  O  O35  1  0.72748500  0.00000000  0.00000000  1
  O  O36  1  0.75121200  0.00000000  0.50000000  1
  O  O37  1  0.74672800  0.50000000  0.00000000  1
  O  O38  1  0.75011900  0.50000000  0.50000000  1
  O  O39  1  0.24867800  0.25033300  0.25241000  1
  O  O40  1  0.24867800  0.25033300  0.74759000  1
  O  O41  1  0.24867800  0.74966700  0.25241000  1
  O  O42  1  0.24867800  0.74966700  0.74759000  1
  O  O43  1  0.75146000  0.24862600  0.25060400  1
  O  O44  1  0.75146000  0.24862600  0.74939600  1
  O  O45  1  0.75146000  0.75137400  0.25060400  1
  O  O46  1  0.75146000  0.75137400  0.74939600  1
  O  O47  1  0.99891900  0.00000000  0.26957100  1
  O  O48  1  0.99891900  0.00000000  0.73042900  1
  O  O49  1  0.99994700  0.50000000  0.25604400  1
  O  O50  1  0.99994700  0.50000000  0.74395600  1
  O  O51  1  0.50143900  0.00000000  0.25781200  1
  O  O52  1  0.50143900  0.00000000  0.74218800  1
  O  O53  1  0.50008600  0.50000000  0.25191700  1
  O  O54  1  0.50008600  0.50000000  0.74808300  1
  O  O55  1  0.99978900  0.27395300  0.00000000  1
  O  O56  1  0.99980800  0.24777600  0.50000000  1
  O  O57  1  0.99978900  0.72604700  0.00000000  1
  O  O58  1  0.99980800  0.75222400  0.50000000  1
  O  O59  1  0.50125200  0.25546400  0.00000000  1
  O  O60  1  0.50013600  0.24984400  0.50000000  1
  O  O61  1  0.50125200  0.74453600  0.00000000  1
  O  O62  1  0.50013600  0.75015600  0.50000000  1
