data_image0
_chemical_formula_structural       AlF5K2
_chemical_formula_sum              "Al1 F5 K2"
_cell_length_a       5.63263
_cell_length_b       5.63263
_cell_length_c       3.66008
_cell_angle_alpha    90
_cell_angle_beta     90
_cell_angle_gamma    90

_space_group_name_H-M_alt    "P 1"
_space_group_IT_number       1

loop_
  _space_group_symop_operation_xyz
  'x, y, z'

loop_
  _atom_site_type_symbol
  _atom_site_label
  _atom_site_symmetry_multiplicity
  _atom_site_fract_x
  _atom_site_fract_y
  _atom_site_fract_z
  _atom_site_occupancy
  Al  Al1       1.0  0.00000  0.00000  0.00000  1.0000
  F   F1        1.0  0.22600  0.22600  0.00000  1.0000
  F   F2        1.0  0.77400  0.22600  0.00000  1.0000
  F   F3        1.0  0.22600  0.77400  0.00000  1.0000
  F   F4        1.0  0.77400  0.77400  0.00000  1.0000
  F   F5        1.0  0.00000  0.00000  0.50000  1.0000
  K   K1        1.0  0.50000  0.00000  0.50000  1.0000
  K   K2        1.0  0.00000  0.50000  0.50000  1.0000
