# generated using pymatgen
data_SmIn3Pt
_symmetry_space_group_name_H-M   'P 1'
_cell_length_a   9.82521700
_cell_length_b   9.82521700
_cell_length_c   9.82521700
_cell_angle_alpha   90.00000000
_cell_angle_beta   90.00000000
_cell_angle_gamma   90.00000000
_symmetry_Int_Tables_number   1
_chemical_formula_structural   SmIn3Pt
_chemical_formula_sum   'Sm8 In24 Pt8'
_cell_volume   948.47623345
_cell_formula_units_Z   8
loop_
 _symmetry_equiv_pos_site_id
 _symmetry_equiv_pos_as_xyz
  1  'x, y, z'
loop_
 _atom_site_type_symbol
 _atom_site_label
 _atom_site_symmetry_multiplicity
 _atom_site_fract_x
 _atom_site_fract_y
 _atom_site_fract_z
 _atom_site_occupancy
  Sm  Sm0  1  0.00000000  0.00000000  0.00000000  1
  Sm  Sm1  1  0.50000000  0.50000000  0.50000000  1
  Sm  Sm2  1  0.25000000  0.00000000  0.50000000  1
  Sm  Sm3  1  0.75000000  0.00000000  0.50000000  1
  Sm  Sm4  1  0.50000000  0.25000000  0.00000000  1
  Sm  Sm5  1  0.50000000  0.75000000  0.00000000  1
  Sm  Sm6  1  0.00000000  0.50000000  0.25000000  1
  Sm  Sm7  1  0.00000000  0.50000000  0.75000000  1
  In  In8  1  0.00000000  0.15258300  0.31432900  1
  In  In9  1  0.00000000  0.84741700  0.68567100  1
  In  In10  1  0.00000000  0.84741700  0.31432900  1
  In  In11  1  0.00000000  0.15258300  0.68567100  1
  In  In12  1  0.31432900  0.00000000  0.15258300  1
  In  In13  1  0.65258300  0.50000000  0.18567100  1
  In  In14  1  0.68567100  0.00000000  0.84741700  1
  In  In15  1  0.34741700  0.50000000  0.81432900  1
  In  In16  1  0.31432900  0.00000000  0.84741700  1
  In  In17  1  0.34741700  0.50000000  0.18567100  1
  In  In18  1  0.68567100  0.00000000  0.15258300  1
  In  In19  1  0.65258300  0.50000000  0.81432900  1
  In  In20  1  0.15258300  0.31432900  0.00000000  1
  In  In21  1  0.50000000  0.81432900  0.34741700  1
  In  In22  1  0.84741700  0.68567100  0.00000000  1
  In  In23  1  0.50000000  0.18567100  0.65258300  1
  In  In24  1  0.15258300  0.68567100  0.00000000  1
  In  In25  1  0.50000000  0.18567100  0.34741700  1
  In  In26  1  0.84741700  0.31432900  0.00000000  1
  In  In27  1  0.50000000  0.81432900  0.65258300  1
  In  In28  1  0.18567100  0.65258300  0.50000000  1
  In  In29  1  0.81432900  0.34741700  0.50000000  1
  In  In30  1  0.18567100  0.34741700  0.50000000  1
  In  In31  1  0.81432900  0.65258300  0.50000000  1
  Pt  Pt32  1  0.25000000  0.25000000  0.25000000  1
  Pt  Pt33  1  0.75000000  0.75000000  0.75000000  1
  Pt  Pt34  1  0.75000000  0.75000000  0.25000000  1
  Pt  Pt35  1  0.75000000  0.25000000  0.75000000  1
  Pt  Pt36  1  0.25000000  0.25000000  0.75000000  1
  Pt  Pt37  1  0.25000000  0.75000000  0.25000000  1
  Pt  Pt38  1  0.25000000  0.75000000  0.75000000  1
  Pt  Pt39  1  0.75000000  0.25000000  0.25000000  1
