# generated using pymatgen
data_Pr2(WO4)3
_symmetry_space_group_name_H-M   'P 1'
_cell_length_a   7.12985114
_cell_length_b   7.12985114
_cell_length_c   11.77985107
_cell_angle_alpha   79.17900538
_cell_angle_beta   79.17900538
_cell_angle_gamma   111.88969723
_symmetry_Int_Tables_number   1
_chemical_formula_structural   Pr2(WO4)3
_chemical_formula_sum   'Pr4 W6 O24'
_cell_volume   523.49511592
_cell_formula_units_Z   2
loop_
 _symmetry_equiv_pos_site_id
 _symmetry_equiv_pos_as_xyz
  1  'x, y, z'
loop_
 _atom_site_type_symbol
 _atom_site_label
 _atom_site_symmetry_multiplicity
 _atom_site_fract_x
 _atom_site_fract_y
 _atom_site_fract_z
 _atom_site_occupancy
  Pr  Pr0  1  0.19364600  0.44665900  0.59449800  1
  Pr  Pr1  1  0.80635400  0.55334100  0.40550200  1
  Pr  Pr2  1  0.55334100  0.80635400  0.90550200  1
  Pr  Pr3  1  0.44665900  0.19364600  0.09449800  1
  W  W4  1  0.00914500  0.30019200  0.95156600  1
  W  W5  1  0.99085500  0.69980800  0.04843400  1
  W  W6  1  0.69980800  0.99085500  0.54843400  1
  W  W7  1  0.30019200  0.00914500  0.45156600  1
  W  W8  1  0.61793600  0.38206400  0.75000000  1
  W  W9  1  0.38206400  0.61793600  0.25000000  1
  O  O10  1  0.55099900  0.46846000  0.61118000  1
  O  O11  1  0.44900100  0.53154000  0.38882000  1
  O  O12  1  0.53154000  0.44900100  0.88882000  1
  O  O13  1  0.46846000  0.55099900  0.11118000  1
  O  O14  1  0.51405400  0.10011300  0.78135100  1
  O  O15  1  0.48594600  0.89988700  0.21864900  1
  O  O16  1  0.89988700  0.48594600  0.71864900  1
  O  O17  1  0.10011300  0.51405400  0.28135100  1
  O  O18  1  0.72906100  0.12783600  0.96099600  1
  O  O19  1  0.27093900  0.87216400  0.03900400  1
  O  O20  1  0.87216400  0.27093900  0.53900400  1
  O  O21  1  0.12783600  0.72906100  0.46099600  1
  O  O22  1  0.40105700  0.82893300  0.57457000  1
  O  O23  1  0.59894300  0.17106700  0.42543000  1
  O  O24  1  0.17106700  0.59894300  0.92543000  1
  O  O25  1  0.82893300  0.40105700  0.07457000  1
  O  O26  1  0.14849600  0.29654200  0.80544300  1
  O  O27  1  0.85150400  0.70345800  0.19455700  1
  O  O28  1  0.70345800  0.85150400  0.69455700  1
  O  O29  1  0.29654200  0.14849600  0.30544300  1
  O  O30  1  0.89416000  0.82415800  0.94258900  1
  O  O31  1  0.10584000  0.17584200  0.05741100  1
  O  O32  1  0.17584200  0.10584000  0.55741100  1
  O  O33  1  0.82415800  0.89416000  0.44258900  1
