# generated using pymatgen
data_Nd(Ga2Fe)4
_symmetry_space_group_name_H-M   'P 1'
_cell_length_a   6.71183773
_cell_length_b   6.71183773
_cell_length_c   6.71183773
_cell_angle_alpha   98.24778924
_cell_angle_beta   98.24778924
_cell_angle_gamma   135.48697779
_symmetry_Int_Tables_number   1
_chemical_formula_structural   Nd(Ga2Fe)4
_chemical_formula_sum   'Nd1 Ga8 Fe4'
_cell_volume   196.18319395
_cell_formula_units_Z   1
loop_
 _symmetry_equiv_pos_site_id
 _symmetry_equiv_pos_as_xyz
  1  'x, y, z'
loop_
 _atom_site_type_symbol
 _atom_site_label
 _atom_site_symmetry_multiplicity
 _atom_site_fract_x
 _atom_site_fract_y
 _atom_site_fract_z
 _atom_site_occupancy
  Nd  Nd0  1  0.00000000  0.00000000  0.00000000  1
  Ga  Ga1  1  0.34055500  0.00000000  0.34055500  1
  Ga  Ga2  1  0.65944500  0.00000000  0.65944500  1
  Ga  Ga3  1  0.00000000  0.34055500  0.34055500  1
  Ga  Ga4  1  0.00000000  0.65944500  0.65944500  1
  Ga  Ga5  1  0.27620600  0.50000000  0.77620600  1
  Ga  Ga6  1  0.72379400  0.50000000  0.22379400  1
  Ga  Ga7  1  0.50000000  0.27620600  0.77620600  1
  Ga  Ga8  1  0.50000000  0.72379400  0.22379400  1
  Fe  Fe9  1  0.50000000  0.50000000  0.50000000  1
  Fe  Fe10  1  0.00000000  0.00000000  0.50000000  1
  Fe  Fe11  1  0.00000000  0.50000000  0.00000000  1
  Fe  Fe12  1  0.50000000  0.00000000  0.00000000  1
