# generated using pymatgen
data_PrSCl
_symmetry_space_group_name_H-M   'P 1'
_cell_length_a   6.91340800
_cell_length_b   7.01902300
_cell_length_c   41.53519200
_cell_angle_alpha   90.00000000
_cell_angle_beta   90.00000000
_cell_angle_gamma   90.00000000
_symmetry_Int_Tables_number   1
_chemical_formula_structural   PrSCl
_chemical_formula_sum   'Pr24 S24 Cl24'
_cell_volume   2015.51054987
_cell_formula_units_Z   24
loop_
 _symmetry_equiv_pos_site_id
 _symmetry_equiv_pos_as_xyz
  1  'x, y, z'
loop_
 _atom_site_type_symbol
 _atom_site_label
 _atom_site_symmetry_multiplicity
 _atom_site_fract_x
 _atom_site_fract_y
 _atom_site_fract_z
 _atom_site_occupancy
  Pr  Pr0  1  0.19953700  0.72947700  0.16687900  1
  Pr  Pr1  1  0.80046300  0.27052300  0.83312100  1
  Pr  Pr2  1  0.80046300  0.27052300  0.66687900  1
  Pr  Pr3  1  0.80046300  0.22947700  0.33312100  1
  Pr  Pr4  1  0.19953700  0.72947700  0.33312100  1
  Pr  Pr5  1  0.19953700  0.77052300  0.66687900  1
  Pr  Pr6  1  0.19953700  0.77052300  0.83312100  1
  Pr  Pr7  1  0.80046300  0.22947700  0.16687900  1
  Pr  Pr8  1  0.78769300  0.25000000  0.00000000  1
  Pr  Pr9  1  0.21230700  0.75000000  0.00000000  1
  Pr  Pr10  1  0.21230700  0.75000000  0.50000000  1
  Pr  Pr11  1  0.78769300  0.25000000  0.50000000  1
  Pr  Pr12  1  0.19633000  0.30145300  0.08386200  1
  Pr  Pr13  1  0.80367000  0.69854700  0.91613800  1
  Pr  Pr14  1  0.80367000  0.69854700  0.58386200  1
  Pr  Pr15  1  0.80367000  0.80145300  0.41613800  1
  Pr  Pr16  1  0.19633000  0.30145300  0.41613800  1
  Pr  Pr17  1  0.19633000  0.19854700  0.58386200  1
  Pr  Pr18  1  0.19633000  0.19854700  0.91613800  1
  Pr  Pr19  1  0.80367000  0.80145300  0.08386200  1
  Pr  Pr20  1  0.19269400  0.28702900  0.25000000  1
  Pr  Pr21  1  0.80730600  0.71297100  0.75000000  1
  Pr  Pr22  1  0.80730600  0.78702900  0.25000000  1
  Pr  Pr23  1  0.19269400  0.21297100  0.75000000  1
  S  S24  1  0.03022700  0.03655100  0.04183300  1
  S  S25  1  0.96977300  0.96344900  0.95816700  1
  S  S26  1  0.96977300  0.96344900  0.54183300  1
  S  S27  1  0.96977300  0.53655100  0.45816700  1
  S  S28  1  0.03022700  0.03655100  0.45816700  1
  S  S29  1  0.03022700  0.46344900  0.54183300  1
  S  S30  1  0.03022700  0.46344900  0.95816700  1
  S  S31  1  0.96977300  0.53655100  0.04183300  1
  S  S32  1  0.04381800  0.01084300  0.12683700  1
  S  S33  1  0.95618200  0.98915700  0.87316300  1
  S  S34  1  0.95618200  0.98915700  0.62683700  1
  S  S35  1  0.95618200  0.51084300  0.37316300  1
  S  S36  1  0.04381800  0.01084300  0.37316300  1
  S  S37  1  0.04381800  0.48915700  0.62683700  1
  S  S38  1  0.04381800  0.48915700  0.87316300  1
  S  S39  1  0.95618200  0.51084300  0.12683700  1
  S  S40  1  0.03428300  0.01106000  0.20914100  1
  S  S41  1  0.96571700  0.98894000  0.79085900  1
  S  S42  1  0.96571700  0.98894000  0.70914100  1
  S  S43  1  0.96571700  0.51106000  0.29085900  1
  S  S44  1  0.03428300  0.01106000  0.29085900  1
  S  S45  1  0.03428300  0.48894000  0.70914100  1
  S  S46  1  0.03428300  0.48894000  0.79085900  1
  S  S47  1  0.96571700  0.51106000  0.20914100  1
  Cl  Cl48  1  0.55364600  0.12861500  0.11442700  1
  Cl  Cl49  1  0.44635400  0.87138500  0.88557300  1
  Cl  Cl50  1  0.44635400  0.87138500  0.61442700  1
  Cl  Cl51  1  0.44635400  0.62861500  0.38557300  1
  Cl  Cl52  1  0.55364600  0.12861500  0.38557300  1
  Cl  Cl53  1  0.55364600  0.37138500  0.61442700  1
  Cl  Cl54  1  0.55364600  0.37138500  0.88557300  1
  Cl  Cl55  1  0.44635400  0.62861500  0.11442700  1
  Cl  Cl56  1  0.45827500  0.41523300  0.20003800  1
  Cl  Cl57  1  0.54172500  0.58476700  0.79996200  1
  Cl  Cl58  1  0.54172500  0.58476700  0.70003800  1
  Cl  Cl59  1  0.54172500  0.91523300  0.29996200  1
  Cl  Cl60  1  0.45827500  0.41523300  0.29996200  1
  Cl  Cl61  1  0.45827500  0.08476700  0.70003800  1
  Cl  Cl62  1  0.45827500  0.08476700  0.79996200  1
  Cl  Cl63  1  0.54172500  0.91523300  0.20003800  1
  Cl  Cl64  1  0.46074500  0.41410900  0.03611000  1
  Cl  Cl65  1  0.53925500  0.58589100  0.96389000  1
  Cl  Cl66  1  0.53925500  0.58589100  0.53611000  1
  Cl  Cl67  1  0.53925500  0.91410900  0.46389000  1
  Cl  Cl68  1  0.46074500  0.41410900  0.46389000  1
  Cl  Cl69  1  0.46074500  0.08589100  0.53611000  1
  Cl  Cl70  1  0.46074500  0.08589100  0.96389000  1
  Cl  Cl71  1  0.53925500  0.91410900  0.03611000  1
