# generated using pymatgen
data_NaTlSe2
_symmetry_space_group_name_H-M   'P 1'
_cell_length_a   6.58416600
_cell_length_b   6.58416600
_cell_length_c   6.58416600
_cell_angle_alpha   106.65493423
_cell_angle_beta   106.65493423
_cell_angle_gamma   115.26375631
_symmetry_Int_Tables_number   1
_chemical_formula_structural   NaTlSe2
_chemical_formula_sum   'Na2 Tl2 Se4'
_cell_volume   218.02412871
_cell_formula_units_Z   2
loop_
 _symmetry_equiv_pos_site_id
 _symmetry_equiv_pos_as_xyz
  1  'x, y, z'
loop_
 _atom_site_type_symbol
 _atom_site_label
 _atom_site_symmetry_multiplicity
 _atom_site_fract_x
 _atom_site_fract_y
 _atom_site_fract_z
 _atom_site_occupancy
  Na  Na0  1  0.75000000  0.75000000  0.00000000  1
  Na  Na1  1  0.25000000  0.25000000  0.00000000  1
  Tl  Tl2  1  0.75000000  0.25000000  0.50000000  1
  Tl  Tl3  1  0.25000000  0.75000000  0.50000000  1
  Se  Se4  1  0.81337900  0.31337900  0.12675800  1
  Se  Se5  1  0.18662100  0.68662100  0.87324200  1
  Se  Se6  1  0.68662100  0.81337900  0.50000000  1
  Se  Se7  1  0.31337900  0.18662100  0.50000000  1
