data_image0
_chemical_formula_structural       Al8F48Li12Na12
_chemical_formula_sum              "Al8 F48 Li12 Na12"
_cell_length_a       9.89018
_cell_length_b       9.89018
_cell_length_c       9.89018
_cell_angle_alpha    109.471
_cell_angle_beta     109.471
_cell_angle_gamma    109.471

_space_group_name_H-M_alt    "P 1"
_space_group_IT_number       1

loop_
  _space_group_symop_operation_xyz
  'x, y, z'

loop_
  _atom_site_type_symbol
  _atom_site_label
  _atom_site_symmetry_multiplicity
  _atom_site_fract_x
  _atom_site_fract_y
  _atom_site_fract_z
  _atom_site_occupancy
  Al  Al1       1.0  0.00000  0.50000  0.00000  1.0000
  Al  Al2       1.0  0.00000  0.00000  0.50000  1.0000
  Al  Al3       1.0  0.50000  0.00000  0.00000  1.0000
  Al  Al4       1.0  0.50000  0.50000  0.50000  1.0000
  Al  Al5       1.0  0.00000  0.50000  0.50000  1.0000
  Al  Al6       1.0  0.50000  0.50000  0.00000  1.0000
  Al  Al7       1.0  0.50000  0.00000  0.50000  1.0000
  Al  Al8       1.0  0.00000  0.00000  0.00000  1.0000
  F   F1        1.0  0.61000  0.69800  0.52300  1.0000
  F   F2        1.0  0.61000  0.41200  0.08760  1.0000
  F   F3        1.0  0.08750  0.69800  0.67500  1.0000
  F   F4        1.0  0.67500  0.08750  0.69800  1.0000
  F   F5        1.0  0.52300  0.41200  0.82500  1.0000
  F   F6        1.0  0.82500  0.52300  0.41200  1.0000
  F   F7        1.0  0.41200  0.08760  0.61000  1.0000
  F   F8        1.0  0.89000  0.97700  0.80200  1.0000
  F   F9        1.0  0.97700  0.80200  0.89000  1.0000
  F   F10       1.0  0.08760  0.61000  0.41200  1.0000
  F   F11       1.0  0.69800  0.67500  0.08750  1.0000
  F   F12       1.0  0.41200  0.82500  0.52300  1.0000
  F   F13       1.0  0.08750  0.89000  0.41200  1.0000
  F   F14       1.0  0.80200  0.41200  0.82500  1.0000
  F   F15       1.0  0.41200  0.82500  0.80200  1.0000
  F   F16       1.0  0.08760  0.97700  0.67500  1.0000
  F   F17       1.0  0.97700  0.67500  0.08760  1.0000
  F   F18       1.0  0.41200  0.08750  0.89000  1.0000
  F   F19       1.0  0.52300  0.61000  0.69800  1.0000
  F   F20       1.0  0.69800  0.52300  0.61000  1.0000
  F   F21       1.0  0.89000  0.41200  0.08750  1.0000
  F   F22       1.0  0.82500  0.80200  0.41200  1.0000
  F   F23       1.0  0.67500  0.08760  0.97700  1.0000
  F   F24       1.0  0.80200  0.89000  0.97700  1.0000
  F   F25       1.0  0.91200  0.11000  0.58800  1.0000
  F   F26       1.0  0.19800  0.58800  0.17500  1.0000
  F   F27       1.0  0.58800  0.17500  0.19800  1.0000
  F   F28       1.0  0.91200  0.02250  0.32500  1.0000
  F   F29       1.0  0.02250  0.32500  0.91200  1.0000
  F   F30       1.0  0.58800  0.91200  0.11000  1.0000
  F   F31       1.0  0.47700  0.39000  0.30200  1.0000
  F   F32       1.0  0.30200  0.47700  0.39000  1.0000
  F   F33       1.0  0.11000  0.58800  0.91200  1.0000
  F   F34       1.0  0.17500  0.19800  0.58800  1.0000
  F   F35       1.0  0.32500  0.91200  0.02250  1.0000
  F   F36       1.0  0.39000  0.30200  0.47700  1.0000
  F   F37       1.0  0.39000  0.58800  0.91200  1.0000
  F   F38       1.0  0.91200  0.30200  0.32500  1.0000
  F   F39       1.0  0.32500  0.91200  0.30200  1.0000
  F   F40       1.0  0.47700  0.58800  0.17500  1.0000
  F   F41       1.0  0.17500  0.47700  0.58800  1.0000
  F   F42       1.0  0.58800  0.91200  0.39000  1.0000
  F   F43       1.0  0.11000  0.02250  0.19800  1.0000
  F   F44       1.0  0.02250  0.19800  0.11000  1.0000
  F   F45       1.0  0.91200  0.39000  0.58800  1.0000
  F   F46       1.0  0.30200  0.32500  0.91200  1.0000
  F   F47       1.0  0.58800  0.17500  0.47700  1.0000
  F   F48       1.0  0.19800  0.11000  0.02250  1.0000
  Li  Li1       1.0  0.37500  0.62500  0.75000  1.0000
  Li  Li2       1.0  0.75000  0.37500  0.62500  1.0000
  Li  Li3       1.0  0.12500  0.87500  0.25000  1.0000
  Li  Li4       1.0  0.25000  0.12500  0.87500  1.0000
  Li  Li5       1.0  0.62500  0.75000  0.37500  1.0000
  Li  Li6       1.0  0.87500  0.25000  0.12500  1.0000
  Li  Li7       1.0  0.87500  0.12500  0.75000  1.0000
  Li  Li8       1.0  0.12500  0.75000  0.87500  1.0000
  Li  Li9       1.0  0.62500  0.37500  0.25000  1.0000
  Li  Li10      1.0  0.37500  0.25000  0.62500  1.0000
  Li  Li11      1.0  0.75000  0.87500  0.12500  1.0000
  Li  Li12      1.0  0.25000  0.62500  0.37500  1.0000
  Na  Na1       1.0  0.87500  0.75000  0.62500  1.0000
  Na  Na2       1.0  0.62500  0.87500  0.75000  1.0000
  Na  Na3       1.0  0.62500  0.25000  0.87500  1.0000
  Na  Na4       1.0  0.87500  0.62500  0.25000  1.0000
  Na  Na5       1.0  0.25000  0.87500  0.62500  1.0000
  Na  Na6       1.0  0.75000  0.62500  0.87500  1.0000
  Na  Na7       1.0  0.12500  0.37500  0.75000  1.0000
  Na  Na8       1.0  0.37500  0.75000  0.12500  1.0000
  Na  Na9       1.0  0.37500  0.12500  0.25000  1.0000
  Na  Na10      1.0  0.12500  0.25000  0.37500  1.0000
  Na  Na11      1.0  0.75000  0.12500  0.37500  1.0000
  Na  Na12      1.0  0.25000  0.37500  0.12500  1.0000
