# generated using pymatgen
data_KMg30BO31
_symmetry_space_group_name_H-M   'P 1'
_cell_length_a   8.53790600
_cell_length_b   8.61628100
_cell_length_c   8.66382800
_cell_angle_alpha   90.00000000
_cell_angle_beta   90.00000000
_cell_angle_gamma   90.00000000
_symmetry_Int_Tables_number   1
_chemical_formula_structural   KMg30BO31
_chemical_formula_sum   'K1 Mg30 B1 O31'
_cell_volume   637.35448297
_cell_formula_units_Z   1
loop_
 _symmetry_equiv_pos_site_id
 _symmetry_equiv_pos_as_xyz
  1  'x, y, z'
loop_
 _atom_site_type_symbol
 _atom_site_label
 _atom_site_symmetry_multiplicity
 _atom_site_fract_x
 _atom_site_fract_y
 _atom_site_fract_z
 _atom_site_occupancy
  K  K0  1  0.00000000  0.00012000  0.00000000  1
  Mg  Mg1  1  0.00000000  0.00329300  0.50000000  1
  Mg  Mg2  1  0.50000000  0.00272300  0.00000000  1
  Mg  Mg3  1  0.00000000  0.49962600  0.00000000  1
  Mg  Mg4  1  0.00000000  0.50511900  0.50000000  1
  Mg  Mg5  1  0.50000000  0.49867800  0.00000000  1
  Mg  Mg6  1  0.50000000  0.50545900  0.50000000  1
  Mg  Mg7  1  0.73723500  0.99996100  0.75558300  1
  Mg  Mg8  1  0.73723500  0.99996100  0.24441700  1
  Mg  Mg9  1  0.26276500  0.99996100  0.75558300  1
  Mg  Mg10  1  0.26276500  0.99996100  0.24441700  1
  Mg  Mg11  1  0.74977600  0.50058700  0.75079500  1
  Mg  Mg12  1  0.74977600  0.50058700  0.24920500  1
  Mg  Mg13  1  0.25022400  0.50058700  0.75079500  1
  Mg  Mg14  1  0.25022400  0.50058700  0.24920500  1
  Mg  Mg15  1  0.00000000  0.24997900  0.75161600  1
  Mg  Mg16  1  0.00000000  0.24997900  0.24838400  1
  Mg  Mg17  1  0.50000000  0.24718600  0.74596200  1
  Mg  Mg18  1  0.50000000  0.24718600  0.25403800  1
  Mg  Mg19  1  0.00000000  0.75041200  0.75051900  1
  Mg  Mg20  1  0.00000000  0.75041200  0.24948100  1
  Mg  Mg21  1  0.50000000  0.75141500  0.76349700  1
  Mg  Mg22  1  0.50000000  0.75141500  0.23650300  1
  Mg  Mg23  1  0.74694500  0.25179400  0.00000000  1
  Mg  Mg24  1  0.73145600  0.25471400  0.50000000  1
  Mg  Mg25  1  0.25305500  0.25179400  0.00000000  1
  Mg  Mg26  1  0.26854400  0.25471400  0.50000000  1
  Mg  Mg27  1  0.75057300  0.74846600  0.00000000  1
  Mg  Mg28  1  0.75244500  0.74656300  0.50000000  1
  Mg  Mg29  1  0.24942700  0.74846600  0.00000000  1
  Mg  Mg30  1  0.24755500  0.74656300  0.50000000  1
  B  B31  1  0.50000000  0.93496500  0.50000000  1
  O  O32  1  0.00000000  0.27348300  0.00000000  1
  O  O33  1  0.50000000  0.25782900  0.00000000  1
  O  O34  1  0.50000000  0.27691100  0.50000000  1
  O  O35  1  0.00000000  0.72607400  0.00000000  1
  O  O36  1  0.00000000  0.75588900  0.50000000  1
  O  O37  1  0.50000000  0.74157900  0.00000000  1
  O  O38  1  0.50000000  0.76438900  0.50000000  1
  O  O39  1  0.74838800  0.24818700  0.74715200  1
  O  O40  1  0.74838800  0.24818700  0.25284800  1
  O  O41  1  0.25161200  0.24818700  0.74715200  1
  O  O42  1  0.25161200  0.24818700  0.25284800  1
  O  O43  1  0.75064200  0.75226800  0.74770800  1
  O  O44  1  0.75064200  0.75226800  0.25229200  1
  O  O45  1  0.24935800  0.75226800  0.74770800  1
  O  O46  1  0.24935800  0.75226800  0.25229200  1
  O  O47  1  0.00000000  0.00042100  0.72106100  1
  O  O48  1  0.00000000  0.00042100  0.27893900  1
  O  O49  1  0.50000000  0.99554100  0.76441200  1
  O  O50  1  0.50000000  0.99554100  0.23558800  1
  O  O51  1  0.00000000  0.49955600  0.74236300  1
  O  O52  1  0.00000000  0.49955600  0.25763700  1
  O  O53  1  0.50000000  0.50710900  0.74737700  1
  O  O54  1  0.50000000  0.50710900  0.25262300  1
  O  O55  1  0.72831400  0.00004500  0.00000000  1
  O  O56  1  0.66106300  0.98975400  0.50000000  1
  O  O57  1  0.27168600  0.00004500  0.00000000  1
  O  O58  1  0.33893700  0.98975400  0.50000000  1
  O  O59  1  0.74680800  0.50008800  0.00000000  1
  O  O60  1  0.74975100  0.50688000  0.50000000  1
  O  O61  1  0.25319200  0.50008800  0.00000000  1
  O  O62  1  0.25024900  0.50688000  0.50000000  1
