# generated using pymatgen
data_Nd3CrS6
_symmetry_space_group_name_H-M   'P 1'
_cell_length_a   3.90365200
_cell_length_b   13.63439800
_cell_length_c   16.30946000
_cell_angle_alpha   90.00000000
_cell_angle_beta   90.00000000
_cell_angle_gamma   90.00000000
_symmetry_Int_Tables_number   1
_chemical_formula_structural   Nd3CrS6
_chemical_formula_sum   'Nd12 Cr4 S24'
_cell_volume   868.05380237
_cell_formula_units_Z   4
loop_
 _symmetry_equiv_pos_site_id
 _symmetry_equiv_pos_as_xyz
  1  'x, y, z'
loop_
 _atom_site_type_symbol
 _atom_site_label
 _atom_site_symmetry_multiplicity
 _atom_site_fract_x
 _atom_site_fract_y
 _atom_site_fract_z
 _atom_site_occupancy
  Nd  Nd0  1  0.00000000  0.55039300  0.28212300  1
  Nd  Nd1  1  0.00000000  0.44960700  0.71787700  1
  Nd  Nd2  1  0.50000000  0.94960700  0.78212300  1
  Nd  Nd3  1  0.50000000  0.05039300  0.21787700  1
  Nd  Nd4  1  0.00000000  0.75615300  0.09635900  1
  Nd  Nd5  1  0.00000000  0.24384700  0.90364100  1
  Nd  Nd6  1  0.50000000  0.74384700  0.59635900  1
  Nd  Nd7  1  0.50000000  0.25615300  0.40364100  1
  Nd  Nd8  1  0.00000000  0.31925800  0.14827100  1
  Nd  Nd9  1  0.00000000  0.68074200  0.85172900  1
  Nd  Nd10  1  0.50000000  0.18074200  0.64827100  1
  Nd  Nd11  1  0.50000000  0.81925800  0.35172900  1
  Cr  Cr12  1  0.00000000  0.00000000  0.50000000  1
  Cr  Cr13  1  0.50000000  0.50000000  0.00000000  1
  Cr  Cr14  1  0.00000000  0.00000000  0.00000000  1
  Cr  Cr15  1  0.50000000  0.50000000  0.50000000  1
  S  S16  1  0.00000000  0.12089600  0.10308900  1
  S  S17  1  0.00000000  0.87910400  0.89691100  1
  S  S18  1  0.50000000  0.37910400  0.60308900  1
  S  S19  1  0.50000000  0.62089600  0.39691100  1
  S  S20  1  0.00000000  0.18631800  0.28924600  1
  S  S21  1  0.00000000  0.81368200  0.71075400  1
  S  S22  1  0.50000000  0.31368200  0.78924600  1
  S  S23  1  0.50000000  0.68631800  0.21075400  1
  S  S24  1  0.00000000  0.17612500  0.52041500  1
  S  S25  1  0.00000000  0.82387500  0.47958500  1
  S  S26  1  0.50000000  0.32387500  0.02041500  1
  S  S27  1  0.50000000  0.67612500  0.97958500  1
  S  S28  1  0.00000000  0.52429300  0.09452300  1
  S  S29  1  0.00000000  0.47570700  0.90547700  1
  S  S30  1  0.50000000  0.97570700  0.59452300  1
  S  S31  1  0.50000000  0.02429300  0.40547700  1
  S  S32  1  0.00000000  0.10320800  0.75527200  1
  S  S33  1  0.00000000  0.89679200  0.24472800  1
  S  S34  1  0.50000000  0.39679200  0.25527200  1
  S  S35  1  0.50000000  0.60320800  0.74472800  1
  S  S36  1  0.00000000  0.41970200  0.42883100  1
  S  S37  1  0.00000000  0.58029800  0.57116900  1
  S  S38  1  0.50000000  0.08029800  0.92883100  1
  S  S39  1  0.50000000  0.91970200  0.07116900  1
