# generated using pymatgen
data_Pr2(MoO4)3
_symmetry_space_group_name_H-M   'P 1'
_cell_length_a   10.73889400
_cell_length_b   10.76847100
_cell_length_c   11.07115700
_cell_angle_alpha   90.00000000
_cell_angle_beta   90.00000000
_cell_angle_gamma   90.00000000
_symmetry_Int_Tables_number   1
_chemical_formula_structural   Pr2(MoO4)3
_chemical_formula_sum   'Pr8 Mo12 O48'
_cell_volume   1280.28485470
_cell_formula_units_Z   4
loop_
 _symmetry_equiv_pos_site_id
 _symmetry_equiv_pos_as_xyz
  1  'x, y, z'
loop_
 _atom_site_type_symbol
 _atom_site_label
 _atom_site_symmetry_multiplicity
 _atom_site_fract_x
 _atom_site_fract_y
 _atom_site_fract_z
 _atom_site_occupancy
  Pr  Pr0  1  0.00739200  0.18903100  0.47457600  1
  Pr  Pr1  1  0.99260800  0.81096900  0.47457600  1
  Pr  Pr2  1  0.50739200  0.31096900  0.47457600  1
  Pr  Pr3  1  0.49260800  0.68903100  0.47457600  1
  Pr  Pr4  1  0.31051800  0.00499800  0.99977100  1
  Pr  Pr5  1  0.68948200  0.99500200  0.99977100  1
  Pr  Pr6  1  0.81051800  0.49500200  0.99977100  1
  Pr  Pr7  1  0.18948200  0.50499800  0.99977100  1
  Mo  Mo8  1  0.49662000  0.29310700  0.09465700  1
  Mo  Mo9  1  0.50338000  0.70689300  0.09465700  1
  Mo  Mo10  1  0.99662000  0.20689300  0.09465700  1
  Mo  Mo11  1  0.00338000  0.79310700  0.09465700  1
  Mo  Mo12  1  0.29393900  0.01146800  0.38016200  1
  Mo  Mo13  1  0.70606100  0.98853200  0.38016200  1
  Mo  Mo14  1  0.79393900  0.48853200  0.38016200  1
  Mo  Mo15  1  0.20606100  0.51146800  0.38016200  1
  Mo  Mo16  1  0.25737600  0.25668900  0.73749800  1
  Mo  Mo17  1  0.74262400  0.74331100  0.73749800  1
  Mo  Mo18  1  0.75737600  0.24331100  0.73749800  1
  Mo  Mo19  1  0.24262400  0.75668900  0.73749800  1
  O  O20  1  0.00632900  0.37000100  0.04823600  1
  O  O21  1  0.99367100  0.62999900  0.04823600  1
  O  O22  1  0.50632900  0.12999900  0.04823600  1
  O  O23  1  0.49367100  0.87000100  0.04823600  1
  O  O24  1  0.30709400  0.01095000  0.22040400  1
  O  O25  1  0.69290600  0.98905000  0.22040400  1
  O  O26  1  0.80709400  0.48905000  0.22040400  1
  O  O27  1  0.19290600  0.51095000  0.22040400  1
  O  O28  1  0.18312400  0.37216000  0.82923200  1
  O  O29  1  0.81687600  0.62784000  0.82923200  1
  O  O30  1  0.68312400  0.12784000  0.82923200  1
  O  O31  1  0.31687600  0.87216000  0.82923200  1
  O  O32  1  0.11586200  0.38801900  0.44330000  1
  O  O33  1  0.88413800  0.61198100  0.44330000  1
  O  O34  1  0.61586200  0.11198100  0.44330000  1
  O  O35  1  0.38413800  0.88801900  0.44330000  1
  O  O36  1  0.34232800  0.16159800  0.43096400  1
  O  O37  1  0.65767200  0.83840200  0.43096400  1
  O  O38  1  0.84232800  0.33840200  0.43096400  1
  O  O39  1  0.15767200  0.66159800  0.43096400  1
  O  O40  1  0.37392300  0.32846000  0.64520500  1
  O  O41  1  0.62607700  0.67154000  0.64520500  1
  O  O42  1  0.87392300  0.17154000  0.64520500  1
  O  O43  1  0.12607700  0.82846000  0.64520500  1
  O  O44  1  0.36936300  0.49398400  0.42542900  1
  O  O45  1  0.63063700  0.50601600  0.42542900  1
  O  O46  1  0.86936300  0.00601600  0.42542900  1
  O  O47  1  0.13063700  0.99398400  0.42542900  1
  O  O48  1  0.11407900  0.11788800  0.01973200  1
  O  O49  1  0.88592100  0.88211200  0.01973200  1
  O  O50  1  0.61407900  0.38211200  0.01973200  1
  O  O51  1  0.38592100  0.61788800  0.01973200  1
  O  O52  1  0.14640200  0.18153200  0.64105900  1
  O  O53  1  0.85359800  0.81846800  0.64105900  1
  O  O54  1  0.64640200  0.31846800  0.64105900  1
  O  O55  1  0.35359800  0.68153200  0.64105900  1
  O  O56  1  0.32929200  0.14441700  0.83424200  1
  O  O57  1  0.67070800  0.85558300  0.83424200  1
  O  O58  1  0.82929200  0.35558300  0.83424200  1
  O  O59  1  0.17070800  0.64441700  0.83424200  1
  O  O60  1  0.34338700  0.34428600  0.05663500  1
  O  O61  1  0.65661300  0.65571400  0.05663500  1
  O  O62  1  0.84338700  0.15571400  0.05663500  1
  O  O63  1  0.15661300  0.84428600  0.05663500  1
  O  O64  1  0.02007500  0.19477900  0.25323600  1
  O  O65  1  0.97992400  0.80522100  0.25323600  1
  O  O66  1  0.52007600  0.30522100  0.25323600  1
  O  O67  1  0.47992500  0.69477900  0.25323600  1
