# generated using pymatgen
data_Nb3Se5Br7
_symmetry_space_group_name_H-M   'P 1'
_cell_length_a   13.23919200
_cell_length_b   8.62502900
_cell_length_c   8.96593997
_cell_angle_alpha   70.43037765
_cell_angle_beta   90.00000000
_cell_angle_gamma   90.00000000
_symmetry_Int_Tables_number   1
_chemical_formula_structural   Nb3Se5Br7
_chemical_formula_sum   'Nb6 Se10 Br14'
_cell_volume   964.66646991
_cell_formula_units_Z   2
loop_
 _symmetry_equiv_pos_site_id
 _symmetry_equiv_pos_as_xyz
  1  'x, y, z'
loop_
 _atom_site_type_symbol
 _atom_site_label
 _atom_site_symmetry_multiplicity
 _atom_site_fract_x
 _atom_site_fract_y
 _atom_site_fract_z
 _atom_site_occupancy
  Nb  Nb0  1  0.39361500  0.52366100  0.44373700  1
  Nb  Nb1  1  0.60638500  0.47633900  0.55626300  1
  Nb  Nb2  1  0.89361500  0.47633900  0.55626300  1
  Nb  Nb3  1  0.10638500  0.52366100  0.44373700  1
  Nb  Nb4  1  0.25000000  0.89789500  0.02617600  1
  Nb  Nb5  1  0.75000000  0.10210500  0.97382400  1
  Se  Se6  1  0.25000000  0.91716900  0.76396100  1
  Se  Se7  1  0.75000000  0.08283100  0.23603900  1
  Se  Se8  1  0.96946700  0.76173600  0.37609600  1
  Se  Se9  1  0.03053300  0.23826400  0.62390400  1
  Se  Se10  1  0.46946700  0.23826400  0.62390400  1
  Se  Se11  1  0.53053300  0.76173600  0.37609600  1
  Se  Se12  1  0.47468100  0.66529600  0.63652100  1
  Se  Se13  1  0.52531900  0.33470400  0.36347900  1
  Se  Se14  1  0.97468100  0.33470400  0.36347900  1
  Se  Se15  1  0.02531900  0.66529600  0.63652100  1
  Br  Br16  1  0.38695400  0.65040300  0.11052100  1
  Br  Br17  1  0.61304600  0.34959700  0.88947900  1
  Br  Br18  1  0.88695400  0.34959700  0.88947900  1
  Br  Br19  1  0.11304600  0.65040300  0.11052100  1
  Br  Br20  1  0.38509900  0.09173100  0.04428700  1
  Br  Br21  1  0.61490100  0.90826900  0.95571300  1
  Br  Br22  1  0.88509900  0.90826900  0.95571300  1
  Br  Br23  1  0.11490100  0.09173100  0.04428700  1
  Br  Br24  1  0.25000000  0.77725900  0.37605700  1
  Br  Br25  1  0.75000000  0.22274100  0.62394300  1
  Br  Br26  1  0.25000000  0.33426300  0.36590500  1
  Br  Br27  1  0.75000000  0.66573700  0.63409500  1
  Br  Br28  1  0.25000000  0.44195100  0.68538200  1
  Br  Br29  1  0.75000000  0.55804900  0.31461800  1
