# generated using pymatgen
data_Rb3TaF12
_symmetry_space_group_name_H-M   'P 1'
_cell_length_a   8.29055612
_cell_length_b   8.29055612
_cell_length_c   7.74917974
_cell_angle_alpha   87.84438391
_cell_angle_beta   87.84438391
_cell_angle_gamma   127.20455071
_symmetry_Int_Tables_number   1
_chemical_formula_structural   Rb3TaF12
_chemical_formula_sum   'Rb3 Ta1 F12'
_cell_volume   422.70674126
_cell_formula_units_Z   1
loop_
 _symmetry_equiv_pos_site_id
 _symmetry_equiv_pos_as_xyz
  1  'x, y, z'
loop_
 _atom_site_type_symbol
 _atom_site_label
 _atom_site_symmetry_multiplicity
 _atom_site_fract_x
 _atom_site_fract_y
 _atom_site_fract_z
 _atom_site_occupancy
  Rb  Rb0  1  0.00000000  0.00000000  0.50000000  1
  Rb  Rb1  1  0.00000000  0.50000000  0.00000000  1
  Rb  Rb2  1  0.50000000  0.00000000  0.00000000  1
  Ta  Ta3  1  0.00000000  0.00000000  0.00000000  1
  F  F4  1  0.29823300  0.14313700  0.08593500  1
  F  F5  1  0.70176700  0.85686300  0.91406500  1
  F  F6  1  0.81628600  0.98393800  0.18147800  1
  F  F7  1  0.85686300  0.70176700  0.91406500  1
  F  F8  1  0.18371400  0.01606200  0.81852200  1
  F  F9  1  0.14313700  0.29823300  0.08593500  1
  F  F10  1  0.88169100  0.60459500  0.68647400  1
  F  F11  1  0.01606200  0.18371400  0.81852200  1
  F  F12  1  0.11830900  0.39540500  0.31352600  1
  F  F13  1  0.98393800  0.81628600  0.18147800  1
  F  F14  1  0.39540500  0.11830900  0.31352600  1
  F  F15  1  0.60459500  0.88169100  0.68647400  1
