# generated using pymatgen
data_NpZn(OF2)3
_symmetry_space_group_name_H-M   'P 1'
_cell_length_a   6.88338800
_cell_length_b   6.88338800
_cell_length_c   9.17365211
_cell_angle_alpha   79.62120375
_cell_angle_beta   79.62120375
_cell_angle_gamma   62.84635773
_symmetry_Int_Tables_number   1
_chemical_formula_structural   NpZn(OF2)3
_chemical_formula_sum   'Np2 Zn2 O6 F12'
_cell_volume   378.03462552
_cell_formula_units_Z   2
loop_
 _symmetry_equiv_pos_site_id
 _symmetry_equiv_pos_as_xyz
  1  'x, y, z'
loop_
 _atom_site_type_symbol
 _atom_site_label
 _atom_site_symmetry_multiplicity
 _atom_site_fract_x
 _atom_site_fract_y
 _atom_site_fract_z
 _atom_site_occupancy
  Np  Np0  1  0.26683000  0.73317000  0.00000000  1
  Np  Np1  1  0.48140200  0.51859800  0.50000000  1
  Zn  Zn2  1  0.37955900  0.14396000  0.24555600  1
  Zn  Zn3  1  0.85604000  0.62044100  0.75444400  1
  O  O4  1  0.73329200  0.26670800  0.50000000  1
  O  O5  1  0.07519200  0.27243500  0.23149800  1
  O  O6  1  0.72756500  0.92480800  0.76850200  1
  O  O7  1  0.67542800  0.94735000  0.26234600  1
  O  O8  1  0.05265000  0.32457200  0.73765400  1
  O  O9  1  0.01425900  0.98574100  0.00000000  1
  F  F10  1  0.34306100  0.85781700  0.43539200  1
  F  F11  1  0.14218300  0.65693900  0.56460800  1
  F  F12  1  0.41701900  0.38628800  0.07460400  1
  F  F13  1  0.61371200  0.58298100  0.92539600  1
  F  F14  1  0.36562700  0.31718400  0.41707800  1
  F  F15  1  0.68281600  0.63437300  0.58292200  1
  F  F16  1  0.59378200  0.55375900  0.27778600  1
  F  F17  1  0.44624100  0.40621800  0.72221400  1
  F  F18  1  0.16120900  0.70225900  0.22318400  1
  F  F19  1  0.29774100  0.83879100  0.77681600  1
  F  F20  1  0.39095100  0.92834800  0.06891500  1
  F  F21  1  0.07165200  0.60904900  0.93108500  1
