# generated using pymatgen
data_Nd2MnSi2H
_symmetry_space_group_name_H-M   'P 1'
_cell_length_a   3.02338000
_cell_length_b   3.02338000
_cell_length_c   15.09142900
_cell_angle_alpha   90.00000000
_cell_angle_beta   90.00000000
_cell_angle_gamma   90.00000000
_symmetry_Int_Tables_number   1
_chemical_formula_structural   Nd2MnSi2H
_chemical_formula_sum   'Nd2 Mn1 Si2 H1'
_cell_volume   137.94813600
_cell_formula_units_Z   1
loop_
 _symmetry_equiv_pos_site_id
 _symmetry_equiv_pos_as_xyz
  1  'x, y, z'
loop_
 _atom_site_type_symbol
 _atom_site_label
 _atom_site_symmetry_multiplicity
 _atom_site_fract_x
 _atom_site_fract_y
 _atom_site_fract_z
 _atom_site_occupancy
  Nd  Nd0  1  0.50000000  0.50000000  0.64085900  1
  Nd  Nd1  1  0.50000000  0.50000000  0.35914100  1
  Mn  Mn2  1  0.50000000  0.50000000  0.00000000  1
  Si  Si3  1  0.50000000  0.50000000  0.16075000  1
  Si  Si4  1  0.50000000  0.50000000  0.83925000  1
  H  H5  1  0.50000000  0.50000000  0.50000000  1
