# generated using pymatgen
data_Nd5Mn8(PbO8)3
_symmetry_space_group_name_H-M   'P 1'
_cell_length_a   7.81720700
_cell_length_b   7.81720700
_cell_length_c   7.81720700
_cell_angle_alpha   90.00000000
_cell_angle_beta   90.00000000
_cell_angle_gamma   90.00000000
_symmetry_Int_Tables_number   1
_chemical_formula_structural   Nd5Mn8(PbO8)3
_chemical_formula_sum   'Nd5 Mn8 Pb3 O24'
_cell_volume   477.69955503
_cell_formula_units_Z   1
loop_
 _symmetry_equiv_pos_site_id
 _symmetry_equiv_pos_as_xyz
  1  'x, y, z'
loop_
 _atom_site_type_symbol
 _atom_site_label
 _atom_site_symmetry_multiplicity
 _atom_site_fract_x
 _atom_site_fract_y
 _atom_site_fract_z
 _atom_site_occupancy
  Nd  Nd0  1  0.00000000  0.00000000  0.00000000  1
  Nd  Nd1  1  0.00000000  0.50000000  0.50000000  1
  Nd  Nd2  1  0.50000000  0.00000000  0.50000000  1
  Nd  Nd3  1  0.50000000  0.50000000  0.00000000  1
  Nd  Nd4  1  0.50000000  0.50000000  0.50000000  1
  Mn  Mn5  1  0.25032200  0.25032200  0.25032200  1
  Mn  Mn6  1  0.74967800  0.74967800  0.74967800  1
  Mn  Mn7  1  0.74967800  0.74967800  0.25032200  1
  Mn  Mn8  1  0.74967800  0.25032200  0.74967800  1
  Mn  Mn9  1  0.25032200  0.25032200  0.74967800  1
  Mn  Mn10  1  0.25032200  0.74967800  0.25032200  1
  Mn  Mn11  1  0.25032200  0.74967800  0.74967800  1
  Mn  Mn12  1  0.74967800  0.25032200  0.25032200  1
  Pb  Pb13  1  0.50000000  0.00000000  0.00000000  1
  Pb  Pb14  1  0.00000000  0.50000000  0.00000000  1
  Pb  Pb15  1  0.00000000  0.00000000  0.50000000  1
  O  O16  1  0.50000000  0.25818600  0.25818600  1
  O  O17  1  0.50000000  0.74181400  0.74181400  1
  O  O18  1  0.50000000  0.74181400  0.25818600  1
  O  O19  1  0.50000000  0.25818600  0.74181400  1
  O  O20  1  0.25818600  0.50000000  0.25818600  1
  O  O21  1  0.25818600  0.50000000  0.74181400  1
  O  O22  1  0.74181400  0.50000000  0.74181400  1
  O  O23  1  0.74181400  0.50000000  0.25818600  1
  O  O24  1  0.25818600  0.25818600  0.50000000  1
  O  O25  1  0.74181400  0.74181400  0.50000000  1
  O  O26  1  0.25818600  0.74181400  0.50000000  1
  O  O27  1  0.74181400  0.25818600  0.50000000  1
  O  O28  1  0.00000000  0.25219900  0.25219900  1
  O  O29  1  0.00000000  0.74780100  0.74780100  1
  O  O30  1  0.00000000  0.74780100  0.25219900  1
  O  O31  1  0.00000000  0.25219900  0.74780100  1
  O  O32  1  0.25219900  0.00000000  0.25219900  1
  O  O33  1  0.25219900  0.00000000  0.74780100  1
  O  O34  1  0.74780100  0.00000000  0.74780100  1
  O  O35  1  0.74780100  0.00000000  0.25219900  1
  O  O36  1  0.25219900  0.25219900  0.00000000  1
  O  O37  1  0.74780100  0.74780100  0.00000000  1
  O  O38  1  0.25219900  0.74780100  0.00000000  1
  O  O39  1  0.74780100  0.25219900  0.00000000  1
