# generated using pymatgen
data_Nd2RuO5
_symmetry_space_group_name_H-M   'P 1'
_cell_length_a   3.98792900
_cell_length_b   10.65258900
_cell_length_c   11.54703700
_cell_angle_alpha   90.00000000
_cell_angle_beta   90.00000000
_cell_angle_gamma   90.00000000
_symmetry_Int_Tables_number   1
_chemical_formula_structural   Nd2RuO5
_chemical_formula_sum   'Nd8 Ru4 O20'
_cell_volume   490.53855383
_cell_formula_units_Z   4
loop_
 _symmetry_equiv_pos_site_id
 _symmetry_equiv_pos_as_xyz
  1  'x, y, z'
loop_
 _atom_site_type_symbol
 _atom_site_label
 _atom_site_symmetry_multiplicity
 _atom_site_fract_x
 _atom_site_fract_y
 _atom_site_fract_z
 _atom_site_occupancy
  Nd  Nd0  1  0.25000000  0.60169900  0.23076100  1
  Nd  Nd1  1  0.75000000  0.39830100  0.76923900  1
  Nd  Nd2  1  0.75000000  0.89830100  0.73076100  1
  Nd  Nd3  1  0.25000000  0.10169900  0.26923900  1
  Nd  Nd4  1  0.25000000  0.63296500  0.56567600  1
  Nd  Nd5  1  0.75000000  0.36703500  0.43432400  1
  Nd  Nd6  1  0.75000000  0.86703500  0.06567600  1
  Nd  Nd7  1  0.25000000  0.13296500  0.93432400  1
  Ru  Ru8  1  0.25000000  0.68852700  0.88230300  1
  Ru  Ru9  1  0.75000000  0.31147300  0.11769700  1
  Ru  Ru10  1  0.75000000  0.81147300  0.38230300  1
  Ru  Ru11  1  0.25000000  0.18852700  0.61769700  1
  O  O12  1  0.25000000  0.98877900  0.09531100  1
  O  O13  1  0.75000000  0.01122100  0.90468900  1
  O  O14  1  0.75000000  0.51122100  0.59531100  1
  O  O15  1  0.25000000  0.48877900  0.40468900  1
  O  O16  1  0.25000000  0.72029800  0.04445000  1
  O  O17  1  0.75000000  0.27970200  0.95555000  1
  O  O18  1  0.75000000  0.77970200  0.54445000  1
  O  O19  1  0.25000000  0.22029800  0.45555000  1
  O  O20  1  0.25000000  0.77438100  0.72937400  1
  O  O21  1  0.75000000  0.22561900  0.27062600  1
  O  O22  1  0.75000000  0.72561900  0.22937400  1
  O  O23  1  0.25000000  0.27438100  0.77062600  1
  O  O24  1  0.25000000  0.53295000  0.80024900  1
  O  O25  1  0.75000000  0.46705000  0.19975100  1
  O  O26  1  0.75000000  0.96705000  0.30024900  1
  O  O27  1  0.25000000  0.03295000  0.69975100  1
  O  O28  1  0.25000000  0.76414700  0.38438900  1
  O  O29  1  0.75000000  0.23585300  0.61561100  1
  O  O30  1  0.75000000  0.73585300  0.88438900  1
  O  O31  1  0.25000000  0.26414700  0.11561100  1
