# generated using pymatgen
data_RbPr(SO6)2
_symmetry_space_group_name_H-M   'P 1'
_cell_length_a   20.30256600
_cell_length_b   6.43018700
_cell_length_c   9.06500462
_cell_angle_alpha   85.07065835
_cell_angle_beta   90.00000000
_cell_angle_gamma   90.00000000
_symmetry_Int_Tables_number   1
_chemical_formula_structural   RbPr(SO6)2
_chemical_formula_sum   'Rb4 Pr4 S8 O48'
_cell_volume   1179.05296383
_cell_formula_units_Z   4
loop_
 _symmetry_equiv_pos_site_id
 _symmetry_equiv_pos_as_xyz
  1  'x, y, z'
loop_
 _atom_site_type_symbol
 _atom_site_label
 _atom_site_symmetry_multiplicity
 _atom_site_fract_x
 _atom_site_fract_y
 _atom_site_fract_z
 _atom_site_occupancy
  Rb  Rb0  1  0.21272500  0.83897100  0.62839300  1
  Rb  Rb1  1  0.78727500  0.16102900  0.37160700  1
  Rb  Rb2  1  0.71272500  0.16102900  0.87160700  1
  Rb  Rb3  1  0.28727500  0.83897100  0.12839300  1
  Pr  Pr4  1  0.36476400  0.37234100  0.78983300  1
  Pr  Pr5  1  0.63523600  0.62765900  0.21016700  1
  Pr  Pr6  1  0.86476400  0.62765900  0.71016700  1
  Pr  Pr7  1  0.13523600  0.37234100  0.28983300  1
  S  S8  1  0.21966500  0.37968300  0.91064900  1
  S  S9  1  0.78033500  0.62031700  0.08935100  1
  S  S10  1  0.71966500  0.62031700  0.58935100  1
  S  S11  1  0.28033500  0.37968300  0.41064900  1
  S  S12  1  0.42608700  0.81084400  0.77515400  1
  S  S13  1  0.57391300  0.18915600  0.22484600  1
  S  S14  1  0.92608700  0.18915600  0.72484600  1
  S  S15  1  0.07391300  0.81084400  0.27515400  1
  O  O16  1  0.12376300  0.17449400  0.53419700  1
  O  O17  1  0.87623700  0.82550600  0.46580300  1
  O  O18  1  0.62376300  0.82550600  0.96580300  1
  O  O19  1  0.37623700  0.17449400  0.03419700  1
  O  O20  1  0.42305900  0.65334500  0.90790400  1
  O  O21  1  0.57694100  0.34665500  0.09209600  1
  O  O22  1  0.92305900  0.34665500  0.59209600  1
  O  O23  1  0.07694100  0.65334500  0.40790400  1
  O  O24  1  0.76047300  0.81314600  0.61281700  1
  O  O25  1  0.23952700  0.18685400  0.38718300  1
  O  O26  1  0.26047300  0.18685400  0.88718300  1
  O  O27  1  0.73952700  0.81314600  0.11281700  1
  O  O28  1  0.47760600  0.32642600  0.63223600  1
  O  O29  1  0.52239400  0.67357400  0.36776400  1
  O  O30  1  0.97760600  0.67357400  0.86776400  1
  O  O31  1  0.02239400  0.32642600  0.13223600  1
  O  O32  1  0.08113000  0.76150900  0.82640500  1
  O  O33  1  0.91887000  0.23849100  0.17359500  1
  O  O34  1  0.58113000  0.23849100  0.67359500  1
  O  O35  1  0.41887000  0.76150900  0.32640500  1
  O  O36  1  0.16528300  0.40310600  0.80573300  1
  O  O37  1  0.83471700  0.59689400  0.19426700  1
  O  O38  1  0.66528300  0.59689400  0.69426700  1
  O  O39  1  0.33471700  0.40310600  0.30573300  1
  O  O40  1  0.38672500  0.71680200  0.65684500  1
  O  O41  1  0.61327500  0.28319800  0.34315500  1
  O  O42  1  0.88672500  0.28319800  0.84315500  1
  O  O43  1  0.11327500  0.71680200  0.15684500  1
  O  O44  1  0.30263100  0.36405600  0.56720000  1
  O  O45  1  0.69736900  0.63594400  0.43280000  1
  O  O46  1  0.80263100  0.63594400  0.93280000  1
  O  O47  1  0.19736900  0.36405600  0.06720000  1
  O  O48  1  0.26808500  0.55914800  0.88612700  1
  O  O49  1  0.73191500  0.44085200  0.11387300  1
  O  O50  1  0.76808500  0.44085200  0.61387300  1
  O  O51  1  0.23191500  0.55914800  0.38612700  1
  O  O52  1  0.49269400  0.86661000  0.73056500  1
  O  O53  1  0.50730600  0.13339000  0.26943500  1
  O  O54  1  0.99269400  0.13339000  0.76943500  1
  O  O55  1  0.00730600  0.86661000  0.23056500  1
  O  O56  1  0.02553100  0.72308900  0.77319600  1
  O  O57  1  0.97446900  0.27691100  0.22680400  1
  O  O58  1  0.52553100  0.27691100  0.72680400  1
  O  O59  1  0.47446900  0.72308900  0.27319600  1
  O  O60  1  0.38743300  0.00413900  0.81085700  1
  O  O61  1  0.61256700  0.99586100  0.18914300  1
  O  O62  1  0.88743300  0.99586100  0.68914300  1
  O  O63  1  0.11256700  0.00413900  0.31085700  1
