# generated using pymatgen
data_ReRuN5Cl7
_symmetry_space_group_name_H-M   'P 1'
_cell_length_a   8.51188100
_cell_length_b   11.27555600
_cell_length_c   15.74482069
_cell_angle_alpha   88.86710895
_cell_angle_beta   90.00000000
_cell_angle_gamma   90.00000000
_symmetry_Int_Tables_number   1
_chemical_formula_structural   ReRuN5Cl7
_chemical_formula_sum   'Re4 Ru4 N20 Cl28'
_cell_volume   1510.83253097
_cell_formula_units_Z   4
loop_
 _symmetry_equiv_pos_site_id
 _symmetry_equiv_pos_as_xyz
  1  'x, y, z'
loop_
 _atom_site_type_symbol
 _atom_site_label
 _atom_site_symmetry_multiplicity
 _atom_site_fract_x
 _atom_site_fract_y
 _atom_site_fract_z
 _atom_site_occupancy
  Re  Re0  1  0.25000000  0.83730700  0.12937300  1
  Re  Re1  1  0.75000000  0.16269300  0.87062700  1
  Re  Re2  1  0.25000000  0.65764700  0.63383600  1
  Re  Re3  1  0.75000000  0.34235300  0.36616400  1
  Ru  Ru4  1  0.25000000  0.34974100  0.13901500  1
  Ru  Ru5  1  0.75000000  0.65025900  0.86098500  1
  Ru  Ru6  1  0.25000000  0.14788500  0.63386000  1
  Ru  Ru7  1  0.75000000  0.85211500  0.36614000  1
  N  N8  1  0.25000000  0.50439600  0.10399300  1
  N  N9  1  0.75000000  0.49560400  0.89600700  1
  N  N10  1  0.47879800  0.32938300  0.11221300  1
  N  N11  1  0.52120200  0.67061700  0.88778700  1
  N  N12  1  0.97879800  0.67061700  0.88778700  1
  N  N13  1  0.02120200  0.32938300  0.11221300  1
  N  N14  1  0.91856500  0.95019500  0.39212500  1
  N  N15  1  0.08143500  0.04980500  0.60787500  1
  N  N16  1  0.41856500  0.04980500  0.60787500  1
  N  N17  1  0.58143500  0.95019500  0.39212500  1
  N  N18  1  0.25000000  0.16446600  0.74056000  1
  N  N19  1  0.75000000  0.83553400  0.25944000  1
  N  N20  1  0.25000000  0.17612300  0.10361200  1
  N  N21  1  0.75000000  0.82387700  0.89638800  1
  N  N22  1  0.90171100  0.71904200  0.40711300  1
  N  N23  1  0.09828900  0.28095800  0.59288700  1
  N  N24  1  0.40171100  0.28095800  0.59288700  1
  N  N25  1  0.59828900  0.71904200  0.40711300  1
  N  N26  1  0.25000000  0.34047300  0.24658300  1
  N  N27  1  0.75000000  0.65952700  0.75341700  1
  Cl  Cl28  1  0.25000000  0.80827300  0.53508900  1
  Cl  Cl29  1  0.75000000  0.19172700  0.46491100  1
  Cl  Cl30  1  0.25000000  0.79507300  0.73934800  1
  Cl  Cl31  1  0.75000000  0.20492700  0.26065200  1
  Cl  Cl32  1  0.25000000  0.51732000  0.53062000  1
  Cl  Cl33  1  0.75000000  0.48268000  0.46938000  1
  Cl  Cl34  1  0.25000000  0.82508800  0.27560200  1
  Cl  Cl35  1  0.75000000  0.17491200  0.72439800  1
  Cl  Cl36  1  0.43557500  0.69284800  0.12582500  1
  Cl  Cl37  1  0.56442500  0.30715200  0.87417500  1
  Cl  Cl38  1  0.93557500  0.30715200  0.87417500  1
  Cl  Cl39  1  0.06442500  0.69284800  0.12582500  1
  Cl  Cl40  1  0.25000000  0.34536300  0.97027000  1
  Cl  Cl41  1  0.75000000  0.65463700  0.02973000  1
  Cl  Cl42  1  0.25000000  0.14446200  0.46121800  1
  Cl  Cl43  1  0.75000000  0.85553800  0.53878200  1
  Cl  Cl44  1  0.48381100  0.34767400  0.36985200  1
  Cl  Cl45  1  0.51618900  0.65232600  0.63014800  1
  Cl  Cl46  1  0.98381100  0.65232600  0.63014800  1
  Cl  Cl47  1  0.01618900  0.34767400  0.36985200  1
  Cl  Cl48  1  0.25000000  0.51023500  0.73785000  1
  Cl  Cl49  1  0.75000000  0.48976500  0.26215000  1
  Cl  Cl50  1  0.43903800  0.98179200  0.13774500  1
  Cl  Cl51  1  0.56096200  0.01820800  0.86225500  1
  Cl  Cl52  1  0.93903800  0.01820800  0.86225500  1
  Cl  Cl53  1  0.06096200  0.98179200  0.13774500  1
  Cl  Cl54  1  0.25000000  0.85456300  0.98496700  1
  Cl  Cl55  1  0.75000000  0.14543700  0.01503300  1
