# generated using pymatgen
data_KRbMg30O31
_symmetry_space_group_name_H-M   'P 1'
_cell_length_a   8.74022500
_cell_length_b   8.74022500
_cell_length_c   8.59346600
_cell_angle_alpha   90.00000000
_cell_angle_beta   90.00000000
_cell_angle_gamma   90.00000000
_symmetry_Int_Tables_number   1
_chemical_formula_structural   KRbMg30O31
_chemical_formula_sum   'K1 Rb1 Mg30 O31'
_cell_volume   656.46804196
_cell_formula_units_Z   1
loop_
 _symmetry_equiv_pos_site_id
 _symmetry_equiv_pos_as_xyz
  1  'x, y, z'
loop_
 _atom_site_type_symbol
 _atom_site_label
 _atom_site_symmetry_multiplicity
 _atom_site_fract_x
 _atom_site_fract_y
 _atom_site_fract_z
 _atom_site_occupancy
  K  K0  1  0.00000000  0.00000000  0.06011100  1
  Rb  Rb1  1  0.50000000  0.50000000  0.99463600  1
  Mg  Mg2  1  0.50000000  0.00000000  0.98979600  1
  Mg  Mg3  1  0.00000000  0.50000000  0.98979600  1
  Mg  Mg4  1  0.00000000  0.00000000  0.52089100  1
  Mg  Mg5  1  0.50000000  0.00000000  0.50352000  1
  Mg  Mg6  1  0.00000000  0.50000000  0.50352000  1
  Mg  Mg7  1  0.50000000  0.50000000  0.49786100  1
  Mg  Mg8  1  0.24867300  0.24867300  0.99807200  1
  Mg  Mg9  1  0.75132700  0.24867300  0.99807200  1
  Mg  Mg10  1  0.24867300  0.75132700  0.99807200  1
  Mg  Mg11  1  0.75132700  0.75132700  0.99807200  1
  Mg  Mg12  1  0.24785400  0.24785400  0.49893300  1
  Mg  Mg13  1  0.75214600  0.24785400  0.49893300  1
  Mg  Mg14  1  0.24785400  0.75214600  0.49893300  1
  Mg  Mg15  1  0.75214600  0.75214600  0.49893300  1
  Mg  Mg16  1  0.27941500  0.00000000  0.24743300  1
  Mg  Mg17  1  0.72058500  0.00000000  0.24743300  1
  Mg  Mg18  1  0.25033200  0.50000000  0.25009700  1
  Mg  Mg19  1  0.74966800  0.50000000  0.25009700  1
  Mg  Mg20  1  0.24748400  0.00000000  0.75760600  1
  Mg  Mg21  1  0.75251600  0.00000000  0.75760600  1
  Mg  Mg22  1  0.24761800  0.50000000  0.74515700  1
  Mg  Mg23  1  0.75238200  0.50000000  0.74515700  1
  Mg  Mg24  1  0.00000000  0.27941500  0.24743300  1
  Mg  Mg25  1  0.50000000  0.25033200  0.25009700  1
  Mg  Mg26  1  0.00000000  0.72058500  0.24743300  1
  Mg  Mg27  1  0.50000000  0.74966800  0.25009700  1
  Mg  Mg28  1  0.00000000  0.24748400  0.75760600  1
  Mg  Mg29  1  0.50000000  0.24761800  0.74515700  1
  Mg  Mg30  1  0.00000000  0.75251600  0.75760600  1
  Mg  Mg31  1  0.50000000  0.75238200  0.74515700  1
  O  O32  1  0.50000000  0.00000000  0.26222200  1
  O  O33  1  0.00000000  0.50000000  0.26222200  1
  O  O34  1  0.50000000  0.50000000  0.27609600  1
  O  O35  1  0.00000000  0.00000000  0.74883400  1
  O  O36  1  0.50000000  0.00000000  0.73997600  1
  O  O37  1  0.00000000  0.50000000  0.73997600  1
  O  O38  1  0.50000000  0.50000000  0.71718400  1
  O  O39  1  0.24247200  0.24247200  0.24843600  1
  O  O40  1  0.75752800  0.24247200  0.24843600  1
  O  O41  1  0.24247200  0.75752800  0.24843600  1
  O  O42  1  0.75752800  0.75752800  0.24843600  1
  O  O43  1  0.24900900  0.24900900  0.74813500  1
  O  O44  1  0.75099100  0.24900900  0.74813500  1
  O  O45  1  0.24900900  0.75099100  0.74813500  1
  O  O46  1  0.75099100  0.75099100  0.74813500  1
  O  O47  1  0.26661400  0.00000000  0.00190300  1
  O  O48  1  0.73338600  0.00000000  0.00190300  1
  O  O49  1  0.22284500  0.50000000  0.00275300  1
  O  O50  1  0.77715500  0.50000000  0.00275300  1
  O  O51  1  0.24100000  0.00000000  0.49121000  1
  O  O52  1  0.75900000  0.00000000  0.49121000  1
  O  O53  1  0.24299900  0.50000000  0.49610700  1
  O  O54  1  0.75700100  0.50000000  0.49610700  1
  O  O55  1  0.00000000  0.26661400  0.00190300  1
  O  O56  1  0.50000000  0.22284500  0.00275300  1
  O  O57  1  0.00000000  0.73338600  0.00190300  1
  O  O58  1  0.50000000  0.77715500  0.00275300  1
  O  O59  1  0.00000000  0.24100000  0.49121000  1
  O  O60  1  0.50000000  0.24299900  0.49610700  1
  O  O61  1  0.00000000  0.75900000  0.49121000  1
  O  O62  1  0.50000000  0.75700100  0.49610700  1
