# generated using pymatgen
data_P(H2I)2
_symmetry_space_group_name_H-M   'P 1'
_cell_length_a   20.58650600
_cell_length_b   20.58650600
_cell_length_c   12.65609600
_cell_angle_alpha   90.00000000
_cell_angle_beta   90.00000000
_cell_angle_gamma   90.00000000
_symmetry_Int_Tables_number   1
_chemical_formula_structural   P(H2I)2
_chemical_formula_sum   'P4 H16 I8'
_cell_volume   5363.70701108
_cell_formula_units_Z   4
loop_
 _symmetry_equiv_pos_site_id
 _symmetry_equiv_pos_as_xyz
  1  'x, y, z'
loop_
 _atom_site_type_symbol
 _atom_site_label
 _atom_site_symmetry_multiplicity
 _atom_site_fract_x
 _atom_site_fract_y
 _atom_site_fract_z
 _atom_site_occupancy
  P  P0  1  0.25000000  0.75000000  0.50000000  1
  P  P1  1  0.75000000  0.25000000  0.50000000  1
  P  P2  1  0.25000000  0.25000000  0.50000000  1
  P  P3  1  0.75000000  0.75000000  0.50000000  1
  H  H4  1  0.58547200  0.25007600  0.67681400  1
  H  H5  1  0.41452800  0.74992400  0.67681400  1
  H  H6  1  0.75007600  0.91452800  0.67681400  1
  H  H7  1  0.08547200  0.24992400  0.32318600  1
  H  H8  1  0.91452800  0.24992400  0.32318600  1
  H  H9  1  0.24992400  0.08547200  0.67681400  1
  H  H10  1  0.91452800  0.75007600  0.32318600  1
  H  H11  1  0.08547200  0.75007600  0.32318600  1
  H  H12  1  0.25007600  0.58547200  0.32318600  1
  H  H13  1  0.74992400  0.58547200  0.32318600  1
  H  H14  1  0.74992400  0.41452800  0.32318600  1
  H  H15  1  0.25007600  0.41452800  0.32318600  1
  H  H16  1  0.41452800  0.25007600  0.67681400  1
  H  H17  1  0.58547200  0.74992400  0.67681400  1
  H  H18  1  0.75007600  0.08547200  0.67681400  1
  H  H19  1  0.24992400  0.91452800  0.67681400  1
  I  I20  1  0.24975000  0.25025000  0.10601500  1
  I  I21  1  0.75025000  0.74975000  0.10601500  1
  I  I22  1  0.75025000  0.25025000  0.10601500  1
  I  I23  1  0.74975000  0.24975000  0.89398500  1
  I  I24  1  0.25025000  0.24975000  0.89398500  1
  I  I25  1  0.24975000  0.74975000  0.10601500  1
  I  I26  1  0.25025000  0.75025000  0.89398500  1
  I  I27  1  0.74975000  0.75025000  0.89398500  1
