# generated using pymatgen
data_Na3WO4
_symmetry_space_group_name_H-M   'P 1'
_cell_length_a   5.67053000
_cell_length_b   6.22390600
_cell_length_c   7.49801300
_cell_angle_alpha   90.00000000
_cell_angle_beta   90.00000000
_cell_angle_gamma   90.00000000
_symmetry_Int_Tables_number   1
_chemical_formula_structural   Na3WO4
_chemical_formula_sum   'Na6 W2 O8'
_cell_volume   264.62621579
_cell_formula_units_Z   2
loop_
 _symmetry_equiv_pos_site_id
 _symmetry_equiv_pos_as_xyz
  1  'x, y, z'
loop_
 _atom_site_type_symbol
 _atom_site_label
 _atom_site_symmetry_multiplicity
 _atom_site_fract_x
 _atom_site_fract_y
 _atom_site_fract_z
 _atom_site_occupancy
  Na  Na0  1  0.49920000  0.34225100  0.00000000  1
  Na  Na1  1  0.99920000  0.65774900  0.50000000  1
  Na  Na2  1  0.50101900  0.83070900  0.74450900  1
  Na  Na3  1  0.00101900  0.16929100  0.75549100  1
  Na  Na4  1  0.00101900  0.16929100  0.24450900  1
  Na  Na5  1  0.50101900  0.83070900  0.25549100  1
  W  W6  1  0.01269200  0.67446300  0.00000000  1
  W  W7  1  0.51269200  0.32553700  0.50000000  1
  O  O8  1  0.34506300  0.69487300  0.00000000  1
  O  O9  1  0.84506300  0.30512700  0.50000000  1
  O  O10  1  0.90003200  0.38845800  0.00000000  1
  O  O11  1  0.40003200  0.61154200  0.50000000  1
  O  O12  1  0.92003700  0.80176300  0.78157700  1
  O  O13  1  0.42003700  0.19823700  0.71842300  1
  O  O14  1  0.42003700  0.19823700  0.28157700  1
  O  O15  1  0.92003700  0.80176300  0.21842300  1
