# generated using pymatgen
data_Na3PrV2O8
_symmetry_space_group_name_H-M   'P 1'
_cell_length_a   6.05779580
_cell_length_b   6.05779580
_cell_length_c   7.41130300
_cell_angle_alpha   90.00000000
_cell_angle_beta   90.00000000
_cell_angle_gamma   119.99999785
_symmetry_Int_Tables_number   1
_chemical_formula_structural   Na3PrV2O8
_chemical_formula_sum   'Na3 Pr1 V2 O8'
_cell_volume   235.53446782
_cell_formula_units_Z   1
loop_
 _symmetry_equiv_pos_site_id
 _symmetry_equiv_pos_as_xyz
  1  'x, y, z'
loop_
 _atom_site_type_symbol
 _atom_site_label
 _atom_site_symmetry_multiplicity
 _atom_site_fract_x
 _atom_site_fract_y
 _atom_site_fract_z
 _atom_site_occupancy
  Na  Na0  1  0.33333300  0.66666700  0.70102500  1
  Na  Na1  1  0.66666700  0.33333300  0.29897500  1
  Na  Na2  1  0.00000000  0.00000000  0.00000000  1
  Pr  Pr3  1  0.00000000  0.00000000  0.50000000  1
  V  V4  1  0.33333300  0.66666700  0.22028600  1
  V  V5  1  0.66666700  0.33333300  0.77971400  1
  O  O6  1  0.33333300  0.66666700  0.99375100  1
  O  O7  1  0.66666700  0.33333300  0.00624900  1
  O  O8  1  0.17602000  0.82398000  0.30397100  1
  O  O9  1  0.82398000  0.17602000  0.69602900  1
  O  O10  1  0.17602000  0.35204100  0.30397100  1
  O  O11  1  0.82398000  0.64795900  0.69602900  1
  O  O12  1  0.64795900  0.82398000  0.30397100  1
  O  O13  1  0.35204100  0.17602000  0.69602900  1
