# generated using pymatgen
data_NaHgH2Cl3
_symmetry_space_group_name_H-M   'P 1'
_cell_length_a   4.30535600
_cell_length_b   7.62070800
_cell_length_c   19.69983400
_cell_angle_alpha   90.00000000
_cell_angle_beta   90.00000000
_cell_angle_gamma   90.00000000
_symmetry_Int_Tables_number   1
_chemical_formula_structural   NaHgH2Cl3
_chemical_formula_sum   'Na4 Hg4 H8 Cl12'
_cell_volume   646.34881353
_cell_formula_units_Z   4
loop_
 _symmetry_equiv_pos_site_id
 _symmetry_equiv_pos_as_xyz
  1  'x, y, z'
loop_
 _atom_site_type_symbol
 _atom_site_label
 _atom_site_symmetry_multiplicity
 _atom_site_fract_x
 _atom_site_fract_y
 _atom_site_fract_z
 _atom_site_occupancy
  Na  Na0  1  0.75000000  0.50587800  0.67697500  1
  Na  Na1  1  0.25000000  0.49412200  0.32302500  1
  Na  Na2  1  0.25000000  0.99412200  0.17697500  1
  Na  Na3  1  0.75000000  0.00587800  0.82302500  1
  Hg  Hg4  1  0.75000000  0.94058100  0.58714400  1
  Hg  Hg5  1  0.25000000  0.05941900  0.41285600  1
  Hg  Hg6  1  0.25000000  0.55941900  0.08714400  1
  Hg  Hg7  1  0.75000000  0.44058100  0.91285600  1
  H  H8  1  0.75000000  0.95279700  0.95090400  1
  H  H9  1  0.25000000  0.04720300  0.04909600  1
  H  H10  1  0.25000000  0.54720300  0.45090400  1
  H  H11  1  0.75000000  0.45279700  0.54909600  1
  H  H12  1  0.75000000  0.66138100  0.30493400  1
  H  H13  1  0.25000000  0.33861900  0.69506600  1
  H  H14  1  0.25000000  0.83861900  0.80493400  1
  H  H15  1  0.75000000  0.16138100  0.19506600  1
  Cl  Cl16  1  0.75000000  0.78805600  0.13953500  1
  Cl  Cl17  1  0.25000000  0.21194400  0.86046500  1
  Cl  Cl18  1  0.25000000  0.71194400  0.63953500  1
  Cl  Cl19  1  0.75000000  0.28805600  0.36046500  1
  Cl  Cl20  1  0.75000000  0.80946100  0.47640400  1
  Cl  Cl21  1  0.25000000  0.19053900  0.52359600  1
  Cl  Cl22  1  0.25000000  0.69053900  0.97640400  1
  Cl  Cl23  1  0.75000000  0.30946100  0.02359600  1
  Cl  Cl24  1  0.75000000  0.62559400  0.81337900  1
  Cl  Cl25  1  0.25000000  0.37440600  0.18662100  1
  Cl  Cl26  1  0.25000000  0.87440600  0.31337900  1
  Cl  Cl27  1  0.75000000  0.12559400  0.68662100  1
