# generated using pymatgen
data_NaCo(N2O3)4
_symmetry_space_group_name_H-M   'P 1'
_cell_length_a   7.33138493
_cell_length_b   7.33138493
_cell_length_c   7.33138493
_cell_angle_alpha   60.00000000
_cell_angle_beta   60.00000000
_cell_angle_gamma   60.00000000
_symmetry_Int_Tables_number   1
_chemical_formula_structural   NaCo(N2O3)4
_chemical_formula_sum   'Na1 Co1 N8 O12'
_cell_volume   278.63974868
_cell_formula_units_Z   1
loop_
 _symmetry_equiv_pos_site_id
 _symmetry_equiv_pos_as_xyz
  1  'x, y, z'
loop_
 _atom_site_type_symbol
 _atom_site_label
 _atom_site_symmetry_multiplicity
 _atom_site_fract_x
 _atom_site_fract_y
 _atom_site_fract_z
 _atom_site_occupancy
  Na  Na0  1  0.50000000  0.50000000  0.50000000  1
  Co  Co1  1  0.00000000  0.00000000  0.00000000  1
  N  N2  1  0.80366500  0.19633500  0.19633500  1
  N  N3  1  0.19633500  0.80366500  0.80366500  1
  N  N4  1  0.19633500  0.80366500  0.19633500  1
  N  N5  1  0.80366500  0.19633500  0.80366500  1
  N  N6  1  0.19633500  0.19633500  0.80366500  1
  N  N7  1  0.80366500  0.80366500  0.19633500  1
  N  N8  1  0.25000000  0.25000000  0.25000000  1
  N  N9  1  0.75000000  0.75000000  0.75000000  1
  O  O10  1  0.35713000  0.14671400  0.85328600  1
  O  O11  1  0.64287000  0.85328600  0.14671400  1
  O  O12  1  0.14671400  0.35713000  0.64287000  1
  O  O13  1  0.85328600  0.64287000  0.35713000  1
  O  O14  1  0.85328600  0.35713000  0.14671400  1
  O  O15  1  0.14671400  0.64287000  0.85328600  1
  O  O16  1  0.64287000  0.14671400  0.35713000  1
  O  O17  1  0.35713000  0.85328600  0.64287000  1
  O  O18  1  0.14671400  0.85328600  0.35713000  1
  O  O19  1  0.85328600  0.14671400  0.64287000  1
  O  O20  1  0.64287000  0.35713000  0.85328600  1
  O  O21  1  0.35713000  0.64287000  0.14671400  1
