# generated using pymatgen
data_Na3Nd(AsO4)2
_symmetry_space_group_name_H-M   'P 1'
_cell_length_a   5.92556490
_cell_length_b   5.92556490
_cell_length_c   7.38652700
_cell_angle_alpha   90.00000000
_cell_angle_beta   90.00000000
_cell_angle_gamma   120.00001010
_symmetry_Int_Tables_number   1
_chemical_formula_structural   Na3Nd(AsO4)2
_chemical_formula_sum   'Na3 Nd1 As2 O8'
_cell_volume   224.61067657
_cell_formula_units_Z   1
loop_
 _symmetry_equiv_pos_site_id
 _symmetry_equiv_pos_as_xyz
  1  'x, y, z'
loop_
 _atom_site_type_symbol
 _atom_site_label
 _atom_site_symmetry_multiplicity
 _atom_site_fract_x
 _atom_site_fract_y
 _atom_site_fract_z
 _atom_site_occupancy
  Na  Na0  1  0.33333300  0.66666700  0.69942200  1
  Na  Na1  1  0.66666700  0.33333300  0.30057800  1
  Na  Na2  1  0.00000000  0.00000000  0.00000000  1
  Nd  Nd3  1  0.00000000  0.00000000  0.50000000  1
  As  As4  1  0.33333300  0.66666700  0.21527300  1
  As  As5  1  0.66666700  0.33333300  0.78472700  1
  O  O6  1  0.33333300  0.66666700  0.98900400  1
  O  O7  1  0.66666700  0.33333300  0.01099600  1
  O  O8  1  0.17770100  0.82229900  0.30580900  1
  O  O9  1  0.82229900  0.17770100  0.69419100  1
  O  O10  1  0.17770100  0.35540200  0.30580900  1
  O  O11  1  0.82229900  0.64459800  0.69419100  1
  O  O12  1  0.64459800  0.82229900  0.30580900  1
  O  O13  1  0.35540200  0.17770100  0.69419100  1
