# generated using pymatgen
data_Rb2Be3Co2F12
_symmetry_space_group_name_H-M   'P 1'
_cell_length_a   10.21838900
_cell_length_b   10.21838900
_cell_length_c   10.21838900
_cell_angle_alpha   90.00000000
_cell_angle_beta   90.00000000
_cell_angle_gamma   90.00000000
_symmetry_Int_Tables_number   1
_chemical_formula_structural   Rb2Be3Co2F12
_chemical_formula_sum   'Rb8 Be12 Co8 F48'
_cell_volume   1066.95792845
_cell_formula_units_Z   4
loop_
 _symmetry_equiv_pos_site_id
 _symmetry_equiv_pos_as_xyz
  1  'x, y, z'
loop_
 _atom_site_type_symbol
 _atom_site_label
 _atom_site_symmetry_multiplicity
 _atom_site_fract_x
 _atom_site_fract_y
 _atom_site_fract_z
 _atom_site_occupancy
  Rb  Rb0  1  0.04918700  0.04918700  0.04918700  1
  Rb  Rb1  1  0.45081300  0.95081300  0.54918700  1
  Rb  Rb2  1  0.95081300  0.54918700  0.45081300  1
  Rb  Rb3  1  0.54918700  0.45081300  0.95081300  1
  Rb  Rb4  1  0.81500700  0.81500700  0.81500700  1
  Rb  Rb5  1  0.68499300  0.18499300  0.31500700  1
  Rb  Rb6  1  0.18499300  0.31500700  0.68499300  1
  Rb  Rb7  1  0.31500700  0.68499300  0.18499300  1
  Be  Be8  1  0.02025500  0.21410500  0.37571100  1
  Be  Be9  1  0.47974500  0.78589500  0.87571100  1
  Be  Be10  1  0.97974500  0.71410500  0.12428900  1
  Be  Be11  1  0.37571100  0.02025500  0.21410500  1
  Be  Be12  1  0.52025500  0.28589500  0.62428900  1
  Be  Be13  1  0.87571100  0.47974500  0.78589500  1
  Be  Be14  1  0.12428900  0.97974500  0.71410500  1
  Be  Be15  1  0.62428900  0.52025500  0.28589500  1
  Be  Be16  1  0.21410500  0.37571100  0.02025500  1
  Be  Be17  1  0.71410500  0.12428900  0.97974500  1
  Be  Be18  1  0.28589500  0.62428900  0.52025500  1
  Be  Be19  1  0.78589500  0.87571100  0.47974500  1
  Co  Co20  1  0.33535800  0.33535800  0.33535800  1
  Co  Co21  1  0.16464200  0.66464200  0.83535800  1
  Co  Co22  1  0.66464200  0.83535800  0.16464200  1
  Co  Co23  1  0.83535800  0.16464200  0.66464200  1
  Co  Co24  1  0.59963100  0.59963100  0.59963100  1
  Co  Co25  1  0.90036900  0.40036900  0.09963100  1
  Co  Co26  1  0.40036900  0.09963100  0.90036900  1
  Co  Co27  1  0.09963100  0.90036900  0.40036900  1
  F  F28  1  0.01375600  0.06804000  0.33002000  1
  F  F29  1  0.48624400  0.93196000  0.83002000  1
  F  F30  1  0.98624400  0.56804000  0.16998000  1
  F  F31  1  0.33002000  0.01375600  0.06804000  1
  F  F32  1  0.51375600  0.43196000  0.66998000  1
  F  F33  1  0.83002000  0.48624400  0.93196000  1
  F  F34  1  0.16998000  0.98624400  0.56804000  1
  F  F35  1  0.66998000  0.51375600  0.43196000  1
  F  F36  1  0.06804000  0.33002000  0.01375600  1
  F  F37  1  0.56804000  0.16998000  0.98624400  1
  F  F38  1  0.43196000  0.66998000  0.51375600  1
  F  F39  1  0.93196000  0.83002000  0.48624400  1
  F  F40  1  0.26608700  0.49647300  0.43692500  1
  F  F41  1  0.23391300  0.50352700  0.93692500  1
  F  F42  1  0.73391300  0.99647300  0.06307500  1
  F  F43  1  0.43692500  0.26608700  0.49647300  1
  F  F44  1  0.76608700  0.00352700  0.56307500  1
  F  F45  1  0.93692500  0.23391300  0.50352700  1
  F  F46  1  0.06307500  0.73391300  0.99647300  1
  F  F47  1  0.56307500  0.76608700  0.00352700  1
  F  F48  1  0.49647300  0.43692500  0.26608700  1
  F  F49  1  0.99647300  0.06307500  0.73391300  1
  F  F50  1  0.00352700  0.56307500  0.76608700  1
  F  F51  1  0.50352700  0.93692500  0.23391300  1
  F  F52  1  0.04599600  0.80462900  0.23008500  1
  F  F53  1  0.45400400  0.19537100  0.73008500  1
  F  F54  1  0.95400400  0.30462900  0.26991500  1
  F  F55  1  0.23008500  0.04599600  0.80462900  1
  F  F56  1  0.54599600  0.69537100  0.76991500  1
  F  F57  1  0.73008500  0.45400400  0.19537100  1
  F  F58  1  0.26991500  0.95400400  0.30462900  1
  F  F59  1  0.76991500  0.54599600  0.69537100  1
  F  F60  1  0.80462900  0.23008500  0.04599600  1
  F  F61  1  0.30462900  0.26991500  0.95400400  1
  F  F62  1  0.69537100  0.76991500  0.54599600  1
  F  F63  1  0.19537100  0.73008500  0.45400400  1
  F  F64  1  0.16404700  0.25654800  0.40259500  1
  F  F65  1  0.33595300  0.74345200  0.90259500  1
  F  F66  1  0.83595300  0.75654800  0.09740500  1
  F  F67  1  0.40259500  0.16404700  0.25654800  1
  F  F68  1  0.66404700  0.24345200  0.59740500  1
  F  F69  1  0.90259500  0.33595300  0.74345200  1
  F  F70  1  0.09740500  0.83595300  0.75654800  1
  F  F71  1  0.59740500  0.66404700  0.24345200  1
  F  F72  1  0.25654800  0.40259500  0.16404700  1
  F  F73  1  0.75654800  0.09740500  0.83595300  1
  F  F74  1  0.24345200  0.59740500  0.66404700  1
  F  F75  1  0.74345200  0.90259500  0.33595300  1
