# generated using pymatgen
data_NaAlCr2(HO4)2
_symmetry_space_group_name_H-M   'P 1'
_cell_length_a   7.53398088
_cell_length_b   7.53398088
_cell_length_c   11.05884800
_cell_angle_alpha   70.06506999
_cell_angle_beta   70.06506999
_cell_angle_gamma   41.57128312
_symmetry_Int_Tables_number   1
_chemical_formula_structural   NaAlCr2(HO4)2
_chemical_formula_sum   'Na2 Al2 Cr4 H4 O16'
_cell_volume   387.83191296
_cell_formula_units_Z   2
loop_
 _symmetry_equiv_pos_site_id
 _symmetry_equiv_pos_as_xyz
  1  'x, y, z'
loop_
 _atom_site_type_symbol
 _atom_site_label
 _atom_site_symmetry_multiplicity
 _atom_site_fract_x
 _atom_site_fract_y
 _atom_site_fract_z
 _atom_site_occupancy
  Na  Na0  1  0.71556100  0.28443900  0.75000000  1
  Na  Na1  1  0.28443900  0.71556100  0.25000000  1
  Al  Al2  1  0.50000000  0.00000000  0.00000000  1
  Al  Al3  1  0.00000000  0.50000000  0.50000000  1
  Cr  Cr4  1  0.34021900  0.86118600  0.53679000  1
  Cr  Cr5  1  0.65978100  0.13881400  0.46321000  1
  Cr  Cr6  1  0.13881400  0.65978100  0.96321000  1
  Cr  Cr7  1  0.86118600  0.34021900  0.03679000  1
  H  H8  1  0.48475900  0.95030200  0.83826100  1
  H  H9  1  0.51524100  0.04969800  0.16173900  1
  H  H10  1  0.04969800  0.51524100  0.66173900  1
  H  H11  1  0.95030200  0.48475900  0.33826100  1
  O  O12  1  0.64695200  0.12399300  0.61521600  1
  O  O13  1  0.35304800  0.87600700  0.38478400  1
  O  O14  1  0.87600700  0.35304800  0.88478400  1
  O  O15  1  0.12399300  0.64695200  0.11521600  1
  O  O16  1  0.81614400  0.89920100  0.92233000  1
  O  O17  1  0.18385600  0.10079900  0.07767000  1
  O  O18  1  0.10079900  0.18385600  0.57767000  1
  O  O19  1  0.89920100  0.81614400  0.42233000  1
  O  O20  1  0.25290100  0.70994700  0.62647200  1
  O  O21  1  0.74709900  0.29005300  0.37352800  1
  O  O22  1  0.29005300  0.74709900  0.87352800  1
  O  O23  1  0.70994700  0.25290100  0.12647200  1
  O  O24  1  0.65324000  0.67668500  0.56933600  1
  O  O25  1  0.34676000  0.32331500  0.43066400  1
  O  O26  1  0.32331500  0.34676000  0.93066400  1
  O  O27  1  0.67668500  0.65324000  0.06933600  1
