# generated using pymatgen
data_Na3Sm9B8O27
_symmetry_space_group_name_H-M   'P 1'
_cell_length_a   8.41136700
_cell_length_b   8.75378595
_cell_length_c   8.75378595
_cell_angle_alpha   119.99999964
_cell_angle_beta   90.00000000
_cell_angle_gamma   90.00000000
_symmetry_Int_Tables_number   1
_chemical_formula_structural   Na3Sm9B8O27
_chemical_formula_sum   'Na3 Sm9 B8 O27'
_cell_volume   558.19900961
_cell_formula_units_Z   1
loop_
 _symmetry_equiv_pos_site_id
 _symmetry_equiv_pos_as_xyz
  1  'x, y, z'
loop_
 _atom_site_type_symbol
 _atom_site_label
 _atom_site_symmetry_multiplicity
 _atom_site_fract_x
 _atom_site_fract_y
 _atom_site_fract_z
 _atom_site_occupancy
  Na  Na0  1  0.00000000  0.66376900  0.66376900  1
  Na  Na1  1  0.00000000  0.00000000  0.33623100  1
  Na  Na2  1  0.00000000  0.33623100  0.00000000  1
  Sm  Sm3  1  0.76448100  0.34847500  0.34847500  1
  Sm  Sm4  1  0.76448100  0.00000000  0.65152500  1
  Sm  Sm5  1  0.23551900  0.34847500  0.34847500  1
  Sm  Sm6  1  0.23551900  0.00000000  0.65152500  1
  Sm  Sm7  1  0.76448100  0.65152500  0.00000000  1
  Sm  Sm8  1  0.23551900  0.65152500  0.00000000  1
  Sm  Sm9  1  0.50000000  0.71807400  0.71807400  1
  Sm  Sm10  1  0.50000000  0.00000000  0.28192600  1
  Sm  Sm11  1  0.50000000  0.28192600  0.00000000  1
  B  B12  1  0.78995300  0.00000000  0.00000000  1
  B  B13  1  0.21004700  0.00000000  0.00000000  1
  B  B14  1  0.00000000  0.66666700  0.33333300  1
  B  B15  1  0.00000000  0.33333300  0.66666700  1
  B  B16  1  0.67551900  0.66666700  0.33333300  1
  B  B17  1  0.32448100  0.66666700  0.33333300  1
  B  B18  1  0.32448100  0.33333300  0.66666700  1
  B  B19  1  0.67551900  0.33333300  0.66666700  1
  O  O20  1  0.68238900  0.82375300  0.33425100  1
  O  O21  1  0.68238900  0.51049800  0.17624700  1
  O  O22  1  0.31761100  0.82375300  0.33425100  1
  O  O23  1  0.31761100  0.48950200  0.66574900  1
  O  O24  1  0.68238900  0.66574900  0.48950200  1
  O  O25  1  0.31761100  0.51049800  0.17624700  1
  O  O26  1  0.31761100  0.33425100  0.82375300  1
  O  O27  1  0.68238900  0.48950200  0.66574900  1
  O  O28  1  0.31761100  0.66574900  0.48950200  1
  O  O29  1  0.68238900  0.33425100  0.82375300  1
  O  O30  1  0.31761100  0.17624700  0.51049800  1
  O  O31  1  0.68238900  0.17624700  0.51049800  1
  O  O32  1  0.00000000  0.67752300  0.17923200  1
  O  O33  1  0.00000000  0.50171000  0.32247700  1
  O  O34  1  0.00000000  0.49829000  0.82076800  1
  O  O35  1  0.00000000  0.82076800  0.49829000  1
  O  O36  1  0.00000000  0.17923200  0.67752300  1
  O  O37  1  0.00000000  0.32247700  0.50171000  1
  O  O38  1  0.50000000  0.25636200  0.25636200  1
  O  O39  1  0.50000000  0.00000000  0.74363800  1
  O  O40  1  0.50000000  0.74363800  0.00000000  1
  O  O41  1  0.78725100  0.84159200  0.84159200  1
  O  O42  1  0.78725100  0.00000000  0.15840800  1
  O  O43  1  0.21274900  0.84159200  0.84159200  1
  O  O44  1  0.21274900  0.00000000  0.15840800  1
  O  O45  1  0.78725100  0.15840800  0.00000000  1
  O  O46  1  0.21274900  0.15840800  0.00000000  1
