# generated using pymatgen
data_NaMo3(PO7)2
_symmetry_space_group_name_H-M   'P 1'
_cell_length_a   6.48546400
_cell_length_b   8.68854600
_cell_length_c   10.73623861
_cell_angle_alpha   68.41020510
_cell_angle_beta   90.00000000
_cell_angle_gamma   90.00000000
_symmetry_Int_Tables_number   1
_chemical_formula_structural   NaMo3(PO7)2
_chemical_formula_sum   'Na2 Mo6 P4 O28'
_cell_volume   562.53492376
_cell_formula_units_Z   2
loop_
 _symmetry_equiv_pos_site_id
 _symmetry_equiv_pos_as_xyz
  1  'x, y, z'
loop_
 _atom_site_type_symbol
 _atom_site_label
 _atom_site_symmetry_multiplicity
 _atom_site_fract_x
 _atom_site_fract_y
 _atom_site_fract_z
 _atom_site_occupancy
  Na  Na0  1  0.25000000  0.00952800  0.75509800  1
  Na  Na1  1  0.75000000  0.99047200  0.24490200  1
  Mo  Mo2  1  0.25000000  0.74874200  0.16997000  1
  Mo  Mo3  1  0.75000000  0.25125800  0.83003000  1
  Mo  Mo4  1  0.25000000  0.33443100  0.12306600  1
  Mo  Mo5  1  0.75000000  0.66556900  0.87693400  1
  Mo  Mo6  1  0.25000000  0.73565800  0.49315800  1
  Mo  Mo7  1  0.75000000  0.26434200  0.50684200  1
  P  P8  1  0.25000000  0.38403300  0.80106700  1
  P  P9  1  0.75000000  0.61596700  0.19893300  1
  P  P10  1  0.25000000  0.35119000  0.43725900  1
  P  P11  1  0.75000000  0.64881000  0.56274100  1
  O  O12  1  0.25000000  0.56759300  0.11292800  1
  O  O13  1  0.75000000  0.43240700  0.88707200  1
  O  O14  1  0.25000000  0.91669300  0.02258200  1
  O  O15  1  0.75000000  0.08330700  0.97741800  1
  O  O16  1  0.93834500  0.72912400  0.18996700  1
  O  O17  1  0.06165500  0.27087600  0.81003300  1
  O  O18  1  0.43834500  0.27087600  0.81003300  1
  O  O19  1  0.56165500  0.72912400  0.18996700  1
  O  O20  1  0.25000000  0.85455500  0.29482100  1
  O  O21  1  0.75000000  0.14544500  0.70517900  1
  O  O22  1  0.25000000  0.89140400  0.55453700  1
  O  O23  1  0.75000000  0.10859600  0.44546300  1
  O  O24  1  0.46823600  0.21620400  0.13333700  1
  O  O25  1  0.53176400  0.78379600  0.86666300  1
  O  O26  1  0.96823600  0.78379600  0.86666300  1
  O  O27  1  0.03176400  0.21620400  0.13333700  1
  O  O28  1  0.93831200  0.72111800  0.47211400  1
  O  O29  1  0.06168800  0.27888200  0.52788600  1
  O  O30  1  0.43831200  0.27888200  0.52788600  1
  O  O31  1  0.56168800  0.72111800  0.47211400  1
  O  O32  1  0.25000000  0.53419400  0.66973800  1
  O  O33  1  0.75000000  0.46580600  0.33026200  1
  O  O34  1  0.25000000  0.44634700  0.91923800  1
  O  O35  1  0.75000000  0.55365300  0.08076200  1
  O  O36  1  0.25000000  0.28852800  0.32023800  1
  O  O37  1  0.75000000  0.71147200  0.67976200  1
  O  O38  1  0.25000000  0.54189600  0.38525800  1
  O  O39  1  0.75000000  0.45810400  0.61474200  1
