# generated using pymatgen
data_Rb3EuCl6
_symmetry_space_group_name_H-M   'P 1'
_cell_length_a   13.86685913
_cell_length_b   13.86685913
_cell_length_c   13.10356127
_cell_angle_alpha   80.87528429
_cell_angle_beta   80.87528429
_cell_angle_gamma   33.99288619
_symmetry_Int_Tables_number   1
_chemical_formula_structural   Rb3EuCl6
_chemical_formula_sum   'Rb12 Eu4 Cl24'
_cell_volume   1389.22433193
_cell_formula_units_Z   4
loop_
 _symmetry_equiv_pos_site_id
 _symmetry_equiv_pos_as_xyz
  1  'x, y, z'
loop_
 _atom_site_type_symbol
 _atom_site_label
 _atom_site_symmetry_multiplicity
 _atom_site_fract_x
 _atom_site_fract_y
 _atom_site_fract_z
 _atom_site_occupancy
  Rb  Rb0  1  0.30371500  0.79545500  0.56766300  1
  Rb  Rb1  1  0.69628500  0.20454500  0.43233700  1
  Rb  Rb2  1  0.20454500  0.69628500  0.93233700  1
  Rb  Rb3  1  0.79545500  0.30371500  0.06766300  1
  Rb  Rb4  1  0.46733900  0.84112500  0.85463700  1
  Rb  Rb5  1  0.53266100  0.15887500  0.14536300  1
  Rb  Rb6  1  0.15887500  0.53266100  0.64536300  1
  Rb  Rb7  1  0.84112500  0.46733900  0.35463700  1
  Rb  Rb8  1  0.65171800  0.02510900  0.79873900  1
  Rb  Rb9  1  0.34828200  0.97489100  0.20126100  1
  Rb  Rb10  1  0.97489100  0.34828200  0.70126100  1
  Rb  Rb11  1  0.02510900  0.65171800  0.29873900  1
  Eu  Eu12  1  0.78243600  0.21756400  0.75000000  1
  Eu  Eu13  1  0.21756400  0.78243600  0.25000000  1
  Eu  Eu14  1  0.50000000  0.00000000  0.50000000  1
  Eu  Eu15  1  0.00000000  0.50000000  0.00000000  1
  Cl  Cl16  1  0.62229300  0.71766100  0.58232700  1
  Cl  Cl17  1  0.37770700  0.28233900  0.41767300  1
  Cl  Cl18  1  0.28233900  0.37770700  0.91767300  1
  Cl  Cl19  1  0.71766100  0.62229300  0.08232700  1
  Cl  Cl20  1  0.49015700  0.39061800  0.67741800  1
  Cl  Cl21  1  0.50984300  0.60938200  0.32258200  1
  Cl  Cl22  1  0.60938200  0.50984300  0.82258200  1
  Cl  Cl23  1  0.39061800  0.49015700  0.17741800  1
  Cl  Cl24  1  0.78631800  0.86474300  0.53415800  1
  Cl  Cl25  1  0.21368200  0.13525700  0.46584200  1
  Cl  Cl26  1  0.13525700  0.21368200  0.96584200  1
  Cl  Cl27  1  0.86474300  0.78631800  0.03415800  1
  Cl  Cl28  1  0.90572800  0.97477200  0.19567900  1
  Cl  Cl29  1  0.09427200  0.02522800  0.80432100  1
  Cl  Cl30  1  0.02522800  0.09427200  0.30432100  1
  Cl  Cl31  1  0.97477200  0.90572800  0.69567900  1
  Cl  Cl32  1  0.71795100  0.16294800  0.93905600  1
  Cl  Cl33  1  0.28204900  0.83705200  0.06094400  1
  Cl  Cl34  1  0.83705200  0.28204900  0.56094400  1
  Cl  Cl35  1  0.16294800  0.71795100  0.43905600  1
  Cl  Cl36  1  0.35676100  0.14449500  0.69063700  1
  Cl  Cl37  1  0.64323900  0.85550500  0.30936300  1
  Cl  Cl38  1  0.85550500  0.64323900  0.80936300  1
  Cl  Cl39  1  0.14449500  0.35676100  0.19063700  1
