# generated using pymatgen
data_Pr2Cl3O16
_symmetry_space_group_name_H-M   'P 1'
_cell_length_a   8.87265545
_cell_length_b   8.87265545
_cell_length_c   10.58366031
_cell_angle_alpha   72.34058240
_cell_angle_beta   72.34058240
_cell_angle_gamma   63.31117528
_symmetry_Int_Tables_number   1
_chemical_formula_structural   Pr2Cl3O16
_chemical_formula_sum   'Pr4 Cl6 O32'
_cell_volume   695.54140266
_cell_formula_units_Z   2
loop_
 _symmetry_equiv_pos_site_id
 _symmetry_equiv_pos_as_xyz
  1  'x, y, z'
loop_
 _atom_site_type_symbol
 _atom_site_label
 _atom_site_symmetry_multiplicity
 _atom_site_fract_x
 _atom_site_fract_y
 _atom_site_fract_z
 _atom_site_occupancy
  Pr  Pr0  1  0.32394900  0.97449900  0.95713800  1
  Pr  Pr1  1  0.67605100  0.02550100  0.04286200  1
  Pr  Pr2  1  0.02550100  0.67605100  0.54286200  1
  Pr  Pr3  1  0.97449900  0.32394900  0.45713800  1
  Cl  Cl4  1  0.65345900  0.08741100  0.68474800  1
  Cl  Cl5  1  0.34654100  0.91258900  0.31525200  1
  Cl  Cl6  1  0.91258900  0.34654100  0.81525200  1
  Cl  Cl7  1  0.08741100  0.65345900  0.18474800  1
  Cl  Cl8  1  0.12954600  0.87045400  0.75000000  1
  Cl  Cl9  1  0.87045400  0.12954600  0.25000000  1
  O  O10  1  0.48421000  0.08083400  0.71578300  1
  O  O11  1  0.51579000  0.91916600  0.28421700  1
  O  O12  1  0.91916600  0.51579000  0.78421700  1
  O  O13  1  0.08083400  0.48421000  0.21578300  1
  O  O14  1  0.67326200  0.13651500  0.79695400  1
  O  O15  1  0.32673800  0.86348500  0.20304600  1
  O  O16  1  0.86348500  0.32673800  0.70304600  1
  O  O17  1  0.13651500  0.67326200  0.29695400  1
  O  O18  1  0.16770900  0.38297300  0.52363100  1
  O  O19  1  0.83229100  0.61702700  0.47636900  1
  O  O20  1  0.61702700  0.83229100  0.97636900  1
  O  O21  1  0.38297300  0.16770900  0.02363100  1
  O  O22  1  0.78702400  0.32694100  0.93607800  1
  O  O23  1  0.21297600  0.67305900  0.06392200  1
  O  O24  1  0.67305900  0.21297600  0.56392200  1
  O  O25  1  0.32694100  0.78702400  0.43607800  1
  O  O26  1  0.56507000  0.72482500  0.94310100  1
  O  O27  1  0.43493000  0.27517500  0.05689900  1
  O  O28  1  0.27517500  0.43493000  0.55689900  1
  O  O29  1  0.72482500  0.56507000  0.44310100  1
  O  O30  1  0.78482200  0.91571700  0.66879900  1
  O  O31  1  0.21517800  0.08428300  0.33120100  1
  O  O32  1  0.08428300  0.21517800  0.83120100  1
  O  O33  1  0.91571700  0.78482200  0.16879900  1
  O  O34  1  0.29090800  0.84931800  0.77653600  1
  O  O35  1  0.70909200  0.15068200  0.22346400  1
  O  O36  1  0.15068200  0.70909200  0.72346400  1
  O  O37  1  0.84931800  0.29090800  0.27653600  1
  O  O38  1  0.08723700  0.00517200  0.63092200  1
  O  O39  1  0.91276300  0.99482800  0.36907800  1
  O  O40  1  0.99482800  0.91276300  0.86907800  1
  O  O41  1  0.00517200  0.08723700  0.13092200  1
