# generated using pymatgen
data_NaPr(SeO5)2
_symmetry_space_group_name_H-M   'P 1'
_cell_length_a   7.23947000
_cell_length_b   11.24505100
_cell_length_c   11.39193856
_cell_angle_alpha   69.15477143
_cell_angle_beta   90.00000000
_cell_angle_gamma   90.00000000
_symmetry_Int_Tables_number   1
_chemical_formula_structural   NaPr(SeO5)2
_chemical_formula_sum   'Na4 Pr4 Se8 O40'
_cell_volume   866.69459118
_cell_formula_units_Z   4
loop_
 _symmetry_equiv_pos_site_id
 _symmetry_equiv_pos_as_xyz
  1  'x, y, z'
loop_
 _atom_site_type_symbol
 _atom_site_label
 _atom_site_symmetry_multiplicity
 _atom_site_fract_x
 _atom_site_fract_y
 _atom_site_fract_z
 _atom_site_occupancy
  Na  Na0  1  0.64356600  0.96251700  0.37136800  1
  Na  Na1  1  0.35643400  0.03748300  0.62863200  1
  Na  Na2  1  0.14356600  0.53748300  0.62863200  1
  Na  Na3  1  0.85643400  0.46251700  0.37136800  1
  Pr  Pr4  1  0.38508200  0.66606000  0.24857500  1
  Pr  Pr5  1  0.61491800  0.33394000  0.75142500  1
  Pr  Pr6  1  0.88508200  0.83394000  0.75142500  1
  Pr  Pr7  1  0.11491800  0.16606000  0.24857500  1
  Se  Se8  1  0.87233200  0.72038500  0.10627700  1
  Se  Se9  1  0.12766800  0.27961500  0.89372300  1
  Se  Se10  1  0.37233200  0.77961500  0.89372300  1
  Se  Se11  1  0.62766800  0.22038500  0.10627700  1
  Se  Se12  1  0.65315700  0.64024900  0.55259000  1
  Se  Se13  1  0.34684300  0.35975100  0.44741000  1
  Se  Se14  1  0.15315700  0.85975100  0.44741000  1
  Se  Se15  1  0.84684300  0.14024900  0.55259000  1
  O  O16  1  0.83832900  0.87699700  0.08557700  1
  O  O17  1  0.16167100  0.12300300  0.91442300  1
  O  O18  1  0.33832900  0.62300300  0.91442300  1
  O  O19  1  0.66167100  0.37699700  0.08557700  1
  O  O20  1  0.56087500  0.83783600  0.80704200  1
  O  O21  1  0.43912500  0.16216400  0.19295800  1
  O  O22  1  0.06087500  0.66216400  0.19295800  1
  O  O23  1  0.93912500  0.33783600  0.80704200  1
  O  O24  1  0.82069100  0.53171400  0.57190800  1
  O  O25  1  0.17930900  0.46828600  0.42809200  1
  O  O26  1  0.32069100  0.96828600  0.42809200  1
  O  O27  1  0.67930900  0.03171400  0.57190800  1
  O  O28  1  0.53891700  0.88164900  0.20360300  1
  O  O29  1  0.46108300  0.11835100  0.79639700  1
  O  O30  1  0.03891700  0.61835100  0.79639700  1
  O  O31  1  0.96108300  0.38164900  0.20360300  1
  O  O32  1  0.60627700  0.71525000  0.40001300  1
  O  O33  1  0.39372300  0.28475000  0.59998700  1
  O  O34  1  0.10627700  0.78475000  0.59998700  1
  O  O35  1  0.89372300  0.21525000  0.40001300  1
  O  O36  1  0.70429700  0.75297100  0.61024900  1
  O  O37  1  0.29570300  0.24702900  0.38975100  1
  O  O38  1  0.20429700  0.74702900  0.38975100  1
  O  O39  1  0.79570300  0.25297100  0.61024900  1
  O  O40  1  0.97397000  0.94878300  0.37157200  1
  O  O41  1  0.02603000  0.05121700  0.62842800  1
  O  O42  1  0.47397000  0.55121700  0.62842800  1
  O  O43  1  0.52603000  0.44878300  0.37157200  1
  O  O44  1  0.39127700  0.80023000  0.03029600  1
  O  O45  1  0.60872300  0.19977000  0.96970400  1
  O  O46  1  0.89127700  0.69977000  0.96970400  1
  O  O47  1  0.10872300  0.30023000  0.03029600  1
  O  O48  1  0.30244200  0.52217300  0.11918000  1
  O  O49  1  0.69755800  0.47782700  0.88082000  1
  O  O50  1  0.80244200  0.97782700  0.88082000  1
  O  O51  1  0.19755800  0.02217300  0.11918000  1
  O  O52  1  0.70140600  0.63161100  0.19088300  1
  O  O53  1  0.29859400  0.36838900  0.80911700  1
  O  O54  1  0.20140600  0.86838900  0.80911700  1
  O  O55  1  0.79859400  0.13161100  0.19088300  1
