# generated using pymatgen
data_Na4RuN6O13
_symmetry_space_group_name_H-M   'P 1'
_cell_length_a   7.59444057
_cell_length_b   7.59444057
_cell_length_c   12.24837168
_cell_angle_alpha   87.62622418
_cell_angle_beta   87.62622418
_cell_angle_gamma   116.60934996
_symmetry_Int_Tables_number   1
_chemical_formula_structural   Na4RuN6O13
_chemical_formula_sum   'Na8 Ru2 N12 O26'
_cell_volume   629.64131321
_cell_formula_units_Z   2
loop_
 _symmetry_equiv_pos_site_id
 _symmetry_equiv_pos_as_xyz
  1  'x, y, z'
loop_
 _atom_site_type_symbol
 _atom_site_label
 _atom_site_symmetry_multiplicity
 _atom_site_fract_x
 _atom_site_fract_y
 _atom_site_fract_z
 _atom_site_occupancy
  Na  Na0  1  0.32582100  0.16064600  0.69322000  1
  Na  Na1  1  0.67417900  0.83935400  0.30678000  1
  Na  Na2  1  0.83935400  0.67417900  0.80678000  1
  Na  Na3  1  0.16064600  0.32582100  0.19322000  1
  Na  Na4  1  0.53147700  0.78151500  0.62091300  1
  Na  Na5  1  0.46852300  0.21848500  0.37908700  1
  Na  Na6  1  0.21848500  0.46852300  0.87908700  1
  Na  Na7  1  0.78151500  0.53147700  0.12091300  1
  Ru  Ru8  1  0.50000000  0.00000000  0.00000000  1
  Ru  Ru9  1  0.00000000  0.50000000  0.50000000  1
  N  N10  1  0.54490700  0.92432200  0.84169600  1
  N  N11  1  0.45509300  0.07567800  0.15830400  1
  N  N12  1  0.07567800  0.45509300  0.65830400  1
  N  N13  1  0.92432200  0.54490700  0.34169600  1
  N  N14  1  0.51223000  0.26097300  0.93234200  1
  N  N15  1  0.48777000  0.73902700  0.06765800  1
  N  N16  1  0.73902700  0.48777000  0.56765800  1
  N  N17  1  0.26097300  0.51223000  0.43234200  1
  N  N18  1  0.80499000  0.15082800  0.01515300  1
  N  N19  1  0.19501000  0.84917200  0.98484700  1
  N  N20  1  0.84917200  0.19501000  0.48484700  1
  N  N21  1  0.15082800  0.80499000  0.51515300  1
  O  O22  1  0.84676600  0.06850200  0.55468600  1
  O  O23  1  0.15323400  0.93149800  0.44531400  1
  O  O24  1  0.93149800  0.15323400  0.94531400  1
  O  O25  1  0.06850200  0.84676600  0.05468600  1
  O  O26  1  0.55929400  0.03064700  0.75750800  1
  O  O27  1  0.44070600  0.96935300  0.24249200  1
  O  O28  1  0.96935300  0.44070600  0.74249200  1
  O  O29  1  0.03064700  0.55929400  0.25750800  1
  O  O30  1  0.25259800  0.86837000  0.59768000  1
  O  O31  1  0.74740200  0.13163000  0.40232000  1
  O  O32  1  0.13163000  0.74740200  0.90232000  1
  O  O33  1  0.86837000  0.25259800  0.09768000  1
  O  O34  1  0.57383800  0.34395400  0.55518400  1
  O  O35  1  0.42616200  0.65604600  0.44481600  1
  O  O36  1  0.65604600  0.42616200  0.94481600  1
  O  O37  1  0.34395400  0.57383800  0.05518400  1
  O  O38  1  0.98882300  0.01117700  0.75000000  1
  O  O39  1  0.01117700  0.98882300  0.25000000  1
  O  O40  1  0.55005500  0.76166900  0.82744200  1
  O  O41  1  0.44994500  0.23833100  0.17255800  1
  O  O42  1  0.23833100  0.44994500  0.67255800  1
  O  O43  1  0.76166900  0.55005500  0.32744200  1
  O  O44  1  0.37793500  0.25952800  0.87467700  1
  O  O45  1  0.62206500  0.74047200  0.12532300  1
  O  O46  1  0.74047200  0.62206500  0.62532300  1
  O  O47  1  0.25952800  0.37793500  0.37467700  1
