# generated using pymatgen
data_Na3MnO4
_symmetry_space_group_name_H-M   'P 1'
_cell_length_a   7.89456400
_cell_length_b   7.89456400
_cell_length_c   7.89456400
_cell_angle_alpha   90.00000000
_cell_angle_beta   90.00000000
_cell_angle_gamma   90.00000000
_symmetry_Int_Tables_number   1
_chemical_formula_structural   Na3MnO4
_chemical_formula_sum   'Na12 Mn4 O16'
_cell_volume   492.02191790
_cell_formula_units_Z   4
loop_
 _symmetry_equiv_pos_site_id
 _symmetry_equiv_pos_as_xyz
  1  'x, y, z'
loop_
 _atom_site_type_symbol
 _atom_site_label
 _atom_site_symmetry_multiplicity
 _atom_site_fract_x
 _atom_site_fract_y
 _atom_site_fract_z
 _atom_site_occupancy
  Na  Na0  1  0.00601500  0.00601500  0.00601500  1
  Na  Na1  1  0.49398500  0.99398500  0.50601500  1
  Na  Na2  1  0.99398500  0.50601500  0.49398500  1
  Na  Na3  1  0.50601500  0.49398500  0.99398500  1
  Na  Na4  1  0.21616300  0.21616300  0.21616300  1
  Na  Na5  1  0.28383700  0.78383700  0.71616300  1
  Na  Na6  1  0.78383700  0.71616300  0.28383700  1
  Na  Na7  1  0.71616300  0.28383700  0.78383700  1
  Na  Na8  1  0.74261100  0.74261100  0.74261100  1
  Na  Na9  1  0.75738900  0.25738900  0.24261100  1
  Na  Na10  1  0.25738900  0.24261100  0.75738900  1
  Na  Na11  1  0.24261100  0.75738900  0.25738900  1
  Mn  Mn12  1  0.49827500  0.49827500  0.49827500  1
  Mn  Mn13  1  0.00172500  0.50172500  0.99827500  1
  Mn  Mn14  1  0.50172500  0.99827500  0.00172500  1
  Mn  Mn15  1  0.99827500  0.00172500  0.50172500  1
  O  O16  1  0.37455000  0.37455000  0.37455000  1
  O  O17  1  0.12545000  0.62545000  0.87455000  1
  O  O18  1  0.62545000  0.87455000  0.12545000  1
  O  O19  1  0.87455000  0.12545000  0.62545000  1
  O  O20  1  0.97357000  0.05959600  0.29210500  1
  O  O21  1  0.52643000  0.94040400  0.79210500  1
  O  O22  1  0.02643000  0.55959600  0.20789500  1
  O  O23  1  0.29210500  0.97357000  0.05959600  1
  O  O24  1  0.47357000  0.44040400  0.70789500  1
  O  O25  1  0.79210500  0.52643000  0.94040400  1
  O  O26  1  0.20789500  0.02643000  0.55959600  1
  O  O27  1  0.70789500  0.47357000  0.44040400  1
  O  O28  1  0.05959600  0.29210500  0.97357000  1
  O  O29  1  0.55959600  0.20789500  0.02643000  1
  O  O30  1  0.44040400  0.70789500  0.47357000  1
  O  O31  1  0.94040400  0.79210500  0.52643000  1
