# generated using pymatgen
data_Nb2NiS4
_symmetry_space_group_name_H-M   'P 1'
_cell_length_a   3.35959500
_cell_length_b   10.02507100
_cell_length_c   13.33084800
_cell_angle_alpha   90.00000000
_cell_angle_beta   90.00000000
_cell_angle_gamma   90.00000000
_symmetry_Int_Tables_number   1
_chemical_formula_structural   Nb2NiS4
_chemical_formula_sum   'Nb8 Ni4 S16'
_cell_volume   448.98533895
_cell_formula_units_Z   4
loop_
 _symmetry_equiv_pos_site_id
 _symmetry_equiv_pos_as_xyz
  1  'x, y, z'
loop_
 _atom_site_type_symbol
 _atom_site_label
 _atom_site_symmetry_multiplicity
 _atom_site_fract_x
 _atom_site_fract_y
 _atom_site_fract_z
 _atom_site_occupancy
  Nb  Nb0  1  0.75000000  0.85859600  0.59675500  1
  Nb  Nb1  1  0.25000000  0.14140400  0.40324500  1
  Nb  Nb2  1  0.25000000  0.64140400  0.09675500  1
  Nb  Nb3  1  0.75000000  0.35859600  0.90324500  1
  Nb  Nb4  1  0.75000000  0.51380200  0.40822200  1
  Nb  Nb5  1  0.25000000  0.48619800  0.59177800  1
  Nb  Nb6  1  0.25000000  0.98619800  0.90822200  1
  Nb  Nb7  1  0.75000000  0.01380200  0.09177800  1
  Ni  Ni8  1  0.75000000  0.76516300  0.81474100  1
  Ni  Ni9  1  0.25000000  0.23483700  0.18525900  1
  Ni  Ni10  1  0.25000000  0.73483700  0.31474100  1
  Ni  Ni11  1  0.75000000  0.26516300  0.68525900  1
  S  S12  1  0.75000000  0.62612500  0.68041600  1
  S  S13  1  0.25000000  0.37387500  0.31958400  1
  S  S14  1  0.25000000  0.87387500  0.18041600  1
  S  S15  1  0.75000000  0.12612500  0.81958400  1
  S  S16  1  0.75000000  0.62800000  0.24253500  1
  S  S17  1  0.25000000  0.37200000  0.75746500  1
  S  S18  1  0.25000000  0.87200000  0.74253500  1
  S  S19  1  0.75000000  0.12800000  0.25746500  1
  S  S20  1  0.75000000  0.95374900  0.41629000  1
  S  S21  1  0.25000000  0.04625100  0.58371000  1
  S  S22  1  0.25000000  0.54625100  0.91629000  1
  S  S23  1  0.75000000  0.45374900  0.08371000  1
  S  S24  1  0.75000000  0.80255200  0.98369200  1
  S  S25  1  0.25000000  0.19744800  0.01630800  1
  S  S26  1  0.25000000  0.69744800  0.48369200  1
  S  S27  1  0.75000000  0.30255200  0.51630800  1
