# generated using pymatgen
data_Pr2(MoO4)3
_symmetry_space_group_name_H-M   'P 1'
_cell_length_a   10.45143622
_cell_length_b   10.45143622
_cell_length_c   16.19557405
_cell_angle_alpha   74.96937785
_cell_angle_beta   74.96937785
_cell_angle_gamma   70.00692619
_symmetry_Int_Tables_number   1
_chemical_formula_structural   Pr2(MoO4)3
_chemical_formula_sum   'Pr12 Mo18 O72'
_cell_volume   1576.94710806
_cell_formula_units_Z   6
loop_
 _symmetry_equiv_pos_site_id
 _symmetry_equiv_pos_as_xyz
  1  'x, y, z'
loop_
 _atom_site_type_symbol
 _atom_site_label
 _atom_site_symmetry_multiplicity
 _atom_site_fract_x
 _atom_site_fract_y
 _atom_site_fract_z
 _atom_site_occupancy
  Pr  Pr0  1  0.61768200  0.36887400  0.08876500  1
  Pr  Pr1  1  0.38231800  0.63112600  0.91123500  1
  Pr  Pr2  1  0.63112600  0.38231800  0.41123500  1
  Pr  Pr3  1  0.36887400  0.61768200  0.58876500  1
  Pr  Pr4  1  0.71291000  0.95601600  0.47715400  1
  Pr  Pr5  1  0.28709000  0.04398400  0.52284600  1
  Pr  Pr6  1  0.04398400  0.28709000  0.02284600  1
  Pr  Pr7  1  0.95601600  0.71291000  0.97715400  1
  Pr  Pr8  1  0.29391000  0.03776100  0.19728100  1
  Pr  Pr9  1  0.70609000  0.96223900  0.80271900  1
  Pr  Pr10  1  0.96223900  0.70609000  0.30271900  1
  Pr  Pr11  1  0.03776100  0.29391000  0.69728100  1
  Mo  Mo12  1  0.54661600  0.79532200  0.36315000  1
  Mo  Mo13  1  0.45338400  0.20467800  0.63685000  1
  Mo  Mo14  1  0.20467800  0.45338400  0.13685000  1
  Mo  Mo15  1  0.79532200  0.54661600  0.86315000  1
  Mo  Mo16  1  0.46502800  0.20097000  0.30955800  1
  Mo  Mo17  1  0.53497200  0.79903000  0.69044200  1
  Mo  Mo18  1  0.79903000  0.53497200  0.19044200  1
  Mo  Mo19  1  0.20097000  0.46502800  0.80955800  1
  Mo  Mo20  1  0.87353900  0.12646100  0.25000000  1
  Mo  Mo21  1  0.12646100  0.87353900  0.75000000  1
  Mo  Mo22  1  0.54710200  0.77681600  0.03416000  1
  Mo  Mo23  1  0.45289800  0.22318400  0.96584000  1
  Mo  Mo24  1  0.22318400  0.45289800  0.46584000  1
  Mo  Mo25  1  0.77681600  0.54710200  0.53416000  1
  Mo  Mo26  1  0.13475300  0.87900400  0.07906900  1
  Mo  Mo27  1  0.86524700  0.12099600  0.92093100  1
  Mo  Mo28  1  0.12099600  0.86524700  0.42093100  1
  Mo  Mo29  1  0.87900400  0.13475300  0.57906900  1
  O  O30  1  0.24165700  0.84916400  0.32139700  1
  O  O31  1  0.75834300  0.15083600  0.67860300  1
  O  O32  1  0.15083600  0.75834300  0.17860300  1
  O  O33  1  0.84916400  0.24165700  0.82139700  1
  O  O34  1  0.53126400  0.61552900  0.01571000  1
  O  O35  1  0.46873600  0.38447100  0.98429000  1
  O  O36  1  0.38447100  0.46873600  0.48429000  1
  O  O37  1  0.61552900  0.53126400  0.51571000  1
  O  O38  1  0.71057200  0.80697500  0.37652300  1
  O  O39  1  0.28942800  0.19302500  0.62347700  1
  O  O40  1  0.19302500  0.28942800  0.12347700  1
  O  O41  1  0.80697500  0.71057200  0.87652300  1
  O  O42  1  0.46540000  0.10519900  0.06659900  1
  O  O43  1  0.53460000  0.89480100  0.93340100  1
  O  O44  1  0.89480100  0.53460000  0.43340100  1
  O  O45  1  0.10519900  0.46540000  0.56659900  1
  O  O46  1  0.71699100  0.75370400  0.05209300  1
  O  O47  1  0.28300900  0.24629600  0.94790700  1
  O  O48  1  0.24629600  0.28300900  0.44790700  1
  O  O49  1  0.75370400  0.71699100  0.55209300  1
  O  O50  1  0.46776900  0.35982200  0.33123900  1
  O  O51  1  0.53223100  0.64017800  0.66876100  1
  O  O52  1  0.64017800  0.53223100  0.16876100  1
  O  O53  1  0.35982200  0.46776900  0.83123900  1
  O  O54  1  0.56887900  0.62923000  0.34301500  1
  O  O55  1  0.43112100  0.37077000  0.65698500  1
  O  O56  1  0.37077000  0.43112100  0.15698500  1
  O  O57  1  0.62923000  0.56887900  0.84301500  1
  O  O58  1  0.72833800  0.18059300  0.00704900  1
  O  O59  1  0.27166200  0.81940700  0.99295100  1
  O  O60  1  0.81940700  0.27166200  0.49295100  1
  O  O61  1  0.18059300  0.72833800  0.50704900  1
  O  O62  1  0.31090200  0.19875600  0.28202500  1
  O  O63  1  0.68909800  0.80124400  0.71797500  1
  O  O64  1  0.80124400  0.68909800  0.21797500  1
  O  O65  1  0.19875600  0.31090200  0.78202500  1
  O  O66  1  0.57900800  0.18369800  0.53484100  1
  O  O67  1  0.42099200  0.81630200  0.46515900  1
  O  O68  1  0.81630200  0.42099200  0.96515900  1
  O  O69  1  0.18369800  0.57900800  0.03484100  1
  O  O70  1  0.59707500  0.17648100  0.21427100  1
  O  O71  1  0.40292500  0.82351900  0.78572900  1
  O  O72  1  0.82351900  0.40292500  0.28572900  1
  O  O73  1  0.17648100  0.59707500  0.71427100  1
  O  O74  1  0.74792000  0.15440200  0.35272700  1
  O  O75  1  0.25208000  0.84559800  0.64727300  1
  O  O76  1  0.84559800  0.25208000  0.14727300  1
  O  O77  1  0.15440200  0.74792000  0.85272700  1
  O  O78  1  0.41639900  0.84501900  0.12056800  1
  O  O79  1  0.58360100  0.15498100  0.87943200  1
  O  O80  1  0.15498100  0.58360100  0.37943200  1
  O  O81  1  0.84501900  0.41639900  0.62056800  1
  O  O82  1  0.87432000  0.97959700  0.55316700  1
  O  O83  1  0.12568000  0.02040300  0.44683300  1
  O  O84  1  0.02040300  0.12568000  0.94683300  1
  O  O85  1  0.97959700  0.87432000  0.05316700  1
  O  O86  1  0.13948100  0.04536400  0.09722000  1
  O  O87  1  0.86051900  0.95463600  0.90278000  1
  O  O88  1  0.95463600  0.86051900  0.40278000  1
  O  O89  1  0.04536400  0.13948100  0.59722000  1
  O  O90  1  0.49934000  0.06482300  0.40769100  1
  O  O91  1  0.50066000  0.93517700  0.59230900  1
  O  O92  1  0.93517700  0.50066000  0.09230900  1
  O  O93  1  0.06482300  0.49934000  0.90769100  1
  O  O94  1  0.48811700  0.92430100  0.27435200  1
  O  O95  1  0.51188300  0.07569900  0.72564800  1
  O  O96  1  0.07569900  0.51188300  0.22564800  1
  O  O97  1  0.92430100  0.48811700  0.77435200  1
  O  O98  1  0.88707600  0.96095100  0.23387000  1
  O  O99  1  0.11292400  0.03904900  0.76613000  1
  O  O100  1  0.03904900  0.11292400  0.26613000  1
  O  O101  1  0.96095100  0.88707600  0.73387000  1
