# generated using pymatgen
data_Nd(BrO2)3
_symmetry_space_group_name_H-M   'P 1'
_cell_length_a   6.46183000
_cell_length_b   5.91740199
_cell_length_c   11.27272316
_cell_angle_alpha   77.41406799
_cell_angle_beta   90.00000000
_cell_angle_gamma   90.00000000
_symmetry_Int_Tables_number   1
_chemical_formula_structural   Nd(BrO2)3
_chemical_formula_sum   'Nd2 Br6 O12'
_cell_volume   420.68017105
_cell_formula_units_Z   2
loop_
 _symmetry_equiv_pos_site_id
 _symmetry_equiv_pos_as_xyz
  1  'x, y, z'
loop_
 _atom_site_type_symbol
 _atom_site_label
 _atom_site_symmetry_multiplicity
 _atom_site_fract_x
 _atom_site_fract_y
 _atom_site_fract_z
 _atom_site_occupancy
  Nd  Nd0  1  0.32225800  0.25000000  0.75000000  1
  Nd  Nd1  1  0.67774200  0.75000000  0.25000000  1
  Br  Br2  1  0.20398000  0.74214800  0.45221700  1
  Br  Br3  1  0.79602000  0.25785200  0.54778300  1
  Br  Br4  1  0.20398000  0.75785200  0.04778300  1
  Br  Br5  1  0.79602000  0.24214800  0.95221700  1
  Br  Br6  1  0.91236100  0.75000000  0.75000000  1
  Br  Br7  1  0.08763900  0.25000000  0.25000000  1
  O  O8  1  0.06959700  0.99091400  0.69434200  1
  O  O9  1  0.93040400  0.00908600  0.30565800  1
  O  O10  1  0.06959700  0.50908600  0.80565800  1
  O  O11  1  0.93040400  0.49091400  0.19434200  1
  O  O12  1  0.58918500  0.38008100  0.86250100  1
  O  O13  1  0.41081500  0.61991900  0.13749900  1
  O  O14  1  0.58918500  0.11991900  0.63749900  1
  O  O15  1  0.41081500  0.88008100  0.36250100  1
  O  O16  1  0.29220300  0.98231900  0.93305200  1
  O  O17  1  0.70779700  0.01768100  0.06694800  1
  O  O18  1  0.29220300  0.51768100  0.56694800  1
  O  O19  1  0.70779700  0.48231900  0.43305200  1
