# generated using pymatgen
data_Na3La(AsO4)2
_symmetry_space_group_name_H-M   'P 1'
_cell_length_a   5.98317341
_cell_length_b   5.98317341
_cell_length_c   7.46123500
_cell_angle_alpha   90.00000000
_cell_angle_beta   90.00000000
_cell_angle_gamma   119.99999350
_symmetry_Int_Tables_number   1
_chemical_formula_structural   Na3La(AsO4)2
_chemical_formula_sum   'Na3 La1 As2 O8'
_cell_volume   231.31540656
_cell_formula_units_Z   1
loop_
 _symmetry_equiv_pos_site_id
 _symmetry_equiv_pos_as_xyz
  1  'x, y, z'
loop_
 _atom_site_type_symbol
 _atom_site_label
 _atom_site_symmetry_multiplicity
 _atom_site_fract_x
 _atom_site_fract_y
 _atom_site_fract_z
 _atom_site_occupancy
  Na  Na0  1  0.33333300  0.66666700  0.70327900  1
  Na  Na1  1  0.66666700  0.33333300  0.29672100  1
  Na  Na2  1  0.00000000  0.00000000  0.00000000  1
  La  La3  1  0.00000000  0.00000000  0.50000000  1
  As  As4  1  0.33333300  0.66666700  0.21512200  1
  As  As5  1  0.66666700  0.33333300  0.78487800  1
  O  O6  1  0.33333300  0.66666700  0.99137100  1
  O  O7  1  0.66666700  0.33333300  0.00862900  1
  O  O8  1  0.17896100  0.82103900  0.30524800  1
  O  O9  1  0.82103900  0.17896100  0.69475200  1
  O  O10  1  0.17896100  0.35792300  0.30524800  1
  O  O11  1  0.82103900  0.64207700  0.69475200  1
  O  O12  1  0.64207700  0.82103900  0.30524800  1
  O  O13  1  0.35792300  0.17896100  0.69475200  1
