# generated using pymatgen
data_NaMg3Si3HO10
_symmetry_space_group_name_H-M   'P 1'
_cell_length_a   8.95047056
_cell_length_b   9.73276719
_cell_length_c   10.41047443
_cell_angle_alpha   65.85921636
_cell_angle_beta   83.57145942
_cell_angle_gamma   64.16504800
_symmetry_Int_Tables_number   1
_chemical_formula_structural   NaMg3Si3HO10
_chemical_formula_sum   'Na4 Mg12 Si12 H4 O40'
_cell_volume   742.43154681
_cell_formula_units_Z   4
loop_
 _symmetry_equiv_pos_site_id
 _symmetry_equiv_pos_as_xyz
  1  'x, y, z'
loop_
 _atom_site_type_symbol
 _atom_site_label
 _atom_site_symmetry_multiplicity
 _atom_site_fract_x
 _atom_site_fract_y
 _atom_site_fract_z
 _atom_site_occupancy
  Na  Na0  1  0.00000000  0.50000000  0.50000000  1
  Na  Na1  1  0.16444600  0.14787400  0.54275400  1
  Na  Na2  1  0.83555400  0.85212600  0.45724600  1
  Na  Na3  1  0.50000000  0.00000000  0.00000000  1
  Mg  Mg4  1  0.36705600  0.33491200  0.44379900  1
  Mg  Mg5  1  0.63294400  0.66508800  0.55620100  1
  Mg  Mg6  1  0.25804500  0.26853700  0.74262700  1
  Mg  Mg7  1  0.74195500  0.73146300  0.25737300  1
  Mg  Mg8  1  0.06428300  0.05909300  0.35087000  1
  Mg  Mg9  1  0.93571700  0.94090700  0.64913000  1
  Mg  Mg10  1  0.65925900  0.63435200  0.04220200  1
  Mg  Mg11  1  0.34074100  0.36564800  0.95779800  1
  Mg  Mg12  1  0.04528600  0.05838900  0.84390000  1
  Mg  Mg13  1  0.95471400  0.94161100  0.15610000  1
  Mg  Mg14  1  0.15073300  0.16412000  0.05573600  1
  Mg  Mg15  1  0.84926700  0.83588000  0.94426400  1
  Si  Si16  1  0.25384900  0.65347900  0.54851400  1
  Si  Si17  1  0.74615100  0.34652100  0.45148600  1
  Si  Si18  1  0.43934700  0.05578000  0.30095400  1
  Si  Si19  1  0.56065300  0.94422000  0.69904600  1
  Si  Si20  1  0.23251000  0.65941500  0.05712600  1
  Si  Si21  1  0.76749000  0.34058500  0.94287400  1
  Si  Si22  1  0.66477100  0.23861700  0.24370900  1
  Si  Si23  1  0.33522900  0.76138300  0.75629100  1
  Si  Si24  1  0.35467700  0.75372600  0.25054900  1
  Si  Si25  1  0.64532300  0.24627400  0.74945100  1
  Si  Si26  1  0.05835000  0.43886800  0.19246600  1
  Si  Si27  1  0.94165000  0.56113200  0.80753400  1
  H  H28  1  0.65746300  0.05305700  0.07834000  1
  H  H29  1  0.34253700  0.94694300  0.92166000  1
  H  H30  1  0.05979200  0.64071800  0.30513000  1
  H  H31  1  0.94020800  0.35928200  0.69487000  1
  O  O32  1  0.14289200  0.40181700  0.34092000  1
  O  O33  1  0.85710800  0.59818300  0.65908000  1
  O  O34  1  0.06601400  0.83193400  0.00950500  1
  O  O35  1  0.93398600  0.16806600  0.99049500  1
  O  O36  1  0.12527500  0.39262800  0.86994600  1
  O  O37  1  0.87472500  0.60737200  0.13005400  1
  O  O38  1  0.50598000  0.19534500  0.31510400  1
  O  O39  1  0.49402000  0.80465500  0.68489600  1
  O  O40  1  0.24589800  0.48304200  0.56370500  1
  O  O41  1  0.75410200  0.51695800  0.43629500  1
  O  O42  1  0.65237700  0.37867000  0.30155300  1
  O  O43  1  0.34762300  0.62133000  0.69844700  1
  O  O44  1  0.62632100  0.33676700  0.06453100  1
  O  O45  1  0.37367900  0.66323300  0.93546900  1
  O  O46  1  0.38966200  0.67813200  0.42493600  1
  O  O47  1  0.61033800  0.32186800  0.57506400  1
  O  O48  1  0.18506400  0.92892200  0.20632100  1
  O  O49  1  0.81493600  0.07107800  0.79367900  1
  O  O50  1  0.38885600  0.14363000  0.12750600  1
  O  O51  1  0.61114400  0.85637000  0.87249400  1
  O  O52  1  0.52174500  0.75013200  0.16885600  1
  O  O53  1  0.47825500  0.24986700  0.83114400  1
  O  O54  1  0.04078100  0.28635900  0.18056000  1
  O  O55  1  0.95921900  0.71364100  0.81944000  1
  O  O56  1  0.25564900  0.05488900  0.91320300  1
  O  O57  1  0.74435100  0.94511100  0.08679700  1
  O  O58  1  0.19811800  0.49893700  0.07428800  1
  O  O59  1  0.80188200  0.50106300  0.92571200  1
  O  O60  1  0.39925700  0.12910400  0.63510600  1
  O  O61  1  0.60074300  0.87089600  0.36489400  1
  O  O62  1  0.28804100  0.04293700  0.39275900  1
  O  O63  1  0.71195900  0.95706300  0.60724100  1
  O  O64  1  0.08789000  0.82660300  0.51432500  1
  O  O65  1  0.91211000  0.17339700  0.48567500  1
  O  O66  1  0.31224500  0.62027800  0.21118000  1
  O  O67  1  0.68775500  0.37972200  0.78882000  1
  O  O68  1  0.84183700  0.08202400  0.27386600  1
  O  O69  1  0.15816300  0.91797600  0.72613400  1
  O  O70  1  0.04150500  0.26747100  0.69005200  1
  O  O71  1  0.95849500  0.73252900  0.30994800  1
