# generated using pymatgen
data_Na2CoSiO4
_symmetry_space_group_name_H-M   'P 1'
_cell_length_a   5.38166100
_cell_length_b   12.25845300
_cell_length_c   6.30058300
_cell_angle_alpha   90.00006909
_cell_angle_beta   90.00000909
_cell_angle_gamma   90.00003402
_symmetry_Int_Tables_number   1
_chemical_formula_structural   Na2CoSiO4
_chemical_formula_sum   'Na8 Co4 Si4 O16'
_cell_volume   415.65474311
_cell_formula_units_Z   4
loop_
 _symmetry_equiv_pos_site_id
 _symmetry_equiv_pos_as_xyz
  1  'x, y, z'
loop_
 _atom_site_type_symbol
 _atom_site_label
 _atom_site_symmetry_multiplicity
 _atom_site_fract_x
 _atom_site_fract_y
 _atom_site_fract_z
 _atom_site_occupancy
  Na  Na0  1  0.49827700  0.41558100  0.74807600  1
  Na  Na1  1  0.49828000  0.91558600  0.74807100  1
  Na  Na2  1  0.99827300  0.08442500  0.75193100  1
  Na  Na3  1  0.99827200  0.58441000  0.75192100  1
  Na  Na4  1  0.99827500  0.08442000  0.24806300  1
  Na  Na5  1  0.99826900  0.58442000  0.24807700  1
  Na  Na6  1  0.49826600  0.41557000  0.25193100  1
  Na  Na7  1  0.49827000  0.91558200  0.25192600  1
  Co  Co8  1  0.50563800  0.67848500  0.00000200  1
  Co  Co9  1  0.00563700  0.82151600  0.50000100  1
  Co  Co10  1  0.50563200  0.17848600  0.00000100  1
  Co  Co11  1  0.00562900  0.32151400  0.50000000  1
  Si  Si12  1  0.00762600  0.32858700  0.00000200  1
  Si  Si13  1  0.00762400  0.82859400  0.99999900  1
  Si  Si14  1  0.50763000  0.17141300  0.50000100  1
  Si  Si15  1  0.50762700  0.67140900  0.50000000  1
  O  O16  1  0.86982300  0.20829500  0.99999900  1
  O  O17  1  0.86982500  0.70830300  0.99999600  1
  O  O18  1  0.36982600  0.29170500  0.50000200  1
  O  O19  1  0.36982500  0.79169900  0.49999900  1
  O  O20  1  0.31164600  0.31350200  0.00000000  1
  O  O21  1  0.31164200  0.81349300  0.99999800  1
  O  O22  1  0.81164700  0.18649900  0.49999900  1
  O  O23  1  0.81164200  0.68650800  0.50000100  1
  O  O24  1  0.93060300  0.39879700  0.78213400  1
  O  O25  1  0.93062100  0.89880000  0.78213400  1
  O  O26  1  0.43060300  0.10120300  0.71786800  1
  O  O27  1  0.43062000  0.60119700  0.71786900  1
  O  O28  1  0.43060400  0.10120300  0.28213200  1
  O  O29  1  0.43062200  0.60119900  0.28213200  1
  O  O30  1  0.93060400  0.39879800  0.21786600  1
  O  O31  1  0.93062000  0.89880100  0.21786700  1
