# generated using pymatgen
data_Na4Al3Si3NO12
_symmetry_space_group_name_H-M   'P 1'
_cell_length_a   8.91747100
_cell_length_b   8.91747100
_cell_length_c   8.91747100
_cell_angle_alpha   90.00000000
_cell_angle_beta   90.00000000
_cell_angle_gamma   90.00000000
_symmetry_Int_Tables_number   1
_chemical_formula_structural   Na4Al3Si3NO12
_chemical_formula_sum   'Na8 Al6 Si6 N2 O24'
_cell_volume   709.12878886
_cell_formula_units_Z   2
loop_
 _symmetry_equiv_pos_site_id
 _symmetry_equiv_pos_as_xyz
  1  'x, y, z'
loop_
 _atom_site_type_symbol
 _atom_site_label
 _atom_site_symmetry_multiplicity
 _atom_site_fract_x
 _atom_site_fract_y
 _atom_site_fract_z
 _atom_site_occupancy
  Na  Na0  1  0.17070900  0.17070900  0.17070900  1
  Na  Na1  1  0.82929100  0.82929100  0.17070900  1
  Na  Na2  1  0.82929100  0.17070900  0.82929100  1
  Na  Na3  1  0.67070900  0.67070900  0.67070900  1
  Na  Na4  1  0.17070900  0.82929100  0.82929100  1
  Na  Na5  1  0.32929100  0.32929100  0.67070900  1
  Na  Na6  1  0.67070900  0.32929100  0.32929100  1
  Na  Na7  1  0.32929100  0.67070900  0.32929100  1
  Al  Al8  1  0.25000000  0.00000000  0.50000000  1
  Al  Al9  1  0.75000000  0.00000000  0.50000000  1
  Al  Al10  1  0.50000000  0.25000000  0.00000000  1
  Al  Al11  1  0.50000000  0.75000000  0.00000000  1
  Al  Al12  1  0.00000000  0.50000000  0.25000000  1
  Al  Al13  1  0.00000000  0.50000000  0.75000000  1
  Si  Si14  1  0.25000000  0.50000000  0.00000000  1
  Si  Si15  1  0.75000000  0.50000000  0.00000000  1
  Si  Si16  1  0.00000000  0.25000000  0.50000000  1
  Si  Si17  1  0.00000000  0.75000000  0.50000000  1
  Si  Si18  1  0.50000000  0.00000000  0.25000000  1
  Si  Si19  1  0.50000000  0.00000000  0.75000000  1
  N  N20  1  0.00000000  0.00000000  0.00000000  1
  N  N21  1  0.50000000  0.50000000  0.50000000  1
  O  O22  1  0.13807300  0.14841000  0.43294400  1
  O  O23  1  0.86192700  0.85159000  0.43294400  1
  O  O24  1  0.86192700  0.14841000  0.56705600  1
  O  O25  1  0.43294400  0.13807300  0.14841000  1
  O  O26  1  0.64841000  0.63807300  0.93294400  1
  O  O27  1  0.13807300  0.85159000  0.56705600  1
  O  O28  1  0.43294400  0.86192700  0.85159000  1
  O  O29  1  0.35159000  0.36192700  0.93294400  1
  O  O30  1  0.56705600  0.86192700  0.14841000  1
  O  O31  1  0.64841000  0.36192700  0.06705600  1
  O  O32  1  0.56705600  0.13807300  0.85159000  1
  O  O33  1  0.35159000  0.63807300  0.06705600  1
  O  O34  1  0.14841000  0.43294400  0.13807300  1
  O  O35  1  0.63807300  0.93294400  0.64841000  1
  O  O36  1  0.14841000  0.56705600  0.86192700  1
  O  O37  1  0.36192700  0.06705600  0.64841000  1
  O  O38  1  0.85159000  0.56705600  0.13807300  1
  O  O39  1  0.63807300  0.06705600  0.35159000  1
  O  O40  1  0.85159000  0.43294400  0.86192700  1
  O  O41  1  0.36192700  0.93294400  0.35159000  1
  O  O42  1  0.93294400  0.64841000  0.63807300  1
  O  O43  1  0.93294400  0.35159000  0.36192700  1
  O  O44  1  0.06705600  0.35159000  0.63807300  1
  O  O45  1  0.06705600  0.64841000  0.36192700  1
