# generated using pymatgen
data_Na2ZrSi6O19
_symmetry_space_group_name_H-M   'P 1'
_cell_length_a   7.57185240
_cell_length_b   7.57185240
_cell_length_c   7.50405546
_cell_angle_alpha   86.74163476
_cell_angle_beta   86.74163476
_cell_angle_gamma   88.27279176
_symmetry_Int_Tables_number   1
_chemical_formula_structural   Na2ZrSi6O19
_chemical_formula_sum   'Na2 Zr1 Si6 O19'
_cell_volume   428.68340709
_cell_formula_units_Z   1
loop_
 _symmetry_equiv_pos_site_id
 _symmetry_equiv_pos_as_xyz
  1  'x, y, z'
loop_
 _atom_site_type_symbol
 _atom_site_label
 _atom_site_symmetry_multiplicity
 _atom_site_fract_x
 _atom_site_fract_y
 _atom_site_fract_z
 _atom_site_occupancy
  Na  Na0  1  0.49431600  0.00957800  0.00180200  1
  Na  Na1  1  0.99042200  0.50568400  0.99819800  1
  Zr  Zr2  1  0.00166400  0.99833600  0.00000000  1
  Si  Si3  1  0.29530000  0.73978300  0.28478100  1
  Si  Si4  1  0.26021700  0.70470000  0.71521900  1
  Si  Si5  1  0.71553900  0.70549300  0.27949100  1
  Si  Si6  1  0.29450700  0.28446100  0.72050900  1
  Si  Si7  1  0.73968500  0.27821500  0.28954700  1
  Si  Si8  1  0.72178500  0.26031500  0.71045300  1
  O  O9  1  0.83775400  0.80954600  0.12777900  1
  O  O10  1  0.19045400  0.16224600  0.87222100  1
  O  O11  1  0.01505500  0.98494500  0.50000000  1
  O  O12  1  0.90034800  0.19343300  0.16693100  1
  O  O13  1  0.80656700  0.09965200  0.83306900  1
  O  O14  1  0.19896600  0.90562000  0.17908100  1
  O  O15  1  0.09438000  0.80103400  0.82091900  1
  O  O16  1  0.77005500  0.22994500  0.50000000  1
  O  O17  1  0.55461100  0.20171100  0.22843400  1
  O  O18  1  0.79828900  0.44538900  0.77156600  1
  O  O19  1  0.26012600  0.73987400  0.50000000  1
  O  O20  1  0.74817200  0.49345600  0.25411900  1
  O  O21  1  0.50654400  0.25182800  0.74588100  1
  O  O22  1  0.42837200  0.78809700  0.80405000  1
  O  O23  1  0.21190300  0.57162800  0.19595000  1
  O  O24  1  0.50849500  0.75650400  0.24072400  1
  O  O25  1  0.24349600  0.49150500  0.75927600  1
  O  O26  1  0.75182100  0.75384000  0.48560100  1
  O  O27  1  0.24616000  0.24817900  0.51439900  1
