# generated using pymatgen
data_Na3(CO3)2
_symmetry_space_group_name_H-M   'P 1'
_cell_length_a   10.37876264
_cell_length_b   10.37876264
_cell_length_c   9.67864549
_cell_angle_alpha   78.59507427
_cell_angle_beta   78.59507427
_cell_angle_gamma   20.56720231
_symmetry_Int_Tables_number   1
_chemical_formula_structural   Na3(CO3)2
_chemical_formula_sum   'Na6 C4 O12'
_cell_volume   358.78860752
_cell_formula_units_Z   2
loop_
 _symmetry_equiv_pos_site_id
 _symmetry_equiv_pos_as_xyz
  1  'x, y, z'
loop_
 _atom_site_type_symbol
 _atom_site_label
 _atom_site_symmetry_multiplicity
 _atom_site_fract_x
 _atom_site_fract_y
 _atom_site_fract_z
 _atom_site_occupancy
  Na  Na0  1  0.52252000  0.18171100  0.42883700  1
  Na  Na1  1  0.47748000  0.81828900  0.57116300  1
  Na  Na2  1  0.81828900  0.47748000  0.07116300  1
  Na  Na3  1  0.18171100  0.52252000  0.92883700  1
  Na  Na4  1  0.26442100  0.73557900  0.25000000  1
  Na  Na5  1  0.73557900  0.26442100  0.75000000  1
  C  C6  1  0.66910100  0.13481800  0.10133500  1
  C  C7  1  0.33089900  0.86518200  0.89866500  1
  C  C8  1  0.86518200  0.33089900  0.39866500  1
  C  C9  1  0.13481800  0.66910100  0.60133500  1
  O  O10  1  0.40973700  0.70760400  0.01153900  1
  O  O11  1  0.59026300  0.29239600  0.98846100  1
  O  O12  1  0.29239600  0.59026300  0.48846100  1
  O  O13  1  0.70760400  0.40973700  0.51153900  1
  O  O14  1  0.70166100  0.14028900  0.21978000  1
  O  O15  1  0.29833900  0.85971100  0.78022000  1
  O  O16  1  0.85971100  0.29833900  0.28022000  1
  O  O17  1  0.14028900  0.70166100  0.71978000  1
  O  O18  1  0.70065300  0.98323200  0.08818100  1
  O  O19  1  0.29934700  0.01676800  0.91181900  1
  O  O20  1  0.01676800  0.29934700  0.41181900  1
  O  O21  1  0.98323200  0.70065300  0.58818100  1
