# generated using pymatgen
data_Na3P3HO9
_symmetry_space_group_name_H-M   'P 1'
_cell_length_a   7.63647300
_cell_length_b   8.33870600
_cell_length_c   13.37711700
_cell_angle_alpha   90.00000000
_cell_angle_beta   90.00000000
_cell_angle_gamma   90.00000000
_symmetry_Int_Tables_number   1
_chemical_formula_structural   Na3P3HO9
_chemical_formula_sum   'Na12 P12 H4 O36'
_cell_volume   851.83211259
_cell_formula_units_Z   4
loop_
 _symmetry_equiv_pos_site_id
 _symmetry_equiv_pos_as_xyz
  1  'x, y, z'
loop_
 _atom_site_type_symbol
 _atom_site_label
 _atom_site_symmetry_multiplicity
 _atom_site_fract_x
 _atom_site_fract_y
 _atom_site_fract_z
 _atom_site_occupancy
  Na  Na0  1  0.31815900  0.01098500  0.08092600  1
  Na  Na1  1  0.68184100  0.98901500  0.91907400  1
  Na  Na2  1  0.18184100  0.98901500  0.58092600  1
  Na  Na3  1  0.68184100  0.51098500  0.91907400  1
  Na  Na4  1  0.81815900  0.01098500  0.41907400  1
  Na  Na5  1  0.31815900  0.48901500  0.08092600  1
  Na  Na6  1  0.81815900  0.48901500  0.41907400  1
  Na  Na7  1  0.18184100  0.51098500  0.58092600  1
  Na  Na8  1  0.46419700  0.25000000  0.72789300  1
  Na  Na9  1  0.53580300  0.75000000  0.27210700  1
  Na  Na10  1  0.03580300  0.75000000  0.22789300  1
  Na  Na11  1  0.96419700  0.25000000  0.77210700  1
  P  P12  1  0.26163100  0.07601900  0.33681200  1
  P  P13  1  0.73836900  0.92398100  0.66318800  1
  P  P14  1  0.23836900  0.92398100  0.83681200  1
  P  P15  1  0.73836900  0.57601900  0.66318800  1
  P  P16  1  0.76163100  0.07601900  0.16318800  1
  P  P17  1  0.26163100  0.42398100  0.33681200  1
  P  P18  1  0.76163100  0.42398100  0.16318800  1
  P  P19  1  0.23836900  0.57601900  0.83681200  1
  P  P20  1  0.99696600  0.25000000  0.03049200  1
  P  P21  1  0.00303400  0.75000000  0.96950800  1
  P  P22  1  0.50303400  0.75000000  0.53049200  1
  P  P23  1  0.49696600  0.25000000  0.46950800  1
  H  H24  1  0.00589700  0.25000000  0.58310000  1
  H  H25  1  0.99410300  0.75000000  0.41690000  1
  H  H26  1  0.49410300  0.75000000  0.08310000  1
  H  H27  1  0.50589700  0.25000000  0.91690000  1
  O  O28  1  0.24784700  0.25000000  0.28055000  1
  O  O29  1  0.75215300  0.75000000  0.71945000  1
  O  O30  1  0.25215300  0.75000000  0.78055000  1
  O  O31  1  0.74784700  0.25000000  0.21945000  1
  O  O32  1  0.38231900  0.25000000  0.56073400  1
  O  O33  1  0.61768100  0.75000000  0.43926600  1
  O  O34  1  0.11768100  0.75000000  0.06073400  1
  O  O35  1  0.88231900  0.25000000  0.93926600  1
  O  O36  1  0.19221000  0.25000000  0.02183400  1
  O  O37  1  0.80779000  0.75000000  0.97816600  1
  O  O38  1  0.30779000  0.75000000  0.52183400  1
  O  O39  1  0.69221000  0.25000000  0.47816600  1
  O  O40  1  0.44663000  0.09820200  0.39734100  1
  O  O41  1  0.55337000  0.90179800  0.60265900  1
  O  O42  1  0.05337000  0.90179800  0.89734100  1
  O  O43  1  0.55337000  0.59820200  0.60265900  1
  O  O44  1  0.94663000  0.09820200  0.10265900  1
  O  O45  1  0.44663000  0.40179800  0.39734100  1
  O  O46  1  0.94663000  0.40179800  0.10265900  1
  O  O47  1  0.05337000  0.59820200  0.89734100  1
  O  O48  1  0.29183500  0.54880800  0.25747000  1
  O  O49  1  0.70816500  0.45119200  0.74253000  1
  O  O50  1  0.20816500  0.45119200  0.75747000  1
  O  O51  1  0.70816500  0.04880800  0.74253000  1
  O  O52  1  0.79183500  0.54880800  0.24253000  1
  O  O53  1  0.29183500  0.95119200  0.25747000  1
  O  O54  1  0.79183500  0.95119200  0.24253000  1
  O  O55  1  0.20816500  0.04880800  0.75747000  1
  O  O56  1  0.11575000  0.05562000  0.41013400  1
  O  O57  1  0.88425000  0.94438000  0.58986600  1
  O  O58  1  0.38425000  0.94438000  0.91013400  1
  O  O59  1  0.88425000  0.55562000  0.58986600  1
  O  O60  1  0.61575000  0.05562000  0.08986600  1
  O  O61  1  0.11575000  0.44438000  0.41013400  1
  O  O62  1  0.61575000  0.44438000  0.08986600  1
  O  O63  1  0.38425000  0.55562000  0.91013400  1
