# generated using pymatgen
data_NaZnBP2O9
_symmetry_space_group_name_H-M   'P 1'
_cell_length_a   9.66243150
_cell_length_b   9.66243150
_cell_length_c   14.90031700
_cell_angle_alpha   90.00000000
_cell_angle_beta   90.00000000
_cell_angle_gamma   119.99999659
_symmetry_Int_Tables_number   1
_chemical_formula_structural   NaZnBP2O9
_chemical_formula_sum   'Na6 Zn6 B6 P12 O54'
_cell_volume   1204.75575903
_cell_formula_units_Z   6
loop_
 _symmetry_equiv_pos_site_id
 _symmetry_equiv_pos_as_xyz
  1  'x, y, z'
loop_
 _atom_site_type_symbol
 _atom_site_label
 _atom_site_symmetry_multiplicity
 _atom_site_fract_x
 _atom_site_fract_y
 _atom_site_fract_z
 _atom_site_occupancy
  Na  Na0  1  0.21927800  0.43855600  0.25000000  1
  Na  Na1  1  0.56144400  0.78072200  0.58333300  1
  Na  Na2  1  0.78072200  0.56144400  0.75000000  1
  Na  Na3  1  0.43855600  0.21927800  0.08333300  1
  Na  Na4  1  0.21927800  0.78072200  0.91666700  1
  Na  Na5  1  0.78072200  0.21927800  0.41666700  1
  Zn  Zn6  1  0.51521300  0.03042700  0.25000000  1
  Zn  Zn7  1  0.96957300  0.48478700  0.58333300  1
  Zn  Zn8  1  0.48478700  0.96957300  0.75000000  1
  Zn  Zn9  1  0.03042700  0.51521300  0.08333300  1
  Zn  Zn10  1  0.51521300  0.48478700  0.91666700  1
  Zn  Zn11  1  0.48478700  0.51521300  0.41666700  1
  B  B12  1  0.83657100  0.67314100  0.25000000  1
  B  B13  1  0.32685900  0.16342900  0.58333300  1
  B  B14  1  0.16342900  0.32685900  0.75000000  1
  B  B15  1  0.67314100  0.83657100  0.08333300  1
  B  B16  1  0.83657100  0.16342900  0.91666700  1
  B  B17  1  0.16342900  0.83657100  0.41666700  1
  P  P18  1  0.38940600  0.15990100  0.40514100  1
  P  P19  1  0.84009900  0.22950500  0.73847500  1
  P  P20  1  0.61059400  0.84009900  0.90514100  1
  P  P21  1  0.15990100  0.38940600  0.92819200  1
  P  P22  1  0.77049500  0.61059400  0.07180800  1
  P  P23  1  0.15990100  0.77049500  0.23847500  1
  P  P24  1  0.22950500  0.84009900  0.59485900  1
  P  P25  1  0.84009900  0.61059400  0.42819200  1
  P  P26  1  0.22950500  0.38940600  0.57180800  1
  P  P27  1  0.77049500  0.15990100  0.09485900  1
  P  P28  1  0.61059400  0.77049500  0.26152500  1
  P  P29  1  0.38940600  0.22950500  0.76152500  1
  O  O30  1  0.52736300  0.15017100  0.35974100  1
  O  O31  1  0.84982900  0.37719200  0.69307500  1
  O  O32  1  0.47263700  0.84982900  0.85974100  1
  O  O33  1  0.15017100  0.52736300  0.97359200  1
  O  O34  1  0.62280800  0.47263700  0.02640800  1
  O  O35  1  0.15017100  0.62280800  0.19307500  1
  O  O36  1  0.37719200  0.84982900  0.64025900  1
  O  O37  1  0.84982900  0.47263700  0.47359200  1
  O  O38  1  0.37719200  0.52736300  0.52640800  1
  O  O39  1  0.62280800  0.15017100  0.14025900  1
  O  O40  1  0.47263700  0.62280800  0.30692500  1
  O  O41  1  0.52736300  0.37719200  0.80692500  1
  O  O42  1  0.37020400  0.29810400  0.36796500  1
  O  O43  1  0.70189600  0.07210000  0.70129900  1
  O  O44  1  0.62979600  0.70189600  0.86796500  1
  O  O45  1  0.29810400  0.37020400  0.96536800  1
  O  O46  1  0.92790000  0.62979600  0.03463200  1
  O  O47  1  0.29810400  0.92790000  0.20129900  1
  O  O48  1  0.07210000  0.70189600  0.63203500  1
  O  O49  1  0.70189600  0.62979600  0.46536800  1
  O  O50  1  0.07210000  0.37020400  0.53463200  1
  O  O51  1  0.92790000  0.29810400  0.13203500  1
  O  O52  1  0.62979600  0.92790000  0.29870100  1
  O  O53  1  0.37020400  0.07210000  0.79870100  1
  O  O54  1  0.22523600  0.00574700  0.39270600  1
  O  O55  1  0.99425300  0.21948900  0.72604000  1
  O  O56  1  0.77476400  0.99425300  0.89270600  1
  O  O57  1  0.00574700  0.22523600  0.94062700  1
  O  O58  1  0.78051100  0.77476400  0.05937300  1
  O  O59  1  0.00574700  0.78051100  0.22604000  1
  O  O60  1  0.21948900  0.99425300  0.60729400  1
  O  O61  1  0.99425300  0.77476400  0.44062700  1
  O  O62  1  0.21948900  0.22523600  0.55937300  1
  O  O63  1  0.78051100  0.00574700  0.10729400  1
  O  O64  1  0.77476400  0.78051100  0.27396000  1
  O  O65  1  0.22523600  0.21948900  0.77396000  1
  O  O66  1  0.43452200  0.18483900  0.50750700  1
  O  O67  1  0.81516100  0.24968300  0.84084100  1
  O  O68  1  0.56547800  0.81516100  0.00750700  1
  O  O69  1  0.18483900  0.43452200  0.82582600  1
  O  O70  1  0.75031700  0.56547800  0.17417400  1
  O  O71  1  0.18483900  0.75031700  0.34084100  1
  O  O72  1  0.24968300  0.81516100  0.49249300  1
  O  O73  1  0.81516100  0.56547800  0.32582600  1
  O  O74  1  0.24968300  0.43452200  0.67417400  1
  O  O75  1  0.75031700  0.18483900  0.99249300  1
  O  O76  1  0.56547800  0.75031700  0.15915900  1
  O  O77  1  0.43452200  0.24968300  0.65915900  1
  O  O78  1  0.23591200  0.00000000  0.00000000  1
  O  O79  1  0.00000000  0.23591200  0.33333300  1
  O  O80  1  0.76408800  0.00000000  0.50000000  1
  O  O81  1  0.76408800  0.76408800  0.66666700  1
  O  O82  1  0.00000000  0.76408800  0.83333300  1
  O  O83  1  0.23591200  0.23591200  0.16666700  1
