# generated using pymatgen
data_NaCu5Sb2As6(H9O17)2
_symmetry_space_group_name_H-M   'P 1'
_cell_length_a   7.17727700
_cell_length_b   10.02583688
_cell_length_c   10.99138682
_cell_angle_alpha   107.70163811
_cell_angle_beta   104.30545112
_cell_angle_gamma   93.91022348
_symmetry_Int_Tables_number   1
_chemical_formula_structural   NaCu5Sb2As6(H9O17)2
_chemical_formula_sum   'Na1 Cu5 Sb2 As6 H18 O34'
_cell_volume   721.25537836
_cell_formula_units_Z   1
loop_
 _symmetry_equiv_pos_site_id
 _symmetry_equiv_pos_as_xyz
  1  'x, y, z'
loop_
 _atom_site_type_symbol
 _atom_site_label
 _atom_site_symmetry_multiplicity
 _atom_site_fract_x
 _atom_site_fract_y
 _atom_site_fract_z
 _atom_site_occupancy
  Na  Na0  1  0.00000000  0.00000000  0.00000000  1
  Cu  Cu1  1  0.50000000  0.50000000  0.50000000  1
  Cu  Cu2  1  0.07777500  0.38902500  0.18106900  1
  Cu  Cu3  1  0.92222500  0.61097500  0.81893100  1
  Cu  Cu4  1  0.00000000  0.50000000  0.50000000  1
  Cu  Cu5  1  0.50000000  0.50000000  0.00000000  1
  Sb  Sb6  1  0.00000000  0.00000000  0.50000000  1
  Sb  Sb7  1  0.50000000  0.00000000  0.50000000  1
  As  As8  1  0.20674400  0.19791600  0.35203600  1
  As  As9  1  0.79325600  0.80208400  0.64796400  1
  As  As10  1  0.64731200  0.35420600  0.22706100  1
  As  As11  1  0.35268800  0.64579400  0.77293900  1
  As  As12  1  0.16089400  0.70461800  0.35054200  1
  As  As13  1  0.83910600  0.29538200  0.64945800  1
  H  H14  1  0.34529600  0.05463500  0.93964600  1
  H  H15  1  0.65470400  0.94536500  0.06035400  1
  H  H16  1  0.18226600  0.02903800  0.80889300  1
  H  H17  1  0.81773400  0.97096200  0.19110700  1
  H  H18  1  0.18803700  0.25751800  0.97282100  1
  H  H19  1  0.81196300  0.74248200  0.02717900  1
  H  H20  1  0.31595900  0.90457700  0.17584200  1
  H  H21  1  0.68404100  0.09542300  0.82415800  1
  H  H22  1  0.31023100  0.79766600  0.03658300  1
  H  H23  1  0.68976900  0.20233400  0.96341700  1
  H  H24  1  0.53502800  0.14735800  0.25431100  1
  H  H25  1  0.46497200  0.85264200  0.74568900  1
  H  H26  1  0.05499000  0.36979200  0.93671900  1
  H  H27  1  0.94501000  0.63020800  0.06328100  1
  H  H28  1  0.28366800  0.29129700  0.77220000  1
  H  H29  1  0.71633200  0.70870300  0.22780000  1
  H  H30  1  0.50267600  0.69375000  0.23855400  1
  H  H31  1  0.49732400  0.30625000  0.76144600  1
  O  O32  1  0.27723800  0.35395600  0.48041900  1
  O  O33  1  0.72276200  0.64604400  0.51958100  1
  O  O34  1  0.62590400  0.18977600  0.64127500  1
  O  O35  1  0.37409600  0.81022400  0.35872500  1
  O  O36  1  0.02098900  0.18678900  0.64606600  1
  O  O37  1  0.97901200  0.81321100  0.35393400  1
  O  O38  1  0.09526100  0.58875700  0.19189400  1
  O  O39  1  0.90473900  0.41124300  0.80810600  1
  O  O40  1  0.25976400  0.88304200  0.08078300  1
  O  O41  1  0.74023600  0.11695800  0.91921700  1
  O  O42  1  0.48668400  0.42604000  0.31030000  1
  O  O43  1  0.51331600  0.57396000  0.68970000  1
  O  O44  1  0.00869100  0.09613000  0.36540400  1
  O  O45  1  0.99130900  0.90387000  0.63459600  1
  O  O46  1  0.20541400  0.63556500  0.47549800  1
  O  O47  1  0.79458600  0.36443500  0.52450200  1
  O  O48  1  0.10351900  0.58535900  0.69477800  1
  O  O49  1  0.89648100  0.41464100  0.30522200  1
  O  O50  1  0.28250800  0.02480300  0.57656900  1
  O  O51  1  0.71749200  0.97519700  0.42343100  1
  O  O52  1  0.60498500  0.16816500  0.19330800  1
  O  O53  1  0.39501500  0.83183500  0.80669200  1
  O  O54  1  0.13409300  0.20426600  0.19487800  1
  O  O55  1  0.86590700  0.79573400  0.80512200  1
  O  O56  1  0.15694800  0.35456400  0.00956000  1
  O  O57  1  0.84305200  0.64543600  0.99044000  1
  O  O58  1  0.39417500  0.09113100  0.35684100  1
  O  O59  1  0.60582500  0.90886900  0.64315900  1
  O  O60  1  0.58970800  0.64682200  0.18861800  1
  O  O61  1  0.41029200  0.35317800  0.81138200  1
  O  O62  1  0.61335500  0.35842800  0.06826000  1
  O  O63  1  0.38664500  0.64157200  0.93174000  1
  O  O64  1  0.22609600  0.08781000  0.90302800  1
  O  O65  1  0.77390400  0.91219000  0.09697200  1
