# generated using pymatgen
data_Na3YbBr6
_symmetry_space_group_name_H-M   'P 1'
_cell_length_a   7.91213400
_cell_length_b   7.61293500
_cell_length_c   12.75926869
_cell_angle_alpha   53.48711016
_cell_angle_beta   90.00000000
_cell_angle_gamma   90.00000000
_symmetry_Int_Tables_number   1
_chemical_formula_structural   Na3YbBr6
_chemical_formula_sum   'Na6 Yb2 Br12'
_cell_volume   617.70049257
_cell_formula_units_Z   2
loop_
 _symmetry_equiv_pos_site_id
 _symmetry_equiv_pos_as_xyz
  1  'x, y, z'
loop_
 _atom_site_type_symbol
 _atom_site_label
 _atom_site_symmetry_multiplicity
 _atom_site_fract_x
 _atom_site_fract_y
 _atom_site_fract_z
 _atom_site_occupancy
  Na  Na0  1  0.50000000  0.50000000  0.00000000  1
  Na  Na1  1  0.00000000  0.50000000  0.50000000  1
  Na  Na2  1  0.07088500  0.73626400  0.75854500  1
  Na  Na3  1  0.92911500  0.26373600  0.24145500  1
  Na  Na4  1  0.57088500  0.26373600  0.74145500  1
  Na  Na5  1  0.42911500  0.73626400  0.25854500  1
  Yb  Yb6  1  0.50000000  0.00000000  0.50000000  1
  Yb  Yb7  1  0.00000000  0.00000000  0.00000000  1
  Br  Br8  1  0.80696500  0.73649300  0.58755800  1
  Br  Br9  1  0.19303500  0.26350700  0.41244200  1
  Br  Br10  1  0.30696500  0.26350700  0.91244200  1
  Br  Br11  1  0.69303500  0.73649300  0.08755800  1
  Br  Br12  1  0.41953100  0.90561500  0.74636000  1
  Br  Br13  1  0.58046900  0.09438500  0.25364000  1
  Br  Br14  1  0.91953100  0.09438500  0.75364000  1
  Br  Br15  1  0.08046900  0.90561500  0.24636000  1
  Br  Br16  1  0.31861500  0.61410700  0.57134700  1
  Br  Br17  1  0.68138500  0.38589300  0.42865300  1
  Br  Br18  1  0.81861500  0.38589300  0.92865300  1
  Br  Br19  1  0.18138500  0.61410700  0.07134700  1
