# generated using pymatgen
data_Nd9(Ni13P6)2
_symmetry_space_group_name_H-M   'P 1'
_cell_length_a   14.38091189
_cell_length_b   14.38091189
_cell_length_c   3.86875100
_cell_angle_alpha   90.00000000
_cell_angle_beta   90.00000000
_cell_angle_gamma   119.99999952
_symmetry_Int_Tables_number   1
_chemical_formula_structural   Nd9(Ni13P6)2
_chemical_formula_sum   'Nd9 Ni26 P12'
_cell_volume   692.90590680
_cell_formula_units_Z   1
loop_
 _symmetry_equiv_pos_site_id
 _symmetry_equiv_pos_as_xyz
  1  'x, y, z'
loop_
 _atom_site_type_symbol
 _atom_site_label
 _atom_site_symmetry_multiplicity
 _atom_site_fract_x
 _atom_site_fract_y
 _atom_site_fract_z
 _atom_site_occupancy
  Nd  Nd0  1  0.19093600  0.80906400  0.50000000  1
  Nd  Nd1  1  0.19093600  0.38187200  0.50000000  1
  Nd  Nd2  1  0.61812800  0.80906400  0.50000000  1
  Nd  Nd3  1  0.90748100  0.09251900  0.50000000  1
  Nd  Nd4  1  0.90748100  0.81496300  0.50000000  1
  Nd  Nd5  1  0.18503700  0.09251900  0.50000000  1
  Nd  Nd6  1  0.57565700  0.42434300  0.00000000  1
  Nd  Nd7  1  0.57565700  0.15131300  0.00000000  1
  Nd  Nd8  1  0.84868700  0.42434300  0.00000000  1
  Ni  Ni9  1  0.80895000  0.19105000  0.00000000  1
  Ni  Ni10  1  0.80895000  0.61789900  0.00000000  1
  Ni  Ni11  1  0.38210100  0.19105000  0.00000000  1
  Ni  Ni12  1  0.40039800  0.59960200  0.50000000  1
  Ni  Ni13  1  0.40039800  0.80079700  0.50000000  1
  Ni  Ni14  1  0.19920300  0.59960200  0.50000000  1
  Ni  Ni15  1  0.27802200  0.72197800  0.00000000  1
  Ni  Ni16  1  0.27802200  0.55604400  0.00000000  1
  Ni  Ni17  1  0.44395600  0.72197800  0.00000000  1
  Ni  Ni18  1  0.09770500  0.90229500  0.00000000  1
  Ni  Ni19  1  0.09770500  0.19541100  0.00000000  1
  Ni  Ni20  1  0.80458900  0.90229500  0.00000000  1
  Ni  Ni21  1  0.37975000  0.05235200  0.50000000  1
  Ni  Ni22  1  0.94764800  0.32739800  0.50000000  1
  Ni  Ni23  1  0.94764800  0.62025000  0.50000000  1
  Ni  Ni24  1  0.67260200  0.62025000  0.50000000  1
  Ni  Ni25  1  0.67260200  0.05235200  0.50000000  1
  Ni  Ni26  1  0.37975000  0.32739800  0.50000000  1
  Ni  Ni27  1  0.07655500  0.45460200  0.00000000  1
  Ni  Ni28  1  0.54539800  0.62195200  0.00000000  1
  Ni  Ni29  1  0.54539800  0.92344500  0.00000000  1
  Ni  Ni30  1  0.37804800  0.92344500  0.00000000  1
  Ni  Ni31  1  0.37804800  0.45460200  0.00000000  1
  Ni  Ni32  1  0.07655500  0.62195200  0.00000000  1
  Ni  Ni33  1  0.66666700  0.33333300  0.50000000  1
  Ni  Ni34  1  0.00000000  0.00000000  0.00000000  1
  P  P35  1  0.48633200  0.51366800  0.50000000  1
  P  P36  1  0.48633200  0.97266400  0.50000000  1
  P  P37  1  0.02733600  0.51366800  0.50000000  1
  P  P38  1  0.99619800  0.27534200  0.00000000  1
  P  P39  1  0.72465800  0.72085700  0.00000000  1
  P  P40  1  0.72465800  0.00380200  0.00000000  1
  P  P41  1  0.27914300  0.00380200  0.00000000  1
  P  P42  1  0.27914300  0.27534200  0.00000000  1
  P  P43  1  0.99619800  0.72085700  0.00000000  1
  P  P44  1  0.75898400  0.24101600  0.50000000  1
  P  P45  1  0.75898400  0.51796700  0.50000000  1
  P  P46  1  0.48203300  0.24101600  0.50000000  1
