# generated using pymatgen
data_Rb2TaCuS2
_symmetry_space_group_name_H-M   'P 1'
_cell_length_a   5.63029300
_cell_length_b   6.71192833
_cell_length_c   24.45234752
_cell_angle_alpha   87.23225653
_cell_angle_beta   83.38899881
_cell_angle_gamma   65.20174263
_symmetry_Int_Tables_number   1
_chemical_formula_structural   Rb2TaCuS2
_chemical_formula_sum   'Rb8 Ta4 Cu4 S8'
_cell_volume   833.27233973
_cell_formula_units_Z   4
loop_
 _symmetry_equiv_pos_site_id
 _symmetry_equiv_pos_as_xyz
  1  'x, y, z'
loop_
 _atom_site_type_symbol
 _atom_site_label
 _atom_site_symmetry_multiplicity
 _atom_site_fract_x
 _atom_site_fract_y
 _atom_site_fract_z
 _atom_site_occupancy
  Rb  Rb0  1  0.50975000  0.27007400  0.60949500  1
  Rb  Rb1  1  0.88075500  0.72992600  0.60949500  1
  Rb  Rb2  1  0.22017600  0.27007400  0.39050500  1
  Rb  Rb3  1  0.24025000  0.22992600  0.89050500  1
  Rb  Rb4  1  0.38931900  0.72992600  0.39050500  1
  Rb  Rb5  1  0.86924500  0.77007400  0.89050500  1
  Rb  Rb6  1  0.52982400  0.22992600  0.10949500  1
  Rb  Rb7  1  0.36068100  0.77007400  0.10949500  1
  Ta  Ta8  1  0.87500000  0.25000000  0.25000000  1
  Ta  Ta9  1  0.87500000  0.75000000  0.25000000  1
  Ta  Ta10  1  0.87500000  0.25000000  0.75000000  1
  Ta  Ta11  1  0.37500000  0.75000000  0.75000000  1
  Cu  Cu12  1  0.37500000  0.25000000  0.25000000  1
  Cu  Cu13  1  0.37500000  0.75000000  0.25000000  1
  Cu  Cu14  1  0.37500000  0.25000000  0.75000000  1
  Cu  Cu15  1  0.87500000  0.75000000  0.75000000  1
  S  S16  1  0.99908500  0.23646600  0.15617800  1
  S  S17  1  0.84473700  0.76353400  0.15617800  1
  S  S18  1  0.76444900  0.23646600  0.84382200  1
  S  S19  1  0.75091500  0.26353400  0.34382200  1
  S  S20  1  0.39172900  0.76353400  0.84382200  1
  S  S21  1  0.90526300  0.73646600  0.34382200  1
  S  S22  1  0.98555100  0.26353400  0.65617800  1
  S  S23  1  0.35827100  0.73646600  0.65617800  1
