# generated using pymatgen
data_RbAuC2
_symmetry_space_group_name_H-M   'P 1'
_cell_length_a   4.58104200
_cell_length_b   4.58104200
_cell_length_c   5.24153100
_cell_angle_alpha   90.00000000
_cell_angle_beta   90.00000000
_cell_angle_gamma   90.00000000
_symmetry_Int_Tables_number   1
_chemical_formula_structural   RbAuC2
_chemical_formula_sum   'Rb1 Au1 C2'
_cell_volume   109.99848551
_cell_formula_units_Z   1
loop_
 _symmetry_equiv_pos_site_id
 _symmetry_equiv_pos_as_xyz
  1  'x, y, z'
loop_
 _atom_site_type_symbol
 _atom_site_label
 _atom_site_symmetry_multiplicity
 _atom_site_fract_x
 _atom_site_fract_y
 _atom_site_fract_z
 _atom_site_occupancy
  Rb  Rb0  1  0.50000000  0.50000000  0.50000000  1
  Au  Au1  1  0.00000000  0.00000000  0.00000000  1
  C  C2  1  0.00000000  0.00000000  0.61914400  1
  C  C3  1  0.00000000  0.00000000  0.38085600  1
