# generated using pymatgen
data_MoSI
_symmetry_space_group_name_H-M   'P 1'
_cell_length_a   7.42445291
_cell_length_b   7.42445291
_cell_length_c   7.42445291
_cell_angle_alpha   60.00000000
_cell_angle_beta   60.00000000
_cell_angle_gamma   60.00000000
_symmetry_Int_Tables_number   1
_chemical_formula_structural   MoSI
_chemical_formula_sum   'Mo4 S4 I4'
_cell_volume   289.38657082
_cell_formula_units_Z   4
loop_
 _symmetry_equiv_pos_site_id
 _symmetry_equiv_pos_as_xyz
  1  'x, y, z'
loop_
 _atom_site_type_symbol
 _atom_site_label
 _atom_site_symmetry_multiplicity
 _atom_site_fract_x
 _atom_site_fract_y
 _atom_site_fract_z
 _atom_site_occupancy
  Mo  Mo0  1  0.34480400  0.34480400  0.34480400  1
  Mo  Mo1  1  0.34480400  0.34480400  0.96558700  1
  Mo  Mo2  1  0.34480400  0.96558700  0.34480400  1
  Mo  Mo3  1  0.96558700  0.34480400  0.34480400  1
  S  S4  1  0.12369600  0.12369600  0.12369600  1
  S  S5  1  0.12369600  0.12369600  0.62891200  1
  S  S6  1  0.12369600  0.62891200  0.12369600  1
  S  S7  1  0.62891200  0.12369600  0.12369600  1
  I  I8  1  0.62351000  0.62351000  0.62351000  1
  I  I9  1  0.62351000  0.62351000  0.12946900  1
  I  I10  1  0.62351000  0.12946900  0.62351000  1
  I  I11  1  0.12946900  0.62351000  0.62351000  1
