# generated using pymatgen
data_AgB(CN)4
_symmetry_space_group_name_H-M   'P 1'
_cell_length_a   5.79001400
_cell_length_b   5.79001400
_cell_length_c   5.79001400
_cell_angle_alpha   90.00000000
_cell_angle_beta   90.00000000
_cell_angle_gamma   90.00000000
_symmetry_Int_Tables_number   1
_chemical_formula_structural   AgB(CN)4
_chemical_formula_sum   'Ag1 B1 C4 N4'
_cell_volume   194.10594702
_cell_formula_units_Z   1
loop_
 _symmetry_equiv_pos_site_id
 _symmetry_equiv_pos_as_xyz
  1  'x, y, z'
loop_
 _atom_site_type_symbol
 _atom_site_label
 _atom_site_symmetry_multiplicity
 _atom_site_fract_x
 _atom_site_fract_y
 _atom_site_fract_z
 _atom_site_occupancy
  Ag  Ag0  1  0.50000000  0.50000000  0.50000000  1
  B  B1  1  0.00000000  0.00000000  0.00000000  1
  C  C2  1  0.84166100  0.84166100  0.84166100  1
  C  C3  1  0.15833900  0.84166100  0.15833900  1
  C  C4  1  0.15833900  0.15833900  0.84166100  1
  C  C5  1  0.84166100  0.15833900  0.15833900  1
  N  N6  1  0.72570500  0.72570500  0.72570500  1
  N  N7  1  0.27429500  0.72570500  0.27429500  1
  N  N8  1  0.27429500  0.27429500  0.72570500  1
  N  N9  1  0.72570500  0.27429500  0.27429500  1
