# generated using pymatgen
data_Mn(SbS2)2
_symmetry_space_group_name_H-M   'P 1'
_cell_length_a   6.62177495
_cell_length_b   6.62177495
_cell_length_c   15.50278892
_cell_angle_alpha   67.36546323
_cell_angle_beta   67.36546323
_cell_angle_gamma   33.61474168
_symmetry_Int_Tables_number   1
_chemical_formula_structural   Mn(SbS2)2
_chemical_formula_sum   'Mn2 Sb4 S8'
_cell_volume   344.57093920
_cell_formula_units_Z   2
loop_
 _symmetry_equiv_pos_site_id
 _symmetry_equiv_pos_as_xyz
  1  'x, y, z'
loop_
 _atom_site_type_symbol
 _atom_site_label
 _atom_site_symmetry_multiplicity
 _atom_site_fract_x
 _atom_site_fract_y
 _atom_site_fract_z
 _atom_site_occupancy
  Mn  Mn0  1  0.00000000  0.00000000  0.50000000  1
  Mn  Mn1  1  0.00000000  0.00000000  0.00000000  1
  Sb  Sb2  1  0.35403000  0.35403000  0.87336500  1
  Sb  Sb3  1  0.64597000  0.64597000  0.12663500  1
  Sb  Sb4  1  0.23155800  0.23155800  0.62419000  1
  Sb  Sb5  1  0.76844200  0.76844200  0.37581000  1
  S  S6  1  0.38654700  0.38654700  0.46054900  1
  S  S7  1  0.61345300  0.61345300  0.53945100  1
  S  S8  1  0.00580800  0.00580800  0.83670700  1
  S  S9  1  0.99419200  0.99419200  0.16329300  1
  S  S10  1  0.34526600  0.34526600  0.03734400  1
  S  S11  1  0.65473400  0.65473400  0.96265600  1
  S  S12  1  0.15819700  0.15819700  0.33330900  1
  S  S13  1  0.84180300  0.84180300  0.66669100  1
