# generated using pymatgen
data_Na2Cd3P4NClO14
_symmetry_space_group_name_H-M   'P 1'
_cell_length_a   11.27823419
_cell_length_b   11.27823419
_cell_length_c   14.38223098
_cell_angle_alpha   60.22172496
_cell_angle_beta   60.22172496
_cell_angle_gamma   27.80379824
_symmetry_Int_Tables_number   1
_chemical_formula_structural   Na2Cd3P4NClO14
_chemical_formula_sum   'Na4 Cd6 P8 N2 Cl2 O28'
_cell_volume   733.17224736
_cell_formula_units_Z   2
loop_
 _symmetry_equiv_pos_site_id
 _symmetry_equiv_pos_as_xyz
  1  'x, y, z'
loop_
 _atom_site_type_symbol
 _atom_site_label
 _atom_site_symmetry_multiplicity
 _atom_site_fract_x
 _atom_site_fract_y
 _atom_site_fract_z
 _atom_site_occupancy
  Na  Na0  1  0.75854600  0.80900700  0.65199200  1
  Na  Na1  1  0.24145400  0.19099300  0.34800800  1
  Na  Na2  1  0.19099300  0.24145400  0.84800800  1
  Na  Na3  1  0.80900700  0.75854600  0.15199200  1
  Cd  Cd4  1  0.16053100  0.14235400  0.65794100  1
  Cd  Cd5  1  0.83946900  0.85764600  0.34206000  1
  Cd  Cd6  1  0.85764600  0.83946900  0.84206000  1
  Cd  Cd7  1  0.14235400  0.16053100  0.15794100  1
  Cd  Cd8  1  0.45634700  0.54365300  0.75000000  1
  Cd  Cd9  1  0.54365300  0.45634700  0.25000000  1
  P  P10  1  0.64305700  0.67463300  0.00326200  1
  P  P11  1  0.35694300  0.32536700  0.99673800  1
  P  P12  1  0.32536700  0.35694300  0.49673800  1
  P  P13  1  0.67463300  0.64305700  0.50326200  1
  P  P14  1  0.61472900  0.62300600  0.83476900  1
  P  P15  1  0.38527100  0.37699400  0.16523100  1
  P  P16  1  0.37699400  0.38527100  0.66523100  1
  P  P17  1  0.62300600  0.61472900  0.33476900  1
  N  N18  1  0.00000000  0.00000000  0.50000000  1
  N  N19  1  0.00000000  0.00000000  0.00000000  1
  Cl  Cl20  1  0.96255500  0.03744500  0.75000000  1
  Cl  Cl21  1  0.03744500  0.96255500  0.25000000  1
  O  O22  1  0.46388100  0.44957700  0.64396700  1
  O  O23  1  0.53611900  0.55042300  0.35603300  1
  O  O24  1  0.55042300  0.53611900  0.85603300  1
  O  O25  1  0.44957700  0.46388100  0.14396700  1
  O  O26  1  0.42926800  0.35505300  0.54628800  1
  O  O27  1  0.57073200  0.64494700  0.45371200  1
  O  O28  1  0.64494700  0.57073200  0.95371200  1
  O  O29  1  0.35505300  0.42926800  0.04628800  1
  O  O30  1  0.63272900  0.04095300  0.98580900  1
  O  O31  1  0.36727100  0.95904700  0.01419100  1
  O  O32  1  0.95904700  0.36727100  0.51419100  1
  O  O33  1  0.04095300  0.63272900  0.48580900  1
  O  O34  1  0.50422200  0.73512200  0.61390200  1
  O  O35  1  0.49577800  0.26487800  0.38609800  1
  O  O36  1  0.26487800  0.49577800  0.88609800  1
  O  O37  1  0.73512200  0.50422200  0.11390200  1
  O  O38  1  0.37554600  0.16492000  0.57563200  1
  O  O39  1  0.62445400  0.83508000  0.42436800  1
  O  O40  1  0.83508000  0.62445400  0.92436800  1
  O  O41  1  0.16492000  0.37554600  0.07563200  1
  O  O42  1  0.53592500  0.12796000  0.73905200  1
  O  O43  1  0.46407500  0.87204000  0.26094800  1
  O  O44  1  0.87204000  0.46407500  0.76094800  1
  O  O45  1  0.12796000  0.53592500  0.23905200  1
  O  O46  1  0.40336700  0.90986100  0.79103900  1
  O  O47  1  0.59663300  0.09013900  0.20896100  1
  O  O48  1  0.09013900  0.59663300  0.70896100  1
  O  O49  1  0.90986100  0.40336700  0.29103900  1
