# generated using pymatgen
data_Mn3ZnO7
_symmetry_space_group_name_H-M   'P 1'
_cell_length_a   7.49562812
_cell_length_b   7.49562812
_cell_length_c   7.49562835
_cell_angle_alpha   62.46287893
_cell_angle_beta   62.46287893
_cell_angle_gamma   62.46287247
_symmetry_Int_Tables_number   1
_chemical_formula_structural   Mn3ZnO7
_chemical_formula_sum   'Mn6 Zn2 O14'
_cell_volume   314.13828198
_cell_formula_units_Z   2
loop_
 _symmetry_equiv_pos_site_id
 _symmetry_equiv_pos_as_xyz
  1  'x, y, z'
loop_
 _atom_site_type_symbol
 _atom_site_label
 _atom_site_symmetry_multiplicity
 _atom_site_fract_x
 _atom_site_fract_y
 _atom_site_fract_z
 _atom_site_occupancy
  Mn  Mn0  1  0.85745300  0.71865000  0.42827700  1
  Mn  Mn1  1  0.14254700  0.28135000  0.57172300  1
  Mn  Mn2  1  0.71865000  0.42827700  0.85745300  1
  Mn  Mn3  1  0.28135000  0.57172300  0.14254700  1
  Mn  Mn4  1  0.42827700  0.85745300  0.71865000  1
  Mn  Mn5  1  0.57172300  0.14254700  0.28135000  1
  Zn  Zn6  1  0.91957000  0.91957000  0.91957000  1
  Zn  Zn7  1  0.08043000  0.08043000  0.08043000  1
  O  O8  1  0.85213400  0.42353200  0.56961900  1
  O  O9  1  0.14786600  0.57646800  0.43038100  1
  O  O10  1  0.00429500  0.32843500  0.84997500  1
  O  O11  1  0.99570500  0.67156500  0.15002500  1
  O  O12  1  0.67156500  0.15002500  0.99570500  1
  O  O13  1  0.32843500  0.84997500  0.00429500  1
  O  O14  1  0.42353200  0.56961900  0.85213400  1
  O  O15  1  0.57646800  0.43038100  0.14786600  1
  O  O16  1  0.15002500  0.99570500  0.67156500  1
  O  O17  1  0.84997500  0.00429500  0.32843500  1
  O  O18  1  0.56961900  0.85213400  0.42353200  1
  O  O19  1  0.43038100  0.14786600  0.57646800  1
  O  O20  1  0.72149000  0.72149000  0.72149000  1
  O  O21  1  0.27851000  0.27851000  0.27851000  1
