# generated using pymatgen
data_Mg6NiSn
_symmetry_space_group_name_H-M   'P 1'
_cell_length_a   9.95414000
_cell_length_b   9.95414000
_cell_length_c   6.90493600
_cell_angle_alpha   90.00000000
_cell_angle_beta   90.00000000
_cell_angle_gamma   90.00000000
_symmetry_Int_Tables_number   1
_chemical_formula_structural   Mg6NiSn
_chemical_formula_sum   'Mg24 Ni4 Sn4'
_cell_volume   684.17491475
_cell_formula_units_Z   4
loop_
 _symmetry_equiv_pos_site_id
 _symmetry_equiv_pos_as_xyz
  1  'x, y, z'
loop_
 _atom_site_type_symbol
 _atom_site_label
 _atom_site_symmetry_multiplicity
 _atom_site_fract_x
 _atom_site_fract_y
 _atom_site_fract_z
 _atom_site_occupancy
  Mg  Mg0  1  0.52320400  0.23917000  0.22596000  1
  Mg  Mg1  1  0.47679600  0.76083000  0.22596000  1
  Mg  Mg2  1  0.23917000  0.47679600  0.72596000  1
  Mg  Mg3  1  0.47679600  0.23917000  0.72596000  1
  Mg  Mg4  1  0.76083000  0.52320400  0.72596000  1
  Mg  Mg5  1  0.52320400  0.76083000  0.72596000  1
  Mg  Mg6  1  0.76083000  0.47679600  0.22596000  1
  Mg  Mg7  1  0.23917000  0.52320400  0.22596000  1
  Mg  Mg8  1  0.34645100  0.03607900  0.02896000  1
  Mg  Mg9  1  0.65354900  0.96392100  0.02896000  1
  Mg  Mg10  1  0.03607900  0.65354900  0.52896000  1
  Mg  Mg11  1  0.65354900  0.03607900  0.52896000  1
  Mg  Mg12  1  0.96392100  0.34645100  0.52896000  1
  Mg  Mg13  1  0.34645100  0.96392100  0.52896000  1
  Mg  Mg14  1  0.96392100  0.65354900  0.02896000  1
  Mg  Mg15  1  0.03607900  0.34645100  0.02896000  1
  Mg  Mg16  1  0.50000000  0.50000000  0.46948100  1
  Mg  Mg17  1  0.50000000  0.50000000  0.96948100  1
  Mg  Mg18  1  0.00000000  0.00000000  0.99913000  1
  Mg  Mg19  1  0.00000000  0.00000000  0.49913000  1
  Mg  Mg20  1  0.22572900  0.22572900  0.33675200  1
  Mg  Mg21  1  0.77427100  0.77427100  0.33675200  1
  Mg  Mg22  1  0.22572900  0.77427100  0.83675200  1
  Mg  Mg23  1  0.77427100  0.22572900  0.83675200  1
  Ni  Ni24  1  0.30947000  0.30947000  0.00878200  1
  Ni  Ni25  1  0.69053000  0.69053000  0.00878200  1
  Ni  Ni26  1  0.30947000  0.69053000  0.50878200  1
  Ni  Ni27  1  0.69053000  0.30947000  0.50878200  1
  Sn  Sn28  1  0.17146100  0.17146100  0.74117000  1
  Sn  Sn29  1  0.82853900  0.82853900  0.74117000  1
  Sn  Sn30  1  0.17146100  0.82853900  0.24117000  1
  Sn  Sn31  1  0.82853900  0.17146100  0.24117000  1
