# generated using pymatgen
data_Mo3NO9
_symmetry_space_group_name_H-M   'P 1'
_cell_length_a   3.63872500
_cell_length_b   11.16706614
_cell_length_c   11.16706614
_cell_angle_alpha   120.00000081
_cell_angle_beta   90.00000000
_cell_angle_gamma   90.00000000
_symmetry_Int_Tables_number   1
_chemical_formula_structural   Mo3NO9
_chemical_formula_sum   'Mo6 N2 O18'
_cell_volume   392.96877160
_cell_formula_units_Z   2
loop_
 _symmetry_equiv_pos_site_id
 _symmetry_equiv_pos_as_xyz
  1  'x, y, z'
loop_
 _atom_site_type_symbol
 _atom_site_label
 _atom_site_symmetry_multiplicity
 _atom_site_fract_x
 _atom_site_fract_y
 _atom_site_fract_z
 _atom_site_occupancy
  Mo  Mo0  1  0.75000000  0.89082100  0.35098100  1
  Mo  Mo1  1  0.25000000  0.10917900  0.64901900  1
  Mo  Mo2  1  0.75000000  0.46016000  0.10917900  1
  Mo  Mo3  1  0.25000000  0.53984000  0.89082100  1
  Mo  Mo4  1  0.75000000  0.64901900  0.53984000  1
  Mo  Mo5  1  0.25000000  0.35098100  0.46016000  1
  N  N6  1  0.75000000  0.00000000  0.00000000  1
  N  N7  1  0.25000000  0.00000000  0.00000000  1
  O  O8  1  0.75000000  0.71859600  0.21774900  1
  O  O9  1  0.25000000  0.28140400  0.78225100  1
  O  O10  1  0.75000000  0.49915200  0.28140400  1
  O  O11  1  0.25000000  0.50084800  0.71859600  1
  O  O12  1  0.75000000  0.78225100  0.50084800  1
  O  O13  1  0.25000000  0.21774900  0.49915200  1
  O  O14  1  0.75000000  0.42489800  0.50265100  1
  O  O15  1  0.25000000  0.57510200  0.49734900  1
  O  O16  1  0.75000000  0.07775300  0.57510200  1
  O  O17  1  0.25000000  0.92224700  0.42489800  1
  O  O18  1  0.75000000  0.49734900  0.92224700  1
  O  O19  1  0.25000000  0.50265100  0.07775300  1
  O  O20  1  0.75000000  0.98384800  0.26807500  1
  O  O21  1  0.25000000  0.01615200  0.73192500  1
  O  O22  1  0.75000000  0.28422700  0.01615200  1
  O  O23  1  0.25000000  0.71577300  0.98384800  1
  O  O24  1  0.75000000  0.73192500  0.71577300  1
  O  O25  1  0.25000000  0.26807500  0.28422700  1
