# generated using pymatgen
data_MgGaH5
_symmetry_space_group_name_H-M   'P 1'
_cell_length_a   6.99485200
_cell_length_b   6.61402600
_cell_length_c   10.27393529
_cell_angle_alpha   50.28920812
_cell_angle_beta   90.00000000
_cell_angle_gamma   90.00000000
_symmetry_Int_Tables_number   1
_chemical_formula_structural   MgGaH5
_chemical_formula_sum   'Mg4 Ga4 H20'
_cell_volume   365.64973172
_cell_formula_units_Z   4
loop_
 _symmetry_equiv_pos_site_id
 _symmetry_equiv_pos_as_xyz
  1  'x, y, z'
loop_
 _atom_site_type_symbol
 _atom_site_label
 _atom_site_symmetry_multiplicity
 _atom_site_fract_x
 _atom_site_fract_y
 _atom_site_fract_z
 _atom_site_occupancy
  Mg  Mg0  1  0.36884100  0.49618600  0.75715900  1
  Mg  Mg1  1  0.63115900  0.50381400  0.24284100  1
  Mg  Mg2  1  0.86884100  0.50381400  0.74284100  1
  Mg  Mg3  1  0.13115900  0.49618600  0.25715900  1
  Ga  Ga4  1  0.37565500  0.86486000  0.88235100  1
  Ga  Ga5  1  0.62434500  0.13514000  0.11764900  1
  Ga  Ga6  1  0.87565500  0.13514000  0.61764900  1
  Ga  Ga7  1  0.12434500  0.86486000  0.38235100  1
  H  H8  1  0.06916700  0.25972600  0.50762900  1
  H  H9  1  0.93083300  0.74027400  0.49237100  1
  H  H10  1  0.56916700  0.74027400  0.99237100  1
  H  H11  1  0.43083300  0.25972600  0.00762900  1
  H  H12  1  0.36692800  0.80523800  0.75430900  1
  H  H13  1  0.63307200  0.19476200  0.24569100  1
  H  H14  1  0.86692800  0.19476200  0.74569100  1
  H  H15  1  0.13307200  0.80523800  0.25430900  1
  H  H16  1  0.88209100  0.82438200  0.72900300  1
  H  H17  1  0.11790900  0.17561800  0.27099700  1
  H  H18  1  0.38209100  0.17561800  0.77099700  1
  H  H19  1  0.61790900  0.82438200  0.22900300  1
  H  H20  1  0.11678300  0.43415300  0.81341700  1
  H  H21  1  0.88321700  0.56584700  0.18658300  1
  H  H22  1  0.61678300  0.56584700  0.68658300  1
  H  H23  1  0.38321700  0.43415300  0.31341700  1
  H  H24  1  0.30930200  0.74451500  0.50297900  1
  H  H25  1  0.69069800  0.25548500  0.49702100  1
  H  H26  1  0.80930200  0.25548500  0.99702100  1
  H  H27  1  0.19069800  0.74451500  0.00297900  1
