# generated using pymatgen
data_MgH8C6S2(NO4)2
_symmetry_space_group_name_H-M   'P 1'
_cell_length_a   5.15492455
_cell_length_b   7.44773915
_cell_length_c   8.22859761
_cell_angle_alpha   85.07217432
_cell_angle_beta   81.96883744
_cell_angle_gamma   72.21523400
_symmetry_Int_Tables_number   1
_chemical_formula_structural   MgH8C6S2(NO4)2
_chemical_formula_sum   'Mg1 H8 C6 S2 N2 O8'
_cell_volume   297.55567963
_cell_formula_units_Z   1
loop_
 _symmetry_equiv_pos_site_id
 _symmetry_equiv_pos_as_xyz
  1  'x, y, z'
loop_
 _atom_site_type_symbol
 _atom_site_label
 _atom_site_symmetry_multiplicity
 _atom_site_fract_x
 _atom_site_fract_y
 _atom_site_fract_z
 _atom_site_occupancy
  Mg  Mg0  1  0.00000000  0.00000000  0.00000000  1
  H  H1  1  0.26015300  0.19582900  0.77010900  1
  H  H2  1  0.73984700  0.80417100  0.22989100  1
  H  H3  1  0.51266400  0.99263100  0.18051900  1
  H  H4  1  0.48733600  0.00736900  0.81948100  1
  H  H5  1  0.23884200  0.63064600  0.09663500  1
  H  H6  1  0.76115800  0.36935400  0.90336500  1
  H  H7  1  0.46147600  0.70339600  0.98111100  1
  H  H8  1  0.53852400  0.29660400  0.01888900  1
  C  C9  1  0.48012500  0.41648600  0.53846100  1
  C  C10  1  0.51987500  0.58351400  0.46153900  1
  C  C11  1  0.10899300  0.29845800  0.20626400  1
  C  C12  1  0.89100700  0.70154200  0.79373600  1
  C  C13  1  0.13759000  0.61751200  0.67491300  1
  C  C14  1  0.86241000  0.38248800  0.32508700  1
  S  S15  1  0.72781800  0.22570700  0.45329800  1
  S  S16  1  0.27218200  0.77429300  0.54670200  1
  N  N17  1  0.26412400  0.43518700  0.65747600  1
  N  N18  1  0.73587600  0.56481300  0.34252400  1
  O  O19  1  0.28002800  0.74801000  0.05015800  1
  O  O20  1  0.71997200  0.25199000  0.94984200  1
  O  O21  1  0.28640600  0.06516600  0.81592000  1
  O  O22  1  0.71359400  0.93483400  0.18408000  1
  O  O23  1  0.24651600  0.40289600  0.13606200  1
  O  O24  1  0.75348400  0.59710400  0.86393800  1
  O  O25  1  0.16410200  0.12129600  0.18763400  1
  O  O26  1  0.83589800  0.87870400  0.81236600  1
