# generated using pymatgen
data_NaEr(ReO5)4
_symmetry_space_group_name_H-M   'P 1'
_cell_length_a   12.31448600
_cell_length_b   12.31448600
_cell_length_c   5.87971000
_cell_angle_alpha   90.00000000
_cell_angle_beta   90.00000000
_cell_angle_gamma   90.00000000
_symmetry_Int_Tables_number   1
_chemical_formula_structural   NaEr(ReO5)4
_chemical_formula_sum   'Na2 Er2 Re8 O40'
_cell_volume   891.63782731
_cell_formula_units_Z   2
loop_
 _symmetry_equiv_pos_site_id
 _symmetry_equiv_pos_as_xyz
  1  'x, y, z'
loop_
 _atom_site_type_symbol
 _atom_site_label
 _atom_site_symmetry_multiplicity
 _atom_site_fract_x
 _atom_site_fract_y
 _atom_site_fract_z
 _atom_site_occupancy
  Na  Na0  1  0.00000000  0.00000000  0.00000000  1
  Na  Na1  1  0.50000000  0.50000000  0.50000000  1
  Er  Er2  1  0.00000000  0.50000000  0.25000000  1
  Er  Er3  1  0.50000000  0.00000000  0.75000000  1
  Re  Re4  1  0.41039100  0.71781800  0.02297600  1
  Re  Re5  1  0.58960900  0.28218200  0.02297600  1
  Re  Re6  1  0.28218200  0.41039100  0.97702400  1
  Re  Re7  1  0.91039100  0.78218200  0.52297600  1
  Re  Re8  1  0.71781800  0.58960900  0.97702400  1
  Re  Re9  1  0.08960900  0.21781800  0.52297600  1
  Re  Re10  1  0.78218200  0.08960900  0.47702400  1
  Re  Re11  1  0.21781800  0.91039100  0.47702400  1
  O  O12  1  0.18519700  0.95297000  0.20273600  1
  O  O13  1  0.81480300  0.04703000  0.20273600  1
  O  O14  1  0.04703000  0.18519700  0.79726400  1
  O  O15  1  0.68519700  0.54703000  0.70273600  1
  O  O16  1  0.95297000  0.81480300  0.79726400  1
  O  O17  1  0.31480300  0.45297000  0.70273600  1
  O  O18  1  0.54703000  0.31480300  0.29726400  1
  O  O19  1  0.45297000  0.68519700  0.29726400  1
  O  O20  1  0.36431400  0.47620800  0.17553900  1
  O  O21  1  0.63568600  0.52379200  0.17553900  1
  O  O22  1  0.52379200  0.36431400  0.82446100  1
  O  O23  1  0.86431400  0.02379200  0.67553900  1
  O  O24  1  0.47620800  0.63568600  0.82446100  1
  O  O25  1  0.13568600  0.97620800  0.67553900  1
  O  O26  1  0.02379200  0.13568600  0.32446100  1
  O  O27  1  0.97620800  0.86431400  0.32446100  1
  O  O28  1  0.14095300  0.44047500  0.03345800  1
  O  O29  1  0.85904700  0.55952500  0.03345800  1
  O  O30  1  0.55952500  0.14095300  0.96654200  1
  O  O31  1  0.64095300  0.05952500  0.53345800  1
  O  O32  1  0.44047500  0.85904700  0.96654200  1
  O  O33  1  0.35904700  0.94047500  0.53345800  1
  O  O34  1  0.05952500  0.35904700  0.46654200  1
  O  O35  1  0.94047500  0.64095300  0.46654200  1
  O  O36  1  0.19468000  0.77131100  0.50020700  1
  O  O37  1  0.80532000  0.22868900  0.50020700  1
  O  O38  1  0.22868900  0.19468000  0.49979300  1
  O  O39  1  0.69468000  0.72868900  0.00020700  1
  O  O40  1  0.77131100  0.80532000  0.49979300  1
  O  O41  1  0.30532000  0.27131100  0.00020700  1
  O  O42  1  0.72868900  0.30532000  0.99979300  1
  O  O43  1  0.27131100  0.69468000  0.99979300  1
  O  O44  1  0.06697500  0.64593700  0.02134500  1
  O  O45  1  0.93302500  0.35406300  0.02134500  1
  O  O46  1  0.35406300  0.06697500  0.97865500  1
  O  O47  1  0.56697500  0.85406300  0.52134500  1
  O  O48  1  0.64593700  0.93302500  0.97865500  1
  O  O49  1  0.43302500  0.14593700  0.52134500  1
  O  O50  1  0.85406300  0.43302500  0.47865500  1
  O  O51  1  0.14593700  0.56697500  0.47865500  1
