# generated using pymatgen
data_NiH20C4(N5O6)2
_symmetry_space_group_name_H-M   'P 1'
_cell_length_a   6.66546964
_cell_length_b   7.91123551
_cell_length_c   18.18416800
_cell_angle_alpha   90.00000000
_cell_angle_beta   90.00000000
_cell_angle_gamma   98.37943798
_symmetry_Int_Tables_number   1
_chemical_formula_structural   NiH20C4(N5O6)2
_chemical_formula_sum   'Ni2 H40 C8 N20 O24'
_cell_volume   948.65292997
_cell_formula_units_Z   2
loop_
 _symmetry_equiv_pos_site_id
 _symmetry_equiv_pos_as_xyz
  1  'x, y, z'
loop_
 _atom_site_type_symbol
 _atom_site_label
 _atom_site_symmetry_multiplicity
 _atom_site_fract_x
 _atom_site_fract_y
 _atom_site_fract_z
 _atom_site_occupancy
  Ni  Ni0  1  0.00000000  0.00000000  0.00000000  1
  Ni  Ni1  1  0.50000000  0.50000000  0.50000000  1
  H  H2  1  0.04960400  0.70017900  0.05810100  1
  H  H3  1  0.95039600  0.29982100  0.94189900  1
  H  H4  1  0.45039600  0.79982100  0.55810100  1
  H  H5  1  0.54960400  0.20017900  0.44189900  1
  H  H6  1  0.07180000  0.92877500  0.83833100  1
  H  H7  1  0.92820000  0.07122500  0.16166900  1
  H  H8  1  0.42820000  0.57122500  0.33833100  1
  H  H9  1  0.57180000  0.42877500  0.66166900  1
  H  H10  1  0.27674800  0.95741000  0.77407700  1
  H  H11  1  0.72325200  0.04259000  0.22592300  1
  H  H12  1  0.22325200  0.54259000  0.27407700  1
  H  H13  1  0.77674800  0.45741000  0.72592300  1
  H  H14  1  0.98184100  0.83240700  0.31219100  1
  H  H15  1  0.01815900  0.16759300  0.68780900  1
  H  H16  1  0.51815900  0.66759300  0.81219100  1
  H  H17  1  0.48184100  0.33240700  0.18780900  1
  H  H18  1  0.79271000  0.66758300  0.28642700  1
  H  H19  1  0.20729000  0.33241700  0.71357300  1
  H  H20  1  0.70729000  0.83241700  0.78642700  1
  H  H21  1  0.29271000  0.16758300  0.21357300  1
  H  H22  1  0.39446400  0.80430500  0.09967700  1
  H  H23  1  0.60553600  0.19569500  0.90032300  1
  H  H24  1  0.10553600  0.69569500  0.59967700  1
  H  H25  1  0.89446400  0.30430500  0.40032300  1
  H  H26  1  0.85767200  0.77615700  0.49958500  1
  H  H27  1  0.14232800  0.22384200  0.50041500  1
  H  H28  1  0.64232800  0.72384300  0.99958500  1
  H  H29  1  0.35767200  0.27615800  0.00041500  1
  H  H30  1  0.42094800  0.87151100  0.19023200  1
  H  H31  1  0.57905200  0.12848900  0.80976800  1
  H  H32  1  0.07905200  0.62848900  0.69023200  1
  H  H33  1  0.92094800  0.37151100  0.30976800  1
  H  H34  1  0.02457100  0.89245600  0.43592400  1
  H  H35  1  0.97542900  0.10754400  0.56407600  1
  H  H36  1  0.47542900  0.60754400  0.93592400  1
  H  H37  1  0.52457100  0.39245600  0.06407600  1
  H  H38  1  0.36618600  0.79256100  0.47819600  1
  H  H39  1  0.63381400  0.20743900  0.52180400  1
  H  H40  1  0.13381400  0.70743900  0.97819600  1
  H  H41  1  0.86618600  0.29256100  0.02180400  1
  C  C42  1  0.67579100  0.92383700  0.12507200  1
  C  C43  1  0.32420900  0.07616300  0.87492800  1
  C  C44  1  0.82420900  0.57616300  0.62507200  1
  C  C45  1  0.17579100  0.42383700  0.37492800  1
  C  C46  1  0.78683700  0.72901200  0.39375500  1
  C  C47  1  0.21316300  0.27098800  0.60624500  1
  C  C48  1  0.71316300  0.77098800  0.89375500  1
  C  C49  1  0.28683700  0.22901200  0.10624500  1
  N  N50  1  0.84501500  0.76076400  0.32320900  1
  N  N51  1  0.15498500  0.23923600  0.67679100  1
  N  N52  1  0.65498500  0.73923600  0.82320900  1
  N  N53  1  0.34501500  0.26076400  0.17679100  1
  N  N54  1  0.88689600  0.82320000  0.44744100  1
  N  N55  1  0.11310400  0.17680000  0.55255900  1
  N  N56  1  0.61310400  0.67680000  0.94744100  1
  N  N57  1  0.38689600  0.32320000  0.05255900  1
  N  N58  1  0.48851300  0.84248600  0.14250700  1
  N  N59  1  0.51148700  0.15751400  0.85749300  1
  N  N60  1  0.01148700  0.65751400  0.64250700  1
  N  N61  1  0.98851300  0.34248600  0.35749300  1
  N  N62  1  0.21687100  0.97989100  0.82377600  1
  N  N63  1  0.78312900  0.02010900  0.17622400  1
  N  N64  1  0.28312900  0.52010900  0.32377600  1
  N  N65  1  0.71687100  0.47989100  0.67622400  1
  N  N66  1  0.87931200  0.51561000  0.15872100  1
  N  N67  1  0.12068800  0.48439000  0.84127900  1
  N  N68  1  0.62068800  0.98439000  0.65872100  1
  N  N69  1  0.37931200  0.01561000  0.34127900  1
  O  O70  1  0.32244200  0.98872600  0.40794100  1
  O  O71  1  0.67755800  0.01127400  0.59205900  1
  O  O72  1  0.17755800  0.51127400  0.90794100  1
  O  O73  1  0.82244200  0.48872600  0.09205900  1
  O  O74  1  0.26528400  0.95268500  0.28889000  1
  O  O75  1  0.73471600  0.04731500  0.71111000  1
  O  O76  1  0.23471600  0.54731500  0.78889000  1
  O  O77  1  0.76528400  0.45268500  0.21111000  1
  O  O78  1  0.04723300  0.60624000  0.17205700  1
  O  O79  1  0.95276700  0.39376000  0.82794300  1
  O  O80  1  0.45276700  0.89376000  0.67205700  1
  O  O81  1  0.54723300  0.10624000  0.32794300  1
  O  O82  1  0.75274400  0.59813900  0.56116200  1
  O  O83  1  0.24725600  0.40186100  0.43883800  1
  O  O84  1  0.74725600  0.90186100  0.06116200  1
  O  O85  1  0.25274400  0.09813900  0.93883800  1
  O  O86  1  0.63327500  0.61594500  0.40661200  1
  O  O87  1  0.36672500  0.38405500  0.59338800  1
  O  O88  1  0.86672500  0.88405500  0.90661200  1
  O  O89  1  0.13327500  0.11594500  0.09338800  1
  O  O90  1  0.13338000  0.77575000  0.02329300  1
  O  O91  1  0.86662000  0.22425000  0.97670700  1
  O  O92  1  0.36662000  0.72425000  0.52329300  1
  O  O93  1  0.63338000  0.27575000  0.47670700  1
