# generated using pymatgen
data_Na3PrV2O8
_symmetry_space_group_name_H-M   'P 1'
_cell_length_a   15.10762584
_cell_length_b   15.10762584
_cell_length_c   14.43432973
_cell_angle_alpha   88.62782230
_cell_angle_beta   88.62782230
_cell_angle_gamma   21.65814178
_symmetry_Int_Tables_number   1
_chemical_formula_structural   Na3PrV2O8
_chemical_formula_sum   'Na18 Pr6 V12 O48'
_cell_volume   1215.53139936
_cell_formula_units_Z   6
loop_
 _symmetry_equiv_pos_site_id
 _symmetry_equiv_pos_as_xyz
  1  'x, y, z'
loop_
 _atom_site_type_symbol
 _atom_site_label
 _atom_site_symmetry_multiplicity
 _atom_site_fract_x
 _atom_site_fract_y
 _atom_site_fract_z
 _atom_site_occupancy
  Na  Na0  1  0.29262200  0.28676500  0.41714600  1
  Na  Na1  1  0.28676500  0.29262200  0.91714600  1
  Na  Na2  1  0.17952400  0.14476900  0.32743600  1
  Na  Na3  1  0.14476900  0.17952400  0.82743600  1
  Na  Na4  1  0.33422700  0.44503100  0.07509300  1
  Na  Na5  1  0.44503100  0.33422700  0.57509300  1
  Na  Na6  1  0.54345800  0.44983700  0.23530600  1
  Na  Na7  1  0.44983700  0.54345800  0.73530600  1
  Na  Na8  1  0.05465900  0.06698800  0.00839500  1
  Na  Na9  1  0.06698800  0.05465900  0.50839500  1
  Na  Na10  1  0.60793900  0.58815700  0.39072800  1
  Na  Na11  1  0.58815700  0.60793900  0.89072800  1
  Na  Na12  1  0.93318400  0.94972500  0.15412100  1
  Na  Na13  1  0.94972500  0.93318400  0.65412100  1
  Na  Na14  1  0.71637300  0.72761100  0.47477700  1
  Na  Na15  1  0.72761100  0.71637300  0.97477700  1
  Na  Na16  1  0.80596800  0.83572400  0.29553100  1
  Na  Na17  1  0.83572400  0.80596800  0.79553100  1
  Pr  Pr18  1  0.58032300  0.66018400  0.63606400  1
  Pr  Pr19  1  0.66018400  0.58032300  0.13606400  1
  Pr  Pr20  1  0.04320500  0.84163100  0.40092800  1
  Pr  Pr21  1  0.84163100  0.04320500  0.90092800  1
  Pr  Pr22  1  0.22824400  0.30479100  0.16859400  1
  Pr  Pr23  1  0.30479100  0.22824400  0.66859400  1
  V  V24  1  0.69949100  0.72934000  0.25418900  1
  V  V25  1  0.72934000  0.69949100  0.75418900  1
  V  V26  1  0.08527500  0.02383600  0.25808000  1
  V  V27  1  0.02383600  0.08527500  0.75808000  1
  V  V28  1  0.18092200  0.16551600  0.04718400  1
  V  V29  1  0.16551600  0.18092200  0.54718400  1
  V  V30  1  0.80057300  0.86381300  0.04812900  1
  V  V31  1  0.86381300  0.80057300  0.54812900  1
  V  V32  1  0.42972700  0.34068700  0.30746000  1
  V  V33  1  0.34068700  0.42972700  0.80746000  1
  V  V34  1  0.45159300  0.54931200  0.00249400  1
  V  V35  1  0.54931200  0.45159300  0.50249400  1
  O  O36  1  0.93485100  0.20756500  0.16105900  1
  O  O37  1  0.20756500  0.93485100  0.66105900  1
  O  O38  1  0.41948600  0.87663900  0.01525000  1
  O  O39  1  0.87663900  0.41948600  0.51525000  1
  O  O40  1  0.41666000  0.57716400  0.39374600  1
  O  O41  1  0.57716400  0.41666000  0.89374600  1
  O  O42  1  0.46026200  0.01620800  0.29153400  1
  O  O43  1  0.01620800  0.46026200  0.79153400  1
  O  O44  1  0.32122400  0.45884700  0.41832100  1
  O  O45  1  0.45884700  0.32122400  0.91832100  1
  O  O46  1  0.01528000  0.15116200  0.35304400  1
  O  O47  1  0.15116200  0.01528000  0.85304400  1
  O  O48  1  0.13487100  0.20795300  0.16551300  1
  O  O49  1  0.20795300  0.13487100  0.66551300  1
  O  O50  1  0.58608900  0.34572200  0.07415100  1
  O  O51  1  0.34572200  0.58608900  0.57415100  1
  O  O52  1  0.86990600  0.90977400  0.52762800  1
  O  O53  1  0.90977400  0.86990600  0.02762800  1
  O  O54  1  0.35400700  0.30361700  0.27695600  1
  O  O55  1  0.30361700  0.35400700  0.77695600  1
  O  O56  1  0.67330900  0.96032300  0.64340500  1
  O  O57  1  0.96032300  0.67330900  0.14340600  1
  O  O58  1  0.74484300  0.05632900  0.30110800  1
  O  O59  1  0.05632900  0.74484300  0.80110800  1
  O  O60  1  0.49272800  0.15002900  0.07513100  1
  O  O61  1  0.15002900  0.49272800  0.57513100  1
  O  O62  1  0.72872600  0.70500500  0.13541400  1
  O  O63  1  0.70500500  0.72872600  0.63541400  1
  O  O64  1  0.96010100  0.52841600  0.30313000  1
  O  O65  1  0.52841600  0.96010100  0.80313000  1
  O  O66  1  0.23271800  0.22790500  0.01630100  1
  O  O67  1  0.22790500  0.23271800  0.51630100  1
  O  O68  1  0.52079000  0.59314700  0.03387700  1
  O  O69  1  0.59314700  0.52079000  0.53387700  1
  O  O70  1  0.39628900  0.73964000  0.23775300  1
  O  O71  1  0.73964000  0.39628900  0.73775300  1
  O  O72  1  0.74785800  0.85494200  0.45432300  1
  O  O73  1  0.85494200  0.74785800  0.95432300  1
  O  O74  1  0.36945100  0.91995000  0.49490200  1
  O  O75  1  0.91995000  0.36945100  0.99490200  1
  O  O76  1  0.98149400  0.01147500  0.27425900  1
  O  O77  1  0.01147500  0.98149400  0.77425900  1
  O  O78  1  0.28479200  0.55578200  0.24076100  1
  O  O79  1  0.55578200  0.28479200  0.74076100  1
  O  O80  1  0.83280500  0.13625500  0.50155600  1
  O  O81  1  0.13625500  0.83280500  0.00155600  1
  O  O82  1  0.66190300  0.65282500  0.78602000  1
  O  O83  1  0.65282500  0.66190300  0.28602000  1
