# generated using pymatgen
data_Na3H7(CO3)2
_symmetry_space_group_name_H-M   'P 1'
_cell_length_a   11.19712839
_cell_length_b   11.19712839
_cell_length_c   10.01497284
_cell_angle_alpha   76.21597224
_cell_angle_beta   76.21597224
_cell_angle_gamma   18.28986363
_symmetry_Int_Tables_number   1
_chemical_formula_structural   Na3H7(CO3)2
_chemical_formula_sum   'Na6 H14 C4 O12'
_cell_volume   382.40184627
_cell_formula_units_Z   2
loop_
 _symmetry_equiv_pos_site_id
 _symmetry_equiv_pos_as_xyz
  1  'x, y, z'
loop_
 _atom_site_type_symbol
 _atom_site_label
 _atom_site_symmetry_multiplicity
 _atom_site_fract_x
 _atom_site_fract_y
 _atom_site_fract_z
 _atom_site_occupancy
  Na  Na0  1  0.49674400  0.21599900  0.92297600  1
  Na  Na1  1  0.50325600  0.78400100  0.07702400  1
  Na  Na2  1  0.78400100  0.50325600  0.57702400  1
  Na  Na3  1  0.21599900  0.49674400  0.42297600  1
  Na  Na4  1  0.24051100  0.75948900  0.75000000  1
  Na  Na5  1  0.75948900  0.24051100  0.25000000  1
  H  H6  1  0.37517400  0.06326300  0.66845700  1
  H  H7  1  0.62482600  0.93673700  0.33154300  1
  H  H8  1  0.93673700  0.62482600  0.83154300  1
  H  H9  1  0.06326300  0.37517400  0.16845700  1
  H  H10  1  0.48215000  0.03324100  0.61371800  1
  H  H11  1  0.51785000  0.96675900  0.38628200  1
  H  H12  1  0.96675900  0.51785000  0.88628200  1
  H  H13  1  0.03324100  0.48215000  0.11371800  1
  H  H14  1  0.50000000  0.50000000  0.50000000  1
  H  H15  1  0.50000000  0.50000000  0.00000000  1
  H  H16  1  0.26360700  0.09504000  0.73502900  1
  H  H17  1  0.73639300  0.90496000  0.26497100  1
  H  H18  1  0.90496000  0.73639300  0.76497100  1
  H  H19  1  0.09504000  0.26360700  0.23502900  1
  C  C20  1  0.67035200  0.15383600  0.59636300  1
  C  C21  1  0.32964800  0.84616400  0.40363700  1
  C  C22  1  0.84616400  0.32964800  0.90363700  1
  C  C23  1  0.15383600  0.67035200  0.09636300  1
  O  O24  1  0.43036900  0.66849400  0.51640700  1
  O  O25  1  0.56963100  0.33150600  0.48359300  1
  O  O26  1  0.33150600  0.56963100  0.98359300  1
  O  O27  1  0.66849400  0.43036900  0.01640700  1
  O  O28  1  0.67326700  0.18218000  0.71147600  1
  O  O29  1  0.32673300  0.81782000  0.28852400  1
  O  O30  1  0.81782000  0.32673300  0.78852400  1
  O  O31  1  0.18218000  0.67326700  0.21147600  1
  O  O32  1  0.75048000  0.96940400  0.58030300  1
  O  O33  1  0.24952000  0.03059600  0.41969700  1
  O  O34  1  0.03059600  0.24952000  0.91969700  1
  O  O35  1  0.96940400  0.75048000  0.08030300  1
