# generated using pymatgen
data_NaCa3C2O7F3
_symmetry_space_group_name_H-M   'P 1'
_cell_length_a   6.80841668
_cell_length_b   6.80841668
_cell_length_c   15.36860500
_cell_angle_alpha   90.00000000
_cell_angle_beta   90.00000000
_cell_angle_gamma   120.00000660
_symmetry_Int_Tables_number   1
_chemical_formula_structural   NaCa3C2O7F3
_chemical_formula_sum   'Na3 Ca9 C6 O21 F9'
_cell_volume   616.96042263
_cell_formula_units_Z   3
loop_
 _symmetry_equiv_pos_site_id
 _symmetry_equiv_pos_as_xyz
  1  'x, y, z'
loop_
 _atom_site_type_symbol
 _atom_site_label
 _atom_site_symmetry_multiplicity
 _atom_site_fract_x
 _atom_site_fract_y
 _atom_site_fract_z
 _atom_site_occupancy
  Na  Na0  1  0.59489500  0.66331000  0.49911700  1
  Na  Na1  1  0.06841500  0.40510500  0.16578300  1
  Na  Na2  1  0.33669000  0.93158500  0.83245000  1
  Ca  Ca3  1  0.97320800  0.66764300  0.66082000  1
  Ca  Ca4  1  0.69443500  0.02679200  0.32748700  1
  Ca  Ca5  1  0.33235700  0.30556500  0.99415400  1
  Ca  Ca6  1  0.70350200  0.04063300  0.00773300  1
  Ca  Ca7  1  0.33713100  0.29649800  0.67439900  1
  Ca  Ca8  1  0.95936700  0.66286900  0.34106600  1
  Ca  Ca9  1  0.71889400  0.04926400  0.66251600  1
  Ca  Ca10  1  0.33037000  0.28110600  0.32918300  1
  Ca  Ca11  1  0.95073600  0.66963000  0.99584900  1
  C  C12  1  0.89909200  0.99498800  0.82447800  1
  C  C13  1  0.09589500  0.10090800  0.49114500  1
  C  C14  1  0.00501200  0.90410500  0.15781100  1
  C  C15  1  0.76664300  0.43119000  0.82633000  1
  C  C16  1  0.66454700  0.23335700  0.49299600  1
  C  C17  1  0.56881000  0.33545300  0.15966300  1
  O  O18  1  0.33026100  0.36962900  0.84149800  1
  O  O19  1  0.03936800  0.66973900  0.50816500  1
  O  O20  1  0.63037100  0.96063200  0.17483100  1
  O  O21  1  0.97163500  0.59349700  0.83770400  1
  O  O22  1  0.62186200  0.02836500  0.50437100  1
  O  O23  1  0.40650300  0.37813800  0.17103700  1
  O  O24  1  0.01795000  0.03809600  0.89637200  1
  O  O25  1  0.02014600  0.98205000  0.56303900  1
  O  O26  1  0.96190400  0.97985400  0.22970600  1
  O  O27  1  0.69652200  0.96022800  0.82928300  1
  O  O28  1  0.26370500  0.30347800  0.49595000  1
  O  O29  1  0.03977200  0.73629500  0.16261700  1
  O  O30  1  0.64106500  0.33667900  0.89518400  1
  O  O31  1  0.69561400  0.35893500  0.56185000  1
  O  O32  1  0.66332100  0.30438600  0.22851700  1
  O  O33  1  0.68573500  0.36247300  0.74910600  1
  O  O34  1  0.67673800  0.31426500  0.41577200  1
  O  O35  1  0.63752700  0.32326200  0.08243900  1
  O  O36  1  0.00181600  0.01272600  0.41693900  1
  O  O37  1  0.01091000  0.99818400  0.08360600  1
  O  O38  1  0.98727400  0.98909000  0.75027200  1
  F  F39  1  0.60086400  0.66870300  0.64583400  1
  F  F40  1  0.06784000  0.39913600  0.31250100  1
  F  F41  1  0.33129700  0.93216000  0.97916800  1
  F  F42  1  0.61191300  0.67809600  0.99811300  1
  F  F43  1  0.06618300  0.38808700  0.66478000  1
  F  F44  1  0.32190400  0.93381700  0.33144700  1
  F  F45  1  0.60150000  0.65372800  0.35017300  1
  F  F46  1  0.05222800  0.39850000  0.01684000  1
  F  F47  1  0.34627200  0.94777200  0.68350600  1
