# generated using pymatgen
data_MnHSeO4
_symmetry_space_group_name_H-M   'P 1'
_cell_length_a   5.53473225
_cell_length_b   5.53473225
_cell_length_c   6.81826224
_cell_angle_alpha   74.58598676
_cell_angle_beta   74.58598676
_cell_angle_gamma   99.55018149
_symmetry_Int_Tables_number   1
_chemical_formula_structural   MnHSeO4
_chemical_formula_sum   'Mn2 H2 Se2 O8'
_cell_volume   187.71673909
_cell_formula_units_Z   2
loop_
 _symmetry_equiv_pos_site_id
 _symmetry_equiv_pos_as_xyz
  1  'x, y, z'
loop_
 _atom_site_type_symbol
 _atom_site_label
 _atom_site_symmetry_multiplicity
 _atom_site_fract_x
 _atom_site_fract_y
 _atom_site_fract_z
 _atom_site_occupancy
  Mn  Mn0  1  0.00000000  0.00000000  0.00000000  1
  Mn  Mn1  1  0.00000000  0.00000000  0.50000000  1
  H  H2  1  0.93761400  0.06238600  0.75000000  1
  H  H3  1  0.06238600  0.93761400  0.25000000  1
  Se  Se4  1  0.33114000  0.66886000  0.75000000  1
  Se  Se5  1  0.66886000  0.33114000  0.25000000  1
  O  O6  1  0.25400000  0.37065800  0.92296400  1
  O  O7  1  0.74600000  0.62934200  0.07703600  1
  O  O8  1  0.62934200  0.74600000  0.57703600  1
  O  O9  1  0.37065800  0.25400000  0.42296400  1
  O  O10  1  0.31516400  0.88636400  0.88361900  1
  O  O11  1  0.68483600  0.11363600  0.11638100  1
  O  O12  1  0.11363600  0.68483600  0.61638100  1
  O  O13  1  0.88636400  0.31516400  0.38361900  1
