# generated using pymatgen
data_NaEuCl4
_symmetry_space_group_name_H-M   'P 1'
_cell_length_a   6.95107200
_cell_length_b   7.01894027
_cell_length_c   7.11149111
_cell_angle_alpha   89.41377067
_cell_angle_beta   88.02396291
_cell_angle_gamma   77.54649860
_symmetry_Int_Tables_number   1
_chemical_formula_structural   NaEuCl4
_chemical_formula_sum   'Na2 Eu2 Cl8'
_cell_volume   338.59721944
_cell_formula_units_Z   2
loop_
 _symmetry_equiv_pos_site_id
 _symmetry_equiv_pos_as_xyz
  1  'x, y, z'
loop_
 _atom_site_type_symbol
 _atom_site_label
 _atom_site_symmetry_multiplicity
 _atom_site_fract_x
 _atom_site_fract_y
 _atom_site_fract_z
 _atom_site_occupancy
  Na  Na0  1  0.23159800  0.19535200  0.53479300  1
  Na  Na1  1  0.76840200  0.80464800  0.46520700  1
  Eu  Eu2  1  0.78841100  0.30463300  0.05094100  1
  Eu  Eu3  1  0.21158900  0.69536700  0.94905900  1
  Cl  Cl4  1  0.60775000  0.20219200  0.36962400  1
  Cl  Cl5  1  0.39225000  0.79780800  0.63037600  1
  Cl  Cl6  1  0.09134600  0.00274900  0.21251000  1
  Cl  Cl7  1  0.90865400  0.99725100  0.78749000  1
  Cl  Cl8  1  0.04694700  0.50340000  0.24608700  1
  Cl  Cl9  1  0.95305300  0.49660000  0.75391300  1
  Cl  Cl10  1  0.56708900  0.68988300  0.12271000  1
  Cl  Cl11  1  0.43291100  0.31011700  0.87729000  1
