# generated using pymatgen
data_Nd2H13(CO)12
_symmetry_space_group_name_H-M   'P 1'
_cell_length_a   7.39294700
_cell_length_b   10.28261800
_cell_length_c   16.38738475
_cell_angle_alpha   89.14871261
_cell_angle_beta   90.00000000
_cell_angle_gamma   90.00000000
_symmetry_Int_Tables_number   1
_chemical_formula_structural   Nd2H13(CO)12
_chemical_formula_sum   'Nd4 H26 C24 O24'
_cell_volume   1245.61264239
_cell_formula_units_Z   2
loop_
 _symmetry_equiv_pos_site_id
 _symmetry_equiv_pos_as_xyz
  1  'x, y, z'
loop_
 _atom_site_type_symbol
 _atom_site_label
 _atom_site_symmetry_multiplicity
 _atom_site_fract_x
 _atom_site_fract_y
 _atom_site_fract_z
 _atom_site_occupancy
  Nd  Nd0  1  0.20148100  0.58513000  0.41075000  1
  Nd  Nd1  1  0.79851900  0.58513000  0.91075000  1
  Nd  Nd2  1  0.18177100  0.16492200  0.70134500  1
  Nd  Nd3  1  0.81822900  0.16492200  0.20134500  1
  H  H4  1  0.78511300  0.24686100  0.35871300  1
  H  H5  1  0.21488700  0.24686100  0.85871300  1
  H  H6  1  0.11631400  0.34959700  0.48891700  1
  H  H7  1  0.88368600  0.34959700  0.98891700  1
  H  H8  1  0.18601400  0.81643100  0.47639900  1
  H  H9  1  0.81398600  0.81643100  0.97639900  1
  H  H10  1  0.02685600  0.51596600  0.80273600  1
  H  H11  1  0.97314400  0.51596600  0.30273600  1
  H  H12  1  0.65561300  0.69248600  0.31129300  1
  H  H13  1  0.34438700  0.69248600  0.81129300  1
  H  H14  1  0.34539500  0.02424400  0.34490500  1
  H  H15  1  0.65460500  0.02424400  0.84490500  1
  H  H16  1  0.17699600  0.71396700  0.30950400  1
  H  H17  1  0.82300400  0.71396700  0.80950400  1
  H  H18  1  0.81714600  0.01814700  0.34615200  1
  H  H19  1  0.18285400  0.01814700  0.84615200  1
  H  H20  1  0.20149500  0.56635200  0.55972800  1
  H  H21  1  0.79850500  0.56635200  0.05972800  1
  H  H22  1  0.18232300  0.90689500  0.66785700  1
  H  H23  1  0.81767700  0.90689500  0.16785700  1
  H  H24  1  0.86616700  0.20172600  0.36276600  1
  H  H25  1  0.13383300  0.20172600  0.86276600  1
  H  H26  1  0.18755100  0.10982800  0.57174900  1
  H  H27  1  0.81244900  0.10982800  0.07174900  1
  H  H28  1  0.20812900  0.36682300  0.50612700  1
  H  H29  1  0.79187100  0.36682300  0.00612700  1
  C  C30  1  0.45368900  0.36836400  0.18564000  1
  C  C31  1  0.54631100  0.36836400  0.68564000  1
  C  C32  1  0.31682000  0.35657000  0.11794100  1
  C  C33  1  0.68318000  0.35657000  0.61794100  1
  C  C34  1  0.20841800  0.68720600  0.10462000  1
  C  C35  1  0.79158200  0.68720600  0.60462000  1
  C  C36  1  0.43316900  0.01490300  0.05593800  1
  C  C37  1  0.56683100  0.01490300  0.55593800  1
  C  C38  1  0.17450400  0.37000500  0.18248400  1
  C  C39  1  0.82549600  0.37000500  0.68248400  1
  C  C40  1  0.20610200  0.65871400  0.01534200  1
  C  C41  1  0.79389800  0.65871400  0.51534200  1
  C  C42  1  0.22434300  0.01314700  0.05182000  1
  C  C43  1  0.77565700  0.01314700  0.55182000  1
  C  C44  1  0.40063900  0.66418400  0.01059800  1
  C  C45  1  0.59936100  0.66418400  0.51059800  1
  C  C46  1  0.41850800  0.03355400  0.14528000  1
  C  C47  1  0.58149200  0.03355400  0.64528000  1
  C  C48  1  0.41910400  0.68987900  0.09923500  1
  C  C49  1  0.58089600  0.68987900  0.59923500  1
  C  C50  1  0.22260400  0.03391000  0.14184800  1
  C  C51  1  0.77739600  0.03391000  0.64184800  1
  C  C52  1  0.31050500  0.40007600  0.24350100  1
  C  C53  1  0.68949500  0.40007600  0.74350100  1
  O  O54  1  0.54011000  0.05304700  0.19779400  1
  O  O55  1  0.45989000  0.05304700  0.69779400  1
  O  O56  1  0.62022800  0.34249100  0.19091200  1
  O  O57  1  0.37977200  0.34249100  0.69091200  1
  O  O58  1  0.48251300  0.64803500  0.45576400  1
  O  O59  1  0.51748700  0.64803500  0.95576400  1
  O  O60  1  0.30309700  0.43121400  0.31838200  1
  O  O61  1  0.69690300  0.43121400  0.81838200  1
  O  O62  1  0.32116500  0.33885600  0.04403500  1
  O  O63  1  0.67883500  0.33885600  0.54403500  1
  O  O64  1  0.09466300  0.05530100  0.19093200  1
  O  O65  1  0.90533700  0.05530100  0.69093200  1
  O  O66  1  0.09455300  0.69776700  0.15747700  1
  O  O67  1  0.90544700  0.69776700  0.65747700  1
  O  O68  1  0.07849100  0.63360100  0.96721200  1
  O  O69  1  0.92150900  0.63360100  0.46721200  1
  O  O70  1  0.55854100  0.01422400  0.00746900  1
  O  O71  1  0.44145900  0.01422400  0.50746900  1
  O  O72  1  0.54518100  0.70033000  0.14636700  1
  O  O73  1  0.45481900  0.70033000  0.64636700  1
  O  O74  1  0.00647100  0.34753900  0.18632200  1
  O  O75  1  0.99352900  0.34753900  0.68632200  1
  O  O76  1  0.11031900  0.00765800  0.99819500  1
  O  O77  1  0.88968100  0.00765800  0.49819500  1
