# generated using pymatgen
data_PbC12(SF5)2
_symmetry_space_group_name_H-M   'P 1'
_cell_length_a   10.64545831
_cell_length_b   13.85244636
_cell_length_c   14.79970293
_cell_angle_alpha   90.00000000
_cell_angle_beta   95.61502917
_cell_angle_gamma   90.00000000
_symmetry_Int_Tables_number   1
_chemical_formula_structural   PbC12(SF5)2
_chemical_formula_sum   'Pb6 C72 S12 F60'
_cell_volume   2171.97577868
_cell_formula_units_Z   6
loop_
 _symmetry_equiv_pos_site_id
 _symmetry_equiv_pos_as_xyz
  1  'x, y, z'
loop_
 _atom_site_type_symbol
 _atom_site_label
 _atom_site_symmetry_multiplicity
 _atom_site_fract_x
 _atom_site_fract_y
 _atom_site_fract_z
 _atom_site_occupancy
  Pb  Pb0  1  0.84580476  0.66375816  0.48788370  1
  Pb  Pb1  1  0.15419524  0.33624184  0.51211630  1
  Pb  Pb2  1  0.65419524  0.16375816  0.51211630  1
  Pb  Pb3  1  0.34580476  0.83624184  0.48788370  1
  Pb  Pb4  1  0.00000000  0.00000000  0.50000000  1
  Pb  Pb5  1  0.50000000  0.50000000  0.50000000  1
  C  C6  1  0.93854996  0.76695544  0.80562690  1
  C  C7  1  0.06145004  0.23304456  0.19437310  1
  C  C8  1  0.56145004  0.26695544  0.19437310  1
  C  C9  1  0.43854996  0.73304456  0.80562690  1
  C  C10  1  0.84026798  0.84174079  0.66600501  1
  C  C11  1  0.15973202  0.15825921  0.33399499  1
  C  C12  1  0.65973202  0.34174079  0.33399499  1
  C  C13  1  0.34026798  0.65825921  0.66600501  1
  C  C14  1  0.78282404  0.89236144  0.81530756  1
  C  C15  1  0.21717596  0.10763856  0.18469244  1
  C  C16  1  0.71717596  0.39236144  0.18469244  1
  C  C17  1  0.28282404  0.60763856  0.81530756  1
  C  C18  1  0.77097692  0.89966089  0.72121151  1
  C  C19  1  0.22902308  0.10033911  0.27878849  1
  C  C20  1  0.72902308  0.39966089  0.27878849  1
  C  C21  1  0.27097692  0.60033911  0.72121151  1
  C  C22  1  0.62020455  0.67104898  0.29300536  1
  C  C23  1  0.37979545  0.32895102  0.70699464  1
  C  C24  1  0.87979545  0.17104898  0.70699464  1
  C  C25  1  0.12020455  0.82895102  0.29300536  1
  C  C26  1  0.45093445  0.39288756  0.76494159  1
  C  C27  1  0.54906555  0.60711244  0.23505841  1
  C  C28  1  0.04906555  0.89288756  0.23505841  1
  C  C29  1  0.95093445  0.10711244  0.76494159  1
  C  C30  1  0.79297898  0.54574792  0.70332258  1
  C  C31  1  0.20702102  0.45425208  0.29667742  1
  C  C32  1  0.70702102  0.04574792  0.29667742  1
  C  C33  1  0.29297898  0.95425208  0.70332258  1
  C  C34  1  0.44062462  0.39646137  0.85801006  1
  C  C35  1  0.55937538  0.60353863  0.14198994  1
  C  C36  1  0.05937538  0.89646137  0.14198994  1
  C  C37  1  0.94062462  0.10353863  0.85801006  1
  C  C38  1  0.77505783  0.55414363  0.79600010  1
  C  C39  1  0.22494217  0.44585637  0.20399990  1
  C  C40  1  0.72494217  0.05414363  0.20399990  1
  C  C41  1  0.27505783  0.94585637  0.79600010  1
  C  C42  1  0.85606475  0.16497283  0.89610305  1
  C  C43  1  0.14393525  0.83502717  0.10389695  1
  C  C44  1  0.64393525  0.66497283  0.10389695  1
  C  C45  1  0.35606475  0.33502717  0.89610305  1
  C  C46  1  0.78235753  0.22872637  0.84016263  1
  C  C47  1  0.21764247  0.77127363  0.15983737  1
  C  C48  1  0.71764247  0.72872637  0.15983737  1
  C  C49  1  0.28235753  0.27127363  0.84016263  1
  C  C50  1  0.92472384  0.77593030  0.71157230  1
  C  C51  1  0.07527616  0.22406970  0.28842770  1
  C  C52  1  0.57527616  0.27593030  0.28842770  1
  C  C53  1  0.42472384  0.72406970  0.71157230  1
  C  C54  1  0.94087512  0.43936132  0.83914001  1
  C  C55  1  0.05912488  0.56063868  0.16085999  1
  C  C56  1  0.55912488  0.93936132  0.16085999  1
  C  C57  1  0.44087512  0.06063868  0.83914001  1
  C  C58  1  0.88940416  0.48308412  0.68218257  1
  C  C59  1  0.11059584  0.51691588  0.31781743  1
  C  C60  1  0.61059584  0.98308412  0.31781743  1
  C  C61  1  0.38940416  0.01691588  0.68218257  1
  C  C62  1  0.86684924  0.82519075  0.85817913  1
  C  C63  1  0.13315076  0.17480925  0.14182087  1
  C  C64  1  0.63315076  0.32519075  0.14182087  1
  C  C65  1  0.36684924  0.67480925  0.85817913  1
  C  C66  1  0.84672170  0.50195435  0.86319350  1
  C  C67  1  0.15327830  0.49804565  0.13680650  1
  C  C68  1  0.65327830  0.00195435  0.13680650  1
  C  C69  1  0.34672170  0.99804565  0.86319350  1
  C  C70  1  0.79491289  0.23088183  0.74740431  1
  C  C71  1  0.20508711  0.76911817  0.25259569  1
  C  C72  1  0.70508711  0.73088183  0.25259569  1
  C  C73  1  0.29491289  0.26911817  0.74740431  1
  C  C74  1  0.96189756  0.43033826  0.74798584  1
  C  C75  1  0.03810244  0.56966174  0.25201416  1
  C  C76  1  0.53810244  0.93033826  0.25201416  1
  C  C77  1  0.46189756  0.06966174  0.74798584  1
  S  S78  1  0.59984506  0.67956149  0.40892149  1
  S  S79  1  0.40015494  0.32043851  0.59107851  1
  S  S80  1  0.90015494  0.17956149  0.59107851  1
  S  S81  1  0.09984506  0.82043851  0.40892149  1
  S  S82  1  0.69708880  0.61169981  0.62232964  1
  S  S83  1  0.30291120  0.38830019  0.37767036  1
  S  S84  1  0.80291120  0.11169981  0.37767036  1
  S  S85  1  0.19708880  0.88830019  0.62232964  1
  S  S86  1  0.81235206  0.85169246  0.54765491  1
  S  S87  1  0.18764794  0.14830754  0.45234509  1
  S  S88  1  0.68764794  0.35169246  0.45234509  1
  S  S89  1  0.31235206  0.64830754  0.54765491  1
  F  F90  1  0.51138530  0.45941788  0.91065198  1
  F  F91  1  0.48861470  0.54058212  0.08934802  1
  F  F92  1  0.98861470  0.95941788  0.08934802  1
  F  F93  1  0.01138530  0.04058212  0.91065198  1
  F  F94  1  0.71367837  0.94964221  0.86539893  1
  F  F95  1  0.28632163  0.05035779  0.13460107  1
  F  F96  1  0.78632163  0.44964221  0.13460107  1
  F  F97  1  0.21367837  0.55035779  0.86539893  1
  F  F98  1  0.94818455  0.63133626  0.27598087  1
  F  F99  1  0.05181545  0.36866374  0.72401913  1
  F  F100  1  0.55181545  0.13133626  0.72401913  1
  F  F101  1  0.44818455  0.86866374  0.27598087  1
  F  F102  1  0.98970738  0.61245175  0.09701316  1
  F  F103  1  0.01029262  0.38754825  0.90298684  1
  F  F104  1  0.51029262  0.11245175  0.90298684  1
  F  F105  1  0.48970738  0.88754825  0.09701316  1
  F  F106  1  0.77995538  0.79279872  0.30536405  1
  F  F107  1  0.22004462  0.20720128  0.69463595  1
  F  F108  1  0.72004462  0.29279872  0.69463595  1
  F  F109  1  0.27995538  0.70720128  0.30536405  1
  F  F110  1  0.51986787  0.79825164  0.84650352  1
  F  F111  1  0.48013213  0.20174836  0.15349648  1
  F  F112  1  0.98013213  0.29825164  0.15349648  1
  F  F113  1  0.01986787  0.70174836  0.84650352  1
  F  F114  1  0.68574378  0.61476736  0.82190309  1
  F  F115  1  0.31425622  0.38523264  0.17809691  1
  F  F116  1  0.81425622  0.11476736  0.17809691  1
  F  F117  1  0.18574378  0.88523264  0.82190309  1
  F  F118  1  0.87760921  0.81602905  0.94892083  1
  F  F119  1  0.12239079  0.18397095  0.05107917  1
  F  F120  1  0.62239079  0.31602905  0.05107917  1
  F  F121  1  0.37760921  0.68397095  0.94892083  1
  F  F122  1  0.84465066  0.16271833  0.98571851  1
  F  F123  1  0.15534934  0.83728167  0.01428149  1
  F  F124  1  0.65534934  0.66271833  0.01428149  1
  F  F125  1  0.34465066  0.33728167  0.98571851  1
  F  F126  1  0.96696781  0.95419042  0.27010073  1
  F  F127  1  0.03303219  0.04580958  0.72989927  1
  F  F128  1  0.53303219  0.45419042  0.72989927  1
  F  F129  1  0.46696781  0.54580958  0.27010073  1
  F  F130  1  0.91465611  0.47233912  0.59406250  1
  F  F131  1  0.08534389  0.52766088  0.40593750  1
  F  F132  1  0.58534389  0.97233912  0.40593750  1
  F  F133  1  0.41465611  0.02766088  0.59406250  1
  F  F134  1  0.82589147  0.51110752  0.95100226  1
  F  F135  1  0.17410853  0.48889248  0.04899774  1
  F  F136  1  0.67410853  0.01110752  0.04899774  1
  F  F137  1  0.32589147  0.98889248  0.95100226  1
  F  F138  1  0.99415289  0.71560824  0.66297768  1
  F  F139  1  0.00584711  0.28439176  0.33702232  1
  F  F140  1  0.50584711  0.21560824  0.33702232  1
  F  F141  1  0.49415289  0.78439176  0.66297768  1
  F  F142  1  0.68741825  0.96491963  0.68161585  1
  F  F143  1  0.31258175  0.03508037  0.31838415  1
  F  F144  1  0.81258175  0.46491963  0.31838415  1
  F  F145  1  0.18741825  0.53508037  0.68161585  1
  F  F146  1  0.69950928  0.28803845  0.87581680  1
  F  F147  1  0.30049072  0.71196155  0.12418320  1
  F  F148  1  0.80049072  0.78803845  0.12418320  1
  F  F149  1  0.19950928  0.21196155  0.87581680  1
