# generated using pymatgen
data_MgPH6NO5
_symmetry_space_group_name_H-M   'P 1'
_cell_length_a   5.39891300
_cell_length_b   7.18060900
_cell_length_c   10.28264500
_cell_angle_alpha   90.00000000
_cell_angle_beta   90.00000000
_cell_angle_gamma   90.00000000
_symmetry_Int_Tables_number   1
_chemical_formula_structural   MgPH6NO5
_chemical_formula_sum   'Mg2 P2 H12 N2 O10'
_cell_volume   398.63226809
_cell_formula_units_Z   2
loop_
 _symmetry_equiv_pos_site_id
 _symmetry_equiv_pos_as_xyz
  1  'x, y, z'
loop_
 _atom_site_type_symbol
 _atom_site_label
 _atom_site_symmetry_multiplicity
 _atom_site_fract_x
 _atom_site_fract_y
 _atom_site_fract_z
 _atom_site_occupancy
  Mg  Mg0  1  0.42968300  0.00000000  0.43569600  1
  Mg  Mg1  1  0.92968300  0.50000000  0.56430400  1
  P  P2  1  0.01076600  0.00000000  0.31014800  1
  P  P3  1  0.51076600  0.50000000  0.68985200  1
  H  H4  1  0.67941400  0.00000000  0.02260200  1
  H  H5  1  0.17941300  0.50000000  0.97739800  1
  H  H6  1  0.05957400  0.38389800  0.34939900  1
  H  H7  1  0.55957400  0.11610200  0.65060100  1
  H  H8  1  0.55957400  0.88389800  0.65060100  1
  H  H9  1  0.05957400  0.61610200  0.34939900  1
  H  H10  1  0.17822600  0.00000000  0.11479600  1
  H  H11  1  0.67822600  0.50000000  0.88520400  1
  H  H12  1  0.53545600  0.44775000  0.15537000  1
  H  H13  1  0.03545600  0.05225000  0.84463000  1
  H  H14  1  0.03545600  0.94775000  0.84463000  1
  H  H15  1  0.53545600  0.55225000  0.15537000  1
  N  N16  1  0.49206300  0.00000000  0.04779100  1
  N  N17  1  0.99206300  0.50000000  0.95220900  1
  O  O18  1  0.46600900  0.00000000  0.62661600  1
  O  O19  1  0.96600900  0.50000000  0.37338400  1
  O  O20  1  0.01004400  0.00000000  0.15374100  1
  O  O21  1  0.51004400  0.50000000  0.84625900  1
  O  O22  1  0.16333700  0.16900700  0.36089000  1
  O  O23  1  0.66333700  0.33099300  0.63911000  1
  O  O24  1  0.66333700  0.66900700  0.63911000  1
  O  O25  1  0.16333700  0.83099300  0.36089000  1
  O  O26  1  0.74066200  0.00000000  0.34792100  1
  O  O27  1  0.24066200  0.50000000  0.65207900  1
