# generated using pymatgen
data_YTiGe
_symmetry_space_group_name_H-M   'P 1'
_cell_length_a   8.25280911
_cell_length_b   8.25280911
_cell_length_c   8.25280911
_cell_angle_alpha   151.51792340
_cell_angle_beta   151.51792340
_cell_angle_gamma   40.71771586
_symmetry_Int_Tables_number   1
_chemical_formula_structural   YTiGe
_chemical_formula_sum   'Y2 Ti2 Ge2'
_cell_volume   127.56387345
_cell_formula_units_Z   2
loop_
 _symmetry_equiv_pos_site_id
 _symmetry_equiv_pos_as_xyz
  1  'x, y, z'
loop_
 _atom_site_type_symbol
 _atom_site_label
 _atom_site_symmetry_multiplicity
 _atom_site_fract_x
 _atom_site_fract_y
 _atom_site_fract_z
 _atom_site_occupancy
  Y  Y0  1  0.67413900  0.67413900  0.00000000  1
  Y  Y1  1  0.32586100  0.32586100  0.00000000  1
  Ti  Ti2  1  0.50000000  0.00000000  0.50000000  1
  Ti  Ti3  1  0.00000000  0.50000000  0.50000000  1
  Ge  Ge4  1  0.12242100  0.12242100  0.00000000  1
  Ge  Ge5  1  0.87757900  0.87757900  0.00000000  1
