# generated using pymatgen
data_Mn3NbF6
_symmetry_space_group_name_H-M   'P 1'
_cell_length_a   6.02507758
_cell_length_b   7.58650520
_cell_length_c   7.92438624
_cell_angle_alpha   80.32753133
_cell_angle_beta   115.55225109
_cell_angle_gamma   112.85757908
_symmetry_Int_Tables_number   1
_chemical_formula_structural   Mn3NbF6
_chemical_formula_sum   'Mn3 Nb1 F6'
_cell_volume   301.12847280
_cell_formula_units_Z   1
loop_
 _symmetry_equiv_pos_site_id
 _symmetry_equiv_pos_as_xyz
  1  'x, y, z'
loop_
 _atom_site_type_symbol
 _atom_site_label
 _atom_site_symmetry_multiplicity
 _atom_site_fract_x
 _atom_site_fract_y
 _atom_site_fract_z
 _atom_site_occupancy
  Mn  Mn0  1  0.00000000  0.00000000  0.50000000  1
  Mn  Mn1  1  0.50000000  0.50000000  0.00000000  1
  Mn  Mn2  1  0.00000000  0.50000000  0.00000000  1
  Nb  Nb3  1  0.00000000  0.00000000  0.00000000  1
  F  F4  1  0.84128700  0.21169400  0.93157800  1
  F  F5  1  0.15871300  0.78830600  0.06842200  1
  F  F6  1  0.92457800  0.99345300  0.71127000  1
  F  F7  1  0.07542200  0.00654700  0.28873000  1
  F  F8  1  0.63503300  0.79562900  0.93138900  1
  F  F9  1  0.36496700  0.20437100  0.06861100  1
