# generated using pymatgen
data_Na2Fe(SO6)2
_symmetry_space_group_name_H-M   'P 1'
_cell_length_a   5.46857354
_cell_length_b   8.33756400
_cell_length_c   11.24356562
_cell_angle_alpha   90.00000000
_cell_angle_beta   97.54291185
_cell_angle_gamma   90.00000000
_symmetry_Int_Tables_number   1
_chemical_formula_structural   Na2Fe(SO6)2
_chemical_formula_sum   'Na4 Fe2 S4 O24'
_cell_volume   508.20966062
_cell_formula_units_Z   2
loop_
 _symmetry_equiv_pos_site_id
 _symmetry_equiv_pos_as_xyz
  1  'x, y, z'
loop_
 _atom_site_type_symbol
 _atom_site_label
 _atom_site_symmetry_multiplicity
 _atom_site_fract_x
 _atom_site_fract_y
 _atom_site_fract_z
 _atom_site_occupancy
  Na  Na0  1  0.10839300  0.07162200  0.35920400  1
  Na  Na1  1  0.89160700  0.92837800  0.64079600  1
  Na  Na2  1  0.89160700  0.57162200  0.14079600  1
  Na  Na3  1  0.10839300  0.42837800  0.85920400  1
  Fe  Fe4  1  0.00000000  0.00000000  0.00000000  1
  Fe  Fe5  1  0.00000000  0.50000000  0.50000000  1
  S  S6  1  0.37599100  0.29503200  0.13886300  1
  S  S7  1  0.62400900  0.70496800  0.86113700  1
  S  S8  1  0.62400900  0.79503200  0.36113700  1
  S  S9  1  0.37599100  0.20496800  0.63886300  1
  O  O10  1  0.33502900  0.27363100  0.26606400  1
  O  O11  1  0.66497100  0.72636900  0.73393600  1
  O  O12  1  0.66497100  0.77363100  0.23393600  1
  O  O13  1  0.33502900  0.22636900  0.76606400  1
  O  O14  1  0.11588800  0.82075200  0.08365000  1
  O  O15  1  0.88411200  0.17924800  0.91635000  1
  O  O16  1  0.88411200  0.32075200  0.41635000  1
  O  O17  1  0.11588800  0.67924800  0.58365000  1
  O  O18  1  0.21560700  0.42039900  0.07852800  1
  O  O19  1  0.78439300  0.57960100  0.92147200  1
  O  O20  1  0.78439300  0.92039900  0.42147200  1
  O  O21  1  0.21560700  0.07960100  0.57852800  1
  O  O22  1  0.63763400  0.33134000  0.13212100  1
  O  O23  1  0.36236600  0.66866000  0.86787900  1
  O  O24  1  0.36236600  0.83134000  0.36787900  1
  O  O25  1  0.63763400  0.16866000  0.63212100  1
  O  O26  1  0.31700500  0.13634200  0.07536200  1
  O  O27  1  0.68299500  0.86365800  0.92463800  1
  O  O28  1  0.68299500  0.63634200  0.42463800  1
  O  O29  1  0.31700500  0.36365800  0.57536200  1
  O  O30  1  0.07876900  0.50936000  0.34497400  1
  O  O31  1  0.92123100  0.49064000  0.65502600  1
  O  O32  1  0.92123100  0.00936000  0.15502600  1
  O  O33  1  0.07876900  0.99064000  0.84497400  1
