# generated using pymatgen
data_Na3TbV2O8
_symmetry_space_group_name_H-M   'P 1'
_cell_length_a   14.86588991
_cell_length_b   14.86588991
_cell_length_c   14.27569536
_cell_angle_alpha   88.47306989
_cell_angle_beta   88.47306989
_cell_angle_gamma   21.86797656
_symmetry_Int_Tables_number   1
_chemical_formula_structural   Na3TbV2O8
_chemical_formula_sum   'Na18 Tb6 V12 O48'
_cell_volume   1174.65247210
_cell_formula_units_Z   6
loop_
 _symmetry_equiv_pos_site_id
 _symmetry_equiv_pos_as_xyz
  1  'x, y, z'
loop_
 _atom_site_type_symbol
 _atom_site_label
 _atom_site_symmetry_multiplicity
 _atom_site_fract_x
 _atom_site_fract_y
 _atom_site_fract_z
 _atom_site_occupancy
  Na  Na0  1  0.28980900  0.28800100  0.41711500  1
  Na  Na1  1  0.28800100  0.28980900  0.91711500  1
  Na  Na2  1  0.17892200  0.14745400  0.32898600  1
  Na  Na3  1  0.14745400  0.17892200  0.82898600  1
  Na  Na4  1  0.33362100  0.44472200  0.07547600  1
  Na  Na5  1  0.44472200  0.33362100  0.57547600  1
  Na  Na6  1  0.54255400  0.45227500  0.23552300  1
  Na  Na7  1  0.45227500  0.54255400  0.73552300  1
  Na  Na8  1  0.05947300  0.06475600  0.00909700  1
  Na  Na9  1  0.06475600  0.05947300  0.50909700  1
  Na  Na10  1  0.61416500  0.58284800  0.39061100  1
  Na  Na11  1  0.58284800  0.61416500  0.89061100  1
  Na  Na12  1  0.93607900  0.94890900  0.15301400  1
  Na  Na13  1  0.94890900  0.93607900  0.65301400  1
  Na  Na14  1  0.72035800  0.72201100  0.47175700  1
  Na  Na15  1  0.72201100  0.72035800  0.97175700  1
  Na  Na16  1  0.81160000  0.83199500  0.29419400  1
  Na  Na17  1  0.83199500  0.81160000  0.79419400  1
  Tb  Tb18  1  0.57835400  0.65883100  0.63465100  1
  Tb  Tb19  1  0.65883100  0.57835400  0.13465100  1
  Tb  Tb20  1  0.03765000  0.84737500  0.40058200  1
  Tb  Tb21  1  0.84737500  0.03765000  0.90058200  1
  Tb  Tb22  1  0.22777100  0.30817900  0.17123800  1
  Tb  Tb23  1  0.30817900  0.22777100  0.67123800  1
  V  V24  1  0.70300700  0.72489000  0.24960100  1
  V  V25  1  0.72489000  0.70300700  0.74960100  1
  V  V26  1  0.08497700  0.02465100  0.25719800  1
  V  V27  1  0.02465100  0.08497700  0.75719800  1
  V  V28  1  0.17710300  0.16890300  0.05434100  1
  V  V29  1  0.16890300  0.17710300  0.55434100  1
  V  V30  1  0.80061200  0.86287300  0.04756300  1
  V  V31  1  0.86287300  0.80061200  0.54756300  1
  V  V32  1  0.42840400  0.34329900  0.30804900  1
  V  V33  1  0.34329900  0.42840400  0.80804900  1
  V  V34  1  0.45289600  0.54749900  0.00130300  1
  V  V35  1  0.54749900  0.45289600  0.50130300  1
  O  O36  1  0.92063300  0.22123600  0.16198800  1
  O  O37  1  0.22123600  0.92063300  0.66198800  1
  O  O38  1  0.41881100  0.87567900  0.02349600  1
  O  O39  1  0.87567900  0.41881100  0.52349600  1
  O  O40  1  0.39827400  0.59323200  0.39407600  1
  O  O41  1  0.59323200  0.39827400  0.89407600  1
  O  O42  1  0.46241300  0.01576900  0.28436900  1
  O  O43  1  0.01576900  0.46241300  0.78436900  1
  O  O44  1  0.30299800  0.47768600  0.41767300  1
  O  O45  1  0.47768600  0.30299800  0.91767300  1
  O  O46  1  0.02322000  0.14577600  0.35317000  1
  O  O47  1  0.14577600  0.02322000  0.85317000  1
  O  O48  1  0.12508100  0.21639500  0.17258000  1
  O  O49  1  0.21639500  0.12508100  0.67258000  1
  O  O50  1  0.57948400  0.35234600  0.07792800  1
  O  O51  1  0.35234600  0.57948400  0.57792800  1
  O  O52  1  0.87771800  0.90350200  0.52567100  1
  O  O53  1  0.90350200  0.87771800  0.02567100  1
  O  O54  1  0.35955500  0.29809400  0.27504000  1
  O  O55  1  0.29809400  0.35955500  0.77504000  1
  O  O56  1  0.66069700  0.97243600  0.64145600  1
  O  O57  1  0.97243600  0.66069700  0.14145600  1
  O  O58  1  0.74710100  0.05766300  0.30726100  1
  O  O59  1  0.05766300  0.74710100  0.80726100  1
  O  O60  1  0.49324500  0.14461400  0.07880500  1
  O  O61  1  0.14461400  0.49324500  0.57880500  1
  O  O62  1  0.73921600  0.69464700  0.13088700  1
  O  O63  1  0.69464700  0.73921600  0.63088700  1
  O  O64  1  0.96569000  0.52200600  0.30139200  1
  O  O65  1  0.52200600  0.96569000  0.80139200  1
  O  O66  1  0.23069300  0.23196000  0.02443600  1
  O  O67  1  0.23196000  0.23069300  0.52443600  1
  O  O68  1  0.52108500  0.59385700  0.03309600  1
  O  O69  1  0.59385700  0.52108500  0.53309600  1
  O  O70  1  0.39499900  0.74157000  0.23028200  1
  O  O71  1  0.74157000  0.39499900  0.73028200  1
  O  O72  1  0.74961600  0.85308300  0.45160300  1
  O  O73  1  0.85308300  0.74961600  0.95160300  1
  O  O74  1  0.37188200  0.91540300  0.50075800  1
  O  O75  1  0.91540300  0.37188200  0.00075800  1
  O  O76  1  0.98169100  0.01015200  0.27731700  1
  O  O77  1  0.01015200  0.98169100  0.77731700  1
  O  O78  1  0.28591900  0.55530500  0.23772700  1
  O  O79  1  0.55530500  0.28591900  0.73772700  1
  O  O80  1  0.83340800  0.13427600  0.49515700  1
  O  O81  1  0.13427600  0.83340800  0.99515700  1
  O  O82  1  0.66355400  0.64764600  0.78033200  1
  O  O83  1  0.64764600  0.66355400  0.28033200  1
