# generated using pymatgen
data_MnP3NO9
_symmetry_space_group_name_H-M   'P 1'
_cell_length_a   6.65854155
_cell_length_b   6.65854155
_cell_length_c   9.87653100
_cell_angle_alpha   90.00000000
_cell_angle_beta   90.00000000
_cell_angle_gamma   119.99999549
_symmetry_Int_Tables_number   1
_chemical_formula_structural   MnP3NO9
_chemical_formula_sum   'Mn2 P6 N2 O18'
_cell_volume   379.22181319
_cell_formula_units_Z   2
loop_
 _symmetry_equiv_pos_site_id
 _symmetry_equiv_pos_as_xyz
  1  'x, y, z'
loop_
 _atom_site_type_symbol
 _atom_site_label
 _atom_site_symmetry_multiplicity
 _atom_site_fract_x
 _atom_site_fract_y
 _atom_site_fract_z
 _atom_site_occupancy
  Mn  Mn0  1  0.00000000  0.00000000  0.00000000  1
  Mn  Mn1  1  0.00000000  0.00000000  0.50000000  1
  P  P2  1  0.72496200  0.10823600  0.25000000  1
  P  P3  1  0.89176400  0.61672500  0.25000000  1
  P  P4  1  0.72496200  0.61672500  0.75000000  1
  P  P5  1  0.38327500  0.27503800  0.25000000  1
  P  P6  1  0.89176400  0.27503800  0.75000000  1
  P  P7  1  0.38327500  0.10823600  0.75000000  1
  N  N8  1  0.33333300  0.66666700  0.00000000  1
  N  N9  1  0.33333300  0.66666700  0.50000000  1
  O  O10  1  0.25676100  0.25343200  0.11997800  1
  O  O11  1  0.74656800  0.00332900  0.11997800  1
  O  O12  1  0.25676100  0.25343200  0.38002200  1
  O  O13  1  0.25676100  0.00332900  0.61997800  1
  O  O14  1  0.99667100  0.74323900  0.11997800  1
  O  O15  1  0.74656800  0.00332900  0.38002200  1
  O  O16  1  0.74656800  0.74323900  0.61997800  1
  O  O17  1  0.25676100  0.00332900  0.88002200  1
  O  O18  1  0.99667100  0.74323900  0.38002200  1
  O  O19  1  0.74656800  0.74323900  0.88002200  1
  O  O20  1  0.99667100  0.25343200  0.61997800  1
  O  O21  1  0.99667100  0.25343200  0.88002200  1
  O  O22  1  0.47733100  0.09368800  0.25000000  1
  O  O23  1  0.90631200  0.38364300  0.25000000  1
  O  O24  1  0.47733100  0.38364300  0.75000000  1
  O  O25  1  0.61635700  0.52266900  0.25000000  1
  O  O26  1  0.90631200  0.52266900  0.75000000  1
  O  O27  1  0.61635700  0.09368800  0.75000000  1
