# generated using pymatgen
data_Na2Ti3Mn(Si2O11)2
_symmetry_space_group_name_H-M   'P 1'
_cell_length_a   5.41148025
_cell_length_b   7.13520634
_cell_length_c   11.73626761
_cell_angle_alpha   84.94573070
_cell_angle_beta   82.37354443
_cell_angle_gamma   89.65211031
_symmetry_Int_Tables_number   1
_chemical_formula_structural   Na2Ti3Mn(Si2O11)2
_chemical_formula_sum   'Na2 Ti3 Mn1 Si4 O22'
_cell_volume   447.39890942
_cell_formula_units_Z   1
loop_
 _symmetry_equiv_pos_site_id
 _symmetry_equiv_pos_as_xyz
  1  'x, y, z'
loop_
 _atom_site_type_symbol
 _atom_site_label
 _atom_site_symmetry_multiplicity
 _atom_site_fract_x
 _atom_site_fract_y
 _atom_site_fract_z
 _atom_site_occupancy
  Na  Na0  1  0.32373900  0.75037700  0.28938900  1
  Na  Na1  1  0.81385500  0.50978700  0.26855800  1
  Ti  Ti2  1  0.74523600  0.81500600  0.02442100  1
  Ti  Ti3  1  0.38754200  0.97261800  0.57884400  1
  Ti  Ti4  1  0.34424400  0.22374900  0.28459300  1
  Mn  Mn5  1  0.80147800  0.01696300  0.28044400  1
  Si  Si6  1  0.90519800  0.25072700  0.50845900  1
  Si  Si7  1  0.89447200  0.70966400  0.50418700  1
  Si  Si8  1  0.25211000  0.50816900  0.05260700  1
  Si  Si9  1  0.21600200  0.08872900  0.03740400  1
  O  O10  1  0.63570800  0.78010600  0.57373800  1
  O  O11  1  0.14850300  0.06034400  0.18202600  1
  O  O12  1  0.46515800  0.39647200  0.75533000  1
  O  O13  1  0.47896700  0.98645300  0.99936300  1
  O  O14  1  0.64461300  0.15906100  0.57299800  1
  O  O15  1  0.92209900  0.79251700  0.36744200  1
  O  O16  1  0.14234100  0.16809600  0.56943100  1
  O  O17  1  0.64249700  0.34537700  0.80400100  1
  O  O18  1  0.22177000  0.45484600  0.19410800  1
  O  O19  1  0.70564700  0.83842900  0.18508100  1
  O  O20  1  0.80557300  0.81900200  0.84236000  1
  O  O21  1  0.51348800  0.61768300  0.01210800  1
  O  O22  1  0.40152500  0.43615700  0.35990600  1
  O  O23  1  0.65516900  0.21467100  0.19763300  1
  O  O24  1  0.14083300  0.78635300  0.55294700  1
  O  O25  1  0.88906800  0.48000100  0.50516000  1
  O  O26  1  0.98960300  0.00784900  0.97813400  1
  O  O27  1  0.96045100  0.19372000  0.37234900  1
  O  O28  1  0.31200500  0.93396300  0.73885800  1
  O  O29  1  0.47993200  0.01967900  0.37550600  1
  O  O30  1  0.24943300  0.31130000  0.99216600  1
  O  O31  1  0.00873900  0.63113100  0.02844800  1
