# generated using pymatgen
data_Na3Te(AsO7)2
_symmetry_space_group_name_H-M   'P 1'
_cell_length_a   7.97420138
_cell_length_b   7.98229093
_cell_length_c   11.70940781
_cell_angle_alpha   90.26398806
_cell_angle_beta   90.19582288
_cell_angle_gamma   119.54865690
_symmetry_Int_Tables_number   1
_chemical_formula_structural   Na3Te(AsO7)2
_chemical_formula_sum   'Na6 Te2 As4 O28'
_cell_volume   648.37115950
_cell_formula_units_Z   2
loop_
 _symmetry_equiv_pos_site_id
 _symmetry_equiv_pos_as_xyz
  1  'x, y, z'
loop_
 _atom_site_type_symbol
 _atom_site_label
 _atom_site_symmetry_multiplicity
 _atom_site_fract_x
 _atom_site_fract_y
 _atom_site_fract_z
 _atom_site_occupancy
  Na  Na0  1  0.47484700  0.52494600  0.74972100  1
  Na  Na1  1  0.04906400  0.52445500  0.74966900  1
  Na  Na2  1  0.52517100  0.47509600  0.24988200  1
  Na  Na3  1  0.95100400  0.47533800  0.25031200  1
  Na  Na4  1  0.47603500  0.95129700  0.74984900  1
  Na  Na5  1  0.52435200  0.04885100  0.24948800  1
  Te  Te6  1  0.99741100  0.00417100  0.75012700  1
  Te  Te7  1  0.00145200  0.99780300  0.24986000  1
  As  As8  1  0.67056700  0.33498900  0.99083500  1
  As  As9  1  0.33426300  0.66598900  0.49040900  1
  As  As10  1  0.33461400  0.66524100  0.00946700  1
  As  As11  1  0.66582300  0.33070200  0.50965200  1
  O  O12  1  0.66740300  0.33235500  0.36644000  1
  O  O13  1  0.33300100  0.66719600  0.86645100  1
  O  O14  1  0.33379400  0.66754100  0.63361300  1
  O  O15  1  0.66763000  0.33228600  0.13376300  1
  O  O16  1  0.77676900  0.98321500  0.82876500  1
  O  O17  1  0.21124400  0.22165800  0.82541300  1
  O  O18  1  0.22318800  0.01470900  0.32729300  1
  O  O19  1  0.79087500  0.00974800  0.17454100  1
  O  O20  1  0.00605800  0.79042800  0.82350700  1
  O  O21  1  0.79094500  0.78051900  0.32472800  1
  O  O22  1  0.98481100  0.77625200  0.17238000  1
  O  O23  1  0.20884900  0.99224500  0.67598400  1
  O  O24  1  0.99099600  0.20957800  0.32485000  1
  O  O25  1  0.01707500  0.22370300  0.67143800  1
  O  O26  1  0.21904100  0.20952500  0.17547400  1
  O  O27  1  0.77999500  0.78831700  0.67564200  1
  O  O28  1  0.88650300  0.37583900  0.92861400  1
  O  O29  1  0.49563600  0.12756100  0.92215900  1
  O  O30  1  0.12462800  0.63104600  0.42363000  1
  O  O31  1  0.51203300  0.62507300  0.07111500  1
  O  O32  1  0.61921600  0.50498900  0.92872500  1
  O  O33  1  0.50489600  0.88376100  0.42866100  1
  O  O34  1  0.36338000  0.87195700  0.07785800  1
  O  O35  1  0.49267300  0.37630600  0.57213400  1
  O  O36  1  0.37641700  0.49050200  0.42826600  1
  O  O37  1  0.62661900  0.11478300  0.57116000  1
  O  O38  1  0.11758600  0.49319600  0.07188400  1
  O  O39  1  0.87413700  0.50673500  0.57624200  1
