# generated using pymatgen
data_Mn2Al3Si3O14
_symmetry_space_group_name_H-M   'P 1'
_cell_length_a   5.76076900
_cell_length_b   8.57395800
_cell_length_c   9.96722933
_cell_angle_alpha   71.07271162
_cell_angle_beta   90.00000000
_cell_angle_gamma   90.00000000
_symmetry_Int_Tables_number   1
_chemical_formula_structural   Mn2Al3Si3O14
_chemical_formula_sum   'Mn4 Al6 Si6 O28'
_cell_volume   465.68871332
_cell_formula_units_Z   2
loop_
 _symmetry_equiv_pos_site_id
 _symmetry_equiv_pos_as_xyz
  1  'x, y, z'
loop_
 _atom_site_type_symbol
 _atom_site_label
 _atom_site_symmetry_multiplicity
 _atom_site_fract_x
 _atom_site_fract_y
 _atom_site_fract_z
 _atom_site_occupancy
  Mn  Mn0  1  0.25000000  0.19269100  0.69464900  1
  Mn  Mn1  1  0.75000000  0.80730900  0.30535100  1
  Mn  Mn2  1  0.25000000  0.25679100  0.32186700  1
  Mn  Mn3  1  0.75000000  0.74320900  0.67813300  1
  Al  Al4  1  0.50000000  0.00000000  0.00000000  1
  Al  Al5  1  0.00000000  0.00000000  0.00000000  1
  Al  Al6  1  0.50000000  0.50000000  0.50000000  1
  Al  Al7  1  0.00000000  0.50000000  0.50000000  1
  Al  Al8  1  0.50000000  0.50000000  0.00000000  1
  Al  Al9  1  0.00000000  0.50000000  0.00000000  1
  Si  Si10  1  0.25000000  0.69077800  0.19474500  1
  Si  Si11  1  0.75000000  0.30922200  0.80525500  1
  Si  Si12  1  0.25000000  0.84975500  0.49422200  1
  Si  Si13  1  0.75000000  0.15024500  0.50577800  1
  Si  Si14  1  0.25000000  0.79599900  0.80314000  1
  Si  Si15  1  0.75000000  0.20400100  0.19686000  1
  O  O16  1  0.25000000  0.55330800  0.35636100  1
  O  O17  1  0.75000000  0.44669200  0.64363900  1
  O  O18  1  0.47664900  0.81328600  0.16862800  1
  O  O19  1  0.52335100  0.18671400  0.83137200  1
  O  O20  1  0.97664900  0.18671400  0.83137200  1
  O  O21  1  0.02335100  0.81328600  0.16862800  1
  O  O22  1  0.25000000  0.59375500  0.07898500  1
  O  O23  1  0.75000000  0.40624500  0.92101500  1
  O  O24  1  0.25000000  0.92996800  0.89052100  1
  O  O25  1  0.75000000  0.07003200  0.10947900  1
  O  O26  1  0.25000000  0.09105300  0.06167700  1
  O  O27  1  0.75000000  0.90894700  0.93832300  1
  O  O28  1  0.25000000  0.01166400  0.35938000  1
  O  O29  1  0.75000000  0.98833600  0.64062000  1
  O  O30  1  0.98325300  0.31956200  0.17187600  1
  O  O31  1  0.01674700  0.68043800  0.82812400  1
  O  O32  1  0.48325300  0.68043800  0.82812400  1
  O  O33  1  0.51674700  0.31956200  0.17187600  1
  O  O34  1  0.25000000  0.42964600  0.62106100  1
  O  O35  1  0.75000000  0.57035400  0.37893900  1
  O  O36  1  0.48731800  0.73081500  0.50596000  1
  O  O37  1  0.51268200  0.26918500  0.49404000  1
  O  O38  1  0.98731800  0.26918500  0.49404000  1
  O  O39  1  0.01268200  0.73081500  0.50596000  1
  O  O40  1  0.25000000  0.41241000  0.93046100  1
  O  O41  1  0.75000000  0.58759000  0.06953900  1
  O  O42  1  0.25000000  0.91512600  0.63558600  1
  O  O43  1  0.75000000  0.08487400  0.36441400  1
