# generated using pymatgen
data_MoC4(O2F3)2
_symmetry_space_group_name_H-M   'P 1'
_cell_length_a   6.01228900
_cell_length_b   8.71790366
_cell_length_c   9.32838724
_cell_angle_alpha   88.63381999
_cell_angle_beta   87.86571421
_cell_angle_gamma   78.71405808
_symmetry_Int_Tables_number   1
_chemical_formula_structural   MoC4(O2F3)2
_chemical_formula_sum   'Mo2 C8 O8 F12'
_cell_volume   479.08744686
_cell_formula_units_Z   2
loop_
 _symmetry_equiv_pos_site_id
 _symmetry_equiv_pos_as_xyz
  1  'x, y, z'
loop_
 _atom_site_type_symbol
 _atom_site_label
 _atom_site_symmetry_multiplicity
 _atom_site_fract_x
 _atom_site_fract_y
 _atom_site_fract_z
 _atom_site_occupancy
  Mo  Mo0  1  0.80700300  0.41574900  0.04883300  1
  Mo  Mo1  1  0.19299700  0.58425100  0.95116700  1
  C  C2  1  0.03056000  0.35815100  0.74168700  1
  C  C3  1  0.96944000  0.64184900  0.25831300  1
  C  C4  1  0.03918900  0.27869300  0.59271200  1
  C  C5  1  0.96081100  0.72130700  0.40728800  1
  C  C6  1  0.47954700  0.12216400  0.19409800  1
  C  C7  1  0.52045300  0.87783600  0.80590200  1
  C  C8  1  0.30941200  0.25606900  0.11928100  1
  C  C9  1  0.69058800  0.74393100  0.88071900  1
  O  O10  1  0.17593000  0.44193900  0.75954000  1
  O  O11  1  0.82407000  0.55806100  0.24046000  1
  O  O12  1  0.12117400  0.67429100  0.17162700  1
  O  O13  1  0.87882600  0.32570900  0.82837300  1
  O  O14  1  0.39838700  0.36399500  0.05970100  1
  O  O15  1  0.60161300  0.63600500  0.94029900  1
  O  O16  1  0.10465900  0.24526700  0.12638500  1
  O  O17  1  0.89534100  0.75473300  0.87361500  1
  F  F18  1  0.17000500  0.34010100  0.49432800  1
  F  F19  1  0.82999500  0.65989900  0.50567200  1
  F  F20  1  0.17161700  0.70605000  0.45912700  1
  F  F21  1  0.82838300  0.29395000  0.54087300  1
  F  F22  1  0.58180200  0.18211600  0.30140600  1
  F  F23  1  0.41819800  0.81788400  0.69859400  1
  F  F24  1  0.12881600  0.12355400  0.60743300  1
  F  F25  1  0.87118400  0.87644600  0.39256700  1
  F  F26  1  0.64728600  0.05627500  0.09848200  1
  F  F27  1  0.35271400  0.94372500  0.90151800  1
  F  F28  1  0.62295800  0.99065300  0.75143400  1
  F  F29  1  0.37704200  0.00934700  0.24856600  1
