# generated using pymatgen
data_Na2OsO8
_symmetry_space_group_name_H-M   'P 1'
_cell_length_a   10.15535200
_cell_length_b   5.67220600
_cell_length_c   6.35825307
_cell_angle_alpha   86.17462432
_cell_angle_beta   90.00000000
_cell_angle_gamma   90.00000000
_symmetry_Int_Tables_number   1
_chemical_formula_structural   Na2OsO8
_chemical_formula_sum   'Na4 Os2 O16'
_cell_volume   365.44002026
_cell_formula_units_Z   2
loop_
 _symmetry_equiv_pos_site_id
 _symmetry_equiv_pos_as_xyz
  1  'x, y, z'
loop_
 _atom_site_type_symbol
 _atom_site_label
 _atom_site_symmetry_multiplicity
 _atom_site_fract_x
 _atom_site_fract_y
 _atom_site_fract_z
 _atom_site_occupancy
  Na  Na0  1  0.39695500  0.19306800  0.31199700  1
  Na  Na1  1  0.89695500  0.80693200  0.68800300  1
  Na  Na2  1  0.41826100  0.79515800  0.74417800  1
  Na  Na3  1  0.91826100  0.20484200  0.25582200  1
  Os  Os4  1  0.17175800  0.73419600  0.29445000  1
  Os  Os5  1  0.67175800  0.26580400  0.70555000  1
  O  O6  1  0.77561400  0.61715300  0.15346900  1
  O  O7  1  0.27561400  0.38284700  0.84653100  1
  O  O8  1  0.42654100  0.86296600  0.10317900  1
  O  O9  1  0.92654100  0.13703400  0.89682100  1
  O  O10  1  0.11256900  0.43801600  0.30123400  1
  O  O11  1  0.61256900  0.56198400  0.69876600  1
  O  O12  1  0.33945300  0.58969300  0.25864700  1
  O  O13  1  0.83945300  0.41030700  0.74135300  1
  O  O14  1  0.24862200  0.89332700  0.49527000  1
  O  O15  1  0.74862200  0.10667300  0.50473000  1
  O  O16  1  0.01001200  0.83718500  0.36816800  1
  O  O17  1  0.51001200  0.16281500  0.63183200  1
  O  O18  1  0.16231200  0.42264000  0.78192000  1
  O  O19  1  0.66231200  0.57736000  0.21808000  1
  O  O20  1  0.17990200  0.88384600  0.04362000  1
  O  O21  1  0.67990200  0.11615400  0.95638000  1
