# generated using pymatgen
data_LuTa5Ag2O15
_symmetry_space_group_name_H-M   'P 1'
_cell_length_a   12.57437900
_cell_length_b   12.57437900
_cell_length_c   3.91227600
_cell_angle_alpha   90.00000000
_cell_angle_beta   90.00000000
_cell_angle_gamma   90.00000000
_symmetry_Int_Tables_number   1
_chemical_formula_structural   LuTa5Ag2O15
_chemical_formula_sum   'Lu2 Ta10 Ag4 O30'
_cell_volume   618.58954805
_cell_formula_units_Z   2
loop_
 _symmetry_equiv_pos_site_id
 _symmetry_equiv_pos_as_xyz
  1  'x, y, z'
loop_
 _atom_site_type_symbol
 _atom_site_label
 _atom_site_symmetry_multiplicity
 _atom_site_fract_x
 _atom_site_fract_y
 _atom_site_fract_z
 _atom_site_occupancy
  Lu  Lu0  1  0.00000000  0.00000000  0.50000000  1
  Lu  Lu1  1  0.50000000  0.50000000  0.50000000  1
  Ta  Ta2  1  0.50000000  0.00000000  0.00000000  1
  Ta  Ta3  1  0.00000000  0.50000000  0.00000000  1
  Ta  Ta4  1  0.21046200  0.07868900  0.00000000  1
  Ta  Ta5  1  0.78953800  0.92131100  0.00000000  1
  Ta  Ta6  1  0.07868900  0.78953800  0.00000000  1
  Ta  Ta7  1  0.71046200  0.42131100  0.00000000  1
  Ta  Ta8  1  0.92131100  0.21046200  0.00000000  1
  Ta  Ta9  1  0.28953800  0.57868900  0.00000000  1
  Ta  Ta10  1  0.57868900  0.71046200  0.00000000  1
  Ta  Ta11  1  0.42131100  0.28953800  0.00000000  1
  Ag  Ag12  1  0.67222400  0.17222400  0.50000000  1
  Ag  Ag13  1  0.32777600  0.82777600  0.50000000  1
  Ag  Ag14  1  0.17222400  0.32777600  0.50000000  1
  Ag  Ag15  1  0.82777600  0.67222400  0.50000000  1
  O  O16  1  0.18817600  0.07995700  0.50000000  1
  O  O17  1  0.81182400  0.92004300  0.50000000  1
  O  O18  1  0.07995700  0.81182400  0.50000000  1
  O  O19  1  0.68817600  0.42004300  0.50000000  1
  O  O20  1  0.92004300  0.18817600  0.50000000  1
  O  O21  1  0.31182400  0.57995700  0.50000000  1
  O  O22  1  0.57995700  0.68817600  0.50000000  1
  O  O23  1  0.42004300  0.31182400  0.50000000  1
  O  O24  1  0.22549000  0.72549000  0.00000000  1
  O  O25  1  0.77451000  0.27451000  0.00000000  1
  O  O26  1  0.72549000  0.77451000  0.00000000  1
  O  O27  1  0.27451000  0.22549000  0.00000000  1
  O  O28  1  0.50000000  0.00000000  0.50000000  1
  O  O29  1  0.00000000  0.50000000  0.50000000  1
  O  O30  1  0.05615700  0.12880600  0.00000000  1
  O  O31  1  0.94384300  0.87119400  0.00000000  1
  O  O32  1  0.12880600  0.94384300  0.00000000  1
  O  O33  1  0.55615700  0.37119400  0.00000000  1
  O  O34  1  0.87119400  0.05615700  0.00000000  1
  O  O35  1  0.44384300  0.62880600  0.00000000  1
  O  O36  1  0.62880600  0.55615700  0.00000000  1
  O  O37  1  0.37119400  0.44384300  0.00000000  1
  O  O38  1  0.34075400  0.99856700  0.00000000  1
  O  O39  1  0.65924600  0.00143300  0.00000000  1
  O  O40  1  0.99856700  0.65924600  0.00000000  1
  O  O41  1  0.84075400  0.50143300  0.00000000  1
  O  O42  1  0.00143300  0.34075400  0.00000000  1
  O  O43  1  0.15924600  0.49856700  0.00000000  1
  O  O44  1  0.49856700  0.84075400  0.00000000  1
  O  O45  1  0.50143300  0.15924600  0.00000000  1
