# generated using pymatgen
data_Mg2Al4Fe(PO6)4
_symmetry_space_group_name_H-M   'P 1'
_cell_length_a   5.13998700
_cell_length_b   7.27244902
_cell_length_c   11.76496756
_cell_angle_alpha   98.50982987
_cell_angle_beta   88.98899201
_cell_angle_gamma   110.48581674
_symmetry_Int_Tables_number   1
_chemical_formula_structural   Mg2Al4Fe(PO6)4
_chemical_formula_sum   'Mg2 Al4 Fe1 P4 O24'
_cell_volume   407.15353042
_cell_formula_units_Z   1
loop_
 _symmetry_equiv_pos_site_id
 _symmetry_equiv_pos_as_xyz
  1  'x, y, z'
loop_
 _atom_site_type_symbol
 _atom_site_label
 _atom_site_symmetry_multiplicity
 _atom_site_fract_x
 _atom_site_fract_y
 _atom_site_fract_z
 _atom_site_occupancy
  Mg  Mg0  1  0.04558700  0.07996300  0.26997500  1
  Mg  Mg1  1  0.95441300  0.92003700  0.73002500  1
  Al  Al2  1  0.00000000  0.50000000  0.00000000  1
  Al  Al3  1  0.06857000  0.60328800  0.30806900  1
  Al  Al4  1  0.93143000  0.39671200  0.69193100  1
  Al  Al5  1  0.00000000  0.00000000  0.50000000  1
  Fe  Fe6  1  0.00000000  0.00000000  0.00000000  1
  P  P7  1  0.34647600  0.72751500  0.55991200  1
  P  P8  1  0.65352400  0.27248500  0.44008800  1
  P  P9  1  0.43312000  0.86266800  0.13720100  1
  P  P10  1  0.56688000  0.13733200  0.86279900  1
  O  O11  1  0.26029800  0.58678700  0.65054300  1
  O  O12  1  0.73970200  0.41321300  0.34945700  1
  O  O13  1  0.27156200  0.61580900  0.43851500  1
  O  O14  1  0.72843800  0.38419100  0.56148500  1
  O  O15  1  0.73633200  0.99731000  0.86787000  1
  O  O16  1  0.26366800  0.00269000  0.13213000  1
  O  O17  1  0.38912100  0.78617200  0.25345100  1
  O  O18  1  0.61087900  0.21382800  0.74654900  1
  O  O19  1  0.35250900  0.69716200  0.03309000  1
  O  O20  1  0.64749100  0.30283800  0.96691000  1
  O  O21  1  0.19555800  0.88228600  0.58604500  1
  O  O22  1  0.80444200  0.11771400  0.41395500  1
  O  O23  1  0.13902300  0.36938500  0.23164500  1
  O  O24  1  0.86097700  0.63061500  0.76835500  1
  O  O25  1  0.97629100  0.83041400  0.35919000  1
  O  O26  1  0.02370900  0.16958600  0.64081000  1
  O  O27  1  0.74871500  0.98381100  0.13381700  1
  O  O28  1  0.25128500  0.01618900  0.86618300  1
  O  O29  1  0.66957900  0.83792600  0.57617700  1
  O  O30  1  0.33042100  0.16207400  0.42382300  1
  O  O31  1  0.12756100  0.30160500  0.04117700  1
  O  O32  1  0.87243900  0.69839500  0.95882300  1
  O  O33  1  0.91693700  0.54394800  0.15591000  1
  O  O34  1  0.08306300  0.45605200  0.84409000  1
