# generated using pymatgen
data_NaCaB5(H7O4)3
_symmetry_space_group_name_H-M   'P 1'
_cell_length_a   6.95246100
_cell_length_b   8.85545087
_cell_length_c   13.11680541
_cell_angle_alpha   104.93819930
_cell_angle_beta   86.42092952
_cell_angle_gamma   108.21654075
_symmetry_Int_Tables_number   1
_chemical_formula_structural   NaCaB5(H7O4)3
_chemical_formula_sum   'Na2 Ca2 B10 H42 O24'
_cell_volume   741.02168361
_cell_formula_units_Z   2
loop_
 _symmetry_equiv_pos_site_id
 _symmetry_equiv_pos_as_xyz
  1  'x, y, z'
loop_
 _atom_site_type_symbol
 _atom_site_label
 _atom_site_symmetry_multiplicity
 _atom_site_fract_x
 _atom_site_fract_y
 _atom_site_fract_z
 _atom_site_occupancy
  Na  Na0  1  0.32005600  0.55945100  0.51733200  1
  Na  Na1  1  0.67994400  0.44054900  0.48266800  1
  Ca  Ca2  1  0.80905500  0.11892500  0.01564200  1
  Ca  Ca3  1  0.19094500  0.88107500  0.98435800  1
  B  B4  1  0.38392100  0.34563400  0.26163600  1
  B  B5  1  0.61607900  0.65436600  0.73836400  1
  B  B6  1  0.27011600  0.80300200  0.21022300  1
  B  B7  1  0.72988400  0.19699800  0.78977700  1
  B  B8  1  0.07549900  0.18142300  0.73653200  1
  B  B9  1  0.92450100  0.81857700  0.26346800  1
  B  B10  1  0.15687500  0.05077300  0.20312600  1
  B  B11  1  0.84312500  0.94922700  0.79687400  1
  B  B12  1  0.26202400  0.23850000  0.07571100  1
  B  B13  1  0.73797600  0.76150000  0.92428900  1
  H  H14  1  0.90663100  0.32228500  0.53595900  1
  H  H15  1  0.09336900  0.67771500  0.46404100  1
  H  H16  1  0.81648600  0.43293400  0.11551400  1
  H  H17  1  0.18351400  0.56706600  0.88448600  1
  H  H18  1  0.37066100  0.60240200  0.15457300  1
  H  H19  1  0.62933900  0.39759800  0.84542700  1
  H  H20  1  0.08998100  0.69529900  0.69146000  1
  H  H21  1  0.91001900  0.30470100  0.30854000  1
  H  H22  1  0.03662600  0.53201600  0.68309900  1
  H  H23  1  0.96337400  0.46798400  0.31690100  1
  H  H24  1  0.68992900  0.12493500  0.19588000  1
  H  H25  1  0.31007100  0.87506500  0.80412000  1
  H  H26  1  0.15343600  0.14833300  0.53330800  1
  H  H27  1  0.84656400  0.85166700  0.46669200  1
  H  H28  1  0.18412700  0.41854000  0.02961300  1
  H  H29  1  0.81587300  0.58146000  0.97038700  1
  H  H30  1  0.89754700  0.21125600  0.30372300  1
  H  H31  1  0.10245300  0.78874400  0.69627700  1
  H  H32  1  0.06919200  0.61157600  0.41120600  1
  H  H33  1  0.93080800  0.38842400  0.58879400  1
  H  H34  1  0.52531700  0.77715900  0.04395300  1
  H  H35  1  0.47468300  0.22284100  0.95604700  1
  H  H36  1  0.13157600  0.17907700  0.48739000  1
  H  H37  1  0.86842400  0.82092300  0.51261000  1
  H  H38  1  0.37127400  0.19709600  0.70607800  1
  H  H39  1  0.62872600  0.80290400  0.29392200  1
  H  H40  1  0.16653600  0.29160500  0.40635900  1
  H  H41  1  0.83346400  0.70839500  0.59364100  1
  H  H42  1  0.58782300  0.57151200  0.31850400  1
  H  H43  1  0.41217700  0.42848800  0.68149600  1
  H  H44  1  0.99104200  0.47841500  0.88535000  1
  H  H45  1  0.00895800  0.52158500  0.11465000  1
  H  H46  1  0.65291100  0.16572100  0.46291800  1
  H  H47  1  0.34708900  0.83427900  0.53708200  1
  H  H48  1  0.69960200  0.38317900  0.11655600  1
  H  H49  1  0.30039800  0.61682100  0.88344400  1
  H  H50  1  0.65913300  0.13281200  0.63493100  1
  H  H51  1  0.34086700  0.86718800  0.36506900  1
  H  H52  1  0.56202500  0.14187600  0.42697600  1
  H  H53  1  0.43797500  0.85812400  0.57302400  1
  H  H54  1  0.58105100  0.08125100  0.17722700  1
  H  H55  1  0.41894900  0.91874900  0.82277300  1
  O  O56  1  0.50014500  0.47387600  0.34492100  1
  O  O57  1  0.49985500  0.52612400  0.65507900  1
  O  O58  1  0.58234900  0.14225200  0.69957200  1
  O  O59  1  0.41765100  0.85774800  0.30042800  1
  O  O60  1  0.27175700  0.25891500  0.70753900  1
  O  O61  1  0.72824300  0.74108500  0.29246100  1
  O  O62  1  0.06427000  0.73538500  0.25197700  1
  O  O63  1  0.93573000  0.26461500  0.74802300  1
  O  O64  1  0.37221900  0.37459000  0.16540900  1
  O  O65  1  0.62778100  0.62541000  0.83459100  1
  O  O66  1  0.28613700  0.19858300  0.28436100  1
  O  O67  1  0.71386300  0.80141700  0.71563900  1
  O  O68  1  0.27014600  0.93383800  0.16052200  1
  O  O69  1  0.72985400  0.06616200  0.83947800  1
  O  O70  1  0.10733600  0.10501500  0.11160100  1
  O  O71  1  0.89266400  0.89498500  0.88839900  1
  O  O72  1  0.40550300  0.16066400  0.00823200  1
  O  O73  1  0.59449700  0.83933600  0.99176800  1
  O  O74  1  0.33297200  0.68082900  0.12585600  1
  O  O75  1  0.66702800  0.31917100  0.87414400  1
  O  O76  1  0.14797600  0.29853400  0.01216500  1
  O  O77  1  0.85202400  0.70146600  0.98783500  1
  O  O78  1  0.03075800  0.02475500  0.74806600  1
  O  O79  1  0.96924200  0.97524500  0.25193400  1
