# generated using pymatgen
data_MnCu2(SO4)2
_symmetry_space_group_name_H-M   'P 1'
_cell_length_a   6.03057353
_cell_length_b   7.98361100
_cell_length_c   7.47088753
_cell_angle_alpha   90.00000000
_cell_angle_beta   91.82210238
_cell_angle_gamma   90.00000000
_symmetry_Int_Tables_number   1
_chemical_formula_structural   MnCu2(SO4)2
_chemical_formula_sum   'Mn2 Cu4 S4 O16'
_cell_volume   359.50963569
_cell_formula_units_Z   2
loop_
 _symmetry_equiv_pos_site_id
 _symmetry_equiv_pos_as_xyz
  1  'x, y, z'
loop_
 _atom_site_type_symbol
 _atom_site_label
 _atom_site_symmetry_multiplicity
 _atom_site_fract_x
 _atom_site_fract_y
 _atom_site_fract_z
 _atom_site_occupancy
  Mn  Mn0  1  0.00000000  0.00000000  0.00000000  1
  Mn  Mn1  1  0.50000000  0.50000000  0.50000000  1
  Cu  Cu2  1  0.24986000  0.85600800  0.48547800  1
  Cu  Cu3  1  0.75014000  0.14399200  0.51452200  1
  Cu  Cu4  1  0.25014000  0.35600800  0.01452200  1
  Cu  Cu5  1  0.74986000  0.64399200  0.98547800  1
  S  S6  1  0.23846200  0.11586200  0.37767600  1
  S  S7  1  0.76153800  0.88413800  0.62232400  1
  S  S8  1  0.26153800  0.61586200  0.12232400  1
  S  S9  1  0.73846200  0.38413800  0.87767600  1
  O  O10  1  0.69548600  0.50120800  0.34091400  1
  O  O11  1  0.30451400  0.49879200  0.65908600  1
  O  O12  1  0.80451400  0.00120800  0.15908600  1
  O  O13  1  0.19548600  0.99879200  0.84091400  1
  O  O14  1  0.45584500  0.71299300  0.05765100  1
  O  O15  1  0.54415500  0.28700700  0.94234900  1
  O  O16  1  0.04415500  0.21299300  0.44234900  1
  O  O17  1  0.95584500  0.78700700  0.55765100  1
  O  O18  1  0.26651400  0.62120400  0.32841400  1
  O  O19  1  0.73348600  0.37879600  0.67158600  1
  O  O20  1  0.23348600  0.12120400  0.17158600  1
  O  O21  1  0.76651400  0.87879600  0.82841400  1
  O  O22  1  0.05418000  0.71811700  0.06751800  1
  O  O23  1  0.94582000  0.28188300  0.93248200  1
  O  O24  1  0.44582000  0.21811700  0.43248200  1
  O  O25  1  0.55418000  0.78188300  0.56751800  1
