# generated using pymatgen
data_Mg2Be3(NF6)2
_symmetry_space_group_name_H-M   'P 1'
_cell_length_a   10.06701900
_cell_length_b   10.06701900
_cell_length_c   10.06701900
_cell_angle_alpha   90.00000000
_cell_angle_beta   90.00000000
_cell_angle_gamma   90.00000000
_symmetry_Int_Tables_number   1
_chemical_formula_structural   Mg2Be3(NF6)2
_chemical_formula_sum   'Mg8 Be12 N8 F48'
_cell_volume   1020.24074741
_cell_formula_units_Z   4
loop_
 _symmetry_equiv_pos_site_id
 _symmetry_equiv_pos_as_xyz
  1  'x, y, z'
loop_
 _atom_site_type_symbol
 _atom_site_label
 _atom_site_symmetry_multiplicity
 _atom_site_fract_x
 _atom_site_fract_y
 _atom_site_fract_z
 _atom_site_occupancy
  Mg  Mg0  1  0.33558800  0.33558800  0.33558800  1
  Mg  Mg1  1  0.16441200  0.66441200  0.83558800  1
  Mg  Mg2  1  0.66441200  0.83558800  0.16441200  1
  Mg  Mg3  1  0.83558800  0.16441200  0.66441200  1
  Mg  Mg4  1  0.60169700  0.60169700  0.60169700  1
  Mg  Mg5  1  0.89830300  0.39830300  0.10169700  1
  Mg  Mg6  1  0.39830300  0.10169700  0.89830300  1
  Mg  Mg7  1  0.10169700  0.89830300  0.39830300  1
  Be  Be8  1  0.01762400  0.21809700  0.37530900  1
  Be  Be9  1  0.48237600  0.78190300  0.87530900  1
  Be  Be10  1  0.98237600  0.71809700  0.12469100  1
  Be  Be11  1  0.37530900  0.01762400  0.21809700  1
  Be  Be12  1  0.51762400  0.28190300  0.62469100  1
  Be  Be13  1  0.87530900  0.48237600  0.78190300  1
  Be  Be14  1  0.12469100  0.98237600  0.71809700  1
  Be  Be15  1  0.62469100  0.51762400  0.28190300  1
  Be  Be16  1  0.21809700  0.37530900  0.01762400  1
  Be  Be17  1  0.71809700  0.12469100  0.98237600  1
  Be  Be18  1  0.28190300  0.62469100  0.51762400  1
  Be  Be19  1  0.78190300  0.87530900  0.48237600  1
  N  N20  1  0.04922900  0.04922900  0.04922900  1
  N  N21  1  0.45077100  0.95077100  0.54922900  1
  N  N22  1  0.95077100  0.54922900  0.45077100  1
  N  N23  1  0.54922900  0.45077100  0.95077100  1
  N  N24  1  0.81651500  0.81651500  0.81651500  1
  N  N25  1  0.68348500  0.18348500  0.31651500  1
  N  N26  1  0.18348500  0.31651500  0.68348500  1
  N  N27  1  0.31651500  0.68348500  0.18348500  1
  F  F28  1  0.01381100  0.06758900  0.33380600  1
  F  F29  1  0.48618900  0.93241100  0.83380600  1
  F  F30  1  0.98618900  0.56758900  0.16619400  1
  F  F31  1  0.33380600  0.01381100  0.06758900  1
  F  F32  1  0.51381100  0.43241100  0.66619400  1
  F  F33  1  0.83380600  0.48618900  0.93241100  1
  F  F34  1  0.16619400  0.98618900  0.56758900  1
  F  F35  1  0.66619400  0.51381100  0.43241100  1
  F  F36  1  0.06758900  0.33380600  0.01381100  1
  F  F37  1  0.56758900  0.16619400  0.98618900  1
  F  F38  1  0.43241100  0.66619400  0.51381100  1
  F  F39  1  0.93241100  0.83380600  0.48618900  1
  F  F40  1  0.27100500  0.49410000  0.43625500  1
  F  F41  1  0.22899500  0.50590000  0.93625500  1
  F  F42  1  0.72899500  0.99410000  0.06374500  1
  F  F43  1  0.43625500  0.27100500  0.49410000  1
  F  F44  1  0.77100500  0.00590000  0.56374500  1
  F  F45  1  0.93625500  0.22899500  0.50590000  1
  F  F46  1  0.06374500  0.72899500  0.99410000  1
  F  F47  1  0.56374500  0.77100500  0.00590000  1
  F  F48  1  0.49410000  0.43625500  0.27100500  1
  F  F49  1  0.99410000  0.06374500  0.72899500  1
  F  F50  1  0.00590000  0.56374500  0.77100500  1
  F  F51  1  0.50590000  0.93625500  0.22899500  1
  F  F52  1  0.04402800  0.80786300  0.23289000  1
  F  F53  1  0.45597200  0.19213700  0.73289000  1
  F  F54  1  0.95597200  0.30786300  0.26711000  1
  F  F55  1  0.23289000  0.04402800  0.80786300  1
  F  F56  1  0.54402800  0.69213700  0.76711000  1
  F  F57  1  0.73289000  0.45597200  0.19213700  1
  F  F58  1  0.26711000  0.95597200  0.30786300  1
  F  F59  1  0.76711000  0.54402800  0.69213700  1
  F  F60  1  0.80786300  0.23289000  0.04402800  1
  F  F61  1  0.30786300  0.26711000  0.95597200  1
  F  F62  1  0.69213700  0.76711000  0.54402800  1
  F  F63  1  0.19213700  0.73289000  0.45597200  1
  F  F64  1  0.16543900  0.25647600  0.39796600  1
  F  F65  1  0.33456100  0.74352400  0.89796600  1
  F  F66  1  0.83456100  0.75647600  0.10203400  1
  F  F67  1  0.39796600  0.16543900  0.25647600  1
  F  F68  1  0.66543900  0.24352400  0.60203400  1
  F  F69  1  0.89796600  0.33456100  0.74352400  1
  F  F70  1  0.10203400  0.83456100  0.75647600  1
  F  F71  1  0.60203400  0.66543900  0.24352400  1
  F  F72  1  0.25647600  0.39796600  0.16543900  1
  F  F73  1  0.75647600  0.10203400  0.83456100  1
  F  F74  1  0.24352400  0.60203400  0.66543900  1
  F  F75  1  0.74352400  0.89796600  0.33456100  1
