# generated using pymatgen
data_MnRe2(HO5)2
_symmetry_space_group_name_H-M   'P 1'
_cell_length_a   8.15974117
_cell_length_b   8.15974117
_cell_length_c   6.02279600
_cell_angle_alpha   72.39223540
_cell_angle_beta   72.39223540
_cell_angle_gamma   41.94940512
_symmetry_Int_Tables_number   1
_chemical_formula_structural   MnRe2(HO5)2
_chemical_formula_sum   'Mn1 Re2 H2 O10'
_cell_volume   253.60527387
_cell_formula_units_Z   1
loop_
 _symmetry_equiv_pos_site_id
 _symmetry_equiv_pos_as_xyz
  1  'x, y, z'
loop_
 _atom_site_type_symbol
 _atom_site_label
 _atom_site_symmetry_multiplicity
 _atom_site_fract_x
 _atom_site_fract_y
 _atom_site_fract_z
 _atom_site_occupancy
  Mn  Mn0  1  0.00000000  0.00000000  0.00000000  1
  Re  Re1  1  0.63449700  0.63449700  0.13455000  1
  Re  Re2  1  0.36550300  0.36550300  0.86545000  1
  H  H3  1  0.97774800  0.97774800  0.55213600  1
  H  H4  1  0.02225200  0.02225200  0.44786400  1
  O  O5  1  0.26026000  0.26026000  0.09053800  1
  O  O6  1  0.73974000  0.73974000  0.90946200  1
  O  O7  1  0.32119000  0.81854300  0.11525800  1
  O  O8  1  0.67881000  0.18145700  0.88474200  1
  O  O9  1  0.18145700  0.67881000  0.88474200  1
  O  O10  1  0.81854300  0.32119000  0.11525800  1
  O  O11  1  0.89675100  0.89675100  0.29339600  1
  O  O12  1  0.10324900  0.10324900  0.70660400  1
  O  O13  1  0.65434400  0.65434400  0.40161400  1
  O  O14  1  0.34565600  0.34565600  0.59838600  1
