# generated using pymatgen
data_Nd4MgSi4(C2O11)2
_symmetry_space_group_name_H-M   'P 1'
_cell_length_a   5.98735500
_cell_length_b   10.42267500
_cell_length_c   14.64940756
_cell_angle_alpha   77.34524664
_cell_angle_beta   90.00000000
_cell_angle_gamma   90.00000000
_symmetry_Int_Tables_number   1
_chemical_formula_structural   Nd4MgSi4(C2O11)2
_chemical_formula_sum   'Nd8 Mg2 Si8 C8 O44'
_cell_volume   891.97784375
_cell_formula_units_Z   2
loop_
 _symmetry_equiv_pos_site_id
 _symmetry_equiv_pos_as_xyz
  1  'x, y, z'
loop_
 _atom_site_type_symbol
 _atom_site_label
 _atom_site_symmetry_multiplicity
 _atom_site_fract_x
 _atom_site_fract_y
 _atom_site_fract_z
 _atom_site_occupancy
  Nd  Nd0  1  0.90672500  0.72734800  0.92100300  1
  Nd  Nd1  1  0.09327500  0.27265200  0.07899700  1
  Nd  Nd2  1  0.40672500  0.27265200  0.57899700  1
  Nd  Nd3  1  0.59327500  0.72734800  0.42100300  1
  Nd  Nd4  1  0.01651600  0.77505100  0.64942800  1
  Nd  Nd5  1  0.98348400  0.22494900  0.35057200  1
  Nd  Nd6  1  0.51651600  0.22494900  0.85057200  1
  Nd  Nd7  1  0.48348400  0.77505100  0.14942800  1
  Mg  Mg8  1  0.50000000  0.50000000  0.00000000  1
  Mg  Mg9  1  0.00000000  0.50000000  0.50000000  1
  Si  Si10  1  0.51068900  0.72106800  0.78342400  1
  Si  Si11  1  0.48931100  0.27893200  0.21657600  1
  Si  Si12  1  0.01068900  0.27893200  0.71657600  1
  Si  Si13  1  0.98931100  0.72106800  0.28342400  1
  Si  Si14  1  0.01585200  0.43753200  0.87516700  1
  Si  Si15  1  0.98414800  0.56246800  0.12483300  1
  Si  Si16  1  0.51585200  0.56246800  0.62483300  1
  Si  Si17  1  0.48414800  0.43753200  0.37516700  1
  C  C18  1  0.28239000  0.92895700  0.82188100  1
  C  C19  1  0.71761000  0.07104300  0.17811900  1
  C  C20  1  0.78239000  0.07104300  0.67811900  1
  C  C21  1  0.21761000  0.92895700  0.32188100  1
  C  C22  1  0.50000000  0.00000000  0.50000000  1
  C  C23  1  0.00000000  0.00000000  0.00000000  1
  C  C24  1  0.50000000  0.00000000  0.00000000  1
  C  C25  1  0.00000000  0.00000000  0.50000000  1
  O  O26  1  0.03490500  0.34974200  0.60705900  1
  O  O27  1  0.96509500  0.65025800  0.39294100  1
  O  O28  1  0.53490500  0.65025800  0.89294100  1
  O  O29  1  0.46509500  0.34974200  0.10705900  1
  O  O30  1  0.09143400  0.93251000  0.85828900  1
  O  O31  1  0.90856600  0.06749000  0.14171100  1
  O  O32  1  0.59143400  0.06749000  0.64171100  1
  O  O33  1  0.40856600  0.93251000  0.35828900  1
  O  O34  1  0.29947700  0.83202300  0.76968500  1
  O  O35  1  0.70052300  0.16797700  0.23031500  1
  O  O36  1  0.79947700  0.16797700  0.73031500  1
  O  O37  1  0.20052300  0.83202300  0.26968500  1
  O  O38  1  0.32876500  0.59718200  0.53964800  1
  O  O39  1  0.67123500  0.40281800  0.46035200  1
  O  O40  1  0.82876500  0.40281800  0.96035200  1
  O  O41  1  0.17123500  0.59718200  0.03964800  1
  O  O42  1  0.74845700  0.78957000  0.75614100  1
  O  O43  1  0.25154300  0.21043000  0.24385900  1
  O  O44  1  0.24845700  0.21043000  0.74385900  1
  O  O45  1  0.75154300  0.78957000  0.25614100  1
  O  O46  1  0.42602800  0.89638700  0.54001200  1
  O  O47  1  0.57397200  0.10361300  0.45998800  1
  O  O48  1  0.92602800  0.10361300  0.95998800  1
  O  O49  1  0.07397200  0.89638700  0.04001200  1
  O  O50  1  0.53323500  0.40767700  0.67188100  1
  O  O51  1  0.46676500  0.59232300  0.32811900  1
  O  O52  1  0.03323500  0.59232300  0.82811900  1
  O  O53  1  0.96676500  0.40767700  0.17188100  1
  O  O54  1  0.87364400  0.90044900  0.50341100  1
  O  O55  1  0.12635600  0.09955100  0.49658900  1
  O  O56  1  0.37364400  0.09955100  0.99658900  1
  O  O57  1  0.62635600  0.90044900  0.00341100  1
  O  O58  1  0.25704800  0.37190300  0.92038200  1
  O  O59  1  0.74295200  0.62809700  0.07961800  1
  O  O60  1  0.75704800  0.62809700  0.57961800  1
  O  O61  1  0.24295200  0.37190300  0.42038200  1
  O  O62  1  0.41903300  0.64209600  0.70518300  1
  O  O63  1  0.58096700  0.35790400  0.29481700  1
  O  O64  1  0.91903300  0.35790400  0.79481700  1
  O  O65  1  0.08096700  0.64209600  0.20518300  1
  O  O66  1  0.95108400  0.00444200  0.67072200  1
  O  O67  1  0.04891600  0.99555800  0.32927800  1
  O  O68  1  0.45108400  0.99555800  0.82927800  1
  O  O69  1  0.54891600  0.00444200  0.17072200  1
