# generated using pymatgen
data_Mg2ClO3
_symmetry_space_group_name_H-M   'P 1'
_cell_length_a   7.85620722
_cell_length_b   3.97199988
_cell_length_c   7.32744584
_cell_angle_alpha   89.24023381
_cell_angle_beta   80.81271942
_cell_angle_gamma   90.02895430
_symmetry_Int_Tables_number   1
_chemical_formula_structural   Mg2ClO3
_chemical_formula_sum   'Mg4 Cl2 O6'
_cell_volume   225.69803001
_cell_formula_units_Z   2
loop_
 _symmetry_equiv_pos_site_id
 _symmetry_equiv_pos_as_xyz
  1  'x, y, z'
loop_
 _atom_site_type_symbol
 _atom_site_label
 _atom_site_symmetry_multiplicity
 _atom_site_fract_x
 _atom_site_fract_y
 _atom_site_fract_z
 _atom_site_occupancy
  Mg  Mg0  1  0.12092800  0.74779000  0.56781300  1
  Mg  Mg1  1  0.87907200  0.25221000  0.43218700  1
  Mg  Mg2  1  0.38223900  0.24818300  0.58545100  1
  Mg  Mg3  1  0.61776100  0.75181700  0.41454900  1
  Cl  Cl4  1  0.54134100  0.40615700  0.12663600  1
  Cl  Cl5  1  0.45865900  0.59384300  0.87336400  1
  O  O6  1  0.11013100  0.24529100  0.67003800  1
  O  O7  1  0.88986900  0.75470900  0.32996200  1
  O  O8  1  0.37659700  0.75043600  0.56782600  1
  O  O9  1  0.62340300  0.24956400  0.43217400  1
  O  O10  1  0.13815200  0.25066700  0.45392100  1
  O  O11  1  0.86184800  0.74933300  0.54607900  1
