# generated using pymatgen
data_Na2CuTe2
_symmetry_space_group_name_H-M   'P 1'
_cell_length_a   9.44065300
_cell_length_b   9.44065300
_cell_length_c   26.15016100
_cell_angle_alpha   90.00000000
_cell_angle_beta   90.00000000
_cell_angle_gamma   90.00000000
_symmetry_Int_Tables_number   1
_chemical_formula_structural   Na2CuTe2
_chemical_formula_sum   'Na2 Cu1 Te2'
_cell_volume   2330.65739436
_cell_formula_units_Z   1
loop_
 _symmetry_equiv_pos_site_id
 _symmetry_equiv_pos_as_xyz
  1  'x, y, z'
loop_
 _atom_site_type_symbol
 _atom_site_label
 _atom_site_symmetry_multiplicity
 _atom_site_fract_x
 _atom_site_fract_y
 _atom_site_fract_z
 _atom_site_occupancy
  Na  Na0  1  0.50000000  0.50000000  0.66877600  1
  Na  Na1  1  0.50000000  0.50000000  0.33122400  1
  Cu  Cu2  1  0.50000000  0.50000000  0.00000000  1
  Te  Te3  1  0.50000000  0.50000000  0.22539900  1
  Te  Te4  1  0.50000000  0.50000000  0.77460100  1
