# generated using pymatgen
data_Nd4CoS7
_symmetry_space_group_name_H-M   'P 1'
_cell_length_a   9.85003428
_cell_length_b   9.85003428
_cell_length_c   6.75142900
_cell_angle_alpha   90.00000000
_cell_angle_beta   90.00000000
_cell_angle_gamma   120.00000191
_symmetry_Int_Tables_number   1
_chemical_formula_structural   Nd4CoS7
_chemical_formula_sum   'Nd8 Co2 S14'
_cell_volume   567.28566903
_cell_formula_units_Z   2
loop_
 _symmetry_equiv_pos_site_id
 _symmetry_equiv_pos_as_xyz
  1  'x, y, z'
loop_
 _atom_site_type_symbol
 _atom_site_label
 _atom_site_symmetry_multiplicity
 _atom_site_fract_x
 _atom_site_fract_y
 _atom_site_fract_z
 _atom_site_occupancy
  Nd  Nd0  1  0.66666700  0.33333300  0.82582400  1
  Nd  Nd1  1  0.33333300  0.66666700  0.32582400  1
  Nd  Nd2  1  0.62736300  0.85551400  0.78401300  1
  Nd  Nd3  1  0.22815100  0.37263700  0.78401300  1
  Nd  Nd4  1  0.37263700  0.14448600  0.28401300  1
  Nd  Nd5  1  0.14448600  0.77184900  0.78401300  1
  Nd  Nd6  1  0.77184900  0.62736300  0.28401300  1
  Nd  Nd7  1  0.85551400  0.22815100  0.28401300  1
  Co  Co8  1  0.00000000  0.00000000  0.98132000  1
  Co  Co9  1  0.00000000  0.00000000  0.48132000  1
  S  S10  1  0.49310300  0.56356000  0.53937700  1
  S  S11  1  0.07045700  0.50689700  0.53937700  1
  S  S12  1  0.50689700  0.43644000  0.03937700  1
  S  S13  1  0.43644000  0.92954300  0.53937700  1
  S  S14  1  0.92954300  0.49310300  0.03937700  1
  S  S15  1  0.56356000  0.07045700  0.03937700  1
  S  S16  1  0.66666700  0.33333300  0.43549300  1
  S  S17  1  0.33333300  0.66666700  0.93549300  1
  S  S18  1  0.90705500  0.13658100  0.69706500  1
  S  S19  1  0.22952600  0.09294500  0.69706500  1
  S  S20  1  0.09294500  0.86341900  0.19706500  1
  S  S21  1  0.86341900  0.77047400  0.69706500  1
  S  S22  1  0.77047400  0.90705500  0.19706500  1
  S  S23  1  0.13658100  0.22952600  0.19706500  1
