# generated using pymatgen
data_Na3MnP8O23
_symmetry_space_group_name_H-M   'P 1'
_cell_length_a   12.14942600
_cell_length_b   12.14942600
_cell_length_c   12.14942600
_cell_angle_alpha   90.00000000
_cell_angle_beta   90.00000000
_cell_angle_gamma   90.00000000
_symmetry_Int_Tables_number   1
_chemical_formula_structural   Na3MnP8O23
_chemical_formula_sum   'Na12 Mn4 P32 O92'
_cell_volume   1793.35918106
_cell_formula_units_Z   4
loop_
 _symmetry_equiv_pos_site_id
 _symmetry_equiv_pos_as_xyz
  1  'x, y, z'
loop_
 _atom_site_type_symbol
 _atom_site_label
 _atom_site_symmetry_multiplicity
 _atom_site_fract_x
 _atom_site_fract_y
 _atom_site_fract_z
 _atom_site_occupancy
  Na  Na0  1  0.12500000  0.04340100  0.29340100  1
  Na  Na1  1  0.37500000  0.95659900  0.79340100  1
  Na  Na2  1  0.87500000  0.54340100  0.20659900  1
  Na  Na3  1  0.29340100  0.12500000  0.04340100  1
  Na  Na4  1  0.79340100  0.37500000  0.95659900  1
  Na  Na5  1  0.62500000  0.45659900  0.70659900  1
  Na  Na6  1  0.70659900  0.62500000  0.45659900  1
  Na  Na7  1  0.20659900  0.87500000  0.54340100  1
  Na  Na8  1  0.04340100  0.29340100  0.12500000  1
  Na  Na9  1  0.54340100  0.20659900  0.87500000  1
  Na  Na10  1  0.45659900  0.70659900  0.62500000  1
  Na  Na11  1  0.95659900  0.79340100  0.37500000  1
  Mn  Mn12  1  0.37500000  0.37500000  0.37500000  1
  Mn  Mn13  1  0.12500000  0.62500000  0.87500000  1
  Mn  Mn14  1  0.62500000  0.87500000  0.12500000  1
  Mn  Mn15  1  0.87500000  0.12500000  0.62500000  1
  P  P16  1  0.01791400  0.01791400  0.01791400  1
  P  P17  1  0.48208600  0.98208600  0.51791400  1
  P  P18  1  0.98208600  0.51791400  0.48208600  1
  P  P19  1  0.76791400  0.26791400  0.23208600  1
  P  P20  1  0.51791400  0.48208600  0.98208600  1
  P  P21  1  0.73208600  0.73208600  0.73208600  1
  P  P22  1  0.26791400  0.23208600  0.76791400  1
  P  P23  1  0.23208600  0.76791400  0.26791400  1
  P  P24  1  0.10882900  0.31866300  0.39602000  1
  P  P25  1  0.39117100  0.68133700  0.89602000  1
  P  P26  1  0.89117100  0.81866300  0.10398000  1
  P  P27  1  0.39602000  0.10882900  0.31866300  1
  P  P28  1  0.06866300  0.35882900  0.85398000  1
  P  P29  1  0.60882900  0.18133700  0.60398000  1
  P  P30  1  0.89602000  0.39117100  0.68133700  1
  P  P31  1  0.43133700  0.64117100  0.35398000  1
  P  P32  1  0.10398000  0.89117100  0.81866300  1
  P  P33  1  0.56866300  0.14117100  0.14602000  1
  P  P34  1  0.60398000  0.60882900  0.18133700  1
  P  P35  1  0.93133700  0.85882900  0.64602000  1
  P  P36  1  0.31866300  0.39602000  0.10882900  1
  P  P37  1  0.85882900  0.64602000  0.93133700  1
  P  P38  1  0.81866300  0.10398000  0.89117100  1
  P  P39  1  0.64117100  0.35398000  0.43133700  1
  P  P40  1  0.18133700  0.60398000  0.60882900  1
  P  P41  1  0.35882900  0.85398000  0.06866300  1
  P  P42  1  0.68133700  0.89602000  0.39117100  1
  P  P43  1  0.14117100  0.14602000  0.56866300  1
  P  P44  1  0.85398000  0.06866300  0.35882900  1
  P  P45  1  0.35398000  0.43133700  0.64117100  1
  P  P46  1  0.64602000  0.93133700  0.85882900  1
  P  P47  1  0.14602000  0.56866300  0.14117100  1
  O  O48  1  0.20860100  0.38729000  0.37032400  1
  O  O49  1  0.29139900  0.61271000  0.87032400  1
  O  O50  1  0.79139900  0.88729000  0.12967600  1
  O  O51  1  0.37032400  0.20860100  0.38729000  1
  O  O52  1  0.13729000  0.45860100  0.87967600  1
  O  O53  1  0.70860100  0.11271000  0.62967600  1
  O  O54  1  0.87032400  0.29139900  0.61271000  1
  O  O55  1  0.36271000  0.54139900  0.37967600  1
  O  O56  1  0.12967600  0.79139900  0.88729000  1
  O  O57  1  0.63729000  0.04139900  0.12032400  1
  O  O58  1  0.62967600  0.70860100  0.11271000  1
  O  O59  1  0.86271000  0.95860100  0.62032400  1
  O  O60  1  0.38729000  0.37032400  0.20860100  1
  O  O61  1  0.95860100  0.62032400  0.86271000  1
  O  O62  1  0.88729000  0.12967600  0.79139900  1
  O  O63  1  0.54139900  0.37967600  0.36271000  1
  O  O64  1  0.11271000  0.62967600  0.70860100  1
  O  O65  1  0.45860100  0.87967600  0.13729000  1
  O  O66  1  0.61271000  0.87032400  0.29139900  1
  O  O67  1  0.04139900  0.12032400  0.63729000  1
  O  O68  1  0.87967600  0.13729000  0.45860100  1
  O  O69  1  0.37967600  0.36271000  0.54139900  1
  O  O70  1  0.62032400  0.86271000  0.95860100  1
  O  O71  1  0.12032400  0.63729000  0.04139900  1
  O  O72  1  0.12500000  0.26653700  0.51653700  1
  O  O73  1  0.37500000  0.73346300  0.01653700  1
  O  O74  1  0.87500000  0.76653700  0.98346300  1
  O  O75  1  0.51653700  0.12500000  0.26653700  1
  O  O76  1  0.01653700  0.37500000  0.73346300  1
  O  O77  1  0.62500000  0.23346300  0.48346300  1
  O  O78  1  0.48346300  0.62500000  0.23346300  1
  O  O79  1  0.98346300  0.87500000  0.76653700  1
  O  O80  1  0.26653700  0.51653700  0.12500000  1
  O  O81  1  0.76653700  0.98346300  0.87500000  1
  O  O82  1  0.23346300  0.48346300  0.62500000  1
  O  O83  1  0.73346300  0.01653700  0.37500000  1
  O  O84  1  0.00862400  0.40458600  0.42423100  1
  O  O85  1  0.49137600  0.59541400  0.92423100  1
  O  O86  1  0.99137600  0.90458600  0.07576900  1
  O  O87  1  0.42423100  0.00862400  0.40458600  1
  O  O88  1  0.15458600  0.25862400  0.82576900  1
  O  O89  1  0.50862400  0.09541400  0.57576900  1
  O  O90  1  0.92423100  0.49137600  0.59541400  1
  O  O91  1  0.34541400  0.74137600  0.32576900  1
  O  O92  1  0.07576900  0.99137600  0.90458600  1
  O  O93  1  0.65458600  0.24137600  0.17423100  1
  O  O94  1  0.57576900  0.50862400  0.09541400  1
  O  O95  1  0.84541400  0.75862400  0.67423100  1
  O  O96  1  0.40458600  0.42423100  0.00862400  1
  O  O97  1  0.75862400  0.67423100  0.84541400  1
  O  O98  1  0.90458600  0.07576900  0.99137600  1
  O  O99  1  0.74137600  0.32576900  0.34541400  1
  O  O100  1  0.09541400  0.57576900  0.50862400  1
  O  O101  1  0.25862400  0.82576900  0.15458600  1
  O  O102  1  0.59541400  0.92423100  0.49137600  1
  O  O103  1  0.24137600  0.17423100  0.65458600  1
  O  O104  1  0.82576900  0.15458600  0.25862400  1
  O  O105  1  0.32576900  0.34541400  0.74137600  1
  O  O106  1  0.67423100  0.84541400  0.75862400  1
  O  O107  1  0.17423100  0.65458600  0.24137600  1
  O  O108  1  0.06786100  0.23800000  0.31368000  1
  O  O109  1  0.43213900  0.76200000  0.81368000  1
  O  O110  1  0.93213900  0.73800000  0.18632000  1
  O  O111  1  0.31368000  0.06786100  0.23800000  1
  O  O112  1  0.98800000  0.31786100  0.93632000  1
  O  O113  1  0.56786100  0.26200000  0.68632000  1
  O  O114  1  0.81368000  0.43213900  0.76200000  1
  O  O115  1  0.51200000  0.68213900  0.43632000  1
  O  O116  1  0.18632000  0.93213900  0.73800000  1
  O  O117  1  0.48800000  0.18213900  0.06368000  1
  O  O118  1  0.68632000  0.56786100  0.26200000  1
  O  O119  1  0.01200000  0.81786100  0.56368000  1
  O  O120  1  0.23800000  0.31368000  0.06786100  1
  O  O121  1  0.81786100  0.56368000  0.01200000  1
  O  O122  1  0.73800000  0.18632000  0.93213900  1
  O  O123  1  0.68213900  0.43632000  0.51200000  1
  O  O124  1  0.26200000  0.68632000  0.56786100  1
  O  O125  1  0.31786100  0.93632000  0.98800000  1
  O  O126  1  0.76200000  0.81368000  0.43213900  1
  O  O127  1  0.18213900  0.06368000  0.48800000  1
  O  O128  1  0.93632000  0.98800000  0.31786100  1
  O  O129  1  0.43632000  0.51200000  0.68213900  1
  O  O130  1  0.56368000  0.01200000  0.81786100  1
  O  O131  1  0.06368000  0.48800000  0.18213900  1
  O  O132  1  0.08828000  0.08828000  0.08828000  1
  O  O133  1  0.41172000  0.91172000  0.58828000  1
  O  O134  1  0.91172000  0.58828000  0.41172000  1
  O  O135  1  0.83828000  0.33828000  0.16172000  1
  O  O136  1  0.58828000  0.41172000  0.91172000  1
  O  O137  1  0.66172000  0.66172000  0.66172000  1
  O  O138  1  0.33828000  0.16172000  0.83828000  1
  O  O139  1  0.16172000  0.83828000  0.33828000  1
