# generated using pymatgen
data_Nd6TiInS12
_symmetry_space_group_name_H-M   'P 1'
_cell_length_a   3.94451800
_cell_length_b   13.89332000
_cell_length_c   16.36055000
_cell_angle_alpha   90.00000000
_cell_angle_beta   90.00000000
_cell_angle_gamma   90.00000000
_symmetry_Int_Tables_number   1
_chemical_formula_structural   Nd6TiInS12
_chemical_formula_sum   'Nd12 Ti2 In2 S24'
_cell_volume   896.59823676
_cell_formula_units_Z   2
loop_
 _symmetry_equiv_pos_site_id
 _symmetry_equiv_pos_as_xyz
  1  'x, y, z'
loop_
 _atom_site_type_symbol
 _atom_site_label
 _atom_site_symmetry_multiplicity
 _atom_site_fract_x
 _atom_site_fract_y
 _atom_site_fract_z
 _atom_site_occupancy
  Nd  Nd0  1  0.00000000  0.75961400  0.10057800  1
  Nd  Nd1  1  0.00000000  0.24038600  0.89942200  1
  Nd  Nd2  1  0.50000000  0.74038600  0.60057800  1
  Nd  Nd3  1  0.50000000  0.25961400  0.39942200  1
  Nd  Nd4  1  0.00000000  0.31717100  0.14971400  1
  Nd  Nd5  1  0.00000000  0.68282900  0.85028600  1
  Nd  Nd6  1  0.50000000  0.18282900  0.64971400  1
  Nd  Nd7  1  0.50000000  0.81717100  0.35028600  1
  Nd  Nd8  1  0.00000000  0.54897800  0.28269200  1
  Nd  Nd9  1  0.00000000  0.45102200  0.71730800  1
  Nd  Nd10  1  0.50000000  0.95102200  0.78269200  1
  Nd  Nd11  1  0.50000000  0.04897800  0.21730800  1
  Ti  Ti12  1  0.00000000  0.00000000  0.00000000  1
  Ti  Ti13  1  0.50000000  0.50000000  0.50000000  1
  In  In14  1  0.00000000  0.00000000  0.50000000  1
  In  In15  1  0.50000000  0.50000000  0.00000000  1
  S  S16  1  0.00000000  0.10257400  0.75379500  1
  S  S17  1  0.00000000  0.89742600  0.24620500  1
  S  S18  1  0.50000000  0.39742600  0.25379500  1
  S  S19  1  0.50000000  0.60257400  0.74620500  1
  S  S20  1  0.00000000  0.41698200  0.42626800  1
  S  S21  1  0.00000000  0.58301800  0.57373200  1
  S  S22  1  0.50000000  0.08301800  0.92626800  1
  S  S23  1  0.50000000  0.91698200  0.07373200  1
  S  S24  1  0.00000000  0.18820400  0.52110300  1
  S  S25  1  0.00000000  0.81179600  0.47889700  1
  S  S26  1  0.50000000  0.31179600  0.02110300  1
  S  S27  1  0.50000000  0.68820400  0.97889700  1
  S  S28  1  0.00000000  0.18694100  0.28767500  1
  S  S29  1  0.00000000  0.81305900  0.71232500  1
  S  S30  1  0.50000000  0.31305900  0.78767500  1
  S  S31  1  0.50000000  0.68694100  0.21232500  1
  S  S32  1  0.00000000  0.52329000  0.10492700  1
  S  S33  1  0.00000000  0.47671000  0.89507300  1
  S  S34  1  0.50000000  0.97671000  0.60492700  1
  S  S35  1  0.50000000  0.02329000  0.39507300  1
  S  S36  1  0.00000000  0.12030300  0.10291600  1
  S  S37  1  0.00000000  0.87969700  0.89708400  1
  S  S38  1  0.50000000  0.37969700  0.60291600  1
  S  S39  1  0.50000000  0.62030300  0.39708400  1
