# generated using pymatgen
data_MnP2H6O5
_symmetry_space_group_name_H-M   'P 1'
_cell_length_a   7.52097400
_cell_length_b   7.98613900
_cell_length_c   10.93924745
_cell_angle_alpha   77.10363907
_cell_angle_beta   90.00000000
_cell_angle_gamma   90.00000000
_symmetry_Int_Tables_number   1
_chemical_formula_structural   MnP2H6O5
_chemical_formula_sum   'Mn4 P8 H24 O20'
_cell_volume   640.47612695
_cell_formula_units_Z   4
loop_
 _symmetry_equiv_pos_site_id
 _symmetry_equiv_pos_as_xyz
  1  'x, y, z'
loop_
 _atom_site_type_symbol
 _atom_site_label
 _atom_site_symmetry_multiplicity
 _atom_site_fract_x
 _atom_site_fract_y
 _atom_site_fract_z
 _atom_site_occupancy
  Mn  Mn0  1  0.45307400  0.80792700  0.60263900  1
  Mn  Mn1  1  0.54692600  0.19207300  0.39736100  1
  Mn  Mn2  1  0.95307400  0.19207300  0.89736100  1
  Mn  Mn3  1  0.04692600  0.80792700  0.10263900  1
  P  P4  1  0.11055800  0.53101900  0.68841700  1
  P  P5  1  0.88944200  0.46898100  0.31158300  1
  P  P6  1  0.61055800  0.46898100  0.81158300  1
  P  P7  1  0.38944200  0.53101900  0.18841700  1
  P  P8  1  0.32194600  0.96643700  0.84935400  1
  P  P9  1  0.67805400  0.03356300  0.15064600  1
  P  P10  1  0.82194600  0.03356300  0.65064600  1
  P  P11  1  0.17805400  0.96643700  0.34935400  1
  H  H12  1  0.11019500  0.61713900  0.78886400  1
  H  H13  1  0.88980500  0.38286100  0.21113600  1
  H  H14  1  0.61019500  0.38286100  0.71113600  1
  H  H15  1  0.38980500  0.61713900  0.28886400  1
  H  H16  1  0.34459600  0.40226000  0.54569100  1
  H  H17  1  0.65540400  0.59774000  0.45430900  1
  H  H18  1  0.84459600  0.59774000  0.95430900  1
  H  H19  1  0.15540400  0.40226000  0.04569100  1
  H  H20  1  0.32195800  0.20105800  0.59419900  1
  H  H21  1  0.67804200  0.79894200  0.40580100  1
  H  H22  1  0.82195800  0.79894200  0.90580100  1
  H  H23  1  0.17804200  0.20105800  0.09419900  1
  H  H24  1  0.42648100  0.82800200  0.91439100  1
  H  H25  1  0.57351900  0.17199800  0.08560900  1
  H  H26  1  0.92648100  0.17199800  0.58560900  1
  H  H27  1  0.07351900  0.82800200  0.41439100  1
  H  H28  1  0.95206600  0.59040300  0.62241000  1
  H  H29  1  0.04793400  0.40959700  0.37759000  1
  H  H30  1  0.45206600  0.40959700  0.87759000  1
  H  H31  1  0.54793400  0.59040300  0.12241000  1
  H  H32  1  0.92837000  0.88799700  0.64884200  1
  H  H33  1  0.07163000  0.11200300  0.35115800  1
  H  H34  1  0.42837000  0.11200300  0.85115800  1
  H  H35  1  0.57163000  0.88799700  0.14884200  1
  O  O36  1  0.36469300  0.29088200  0.52375000  1
  O  O37  1  0.63530700  0.70911800  0.47625000  1
  O  O38  1  0.86469300  0.70911800  0.97625000  1
  O  O39  1  0.13530700  0.29088200  0.02375000  1
  O  O40  1  0.15446700  0.97678600  0.92750300  1
  O  O41  1  0.84553300  0.02321400  0.07249700  1
  O  O42  1  0.65446700  0.02321400  0.57249700  1
  O  O43  1  0.34553300  0.97678600  0.42750300  1
  O  O44  1  0.27031100  0.59423200  0.60328500  1
  O  O45  1  0.72968900  0.40576800  0.39671500  1
  O  O46  1  0.77031100  0.40576800  0.89671500  1
  O  O47  1  0.22968900  0.59423200  0.10328500  1
  O  O48  1  0.29474200  0.95182500  0.71353900  1
  O  O49  1  0.70525800  0.04817500  0.28646100  1
  O  O50  1  0.79474200  0.04817500  0.78646100  1
  O  O51  1  0.20525800  0.95182500  0.21353900  1
  O  O52  1  0.09974300  0.33723400  0.73856500  1
  O  O53  1  0.90025700  0.66276600  0.26143500  1
  O  O54  1  0.59974300  0.66276600  0.76143500  1
  O  O55  1  0.40025700  0.33723400  0.23856500  1
