# generated using pymatgen
data_Mg(PO5)2
_symmetry_space_group_name_H-M   'P 1'
_cell_length_a   9.48105400
_cell_length_b   5.43083400
_cell_length_c   8.36490010
_cell_angle_alpha   52.35031074
_cell_angle_beta   90.00000000
_cell_angle_gamma   90.00000000
_symmetry_Int_Tables_number   1
_chemical_formula_structural   Mg(PO5)2
_chemical_formula_sum   'Mg2 P4 O20'
_cell_volume   341.01821402
_cell_formula_units_Z   2
loop_
 _symmetry_equiv_pos_site_id
 _symmetry_equiv_pos_as_xyz
  1  'x, y, z'
loop_
 _atom_site_type_symbol
 _atom_site_label
 _atom_site_symmetry_multiplicity
 _atom_site_fract_x
 _atom_site_fract_y
 _atom_site_fract_z
 _atom_site_occupancy
  Mg  Mg0  1  0.00000000  0.00000000  0.00000000  1
  Mg  Mg1  1  0.50000000  0.00000000  0.50000000  1
  P  P2  1  0.82960000  0.69243300  0.63811100  1
  P  P3  1  0.17040000  0.30756700  0.36188900  1
  P  P4  1  0.32960000  0.30756700  0.86188900  1
  P  P5  1  0.67040000  0.69243300  0.13811100  1
  O  O6  1  0.37314400  0.02176300  0.85977700  1
  O  O7  1  0.62685600  0.97823700  0.14022300  1
  O  O8  1  0.87314400  0.97823700  0.64022300  1
  O  O9  1  0.12685600  0.02176300  0.35977700  1
  O  O10  1  0.41147200  0.24770800  0.06379100  1
  O  O11  1  0.58852800  0.75229200  0.93620900  1
  O  O12  1  0.91147200  0.75229200  0.43620900  1
  O  O13  1  0.08852800  0.24770800  0.56379100  1
  O  O14  1  0.38416100  0.61621000  0.68889500  1
  O  O15  1  0.61583900  0.38379000  0.31110500  1
  O  O16  1  0.88416100  0.38379000  0.81110500  1
  O  O17  1  0.11583900  0.61621000  0.18889500  1
  O  O18  1  0.03130700  0.95371700  0.70714200  1
  O  O19  1  0.96869300  0.04628300  0.29285800  1
  O  O20  1  0.53130700  0.04628300  0.79285800  1
  O  O21  1  0.46869300  0.95371700  0.20714200  1
  O  O22  1  0.67552200  0.74029100  0.59325400  1
  O  O23  1  0.32447800  0.25970900  0.40674600  1
  O  O24  1  0.17552200  0.25970900  0.90674600  1
  O  O25  1  0.82447800  0.74029100  0.09325400  1
