# generated using pymatgen
data_Mn2S3(NO6)2
_symmetry_space_group_name_H-M   'P 1'
_cell_length_a   10.08649200
_cell_length_b   10.08649200
_cell_length_c   10.08649200
_cell_angle_alpha   90.00000000
_cell_angle_beta   90.00000000
_cell_angle_gamma   90.00000000
_symmetry_Int_Tables_number   1
_chemical_formula_structural   Mn2S3(NO6)2
_chemical_formula_sum   'Mn8 S12 N8 O48'
_cell_volume   1026.17267302
_cell_formula_units_Z   4
loop_
 _symmetry_equiv_pos_site_id
 _symmetry_equiv_pos_as_xyz
  1  'x, y, z'
loop_
 _atom_site_type_symbol
 _atom_site_label
 _atom_site_symmetry_multiplicity
 _atom_site_fract_x
 _atom_site_fract_y
 _atom_site_fract_z
 _atom_site_occupancy
  Mn  Mn0  1  0.33523200  0.33523200  0.33523200  1
  Mn  Mn1  1  0.16476800  0.66476800  0.83523200  1
  Mn  Mn2  1  0.66476800  0.83523200  0.16476800  1
  Mn  Mn3  1  0.83523200  0.16476800  0.66476800  1
  Mn  Mn4  1  0.59990600  0.59990600  0.59990600  1
  Mn  Mn5  1  0.90009400  0.40009400  0.09990600  1
  Mn  Mn6  1  0.40009400  0.09990600  0.90009400  1
  Mn  Mn7  1  0.09990600  0.90009400  0.40009400  1
  S  S8  1  0.01844400  0.21358800  0.37602700  1
  S  S9  1  0.48155600  0.78641200  0.87602700  1
  S  S10  1  0.98155600  0.71358800  0.12397300  1
  S  S11  1  0.37602700  0.01844400  0.21358800  1
  S  S12  1  0.51844400  0.28641200  0.62397300  1
  S  S13  1  0.87602700  0.48155600  0.78641200  1
  S  S14  1  0.12397300  0.98155600  0.71358800  1
  S  S15  1  0.62397300  0.51844400  0.28641200  1
  S  S16  1  0.21358800  0.37602700  0.01844400  1
  S  S17  1  0.71358800  0.12397300  0.98155600  1
  S  S18  1  0.28641200  0.62397300  0.51844400  1
  S  S19  1  0.78641200  0.87602700  0.48155600  1
  N  N20  1  0.04501700  0.04501700  0.04501700  1
  N  N21  1  0.45498300  0.95498300  0.54501700  1
  N  N22  1  0.95498300  0.54501700  0.45498300  1
  N  N23  1  0.54501700  0.45498300  0.95498300  1
  N  N24  1  0.81715200  0.81715200  0.81715200  1
  N  N25  1  0.68284800  0.18284800  0.31715200  1
  N  N26  1  0.18284800  0.31715200  0.68284800  1
  N  N27  1  0.31715200  0.68284800  0.18284800  1
  O  O28  1  0.00964700  0.07037200  0.33585400  1
  O  O29  1  0.49035300  0.92962800  0.83585400  1
  O  O30  1  0.99035300  0.57037200  0.16414600  1
  O  O31  1  0.33585400  0.00964700  0.07037200  1
  O  O32  1  0.50964700  0.42962800  0.66414600  1
  O  O33  1  0.83585400  0.49035300  0.92962800  1
  O  O34  1  0.16414600  0.99035300  0.57037200  1
  O  O35  1  0.66414600  0.50964700  0.42962800  1
  O  O36  1  0.07037200  0.33585400  0.00964700  1
  O  O37  1  0.57037200  0.16414600  0.99035300  1
  O  O38  1  0.42962800  0.66414600  0.50964700  1
  O  O39  1  0.92962800  0.83585400  0.49035300  1
  O  O40  1  0.26456200  0.49792700  0.44593100  1
  O  O41  1  0.23543800  0.50207300  0.94593100  1
  O  O42  1  0.73543800  0.99792700  0.05406900  1
  O  O43  1  0.44593100  0.26456200  0.49792700  1
  O  O44  1  0.76456200  0.00207300  0.55406900  1
  O  O45  1  0.94593100  0.23543800  0.50207300  1
  O  O46  1  0.05406900  0.73543800  0.99792700  1
  O  O47  1  0.55406900  0.76456200  0.00207300  1
  O  O48  1  0.49792700  0.44593100  0.26456200  1
  O  O49  1  0.99792700  0.05406900  0.73543800  1
  O  O50  1  0.00207300  0.55406900  0.76456200  1
  O  O51  1  0.50207300  0.94593100  0.23543800  1
  O  O52  1  0.04195100  0.78977800  0.23216000  1
  O  O53  1  0.45804900  0.21022200  0.73216000  1
  O  O54  1  0.95804900  0.28977800  0.26784000  1
  O  O55  1  0.23216000  0.04195100  0.78977800  1
  O  O56  1  0.54195100  0.71022200  0.76784000  1
  O  O57  1  0.73216000  0.45804900  0.21022200  1
  O  O58  1  0.26784000  0.95804900  0.28977800  1
  O  O59  1  0.76784000  0.54195100  0.71022200  1
  O  O60  1  0.78977800  0.23216000  0.04195100  1
  O  O61  1  0.28977800  0.26784000  0.95804900  1
  O  O62  1  0.71022200  0.76784000  0.54195100  1
  O  O63  1  0.21022200  0.73216000  0.45804900  1
  O  O64  1  0.15817200  0.25145500  0.40021500  1
  O  O65  1  0.34182800  0.74854500  0.90021500  1
  O  O66  1  0.84182800  0.75145500  0.09978500  1
  O  O67  1  0.40021500  0.15817200  0.25145500  1
  O  O68  1  0.65817200  0.24854500  0.59978500  1
  O  O69  1  0.90021500  0.34182800  0.74854500  1
  O  O70  1  0.09978500  0.84182800  0.75145500  1
  O  O71  1  0.59978500  0.65817200  0.24854500  1
  O  O72  1  0.25145500  0.40021500  0.15817200  1
  O  O73  1  0.75145500  0.09978500  0.84182800  1
  O  O74  1  0.24854500  0.59978500  0.65817200  1
  O  O75  1  0.74854500  0.90021500  0.34182800  1
