# generated using pymatgen
data_Na3Np6FeF30
_symmetry_space_group_name_H-M   'P 1'
_cell_length_a   9.93053115
_cell_length_b   9.93053115
_cell_length_c   12.96721500
_cell_angle_alpha   90.00000000
_cell_angle_beta   90.00000000
_cell_angle_gamma   119.99999432
_symmetry_Int_Tables_number   1
_chemical_formula_structural   Na3Np6FeF30
_chemical_formula_sum   'Na6 Np12 Fe2 F60'
_cell_volume   1107.44540114
_cell_formula_units_Z   2
loop_
 _symmetry_equiv_pos_site_id
 _symmetry_equiv_pos_as_xyz
  1  'x, y, z'
loop_
 _atom_site_type_symbol
 _atom_site_label
 _atom_site_symmetry_multiplicity
 _atom_site_fract_x
 _atom_site_fract_y
 _atom_site_fract_z
 _atom_site_occupancy
  Na  Na0  1  0.33333300  0.66666700  0.65812800  1
  Na  Na1  1  0.66666700  0.33333300  0.34187200  1
  Na  Na2  1  0.66666700  0.33333300  0.84187200  1
  Na  Na3  1  0.33333300  0.66666700  0.15812800  1
  Na  Na4  1  0.00000000  0.00000000  0.50000000  1
  Na  Na5  1  0.00000000  0.00000000  0.00000000  1
  Np  Np6  1  0.40199000  0.07843900  0.60161400  1
  Np  Np7  1  0.59801000  0.92156100  0.39838600  1
  Np  Np8  1  0.92156100  0.32355100  0.60161400  1
  Np  Np9  1  0.07843900  0.40199000  0.89838600  1
  Np  Np10  1  0.07843900  0.67644900  0.39838600  1
  Np  Np11  1  0.92156100  0.59801000  0.10161400  1
  Np  Np12  1  0.67644900  0.59801000  0.60161400  1
  Np  Np13  1  0.32355100  0.92156100  0.89838600  1
  Np  Np14  1  0.32355100  0.40199000  0.39838600  1
  Np  Np15  1  0.67644900  0.07843900  0.10161400  1
  Np  Np16  1  0.59801000  0.67644900  0.89838600  1
  Np  Np17  1  0.40199000  0.32355100  0.10161400  1
  Fe  Fe18  1  0.00000000  0.00000000  0.75000000  1
  Fe  Fe19  1  0.00000000  0.00000000  0.25000000  1
  F  F20  1  0.18179500  0.07987400  0.66138100  1
  F  F21  1  0.81820500  0.92012600  0.33861900  1
  F  F22  1  0.92012600  0.10192000  0.66138100  1
  F  F23  1  0.07987400  0.18179500  0.83861900  1
  F  F24  1  0.07987400  0.89808000  0.33861900  1
  F  F25  1  0.92012600  0.81820500  0.16138100  1
  F  F26  1  0.89808000  0.81820500  0.66138100  1
  F  F27  1  0.10192000  0.92012600  0.83861900  1
  F  F28  1  0.10192000  0.18179500  0.33861900  1
  F  F29  1  0.89808000  0.07987400  0.16138100  1
  F  F30  1  0.81820500  0.89808000  0.83861900  1
  F  F31  1  0.18179500  0.10192000  0.16138100  1
  F  F32  1  0.12977300  0.43751600  0.71553900  1
  F  F33  1  0.87022700  0.56248400  0.28446100  1
  F  F34  1  0.56248400  0.69225700  0.71553900  1
  F  F35  1  0.43751600  0.12977300  0.78446100  1
  F  F36  1  0.43751600  0.30774300  0.28446100  1
  F  F37  1  0.56248400  0.87022700  0.21553900  1
  F  F38  1  0.30774300  0.87022700  0.71553900  1
  F  F39  1  0.69225700  0.56248400  0.78446100  1
  F  F40  1  0.69225700  0.12977300  0.28446100  1
  F  F41  1  0.30774300  0.43751600  0.21553900  1
  F  F42  1  0.87022700  0.30774300  0.78446100  1
  F  F43  1  0.12977300  0.69225700  0.21553900  1
  F  F44  1  0.11861000  0.31132500  0.51973200  1
  F  F45  1  0.88139000  0.68867500  0.48026800  1
  F  F46  1  0.68867500  0.80728500  0.51973200  1
  F  F47  1  0.31132500  0.11861000  0.98026800  1
  F  F48  1  0.31132500  0.19271500  0.48026800  1
  F  F49  1  0.68867500  0.88139000  0.01973200  1
  F  F50  1  0.19271500  0.88139000  0.51973200  1
  F  F51  1  0.80728500  0.68867500  0.98026800  1
  F  F52  1  0.80728500  0.11861000  0.48026800  1
  F  F53  1  0.19271500  0.31132500  0.01973200  1
  F  F54  1  0.88139000  0.19271500  0.98026800  1
  F  F55  1  0.11861000  0.80728500  0.01973200  1
  F  F56  1  0.51223300  0.33925100  0.63679100  1
  F  F57  1  0.48776700  0.66074900  0.36320900  1
  F  F58  1  0.66074900  0.17298100  0.63679100  1
  F  F59  1  0.33925100  0.51223300  0.86320900  1
  F  F60  1  0.33925100  0.82701900  0.36320900  1
  F  F61  1  0.66074900  0.48776700  0.13679100  1
  F  F62  1  0.82701900  0.48776700  0.63679100  1
  F  F63  1  0.17298100  0.66074900  0.86320900  1
  F  F64  1  0.17298100  0.51223300  0.36320900  1
  F  F65  1  0.82701900  0.33925100  0.13679100  1
  F  F66  1  0.48776700  0.82701900  0.86320900  1
  F  F67  1  0.51223300  0.17298100  0.13679100  1
  F  F68  1  0.11776100  0.58621800  0.55038800  1
  F  F69  1  0.88223900  0.41378200  0.44961200  1
  F  F70  1  0.41378200  0.53154300  0.55038800  1
  F  F71  1  0.58621800  0.11776100  0.94961200  1
  F  F72  1  0.58621800  0.46845700  0.44961200  1
  F  F73  1  0.41378200  0.88223900  0.05038800  1
  F  F74  1  0.46845700  0.88223900  0.55038800  1
  F  F75  1  0.53154300  0.41378200  0.94961200  1
  F  F76  1  0.53154300  0.11776100  0.44961200  1
  F  F77  1  0.46845700  0.58621800  0.05038800  1
  F  F78  1  0.88223900  0.46845700  0.94961200  1
  F  F79  1  0.11776100  0.53154300  0.05038800  1
