# generated using pymatgen
data_Na2CrH5C4O11
_symmetry_space_group_name_H-M   'P 1'
_cell_length_a   8.94934900
_cell_length_b   9.77470900
_cell_length_c   12.90736325
_cell_angle_alpha   76.69465188
_cell_angle_beta   90.00000000
_cell_angle_gamma   90.00000000
_symmetry_Int_Tables_number   1
_chemical_formula_structural   Na2CrH5C4O11
_chemical_formula_sum   'Na8 Cr4 H20 C16 O44'
_cell_volume   1098.79304426
_cell_formula_units_Z   4
loop_
 _symmetry_equiv_pos_site_id
 _symmetry_equiv_pos_as_xyz
  1  'x, y, z'
loop_
 _atom_site_type_symbol
 _atom_site_label
 _atom_site_symmetry_multiplicity
 _atom_site_fract_x
 _atom_site_fract_y
 _atom_site_fract_z
 _atom_site_occupancy
  Na  Na0  1  0.66603400  0.86487300  0.51201700  1
  Na  Na1  1  0.33396600  0.13512700  0.48798300  1
  Na  Na2  1  0.16603400  0.13512700  0.98798300  1
  Na  Na3  1  0.83396600  0.86487300  0.01201700  1
  Na  Na4  1  0.15020100  0.35359500  0.70937800  1
  Na  Na5  1  0.84979900  0.64640500  0.29062200  1
  Na  Na6  1  0.65020100  0.64640500  0.79062200  1
  Na  Na7  1  0.34979900  0.35359500  0.20937800  1
  Cr  Cr8  1  0.44110300  0.89658400  0.93715000  1
  Cr  Cr9  1  0.55889700  0.10341600  0.06285000  1
  Cr  Cr10  1  0.94110300  0.10341600  0.56285000  1
  Cr  Cr11  1  0.05889700  0.89658400  0.43715000  1
  H  H12  1  0.15805500  0.43993100  0.92179900  1
  H  H13  1  0.84194500  0.56006900  0.07820100  1
  H  H14  1  0.65805500  0.56006900  0.57820100  1
  H  H15  1  0.34194500  0.43993100  0.42179900  1
  H  H16  1  0.49137900  0.59571900  0.59386500  1
  H  H17  1  0.50862100  0.40428100  0.40613500  1
  H  H18  1  0.99137900  0.40428100  0.90613500  1
  H  H19  1  0.00862100  0.59571900  0.09386500  1
  H  H20  1  0.14330000  0.90611600  0.62576600  1
  H  H21  1  0.85670000  0.09388400  0.37423400  1
  H  H22  1  0.64330000  0.09388400  0.87423400  1
  H  H23  1  0.35670000  0.90611600  0.12576600  1
  H  H24  1  0.22924500  0.72747500  0.79768100  1
  H  H25  1  0.77075500  0.27252500  0.20231900  1
  H  H26  1  0.72924500  0.27252500  0.70231900  1
  H  H27  1  0.27075500  0.72747500  0.29768100  1
  H  H28  1  0.05978100  0.74139800  0.78092000  1
  H  H29  1  0.94021900  0.25860200  0.21908000  1
  H  H30  1  0.55978100  0.25860200  0.71908000  1
  H  H31  1  0.44021900  0.74139800  0.28092000  1
  C  C32  1  0.01621200  0.62564000  0.56493500  1
  C  C33  1  0.98378800  0.37436000  0.43506500  1
  C  C34  1  0.51621200  0.37436000  0.93506500  1
  C  C35  1  0.48378800  0.62564000  0.06493500  1
  C  C36  1  0.85890100  0.92654100  0.75710300  1
  C  C37  1  0.14109900  0.07345900  0.24289700  1
  C  C38  1  0.35890100  0.07345900  0.74289700  1
  C  C39  1  0.64109900  0.92654100  0.25710300  1
  C  C40  1  0.44641300  0.94965700  0.71308300  1
  C  C41  1  0.55358700  0.05034300  0.28691700  1
  C  C42  1  0.94641300  0.05034300  0.78691700  1
  C  C43  1  0.05358700  0.94965700  0.21308300  1
  C  C44  1  0.18486900  0.63630800  0.53384600  1
  C  C45  1  0.81513100  0.36369200  0.46615400  1
  C  C46  1  0.68486900  0.36369200  0.96615400  1
  C  C47  1  0.31513100  0.63630800  0.03384600  1
  O  O48  1  0.48948700  0.85238100  0.79425000  1
  O  O49  1  0.51051300  0.14761900  0.20575000  1
  O  O50  1  0.98948700  0.14761900  0.70575000  1
  O  O51  1  0.01051300  0.85238100  0.29425000  1
  O  O52  1  0.27197900  0.53848600  0.57290500  1
  O  O53  1  0.72802100  0.46151400  0.42709500  1
  O  O54  1  0.77197900  0.46151400  0.92709500  1
  O  O55  1  0.22802100  0.53848600  0.07290500  1
  O  O56  1  0.46567400  0.48208800  0.87473000  1
  O  O57  1  0.53432600  0.51791200  0.12527000  1
  O  O58  1  0.96567400  0.51791200  0.62527000  1
  O  O59  1  0.03432600  0.48208800  0.37473000  1
  O  O60  1  0.83162900  0.81810000  0.82665300  1
  O  O61  1  0.16837100  0.18190000  0.17334700  1
  O  O62  1  0.33162900  0.18190000  0.67334700  1
  O  O63  1  0.66837100  0.81810000  0.32665300  1
  O  O64  1  0.09423800  0.37676400  0.89273800  1
  O  O65  1  0.90576200  0.62323600  0.10726200  1
  O  O66  1  0.59423800  0.62323600  0.60726200  1
  O  O67  1  0.40576200  0.37676400  0.39273800  1
  O  O68  1  0.11876100  0.97778000  0.56071300  1
  O  O69  1  0.88123900  0.02222000  0.43928700  1
  O  O70  1  0.61876100  0.02222000  0.93928700  1
  O  O71  1  0.38123900  0.97778000  0.06071300  1
  O  O72  1  0.93838400  0.73585000  0.52109500  1
  O  O73  1  0.06161600  0.26415000  0.47890500  1
  O  O74  1  0.43838400  0.26415000  0.97890500  1
  O  O75  1  0.56161600  0.73585000  0.02109500  1
  O  O76  1  0.27779300  0.75040000  0.96562100  1
  O  O77  1  0.72220700  0.24960000  0.03437900  1
  O  O78  1  0.77779300  0.24960000  0.53437900  1
  O  O79  1  0.22220700  0.75040000  0.46562100  1
  O  O80  1  0.82278300  0.94661500  0.65776700  1
  O  O81  1  0.17721700  0.05338500  0.34223300  1
  O  O82  1  0.32278300  0.05338500  0.84223300  1
  O  O83  1  0.67721700  0.94661500  0.15776700  1
  O  O84  1  0.46921500  0.95041000  0.61837800  1
  O  O85  1  0.53078500  0.04959000  0.38162200  1
  O  O86  1  0.96921500  0.04959000  0.88162200  1
  O  O87  1  0.03078500  0.95041000  0.11837800  1
  O  O88  1  0.15366000  0.74838100  0.74159200  1
  O  O89  1  0.84634000  0.25161900  0.25840800  1
  O  O90  1  0.65366000  0.25161900  0.75840800  1
  O  O91  1  0.34634000  0.74838100  0.24159200  1
