# generated using pymatgen
data_Mn(NbS2)2
_symmetry_space_group_name_H-M   'P 1'
_cell_length_a   3.34028100
_cell_length_b   9.13690400
_cell_length_c   16.80467200
_cell_angle_alpha   90.00000000
_cell_angle_beta   90.00000000
_cell_angle_gamma   90.00000000
_symmetry_Int_Tables_number   1
_chemical_formula_structural   Mn(NbS2)2
_chemical_formula_sum   'Mn4 Nb8 S16'
_cell_volume   512.87567938
_cell_formula_units_Z   4
loop_
 _symmetry_equiv_pos_site_id
 _symmetry_equiv_pos_as_xyz
  1  'x, y, z'
loop_
 _atom_site_type_symbol
 _atom_site_label
 _atom_site_symmetry_multiplicity
 _atom_site_fract_x
 _atom_site_fract_y
 _atom_site_fract_z
 _atom_site_occupancy
  Mn  Mn0  1  0.75000000  0.68933100  0.78791300  1
  Mn  Mn1  1  0.25000000  0.31066900  0.21208700  1
  Mn  Mn2  1  0.25000000  0.81066900  0.28791300  1
  Mn  Mn3  1  0.75000000  0.18933100  0.71208700  1
  Nb  Nb4  1  0.75000000  0.87772800  0.52983000  1
  Nb  Nb5  1  0.25000000  0.12227200  0.47017000  1
  Nb  Nb6  1  0.25000000  0.62227200  0.02983000  1
  Nb  Nb7  1  0.75000000  0.37772800  0.97017000  1
  Nb  Nb8  1  0.75000000  0.49843700  0.42770200  1
  Nb  Nb9  1  0.25000000  0.50156300  0.57229800  1
  Nb  Nb10  1  0.25000000  0.00156300  0.92770200  1
  Nb  Nb11  1  0.75000000  0.99843700  0.07229800  1
  S  S12  1  0.75000000  0.67105000  0.64007700  1
  S  S13  1  0.25000000  0.32895000  0.35992300  1
  S  S14  1  0.25000000  0.82895000  0.14007700  1
  S  S15  1  0.75000000  0.17105000  0.85992300  1
  S  S16  1  0.75000000  0.63011500  0.29247900  1
  S  S17  1  0.25000000  0.36988500  0.70752100  1
  S  S18  1  0.25000000  0.86988500  0.79247900  1
  S  S19  1  0.75000000  0.13011500  0.20752100  1
  S  S20  1  0.75000000  0.97803200  0.39238400  1
  S  S21  1  0.25000000  0.02196800  0.60761600  1
  S  S22  1  0.25000000  0.52196800  0.89238400  1
  S  S23  1  0.75000000  0.47803200  0.10761600  1
  S  S24  1  0.75000000  0.80567900  0.96498600  1
  S  S25  1  0.25000000  0.19432100  0.03501400  1
  S  S26  1  0.25000000  0.69432100  0.46498600  1
  S  S27  1  0.75000000  0.30567900  0.53501400  1
