# generated using pymatgen
data_KTa(PO4)2
_symmetry_space_group_name_H-M   'P 1'
_cell_length_a   5.02726259
_cell_length_b   5.02726259
_cell_length_c   8.29809819
_cell_angle_alpha   86.54006699
_cell_angle_beta   86.54006699
_cell_angle_gamma   63.70446194
_symmetry_Int_Tables_number   1
_chemical_formula_structural   KTa(PO4)2
_chemical_formula_sum   'K1 Ta1 P2 O8'
_cell_volume   187.54400835
_cell_formula_units_Z   1
loop_
 _symmetry_equiv_pos_site_id
 _symmetry_equiv_pos_as_xyz
  1  'x, y, z'
loop_
 _atom_site_type_symbol
 _atom_site_label
 _atom_site_symmetry_multiplicity
 _atom_site_fract_x
 _atom_site_fract_y
 _atom_site_fract_z
 _atom_site_occupancy
  K  K0  1  0.00000000  0.00000000  0.50000000  1
  Ta  Ta1  1  0.00000000  0.00000000  0.00000000  1
  P  P2  1  0.63577500  0.63577500  0.20555100  1
  P  P3  1  0.36422500  0.36422500  0.79444900  1
  O  O4  1  0.68266800  0.68266800  0.37454700  1
  O  O5  1  0.31733200  0.31733200  0.62545300  1
  O  O6  1  0.29831700  0.77114300  0.16506500  1
  O  O7  1  0.70168300  0.22885700  0.83493500  1
  O  O8  1  0.22885700  0.70168300  0.83493500  1
  O  O9  1  0.77114300  0.29831700  0.16506500  1
  O  O10  1  0.77725100  0.77725100  0.07274700  1
  O  O11  1  0.22274900  0.22274900  0.92725300  1
