# generated using pymatgen
data_La3Re(ClO2)3
_symmetry_space_group_name_H-M   'P 1'
_cell_length_a   9.47946431
_cell_length_b   9.47946431
_cell_length_c   5.46035200
_cell_angle_alpha   90.00000000
_cell_angle_beta   90.00000000
_cell_angle_gamma   120.00000219
_symmetry_Int_Tables_number   1
_chemical_formula_structural   La3Re(ClO2)3
_chemical_formula_sum   'La6 Re2 Cl6 O12'
_cell_volume   424.93142950
_cell_formula_units_Z   2
loop_
 _symmetry_equiv_pos_site_id
 _symmetry_equiv_pos_as_xyz
  1  'x, y, z'
loop_
 _atom_site_type_symbol
 _atom_site_label
 _atom_site_symmetry_multiplicity
 _atom_site_fract_x
 _atom_site_fract_y
 _atom_site_fract_z
 _atom_site_occupancy
  La  La0  1  0.59498600  0.68636400  0.75000000  1
  La  La1  1  0.40501400  0.31363600  0.25000000  1
  La  La2  1  0.09137700  0.40501400  0.75000000  1
  La  La3  1  0.90862300  0.59498600  0.25000000  1
  La  La4  1  0.31363600  0.90862300  0.75000000  1
  La  La5  1  0.68636400  0.09137700  0.25000000  1
  Re  Re6  1  0.66666700  0.33333300  0.75000000  1
  Re  Re7  1  0.33333300  0.66666700  0.25000000  1
  Cl  Cl8  1  0.80726900  0.04777500  0.75000000  1
  Cl  Cl9  1  0.19273100  0.95222500  0.25000000  1
  Cl  Cl10  1  0.24050600  0.19273100  0.75000000  1
  Cl  Cl11  1  0.75949400  0.80726900  0.25000000  1
  Cl  Cl12  1  0.95222500  0.75949400  0.75000000  1
  Cl  Cl13  1  0.04777500  0.24050600  0.25000000  1
  O  O14  1  0.83735700  0.36372500  0.97863700  1
  O  O15  1  0.16264300  0.63627500  0.02136300  1
  O  O16  1  0.52636800  0.16264300  0.97863700  1
  O  O17  1  0.16264300  0.63627500  0.47863700  1
  O  O18  1  0.47363200  0.83735700  0.02136300  1
  O  O19  1  0.83735700  0.36372500  0.52136300  1
  O  O20  1  0.63627500  0.47363200  0.97863700  1
  O  O21  1  0.47363200  0.83735700  0.47863700  1
  O  O22  1  0.36372500  0.52636800  0.02136300  1
  O  O23  1  0.52636800  0.16264300  0.52136300  1
  O  O24  1  0.36372500  0.52636800  0.47863700  1
  O  O25  1  0.63627500  0.47363200  0.52136300  1
