# generated using pymatgen
data_NaCe(SeO5)2
_symmetry_space_group_name_H-M   'P 1'
_cell_length_a   7.11178500
_cell_length_b   10.86291100
_cell_length_c   11.34340710
_cell_angle_alpha   69.09731473
_cell_angle_beta   90.00000000
_cell_angle_gamma   90.00000000
_symmetry_Int_Tables_number   1
_chemical_formula_structural   NaCe(SeO5)2
_chemical_formula_sum   'Na4 Ce4 Se8 O40'
_cell_volume   818.65803490
_cell_formula_units_Z   4
loop_
 _symmetry_equiv_pos_site_id
 _symmetry_equiv_pos_as_xyz
  1  'x, y, z'
loop_
 _atom_site_type_symbol
 _atom_site_label
 _atom_site_symmetry_multiplicity
 _atom_site_fract_x
 _atom_site_fract_y
 _atom_site_fract_z
 _atom_site_occupancy
  Na  Na0  1  0.63886300  0.96037300  0.35045700  1
  Na  Na1  1  0.36113700  0.03962700  0.64954300  1
  Na  Na2  1  0.13886300  0.53962700  0.64954300  1
  Na  Na3  1  0.86113700  0.46037300  0.35045700  1
  Ce  Ce4  1  0.36348000  0.66177700  0.24652900  1
  Ce  Ce5  1  0.63652000  0.33822300  0.75347100  1
  Ce  Ce6  1  0.86348000  0.83822300  0.75347100  1
  Ce  Ce7  1  0.13652000  0.16177700  0.24652900  1
  Se  Se8  1  0.85463600  0.74556000  0.11144900  1
  Se  Se9  1  0.14536400  0.25444000  0.88855100  1
  Se  Se10  1  0.35463600  0.75444000  0.88855100  1
  Se  Se11  1  0.64536400  0.24556000  0.11144900  1
  Se  Se12  1  0.64769200  0.64823300  0.54073300  1
  Se  Se13  1  0.35230800  0.35176700  0.45926700  1
  Se  Se14  1  0.14769200  0.85176700  0.45926700  1
  Se  Se15  1  0.85230800  0.14823300  0.54073300  1
  O  O16  1  0.81677800  0.89502700  0.10675400  1
  O  O17  1  0.18322200  0.10497300  0.89324600  1
  O  O18  1  0.31677800  0.60497300  0.89324600  1
  O  O19  1  0.68322200  0.39502700  0.10675400  1
  O  O20  1  0.54911700  0.82556700  0.80417500  1
  O  O21  1  0.45088300  0.17443300  0.19582500  1
  O  O22  1  0.04911700  0.67443300  0.19582500  1
  O  O23  1  0.95088300  0.32556700  0.80417500  1
  O  O24  1  0.82310300  0.53852300  0.56604800  1
  O  O25  1  0.17689700  0.46147700  0.43395200  1
  O  O26  1  0.32310300  0.96147700  0.43395200  1
  O  O27  1  0.67689700  0.03852300  0.56604800  1
  O  O28  1  0.37201400  0.90819400  0.19568500  1
  O  O29  1  0.62798600  0.09180600  0.80431500  1
  O  O30  1  0.87201400  0.59180600  0.80431500  1
  O  O31  1  0.12798600  0.40819400  0.19568500  1
  O  O32  1  0.59269200  0.71932100  0.38749700  1
  O  O33  1  0.40730800  0.28067900  0.61250300  1
  O  O34  1  0.09269200  0.78067900  0.61250300  1
  O  O35  1  0.90730800  0.21932100  0.38749700  1
  O  O36  1  0.69239100  0.77488800  0.58708800  1
  O  O37  1  0.30760900  0.22511200  0.41291200  1
  O  O38  1  0.19239100  0.72511200  0.41291200  1
  O  O39  1  0.80760900  0.27488800  0.58708800  1
  O  O40  1  0.97397800  0.94970200  0.37546500  1
  O  O41  1  0.02602200  0.05029800  0.62453500  1
  O  O42  1  0.47397800  0.55029800  0.62453500  1
  O  O43  1  0.52602200  0.44970200  0.37546500  1
  O  O44  1  0.38156200  0.76567900  0.03263000  1
  O  O45  1  0.61843800  0.23432100  0.96737000  1
  O  O46  1  0.88156200  0.73432100  0.96737000  1
  O  O47  1  0.11843800  0.26567900  0.03263000  1
  O  O48  1  0.28432600  0.47250000  0.16844600  1
  O  O49  1  0.71567400  0.52750000  0.83155400  1
  O  O50  1  0.78432600  0.02750000  0.83155400  1
  O  O51  1  0.21567400  0.97250000  0.16844600  1
  O  O52  1  0.68536900  0.63690600  0.18729000  1
  O  O53  1  0.31463100  0.36309400  0.81271000  1
  O  O54  1  0.18536900  0.86309400  0.81271000  1
  O  O55  1  0.81463100  0.13690600  0.18729000  1
