# generated using pymatgen
data_NaH6C2S2N3O2
_symmetry_space_group_name_H-M   'P 1'
_cell_length_a   20.12078100
_cell_length_b   8.73778600
_cell_length_c   8.97979304
_cell_angle_alpha   88.52981713
_cell_angle_beta   90.00000000
_cell_angle_gamma   90.00000000
_symmetry_Int_Tables_number   1
_chemical_formula_structural   NaH6C2S2N3O2
_chemical_formula_sum   'Na8 H48 C16 S16 N24 O16'
_cell_volume   1578.22739477
_cell_formula_units_Z   8
loop_
 _symmetry_equiv_pos_site_id
 _symmetry_equiv_pos_as_xyz
  1  'x, y, z'
loop_
 _atom_site_type_symbol
 _atom_site_label
 _atom_site_symmetry_multiplicity
 _atom_site_fract_x
 _atom_site_fract_y
 _atom_site_fract_z
 _atom_site_occupancy
  Na  Na0  1  0.49737800  0.97309400  0.28371800  1
  Na  Na1  1  0.50262200  0.02690600  0.71628200  1
  Na  Na2  1  0.99737800  0.52690600  0.71628200  1
  Na  Na3  1  0.00262200  0.47309400  0.28371800  1
  Na  Na4  1  0.50652500  0.70773900  0.01834100  1
  Na  Na5  1  0.49347500  0.29226100  0.98165900  1
  Na  Na6  1  0.00652500  0.79226100  0.98165900  1
  Na  Na7  1  0.99347500  0.20773900  0.01834100  1
  H  H8  1  0.23050500  0.74743900  0.23080700  1
  H  H9  1  0.76949500  0.25256100  0.76919300  1
  H  H10  1  0.73050500  0.75256100  0.76919300  1
  H  H11  1  0.26949500  0.24743900  0.23080700  1
  H  H12  1  0.95081800  0.78081700  0.26962700  1
  H  H13  1  0.04918200  0.21918300  0.73037300  1
  H  H14  1  0.45081800  0.71918300  0.73037300  1
  H  H15  1  0.54918200  0.28081700  0.26962700  1
  H  H16  1  0.52810400  0.70783300  0.68873700  1
  H  H17  1  0.47189600  0.29216700  0.31126300  1
  H  H18  1  0.02810400  0.79216700  0.31126300  1
  H  H19  1  0.97189600  0.20783300  0.68873700  1
  H  H20  1  0.71495600  0.81354900  0.25439400  1
  H  H21  1  0.28504400  0.18645100  0.74560600  1
  H  H22  1  0.21495600  0.68645100  0.74560600  1
  H  H23  1  0.78504400  0.31354900  0.25439400  1
  H  H24  1  0.64665600  0.80318300  0.79810100  1
  H  H25  1  0.35334400  0.19681700  0.20189900  1
  H  H26  1  0.14665600  0.69681700  0.20189900  1
  H  H27  1  0.85334400  0.30318300  0.79810100  1
  H  H28  1  0.39063900  0.53817900  0.07913900  1
  H  H29  1  0.60936100  0.46182100  0.92086100  1
  H  H30  1  0.89063900  0.96182100  0.92086100  1
  H  H31  1  0.10936100  0.03817900  0.07913900  1
  H  H32  1  0.63415300  0.74370800  0.26135000  1
  H  H33  1  0.36584700  0.25629200  0.73865000  1
  H  H34  1  0.13415300  0.75629200  0.73865000  1
  H  H35  1  0.86584700  0.24370800  0.26135000  1
  H  H36  1  0.89295800  0.96130400  0.09405100  1
  H  H37  1  0.10704200  0.03869600  0.90594900  1
  H  H38  1  0.39295800  0.53869600  0.90594900  1
  H  H39  1  0.60704200  0.46130400  0.09405100  1
  H  H40  1  0.52715300  0.62420200  0.35378000  1
  H  H41  1  0.47284700  0.37579800  0.64622000  1
  H  H42  1  0.02715300  0.87579800  0.64622000  1
  H  H43  1  0.97284700  0.12420200  0.35378000  1
  H  H44  1  0.89285200  0.59316100  0.48427400  1
  H  H45  1  0.10714800  0.40683900  0.51572600  1
  H  H46  1  0.39285200  0.90683900  0.51572600  1
  H  H47  1  0.60714800  0.09316100  0.48427400  1
  H  H48  1  0.60503200  0.91541000  0.49397200  1
  H  H49  1  0.39496800  0.08459000  0.50602800  1
  H  H50  1  0.10503200  0.58459000  0.50602800  1
  H  H51  1  0.89496800  0.41541000  0.49397200  1
  H  H52  1  0.45363800  0.67749700  0.30391900  1
  H  H53  1  0.54636200  0.32250300  0.69608100  1
  H  H54  1  0.95363800  0.82250300  0.69608100  1
  H  H55  1  0.04636200  0.17749700  0.30391900  1
  C  C56  1  0.66163100  0.65204800  0.63248700  1
  C  C57  1  0.33836900  0.34795200  0.36751300  1
  C  C58  1  0.16163100  0.84795200  0.36751300  1
  C  C59  1  0.83836900  0.15204800  0.63248700  1
  C  C60  1  0.64867600  0.92256100  0.11448800  1
  C  C61  1  0.35132400  0.07743900  0.88551200  1
  C  C62  1  0.14867600  0.57743900  0.88551200  1
  C  C63  1  0.85132400  0.42256100  0.11448800  1
  C  C64  1  0.85189900  0.97937000  0.42512200  1
  C  C65  1  0.14810100  0.02063000  0.57487800  1
  C  C66  1  0.35189900  0.52063000  0.57487800  1
  C  C67  1  0.64810100  0.47937000  0.42512200  1
  C  C68  1  0.35900000  0.89055200  0.09156900  1
  C  C69  1  0.64100000  0.10944800  0.90843100  1
  C  C70  1  0.85900000  0.60944800  0.90843100  1
  C  C71  1  0.14100000  0.39055200  0.09156900  1
  S  S72  1  0.71655100  0.53942900  0.53274500  1
  S  S73  1  0.28344900  0.46057100  0.46725500  1
  S  S74  1  0.21655100  0.96057100  0.46725500  1
  S  S75  1  0.78344900  0.03942900  0.53274500  1
  S  S76  1  0.34477600  0.75297400  0.22771400  1
  S  S77  1  0.65522400  0.24702600  0.77228600  1
  S  S78  1  0.84477600  0.74702600  0.77228600  1
  S  S79  1  0.15522400  0.25297400  0.22771400  1
  S  S80  1  0.79376200  0.54202100  0.02517300  1
  S  S81  1  0.20623800  0.45797900  0.97482700  1
  S  S82  1  0.29376200  0.95797900  0.97482700  1
  S  S83  1  0.70623800  0.04202100  0.02517300  1
  S  S84  1  0.84165500  0.84783500  0.28823300  1
  S  S85  1  0.15834500  0.15216500  0.71176600  1
  S  S86  1  0.34165500  0.65216500  0.71176600  1
  S  S87  1  0.65834500  0.34783500  0.28823300  1
  N  N88  1  0.59960800  0.64457700  0.58317200  1
  N  N89  1  0.40039200  0.35542300  0.41682800  1
  N  N90  1  0.09960800  0.85542300  0.41682800  1
  N  N91  1  0.90039200  0.14457700  0.58317200  1
  N  N92  1  0.58795300  0.93406000  0.05825200  1
  N  N93  1  0.41204700  0.06594000  0.94174800  1
  N  N94  1  0.08795300  0.56594000  0.94174800  1
  N  N95  1  0.91204700  0.43406000  0.05825200  1
  N  N96  1  0.66551200  0.83141000  0.23377700  1
  N  N97  1  0.33448800  0.16859000  0.76622300  1
  N  N98  1  0.16551200  0.66859000  0.76622300  1
  N  N99  1  0.83448800  0.33141000  0.23377700  1
  N  N100  1  0.59236200  0.54690300  0.46563700  1
  N  N101  1  0.40763800  0.45309700  0.53436300  1
  N  N102  1  0.09236200  0.95309700  0.53436300  1
  N  N103  1  0.90763800  0.04690300  0.46563700  1
  N  N104  1  0.68068300  0.73437600  0.75005500  1
  N  N105  1  0.31931700  0.26562400  0.24994500  1
  N  N106  1  0.18068300  0.76562400  0.24994500  1
  N  N107  1  0.81931700  0.23437600  0.75005500  1
  N  N108  1  0.41606200  0.95939300  0.05911300  1
  N  N109  1  0.58393800  0.04060700  0.94088700  1
  N  N110  1  0.91606200  0.54060700  0.94088700  1
  N  N111  1  0.08393800  0.45939300  0.05911300  1
  O  O112  1  0.92335900  0.50604400  0.49356600  1
  O  O113  1  0.07664100  0.49395600  0.50643400  1
  O  O114  1  0.42335900  0.99395600  0.50643400  1
  O  O115  1  0.57664100  0.00604400  0.49356600  1
  O  O116  1  0.50132600  0.69577400  0.28633600  1
  O  O117  1  0.49867400  0.30422600  0.71366400  1
  O  O118  1  0.00132600  0.80422600  0.71366400  1
  O  O119  1  0.99867400  0.19577400  0.28633600  1
  O  O120  1  0.58151400  0.49509400  0.00408600  1
  O  O121  1  0.41848600  0.50490600  0.99591400  1
  O  O122  1  0.08151400  0.00490600  0.99591400  1
  O  O123  1  0.91848600  0.99509400  0.00408600  1
  O  O124  1  0.99561900  0.74284100  0.24281700  1
  O  O125  1  0.00438100  0.25715900  0.75718300  1
  O  O126  1  0.49561900  0.75715900  0.75718300  1
  O  O127  1  0.50438100  0.24284100  0.24281700  1
