# generated using pymatgen
data_La3ZrGa5O14
_symmetry_space_group_name_H-M   'P 1'
_cell_length_a   8.35569823
_cell_length_b   8.35569823
_cell_length_c   5.21733900
_cell_angle_alpha   90.00000000
_cell_angle_beta   90.00000000
_cell_angle_gamma   120.00000182
_symmetry_Int_Tables_number   1
_chemical_formula_structural   La3ZrGa5O14
_chemical_formula_sum   'La3 Zr1 Ga5 O14'
_cell_volume   315.46063531
_cell_formula_units_Z   1
loop_
 _symmetry_equiv_pos_site_id
 _symmetry_equiv_pos_as_xyz
  1  'x, y, z'
loop_
 _atom_site_type_symbol
 _atom_site_label
 _atom_site_symmetry_multiplicity
 _atom_site_fract_x
 _atom_site_fract_y
 _atom_site_fract_z
 _atom_site_occupancy
  La  La0  1  0.57354800  0.00000000  0.00000000  1
  La  La1  1  0.00000000  0.57354800  0.00000000  1
  La  La2  1  0.42645200  0.42645200  0.00000000  1
  Zr  Zr3  1  0.00000000  0.00000000  0.00000000  1
  Ga  Ga4  1  0.33333300  0.66666700  0.53016800  1
  Ga  Ga5  1  0.66666700  0.33333300  0.46983200  1
  Ga  Ga6  1  0.24569800  0.00000000  0.50000000  1
  Ga  Ga7  1  0.00000000  0.24569800  0.50000000  1
  Ga  Ga8  1  0.75430200  0.75430200  0.50000000  1
  O  O9  1  0.14972700  0.22965500  0.24538000  1
  O  O10  1  0.77034500  0.92007200  0.24538000  1
  O  O11  1  0.22965500  0.14972700  0.75462000  1
  O  O12  1  0.07992800  0.85027300  0.24538000  1
  O  O13  1  0.92007200  0.77034500  0.75462000  1
  O  O14  1  0.85027300  0.07992800  0.75462000  1
  O  O15  1  0.33333300  0.66666700  0.18099800  1
  O  O16  1  0.66666700  0.33333300  0.81900200  1
  O  O17  1  0.45846700  0.14645900  0.30082900  1
  O  O18  1  0.85354100  0.31200800  0.30082900  1
  O  O19  1  0.14645900  0.45846700  0.69917100  1
  O  O20  1  0.68799200  0.54153300  0.30082900  1
  O  O21  1  0.31200800  0.85354100  0.69917100  1
  O  O22  1  0.54153300  0.68799200  0.69917100  1
