# generated using pymatgen
data_La2Cd(SeO)2
_symmetry_space_group_name_H-M   'P 1'
_cell_length_a   4.09289400
_cell_length_b   4.09289400
_cell_length_c   18.90263700
_cell_angle_alpha   90.00000000
_cell_angle_beta   90.00000000
_cell_angle_gamma   90.00000000
_symmetry_Int_Tables_number   1
_chemical_formula_structural   La2Cd(SeO)2
_chemical_formula_sum   'La4 Cd2 Se4 O4'
_cell_volume   316.65284093
_cell_formula_units_Z   2
loop_
 _symmetry_equiv_pos_site_id
 _symmetry_equiv_pos_as_xyz
  1  'x, y, z'
loop_
 _atom_site_type_symbol
 _atom_site_label
 _atom_site_symmetry_multiplicity
 _atom_site_fract_x
 _atom_site_fract_y
 _atom_site_fract_z
 _atom_site_occupancy
  La  La0  1  0.50000000  0.50000000  0.12727700  1
  La  La1  1  0.50000000  0.50000000  0.62727700  1
  La  La2  1  0.00000000  0.00000000  0.99824300  1
  La  La3  1  0.00000000  0.00000000  0.49824300  1
  Cd  Cd4  1  0.00000000  0.50000000  0.31524700  1
  Cd  Cd5  1  0.50000000  0.00000000  0.81524700  1
  Se  Se6  1  0.00000000  0.00000000  0.22214900  1
  Se  Se7  1  0.00000000  0.00000000  0.72214900  1
  Se  Se8  1  0.50000000  0.50000000  0.40820000  1
  Se  Se9  1  0.50000000  0.50000000  0.90820000  1
  O  O10  1  0.00000000  0.50000000  0.56259800  1
  O  O11  1  0.50000000  0.00000000  0.06259800  1
  O  O12  1  0.00000000  0.50000000  0.06318600  1
  O  O13  1  0.50000000  0.00000000  0.56318600  1
