# generated using pymatgen
data_PrIn3Pt
_symmetry_space_group_name_H-M   'P 1'
_cell_length_a   10.08944400
_cell_length_b   10.08944400
_cell_length_c   10.08944400
_cell_angle_alpha   90.00000000
_cell_angle_beta   90.00000000
_cell_angle_gamma   90.00000000
_symmetry_Int_Tables_number   1
_chemical_formula_structural   PrIn3Pt
_chemical_formula_sum   'Pr8 In24 Pt8'
_cell_volume   1027.07392245
_cell_formula_units_Z   8
loop_
 _symmetry_equiv_pos_site_id
 _symmetry_equiv_pos_as_xyz
  1  'x, y, z'
loop_
 _atom_site_type_symbol
 _atom_site_label
 _atom_site_symmetry_multiplicity
 _atom_site_fract_x
 _atom_site_fract_y
 _atom_site_fract_z
 _atom_site_occupancy
  Pr  Pr0  1  0.00000000  0.00000000  0.00000000  1
  Pr  Pr1  1  0.50000000  0.50000000  0.50000000  1
  Pr  Pr2  1  0.25000000  0.00000000  0.50000000  1
  Pr  Pr3  1  0.75000000  0.00000000  0.50000000  1
  Pr  Pr4  1  0.50000000  0.25000000  0.00000000  1
  Pr  Pr5  1  0.50000000  0.75000000  0.00000000  1
  Pr  Pr6  1  0.00000000  0.50000000  0.25000000  1
  Pr  Pr7  1  0.00000000  0.50000000  0.75000000  1
  In  In8  1  0.00000000  0.15201500  0.31581100  1
  In  In9  1  0.00000000  0.84798500  0.68418900  1
  In  In10  1  0.00000000  0.84798500  0.31581100  1
  In  In11  1  0.00000000  0.15201500  0.68418900  1
  In  In12  1  0.31581100  0.00000000  0.15201500  1
  In  In13  1  0.65201500  0.50000000  0.18418900  1
  In  In14  1  0.68418900  0.00000000  0.84798500  1
  In  In15  1  0.34798500  0.50000000  0.81581100  1
  In  In16  1  0.31581100  0.00000000  0.84798500  1
  In  In17  1  0.34798500  0.50000000  0.18418900  1
  In  In18  1  0.68418900  0.00000000  0.15201500  1
  In  In19  1  0.65201500  0.50000000  0.81581100  1
  In  In20  1  0.15201500  0.31581100  0.00000000  1
  In  In21  1  0.50000000  0.81581100  0.34798500  1
  In  In22  1  0.84798500  0.68418900  0.00000000  1
  In  In23  1  0.50000000  0.18418900  0.65201500  1
  In  In24  1  0.15201500  0.68418900  0.00000000  1
  In  In25  1  0.50000000  0.18418900  0.34798500  1
  In  In26  1  0.84798500  0.31581100  0.00000000  1
  In  In27  1  0.50000000  0.81581100  0.65201500  1
  In  In28  1  0.18418900  0.65201500  0.50000000  1
  In  In29  1  0.81581100  0.34798500  0.50000000  1
  In  In30  1  0.18418900  0.34798500  0.50000000  1
  In  In31  1  0.81581100  0.65201500  0.50000000  1
  Pt  Pt32  1  0.25000000  0.25000000  0.25000000  1
  Pt  Pt33  1  0.75000000  0.75000000  0.75000000  1
  Pt  Pt34  1  0.75000000  0.75000000  0.25000000  1
  Pt  Pt35  1  0.75000000  0.25000000  0.75000000  1
  Pt  Pt36  1  0.25000000  0.25000000  0.75000000  1
  Pt  Pt37  1  0.25000000  0.75000000  0.25000000  1
  Pt  Pt38  1  0.25000000  0.75000000  0.75000000  1
  Pt  Pt39  1  0.75000000  0.25000000  0.25000000  1
