# generated using pymatgen
data_Na3Ce4Ti2(SiO12)2
_symmetry_space_group_name_H-M   'P 1'
_cell_length_a   4.99976632
_cell_length_b   7.49640392
_cell_length_c   13.88590777
_cell_angle_alpha   77.65304468
_cell_angle_beta   78.32545761
_cell_angle_gamma   70.31869614
_symmetry_Int_Tables_number   1
_chemical_formula_structural   Na3Ce4Ti2(SiO12)2
_chemical_formula_sum   'Na3 Ce4 Ti2 Si2 O24'
_cell_volume   473.87850111
_cell_formula_units_Z   1
loop_
 _symmetry_equiv_pos_site_id
 _symmetry_equiv_pos_as_xyz
  1  'x, y, z'
loop_
 _atom_site_type_symbol
 _atom_site_label
 _atom_site_symmetry_multiplicity
 _atom_site_fract_x
 _atom_site_fract_y
 _atom_site_fract_z
 _atom_site_occupancy
  Na  Na0  1  0.08943100  0.04737600  0.64089100  1
  Na  Na1  1  0.71332700  0.19280400  0.22572600  1
  Na  Na2  1  0.35063900  0.30885300  0.81557600  1
  Ce  Ce3  1  0.42672400  0.42034500  0.45671500  1
  Ce  Ce4  1  0.76504400  0.85007000  0.47553900  1
  Ce  Ce5  1  0.01538800  0.95620500  0.99963800  1
  Ce  Ce6  1  0.69008800  0.58437300  0.01595400  1
  Ti  Ti7  1  0.00381200  0.60023600  0.23357900  1
  Ti  Ti8  1  0.39775500  0.81902300  0.23074800  1
  Si  Si9  1  0.23448200  0.25356100  0.07638200  1
  Si  Si10  1  0.18493800  0.16374600  0.37445200  1
  O  O11  1  0.35434400  0.33407400  0.64133600  1
  O  O12  1  0.55986000  0.26191500  0.06304500  1
  O  O13  1  0.12153000  0.68422400  0.96807600  1
  O  O14  1  0.87762100  0.64451200  0.77756400  1
  O  O15  1  0.31497000  0.74967200  0.50401800  1
  O  O16  1  0.76696200  0.80460800  0.14573400  1
  O  O17  1  0.38579400  0.73488100  0.59482200  1
  O  O18  1  0.99291800  0.41575600  0.14183600  1
  O  O19  1  0.81520400  0.12664500  0.84737700  1
  O  O20  1  0.06091800  0.76938500  0.30879900  1
  O  O21  1  0.85310000  0.16492300  0.38989100  1
  O  O22  1  0.64214900  0.59828300  0.31257500  1
  O  O23  1  0.52698500  0.86879200  0.96662700  1
  O  O24  1  0.98883200  0.53768500  0.49158400  1
  O  O25  1  0.41125300  0.99377700  0.31448300  1
  O  O26  1  0.63260800  0.31754800  0.61308700  1
  O  O27  1  0.34443200  0.65047000  0.14824600  1
  O  O28  1  0.30947300  0.13652100  0.47951600  1
  O  O29  1  0.24129800  0.36633700  0.31402500  1
  O  O30  1  0.75874200  0.92275400  0.60123000  1
  O  O31  1  0.18743300  0.04550400  0.13588200  1
  O  O32  1  0.68265700  0.56850900  0.80666300  1
  O  O33  1  0.09530000  0.06179700  0.81423800  1
  O  O34  1  0.09898900  0.28883700  0.97214700  1
