# generated using pymatgen
data_Nd2Sb3Pd
_symmetry_space_group_name_H-M   'P 1'
_cell_length_a   9.61338100
_cell_length_b   9.61338100
_cell_length_c   15.99887800
_cell_angle_alpha   90.00000000
_cell_angle_beta   90.00000000
_cell_angle_gamma   90.00000000
_symmetry_Int_Tables_number   1
_chemical_formula_structural   Nd2Sb3Pd
_chemical_formula_sum   'Nd2 Sb3 Pd1'
_cell_volume   1478.56981604
_cell_formula_units_Z   1
loop_
 _symmetry_equiv_pos_site_id
 _symmetry_equiv_pos_as_xyz
  1  'x, y, z'
loop_
 _atom_site_type_symbol
 _atom_site_label
 _atom_site_symmetry_multiplicity
 _atom_site_fract_x
 _atom_site_fract_y
 _atom_site_fract_z
 _atom_site_occupancy
  Nd  Nd0  1  0.50000000  0.50000000  0.15860800  1
  Nd  Nd1  1  0.50000000  0.50000000  0.84139200  1
  Sb  Sb2  1  0.50000000  0.50000000  0.66604800  1
  Sb  Sb3  1  0.50000000  0.50000000  0.33395200  1
  Sb  Sb4  1  0.50000000  0.50000000  0.50000000  1
  Pd  Pd5  1  0.50000000  0.50000000  0.00000000  1
