# generated using pymatgen
data_LaVSb3
_symmetry_space_group_name_H-M   'P 1'
_cell_length_a   6.15193600
_cell_length_b   6.31559100
_cell_length_c   13.42559300
_cell_angle_alpha   90.00000000
_cell_angle_beta   90.00000000
_cell_angle_gamma   90.00000000
_symmetry_Int_Tables_number   1
_chemical_formula_structural   LaVSb3
_chemical_formula_sum   'La4 V4 Sb12'
_cell_volume   521.62606358
_cell_formula_units_Z   4
loop_
 _symmetry_equiv_pos_site_id
 _symmetry_equiv_pos_as_xyz
  1  'x, y, z'
loop_
 _atom_site_type_symbol
 _atom_site_label
 _atom_site_symmetry_multiplicity
 _atom_site_fract_x
 _atom_site_fract_y
 _atom_site_fract_z
 _atom_site_occupancy
  La  La0  1  0.25000000  0.50207200  0.30851600  1
  La  La1  1  0.75000000  0.49792800  0.69148400  1
  La  La2  1  0.25000000  0.00207200  0.69148400  1
  La  La3  1  0.75000000  0.99792800  0.30851600  1
  V  V4  1  0.00000000  0.75000000  0.90783300  1
  V  V5  1  0.00000000  0.25000000  0.09216700  1
  V  V6  1  0.50000000  0.25000000  0.09216700  1
  V  V7  1  0.50000000  0.75000000  0.90783300  1
  Sb  Sb8  1  0.00000000  0.75000000  0.50090900  1
  Sb  Sb9  1  0.00000000  0.25000000  0.49909100  1
  Sb  Sb10  1  0.50000000  0.25000000  0.49909100  1
  Sb  Sb11  1  0.50000000  0.75000000  0.50090900  1
  Sb  Sb12  1  0.25000000  0.60203300  0.06323600  1
  Sb  Sb13  1  0.75000000  0.39796700  0.93676400  1
  Sb  Sb14  1  0.25000000  0.10203300  0.93676400  1
  Sb  Sb15  1  0.75000000  0.89796700  0.06323600  1
  Sb  Sb16  1  0.25000000  0.00037100  0.21476500  1
  Sb  Sb17  1  0.75000000  0.99962900  0.78523500  1
  Sb  Sb18  1  0.25000000  0.50037100  0.78523500  1
  Sb  Sb19  1  0.75000000  0.49962900  0.21476500  1
