# generated using pymatgen
data_KLu(MoO4)2
_symmetry_space_group_name_H-M   'P 1'
_cell_length_a   7.41500070
_cell_length_b   7.41500070
_cell_length_c   7.65240077
_cell_angle_alpha   61.75376504
_cell_angle_beta   61.75376504
_cell_angle_gamma   87.60642115
_symmetry_Int_Tables_number   1
_chemical_formula_structural   KLu(MoO4)2
_chemical_formula_sum   'K2 Lu2 Mo4 O16'
_cell_volume   317.38051437
_cell_formula_units_Z   2
loop_
 _symmetry_equiv_pos_site_id
 _symmetry_equiv_pos_as_xyz
  1  'x, y, z'
loop_
 _atom_site_type_symbol
 _atom_site_label
 _atom_site_symmetry_multiplicity
 _atom_site_fract_x
 _atom_site_fract_y
 _atom_site_fract_z
 _atom_site_occupancy
  K  K0  1  0.19939500  0.80060500  0.75000000  1
  K  K1  1  0.80060500  0.19939500  0.25000000  1
  Lu  Lu2  1  0.77156700  0.22843300  0.75000000  1
  Lu  Lu3  1  0.22843300  0.77156700  0.25000000  1
  Mo  Mo4  1  0.69737900  0.69834700  0.76243900  1
  Mo  Mo5  1  0.30262100  0.30165300  0.23756100  1
  Mo  Mo6  1  0.30165300  0.30262100  0.73756100  1
  Mo  Mo7  1  0.69834800  0.69737900  0.26243900  1
  O  O8  1  0.61260700  0.77108500  0.55848000  1
  O  O9  1  0.38739300  0.22891500  0.44152000  1
  O  O10  1  0.22891500  0.38739300  0.94152000  1
  O  O11  1  0.77108500  0.61260700  0.05848000  1
  O  O12  1  0.38029400  0.06207300  0.88233000  1
  O  O13  1  0.61970700  0.93792700  0.11767000  1
  O  O14  1  0.93792700  0.61970600  0.61767000  1
  O  O15  1  0.06207300  0.38029300  0.38233000  1
  O  O16  1  0.58872500  0.36620500  0.96606900  1
  O  O17  1  0.41127500  0.63379500  0.03393100  1
  O  O18  1  0.63379500  0.41127500  0.53393100  1
  O  O19  1  0.36620500  0.58872500  0.46606900  1
  O  O20  1  0.79253200  0.95835900  0.69207800  1
  O  O21  1  0.20746800  0.04164100  0.30792200  1
  O  O22  1  0.04164100  0.20746800  0.80792200  1
  O  O23  1  0.95835900  0.79253200  0.19207800  1
