# generated using pymatgen
data_NdIO9
_symmetry_space_group_name_H-M   'P 1'
_cell_length_a   10.68780300
_cell_length_b   9.02949900
_cell_length_c   11.14550482
_cell_angle_alpha   54.04767663
_cell_angle_beta   90.00000000
_cell_angle_gamma   90.00000000
_symmetry_Int_Tables_number   1
_chemical_formula_structural   NdIO9
_chemical_formula_sum   'Nd4 I4 O36'
_cell_volume   870.70655308
_cell_formula_units_Z   4
loop_
 _symmetry_equiv_pos_site_id
 _symmetry_equiv_pos_as_xyz
  1  'x, y, z'
loop_
 _atom_site_type_symbol
 _atom_site_label
 _atom_site_symmetry_multiplicity
 _atom_site_fract_x
 _atom_site_fract_y
 _atom_site_fract_z
 _atom_site_occupancy
  Nd  Nd0  1  0.64763500  0.90774300  0.12736700  1
  Nd  Nd1  1  0.35236500  0.09225700  0.87263300  1
  Nd  Nd2  1  0.14763500  0.09225700  0.37263300  1
  Nd  Nd3  1  0.85236500  0.90774300  0.62736700  1
  I  I4  1  0.85592200  0.03494600  0.26827400  1
  I  I5  1  0.14407800  0.96505400  0.73172600  1
  I  I6  1  0.35592200  0.96505400  0.23172600  1
  I  I7  1  0.64407800  0.03494600  0.76827400  1
  O  O8  1  0.96796000  0.90599300  0.43884400  1
  O  O9  1  0.03204000  0.09400700  0.56115600  1
  O  O10  1  0.46796000  0.09400700  0.06115600  1
  O  O11  1  0.53204000  0.90599300  0.93884400  1
  O  O12  1  0.24253700  0.84643900  0.38775100  1
  O  O13  1  0.75746300  0.15356100  0.61224900  1
  O  O14  1  0.74253700  0.15356100  0.11224900  1
  O  O15  1  0.25746300  0.84643900  0.88775100  1
  O  O16  1  0.74226000  0.57244800  0.11506000  1
  O  O17  1  0.25774000  0.42755200  0.88494000  1
  O  O18  1  0.24226000  0.42755200  0.38494000  1
  O  O19  1  0.75774000  0.57244800  0.61506000  1
  O  O20  1  0.70884700  0.55770700  0.52245200  1
  O  O21  1  0.29115300  0.44229300  0.47754800  1
  O  O22  1  0.20884700  0.44229300  0.97754800  1
  O  O23  1  0.79115300  0.55770700  0.02245200  1
  O  O24  1  0.51318100  0.46809000  0.27404100  1
  O  O25  1  0.48681900  0.53191000  0.72595900  1
  O  O26  1  0.01318100  0.53191000  0.22595900  1
  O  O27  1  0.98681900  0.46809000  0.77404100  1
  O  O28  1  0.44461900  0.50911500  0.16961800  1
  O  O29  1  0.55538100  0.49088500  0.83038200  1
  O  O30  1  0.94461900  0.49088500  0.33038200  1
  O  O31  1  0.05538100  0.50911500  0.66961800  1
  O  O32  1  0.24613500  0.96791700  0.10321900  1
  O  O33  1  0.75386500  0.03208300  0.89678100  1
  O  O34  1  0.74613500  0.03208300  0.39678100  1
  O  O35  1  0.25386500  0.96791700  0.60321900  1
  O  O36  1  0.47821700  0.78809300  0.32198700  1
  O  O37  1  0.52178300  0.21190700  0.67801300  1
  O  O38  1  0.97821700  0.21190700  0.17801300  1
  O  O39  1  0.02178300  0.78809300  0.82198700  1
  O  O40  1  0.84619100  0.83377200  0.26489500  1
  O  O41  1  0.15380900  0.16622800  0.73510500  1
  O  O42  1  0.34619100  0.16622800  0.23510500  1
  O  O43  1  0.65380900  0.83377200  0.76489500  1
