# generated using pymatgen
data_La2MgNbO6
_symmetry_space_group_name_H-M   'P 1'
_cell_length_a   5.73459000
_cell_length_b   5.70928500
_cell_length_c   9.86089251
_cell_angle_alpha   54.56020314
_cell_angle_beta   90.00000000
_cell_angle_gamma   90.00000000
_symmetry_Int_Tables_number   1
_chemical_formula_structural   La2MgNbO6
_chemical_formula_sum   'La4 Mg2 Nb2 O12'
_cell_volume   263.03375853
_cell_formula_units_Z   2
loop_
 _symmetry_equiv_pos_site_id
 _symmetry_equiv_pos_as_xyz
  1  'x, y, z'
loop_
 _atom_site_type_symbol
 _atom_site_label
 _atom_site_symmetry_multiplicity
 _atom_site_fract_x
 _atom_site_fract_y
 _atom_site_fract_z
 _atom_site_occupancy
  La  La0  1  0.44375900  0.23946200  0.75083900  1
  La  La1  1  0.55624100  0.76053800  0.24916100  1
  La  La2  1  0.94375900  0.76053800  0.74916100  1
  La  La3  1  0.05624100  0.23946200  0.25083900  1
  Mg  Mg4  1  0.00000000  0.50000000  0.50000000  1
  Mg  Mg5  1  0.50000000  0.50000000  0.00000000  1
  Nb  Nb6  1  0.00000000  0.00000000  0.00000000  1
  Nb  Nb7  1  0.50000000  0.00000000  0.50000000  1
  O  O8  1  0.70648300  0.85116200  0.94615600  1
  O  O9  1  0.29351700  0.14883800  0.05384400  1
  O  O10  1  0.20648300  0.14883800  0.55384400  1
  O  O11  1  0.79351700  0.85116200  0.44615600  1
  O  O12  1  0.19569900  0.74929100  0.95423800  1
  O  O13  1  0.80430100  0.25070900  0.04576200  1
  O  O14  1  0.69569900  0.25070900  0.54576200  1
  O  O15  1  0.30430100  0.74929100  0.45423800  1
  O  O16  1  0.01792100  0.34367400  0.75082600  1
  O  O17  1  0.98207900  0.65632600  0.24917400  1
  O  O18  1  0.51792100  0.65632600  0.74917400  1
  O  O19  1  0.48207900  0.34367400  0.25082600  1
