# generated using pymatgen
data_Ni(CO)6
_symmetry_space_group_name_H-M   'P 1'
_cell_length_a   9.51103861
_cell_length_b   9.51103861
_cell_length_c   18.16253545
_cell_angle_alpha   86.41508086
_cell_angle_beta   86.41508086
_cell_angle_gamma   130.05792228
_symmetry_Int_Tables_number   1
_chemical_formula_structural   Ni(CO)6
_chemical_formula_sum   'Ni2 C12 O12'
_cell_volume   1243.65751276
_cell_formula_units_Z   2
loop_
 _symmetry_equiv_pos_site_id
 _symmetry_equiv_pos_as_xyz
  1  'x, y, z'
loop_
 _atom_site_type_symbol
 _atom_site_label
 _atom_site_symmetry_multiplicity
 _atom_site_fract_x
 _atom_site_fract_y
 _atom_site_fract_z
 _atom_site_occupancy
  Ni  Ni0  1  0.50000000  0.00000000  0.50000000  1
  Ni  Ni1  1  0.00000000  0.50000000  0.00000000  1
  C  C2  1  0.46943100  0.07329800  0.74920300  1
  C  C3  1  0.53056900  0.92670200  0.25079700  1
  C  C4  1  0.70475900  0.01704000  0.49774600  1
  C  C5  1  0.92670200  0.53056900  0.75079700  1
  C  C6  1  0.29524100  0.98296000  0.50225400  1
  C  C7  1  0.07329800  0.46943100  0.24920300  1
  C  C8  1  0.12053300  0.90035600  0.50222300  1
  C  C9  1  0.98296000  0.29524100  0.00225400  1
  C  C10  1  0.87946700  0.09964400  0.49777700  1
  C  C11  1  0.01704000  0.70475900  0.99774600  1
  C  C12  1  0.09964400  0.87946700  0.99777700  1
  C  C13  1  0.90035600  0.12053300  0.00222300  1
  O  O14  1  0.48860900  0.66603300  0.74787700  1
  O  O15  1  0.51139100  0.33396700  0.25212300  1
  O  O16  1  0.96088000  0.82322000  0.50206800  1
  O  O17  1  0.33396700  0.51139100  0.75212300  1
  O  O18  1  0.03912000  0.17678000  0.49793200  1
  O  O19  1  0.66603300  0.48860900  0.24787700  1
  O  O20  1  0.34735400  0.03548200  0.78819000  1
  O  O21  1  0.17678000  0.03912000  0.99793200  1
  O  O22  1  0.65264600  0.96451800  0.21181000  1
  O  O23  1  0.82322000  0.96088000  0.00206800  1
  O  O24  1  0.96451800  0.65264600  0.71181000  1
  O  O25  1  0.03548200  0.34735400  0.28819000  1
