# generated using pymatgen
data_KH8W(NF3)2
_symmetry_space_group_name_H-M   'P 1'
_cell_length_a   6.59894676
_cell_length_b   6.59894676
_cell_length_c   6.59894676
_cell_angle_alpha   60.00000000
_cell_angle_beta   60.00000000
_cell_angle_gamma   60.00000000
_symmetry_Int_Tables_number   1
_chemical_formula_structural   KH8W(NF3)2
_chemical_formula_sum   'K1 H8 W1 N2 F6'
_cell_volume   203.19306200
_cell_formula_units_Z   1
loop_
 _symmetry_equiv_pos_site_id
 _symmetry_equiv_pos_as_xyz
  1  'x, y, z'
loop_
 _atom_site_type_symbol
 _atom_site_label
 _atom_site_symmetry_multiplicity
 _atom_site_fract_x
 _atom_site_fract_y
 _atom_site_fract_z
 _atom_site_occupancy
  K  K0  1  0.50000000  0.50000000  0.50000000  1
  H  H1  1  0.81387900  0.81387900  0.81387900  1
  H  H2  1  0.18612100  0.18612100  0.18612100  1
  H  H3  1  0.55836400  0.81387900  0.81387900  1
  H  H4  1  0.81387900  0.55836400  0.81387900  1
  H  H5  1  0.44163600  0.18612100  0.18612100  1
  H  H6  1  0.18612100  0.44163600  0.18612100  1
  H  H7  1  0.81387900  0.81387900  0.55836400  1
  H  H8  1  0.18612100  0.18612100  0.44163600  1
  W  W9  1  0.00000000  0.00000000  0.00000000  1
  N  N10  1  0.75000000  0.75000000  0.75000000  1
  N  N11  1  0.25000000  0.25000000  0.25000000  1
  F  F12  1  0.77461300  0.77461300  0.22538700  1
  F  F13  1  0.22538700  0.22538700  0.77461300  1
  F  F14  1  0.77461300  0.22538700  0.77461300  1
  F  F15  1  0.22538700  0.77461300  0.22538700  1
  F  F16  1  0.22538700  0.77461300  0.77461300  1
  F  F17  1  0.77461300  0.22538700  0.22538700  1
