# generated using pymatgen
data_KHo(MoO4)2
_symmetry_space_group_name_H-M   'P 1'
_cell_length_a   7.47728862
_cell_length_b   7.47728862
_cell_length_c   7.75658278
_cell_angle_alpha   61.74454067
_cell_angle_beta   61.74454067
_cell_angle_gamma   88.02912424
_symmetry_Int_Tables_number   1
_chemical_formula_structural   KHo(MoO4)2
_chemical_formula_sum   'K2 Ho2 Mo4 O16'
_cell_volume   326.26530411
_cell_formula_units_Z   2
loop_
 _symmetry_equiv_pos_site_id
 _symmetry_equiv_pos_as_xyz
  1  'x, y, z'
loop_
 _atom_site_type_symbol
 _atom_site_label
 _atom_site_symmetry_multiplicity
 _atom_site_fract_x
 _atom_site_fract_y
 _atom_site_fract_z
 _atom_site_occupancy
  K  K0  1  0.20005200  0.79994800  0.75000000  1
  K  K1  1  0.79994800  0.20005200  0.25000000  1
  Ho  Ho2  1  0.77110200  0.22889800  0.75000000  1
  Ho  Ho3  1  0.22889800  0.77110200  0.25000000  1
  Mo  Mo4  1  0.69579300  0.69781700  0.76115000  1
  Mo  Mo5  1  0.30420700  0.30218300  0.23885000  1
  Mo  Mo6  1  0.30218300  0.30420700  0.73885000  1
  Mo  Mo7  1  0.69781700  0.69579300  0.26115000  1
  O  O8  1  0.61314700  0.76855300  0.56025400  1
  O  O9  1  0.38685300  0.23144700  0.43974600  1
  O  O10  1  0.23144700  0.38685300  0.93974600  1
  O  O11  1  0.76855300  0.61314700  0.06025400  1
  O  O12  1  0.38294400  0.06596100  0.87685800  1
  O  O13  1  0.61705600  0.93403900  0.12314200  1
  O  O14  1  0.93403900  0.61705600  0.62314200  1
  O  O15  1  0.06596100  0.38294400  0.37685800  1
  O  O16  1  0.58632000  0.36673800  0.96943000  1
  O  O17  1  0.41368000  0.63326200  0.03057000  1
  O  O18  1  0.63326200  0.41368000  0.53057000  1
  O  O19  1  0.36673800  0.58632000  0.46943000  1
  O  O20  1  0.79351900  0.95495600  0.69073700  1
  O  O21  1  0.20648100  0.04504400  0.30926300  1
  O  O22  1  0.04504400  0.20648100  0.80926300  1
  O  O23  1  0.95495600  0.79351900  0.19073700  1
