# generated using pymatgen
data_KTcO2
_symmetry_space_group_name_H-M   'P 1'
_cell_length_a   7.73828448
_cell_length_b   7.73828448
_cell_length_c   7.73828448
_cell_angle_alpha   130.56512102
_cell_angle_beta   130.56512102
_cell_angle_gamma   72.50492760
_symmetry_Int_Tables_number   1
_chemical_formula_structural   KTcO2
_chemical_formula_sum   'K4 Tc4 O8'
_cell_volume   261.33993913
_cell_formula_units_Z   4
loop_
 _symmetry_equiv_pos_site_id
 _symmetry_equiv_pos_as_xyz
  1  'x, y, z'
loop_
 _atom_site_type_symbol
 _atom_site_label
 _atom_site_symmetry_multiplicity
 _atom_site_fract_x
 _atom_site_fract_y
 _atom_site_fract_z
 _atom_site_occupancy
  K  K0  1  0.87500000  0.62500000  0.25000000  1
  K  K1  1  0.37500000  0.62500000  0.75000000  1
  K  K2  1  0.37500000  0.62500000  0.25000000  1
  K  K3  1  0.37500000  0.12500000  0.75000000  1
  Tc  Tc4  1  0.37500000  0.12500000  0.25000000  1
  Tc  Tc5  1  0.87500000  0.12500000  0.75000000  1
  Tc  Tc6  1  0.87500000  0.12500000  0.25000000  1
  Tc  Tc7  1  0.87500000  0.62500000  0.75000000  1
  O  O8  1  0.14686600  0.33716700  0.19030100  1
  O  O9  1  0.14686600  0.95656500  0.80969900  1
  O  O10  1  0.08716700  0.39686600  0.69030100  1
  O  O11  1  0.60313400  0.91283300  0.30969900  1
  O  O12  1  0.70656500  0.39686600  0.30969900  1
  O  O13  1  0.60313400  0.29343500  0.69030100  1
  O  O14  1  0.66283300  0.85313400  0.80969900  1
  O  O15  1  0.04343500  0.85313400  0.19030100  1
