# generated using pymatgen
data_KTlS2
_symmetry_space_group_name_H-M   'P 1'
_cell_length_a   8.10072928
_cell_length_b   8.10072928
_cell_length_c   15.43483700
_cell_angle_alpha   97.57156874
_cell_angle_beta   97.57156874
_cell_angle_gamma   90.01709360
_symmetry_Int_Tables_number   1
_chemical_formula_structural   KTlS2
_chemical_formula_sum   'K8 Tl8 S16'
_cell_volume   995.11606913
_cell_formula_units_Z   8
loop_
 _symmetry_equiv_pos_site_id
 _symmetry_equiv_pos_as_xyz
  1  'x, y, z'
loop_
 _atom_site_type_symbol
 _atom_site_label
 _atom_site_symmetry_multiplicity
 _atom_site_fract_x
 _atom_site_fract_y
 _atom_site_fract_z
 _atom_site_occupancy
  K  K0  1  0.65481100  0.77779900  0.61743900  1
  K  K1  1  0.34518900  0.22220100  0.38256100  1
  K  K2  1  0.22220100  0.34518900  0.88256100  1
  K  K3  1  0.77779900  0.65481100  0.11743900  1
  K  K4  1  0.22445400  0.84550500  0.88709100  1
  K  K5  1  0.77554600  0.15449500  0.11290900  1
  K  K6  1  0.15449500  0.77554600  0.61290900  1
  K  K7  1  0.84550500  0.22445400  0.38709100  1
  Tl  Tl8  1  0.71140900  0.08575400  0.84384200  1
  Tl  Tl9  1  0.28859100  0.91424600  0.15615800  1
  Tl  Tl10  1  0.91424600  0.28859100  0.65615800  1
  Tl  Tl11  1  0.08575400  0.71140900  0.34384200  1
  Tl  Tl12  1  0.41336600  0.28840300  0.65582300  1
  Tl  Tl13  1  0.58663400  0.71159700  0.34417700  1
  Tl  Tl14  1  0.71159700  0.58663400  0.84417700  1
  Tl  Tl15  1  0.28840300  0.41336600  0.15582300  1
  S  S16  1  0.42468000  0.04774200  0.74933400  1
  S  S17  1  0.57532000  0.95225800  0.25066600  1
  S  S18  1  0.95225800  0.57532000  0.75066600  1
  S  S19  1  0.04774200  0.42468000  0.24933400  1
  S  S20  1  0.63820000  0.26370500  0.55331500  1
  S  S21  1  0.36180000  0.73629500  0.44668500  1
  S  S22  1  0.73629500  0.36180000  0.94668500  1
  S  S23  1  0.26370500  0.63820000  0.05331500  1
  S  S24  1  0.42446800  0.57553200  0.75000000  1
  S  S25  1  0.57553200  0.42446800  0.25000000  1
  S  S26  1  0.73538900  0.86215500  0.94827700  1
  S  S27  1  0.26461100  0.13784500  0.05172300  1
  S  S28  1  0.13784500  0.26461100  0.55172300  1
  S  S29  1  0.86215500  0.73538900  0.44827700  1
  S  S30  1  0.95154000  0.04846000  0.75000000  1
  S  S31  1  0.04846000  0.95154000  0.25000000  1
