# generated using pymatgen
data_Ni(I5N3)2
_symmetry_space_group_name_H-M   'P 1'
_cell_length_a   16.20917400
_cell_length_b   8.72417600
_cell_length_c   11.81294296
_cell_angle_alpha   49.69393762
_cell_angle_beta   90.00000000
_cell_angle_gamma   90.00000000
_symmetry_Int_Tables_number   1
_chemical_formula_structural   Ni(I5N3)2
_chemical_formula_sum   'Ni2 I20 N12'
_cell_volume   1273.91410963
_cell_formula_units_Z   2
loop_
 _symmetry_equiv_pos_site_id
 _symmetry_equiv_pos_as_xyz
  1  'x, y, z'
loop_
 _atom_site_type_symbol
 _atom_site_label
 _atom_site_symmetry_multiplicity
 _atom_site_fract_x
 _atom_site_fract_y
 _atom_site_fract_z
 _atom_site_occupancy
  Ni  Ni0  1  0.00000000  0.00000000  0.00000000  1
  Ni  Ni1  1  0.50000000  0.00000000  0.50000000  1
  I  I2  1  0.51651800  0.72908800  0.02882300  1
  I  I3  1  0.48348200  0.27091200  0.97117700  1
  I  I4  1  0.01651800  0.27091200  0.47117700  1
  I  I5  1  0.98348200  0.72908800  0.52882300  1
  I  I6  1  0.74498800  0.00492000  0.16804800  1
  I  I7  1  0.25501200  0.99508000  0.83195200  1
  I  I8  1  0.24498800  0.99508000  0.33195200  1
  I  I9  1  0.75501200  0.00492000  0.66804800  1
  I  I10  1  0.91638300  0.73391000  0.97982400  1
  I  I11  1  0.08361700  0.26609000  0.02017600  1
  I  I12  1  0.41638300  0.26609000  0.52017600  1
  I  I13  1  0.58361700  0.73391000  0.47982400  1
  I  I14  1  0.68666300  0.69749800  0.96796700  1
  I  I15  1  0.31333700  0.30250200  0.03203300  1
  I  I16  1  0.18666300  0.30250200  0.53203300  1
  I  I17  1  0.81333700  0.69749800  0.46796700  1
  I  I18  1  0.34629100  0.72364600  0.11333400  1
  I  I19  1  0.65370900  0.27635400  0.88666600  1
  I  I20  1  0.84629100  0.27635400  0.38666600  1
  I  I21  1  0.15370900  0.72364600  0.61333400  1
  N  N22  1  0.92252600  0.77377800  0.12542200  1
  N  N23  1  0.07747400  0.22622200  0.87457800  1
  N  N24  1  0.42252600  0.22622200  0.37457800  1
  N  N25  1  0.57747400  0.77377800  0.62542200  1
  N  N26  1  0.51042800  0.96811100  0.35230900  1
  N  N27  1  0.48957200  0.03188900  0.64769100  1
  N  N28  1  0.01042800  0.03188900  0.14769100  1
  N  N29  1  0.98957200  0.96811100  0.85230900  1
  N  N30  1  0.41623100  0.80418700  0.59387700  1
  N  N31  1  0.58376900  0.19581300  0.40612300  1
  N  N32  1  0.91623100  0.19581300  0.90612300  1
  N  N33  1  0.08376900  0.80418700  0.09387700  1
