# generated using pymatgen
data_K2YbF5
_symmetry_space_group_name_H-M   'P 1'
_cell_length_a   6.62860100
_cell_length_b   7.45824700
_cell_length_c   10.73134400
_cell_angle_alpha   90.00000000
_cell_angle_beta   90.00000000
_cell_angle_gamma   90.00000000
_symmetry_Int_Tables_number   1
_chemical_formula_structural   K2YbF5
_chemical_formula_sum   'K8 Yb4 F20'
_cell_volume   530.53343232
_cell_formula_units_Z   4
loop_
 _symmetry_equiv_pos_site_id
 _symmetry_equiv_pos_as_xyz
  1  'x, y, z'
loop_
 _atom_site_type_symbol
 _atom_site_label
 _atom_site_symmetry_multiplicity
 _atom_site_fract_x
 _atom_site_fract_y
 _atom_site_fract_z
 _atom_site_occupancy
  K  K0  1  0.52725600  0.49581500  0.82651100  1
  K  K1  1  0.47274400  0.50418500  0.17348900  1
  K  K2  1  0.02725600  0.50418500  0.67348900  1
  K  K3  1  0.47274400  0.99581500  0.17348900  1
  K  K4  1  0.97274400  0.49581500  0.32651100  1
  K  K5  1  0.52725600  0.00418500  0.82651100  1
  K  K6  1  0.97274400  0.00418500  0.32651100  1
  K  K7  1  0.02725600  0.99581500  0.67348900  1
  Yb  Yb8  1  0.55573300  0.75000000  0.50398100  1
  Yb  Yb9  1  0.44426700  0.25000000  0.49601900  1
  Yb  Yb10  1  0.05573300  0.25000000  0.99601900  1
  Yb  Yb11  1  0.94426700  0.75000000  0.00398200  1
  F  F12  1  0.81367800  0.75000000  0.80744800  1
  F  F13  1  0.18632200  0.25000000  0.19255200  1
  F  F14  1  0.31367800  0.25000000  0.69255200  1
  F  F15  1  0.68632200  0.75000000  0.30744800  1
  F  F16  1  0.35056900  0.75000000  0.67078700  1
  F  F17  1  0.64943100  0.25000000  0.32921300  1
  F  F18  1  0.85056900  0.25000000  0.82921300  1
  F  F19  1  0.14943100  0.75000000  0.17078700  1
  F  F20  1  0.90303700  0.75000000  0.50259300  1
  F  F21  1  0.09696300  0.25000000  0.49740700  1
  F  F22  1  0.40303700  0.25000000  0.99740700  1
  F  F23  1  0.59696300  0.75000000  0.00259300  1
  F  F24  1  0.64069900  0.03028800  0.57965300  1
  F  F25  1  0.35930100  0.96971200  0.42034700  1
  F  F26  1  0.14069900  0.96971200  0.92034700  1
  F  F27  1  0.35930100  0.53028800  0.42034700  1
  F  F28  1  0.85930100  0.03028800  0.07965300  1
  F  F29  1  0.64069900  0.46971200  0.57965300  1
  F  F30  1  0.85930100  0.46971200  0.07965300  1
  F  F31  1  0.14069900  0.53028800  0.92034700  1
