# generated using pymatgen
data_KTbH(SO4)2
_symmetry_space_group_name_H-M   'P 1'
_cell_length_a   8.82376800
_cell_length_b   10.12800300
_cell_length_c   10.22035030
_cell_angle_alpha   60.38613637
_cell_angle_beta   90.00000000
_cell_angle_gamma   90.00000000
_symmetry_Int_Tables_number   1
_chemical_formula_structural   KTbH(SO4)2
_chemical_formula_sum   'K4 Tb4 H4 S8 O32'
_cell_volume   794.05580372
_cell_formula_units_Z   4
loop_
 _symmetry_equiv_pos_site_id
 _symmetry_equiv_pos_as_xyz
  1  'x, y, z'
loop_
 _atom_site_type_symbol
 _atom_site_label
 _atom_site_symmetry_multiplicity
 _atom_site_fract_x
 _atom_site_fract_y
 _atom_site_fract_z
 _atom_site_occupancy
  K  K0  1  0.31652800  0.28573000  0.69069100  1
  K  K1  1  0.68347200  0.71427000  0.30930900  1
  K  K2  1  0.81652800  0.71427000  0.80930900  1
  K  K3  1  0.18347200  0.28573000  0.19069100  1
  Tb  Tb4  1  0.37537600  0.75395500  0.96334100  1
  Tb  Tb5  1  0.62462400  0.24604500  0.03665900  1
  Tb  Tb6  1  0.87537600  0.24604500  0.53665900  1
  Tb  Tb7  1  0.12462400  0.75395500  0.46334100  1
  H  H8  1  0.07426300  0.83397500  0.94801800  1
  H  H9  1  0.92573700  0.16602500  0.05198200  1
  H  H10  1  0.57426300  0.16602500  0.55198200  1
  H  H11  1  0.42573700  0.83397500  0.44801800  1
  S  S12  1  0.13297100  0.55869000  0.31406000  1
  S  S13  1  0.86702900  0.44131000  0.68594000  1
  S  S14  1  0.63297100  0.44131000  0.18594000  1
  S  S15  1  0.36702900  0.55869000  0.81406000  1
  S  S16  1  0.19949500  0.99779600  0.60418600  1
  S  S17  1  0.80050500  0.00220400  0.39581400  1
  S  S18  1  0.69949500  0.00220400  0.89581400  1
  S  S19  1  0.30050500  0.99779600  0.10418600  1
  O  O20  1  0.78133400  0.92182800  0.03833600  1
  O  O21  1  0.21866600  0.07817200  0.96166400  1
  O  O22  1  0.28133400  0.07817200  0.46166400  1
  O  O23  1  0.71866600  0.92182800  0.53833600  1
  O  O24  1  0.20529900  0.59260000  0.16998800  1
  O  O25  1  0.79470100  0.40740000  0.83001200  1
  O  O26  1  0.70529900  0.40740000  0.33001200  1
  O  O27  1  0.29470100  0.59260000  0.66998800  1
  O  O28  1  0.30514300  0.94594400  0.73525100  1
  O  O29  1  0.69485700  0.05405600  0.26474900  1
  O  O30  1  0.80514300  0.05405600  0.76474900  1
  O  O31  1  0.19485700  0.94594400  0.23525100  1
  O  O32  1  0.37960700  0.86029200  0.11699600  1
  O  O33  1  0.62039300  0.13970800  0.88300400  1
  O  O34  1  0.87960700  0.13970800  0.38300400  1
  O  O35  1  0.12039300  0.86029200  0.61699600  1
  O  O36  1  0.24640400  0.56210000  0.42229100  1
  O  O37  1  0.75359600  0.43790000  0.57770900  1
  O  O38  1  0.74640400  0.43790000  0.07770900  1
  O  O39  1  0.25359600  0.56210000  0.92229100  1
  O  O40  1  0.01480400  0.67171000  0.29559900  1
  O  O41  1  0.98519600  0.32829000  0.70440100  1
  O  O42  1  0.51480400  0.32829000  0.20440100  1
  O  O43  1  0.48519600  0.67171000  0.79559900  1
  O  O44  1  0.06544000  0.40348900  0.37940800  1
  O  O45  1  0.93456000  0.59651100  0.62059200  1
  O  O46  1  0.56544000  0.59651100  0.12059200  1
  O  O47  1  0.43456000  0.40348900  0.87940800  1
  O  O48  1  0.58636600  0.90287700  0.87807800  1
  O  O49  1  0.41363400  0.09712300  0.12192200  1
  O  O50  1  0.08636600  0.09712300  0.62192200  1
  O  O51  1  0.91363400  0.90287700  0.37807800  1
