# generated using pymatgen
data_KLaS2O9
_symmetry_space_group_name_H-M   'P 1'
_cell_length_a   7.32430372
_cell_length_b   7.32430372
_cell_length_c   13.42950600
_cell_angle_alpha   90.00000000
_cell_angle_beta   90.00000000
_cell_angle_gamma   119.99999743
_symmetry_Int_Tables_number   1
_chemical_formula_structural   KLaS2O9
_chemical_formula_sum   'K3 La3 S6 O27'
_cell_volume   623.91204511
_cell_formula_units_Z   3
loop_
 _symmetry_equiv_pos_site_id
 _symmetry_equiv_pos_as_xyz
  1  'x, y, z'
loop_
 _atom_site_type_symbol
 _atom_site_label
 _atom_site_symmetry_multiplicity
 _atom_site_fract_x
 _atom_site_fract_y
 _atom_site_fract_z
 _atom_site_occupancy
  K  K0  1  0.44947000  0.00000000  0.33333300  1
  K  K1  1  0.00000000  0.44947000  0.66666700  1
  K  K2  1  0.55053000  0.55053000  0.00000000  1
  La  La3  1  0.45380800  0.00000000  0.83333300  1
  La  La4  1  0.00000000  0.45380800  0.16666700  1
  La  La5  1  0.54619200  0.54619200  0.50000000  1
  S  S6  1  0.44647500  0.00603100  0.59402000  1
  S  S7  1  0.99396900  0.44044500  0.92735300  1
  S  S8  1  0.00603100  0.44647500  0.40598000  1
  S  S9  1  0.55955500  0.55352500  0.26068700  1
  S  S10  1  0.44044500  0.99396900  0.07264700  1
  S  S11  1  0.55352500  0.55955500  0.73931300  1
  O  O12  1  0.42188300  0.15965300  0.53170800  1
  O  O13  1  0.84034700  0.26222900  0.86504100  1
  O  O14  1  0.15965300  0.42188300  0.46829200  1
  O  O15  1  0.73777100  0.57811700  0.19837500  1
  O  O16  1  0.26222900  0.84034700  0.13495900  1
  O  O17  1  0.57811700  0.73777100  0.80162500  1
  O  O18  1  0.37286500  0.48922500  0.66837600  1
  O  O19  1  0.51077500  0.88364000  0.00170900  1
  O  O20  1  0.48922500  0.37286500  0.33162400  1
  O  O21  1  0.11636000  0.62713500  0.33504300  1
  O  O22  1  0.88364000  0.51077500  0.99829100  1
  O  O23  1  0.62713500  0.11636000  0.66495700  1
  O  O24  1  0.51683800  0.38160600  0.80625500  1
  O  O25  1  0.61839400  0.13523200  0.13958800  1
  O  O26  1  0.38160600  0.51683800  0.19374500  1
  O  O27  1  0.86476800  0.48316200  0.47292100  1
  O  O28  1  0.13523200  0.61839400  0.86041200  1
  O  O29  1  0.48316200  0.86476800  0.52707900  1
  O  O30  1  0.10173900  0.00000000  0.83333300  1
  O  O31  1  0.00000000  0.10173900  0.16666700  1
  O  O32  1  0.89826100  0.89826100  0.50000000  1
  O  O33  1  0.11842000  0.37491500  0.99183700  1
  O  O34  1  0.62508500  0.74350400  0.32517100  1
  O  O35  1  0.37491500  0.11842000  0.00816300  1
  O  O36  1  0.25649600  0.88158000  0.65850400  1
  O  O37  1  0.74350400  0.62508500  0.67482900  1
  O  O38  1  0.88158000  0.25649600  0.34149600  1
