# generated using pymatgen
data_KC2
_symmetry_space_group_name_H-M   'P 1'
_cell_length_a   4.60617248
_cell_length_b   4.60617248
_cell_length_c   8.13010644
_cell_angle_alpha   89.34830911
_cell_angle_beta   108.71470310
_cell_angle_gamma   116.98452110
_symmetry_Int_Tables_number   1
_chemical_formula_structural   KC2
_chemical_formula_sum   'K2 C4'
_cell_volume   143.73557757
_cell_formula_units_Z   2
loop_
 _symmetry_equiv_pos_site_id
 _symmetry_equiv_pos_as_xyz
  1  'x, y, z'
loop_
 _atom_site_type_symbol
 _atom_site_label
 _atom_site_symmetry_multiplicity
 _atom_site_fract_x
 _atom_site_fract_y
 _atom_site_fract_z
 _atom_site_occupancy
  K  K0  1  0.06633800  0.81633800  0.25000000  1
  K  K1  1  0.93366200  0.18366200  0.75000000  1
  C  C2  1  0.62800900  0.12239200  0.05497200  1
  C  C3  1  0.37199100  0.87760800  0.94502800  1
  C  C4  1  0.56742000  0.57303700  0.44502800  1
  C  C5  1  0.43258000  0.42696300  0.55497200  1
