data_image0
_chemical_formula_structural       Al4Lu2Ni2
_chemical_formula_sum              "Al4 Lu2 Ni2"
_cell_length_a       4.03971
_cell_length_b       5.33055
_cell_length_c       6.84177
_cell_angle_alpha    90
_cell_angle_beta     90
_cell_angle_gamma    67.7332

_space_group_name_H-M_alt    "P 1"
_space_group_IT_number       1

loop_
  _space_group_symop_operation_xyz
  'x, y, z'

loop_
  _atom_site_type_symbol
  _atom_site_label
  _atom_site_symmetry_multiplicity
  _atom_site_fract_x
  _atom_site_fract_y
  _atom_site_fract_z
  _atom_site_occupancy
  Al  Al1       1.0  0.84800  0.30400  0.05320  1.0000
  Al  Al2       1.0  0.84800  0.30400  0.44700  1.0000
  Al  Al3       1.0  0.15200  0.69600  0.55300  1.0000
  Al  Al4       1.0  0.15200  0.69600  0.94700  1.0000
  Lu  Lu1       1.0  0.56400  0.87300  0.25000  1.0000
  Lu  Lu2       1.0  0.43600  0.12700  0.75000  1.0000
  Ni  Ni1       1.0  0.28600  0.42900  0.25000  1.0000
  Ni  Ni2       1.0  0.71400  0.57100  0.75000  1.0000
