# generated using pymatgen
data_KAlCO5
_symmetry_space_group_name_H-M   'P 1'
_cell_length_a   6.81096726
_cell_length_b   6.81096726
_cell_length_c   5.92907200
_cell_angle_alpha   90.00000000
_cell_angle_beta   90.00000000
_cell_angle_gamma   120.73597835
_symmetry_Int_Tables_number   1
_chemical_formula_structural   KAlCO5
_chemical_formula_sum   'K2 Al2 C2 O10'
_cell_volume   236.41014665
_cell_formula_units_Z   2
loop_
 _symmetry_equiv_pos_site_id
 _symmetry_equiv_pos_as_xyz
  1  'x, y, z'
loop_
 _atom_site_type_symbol
 _atom_site_label
 _atom_site_symmetry_multiplicity
 _atom_site_fract_x
 _atom_site_fract_y
 _atom_site_fract_z
 _atom_site_occupancy
  K  K0  1  0.35371800  0.64628200  0.25000000  1
  K  K1  1  0.64628200  0.35371800  0.75000000  1
  Al  Al2  1  0.00000000  0.00000000  0.00000000  1
  Al  Al3  1  0.00000000  0.00000000  0.50000000  1
  C  C4  1  0.78321900  0.21678100  0.25000000  1
  C  C5  1  0.21678100  0.78321900  0.75000000  1
  O  O6  1  0.67591800  0.32408200  0.25000000  1
  O  O7  1  0.32408200  0.67591800  0.75000000  1
  O  O8  1  0.83620900  0.16379100  0.05630500  1
  O  O9  1  0.16379100  0.83620900  0.94369500  1
  O  O10  1  0.16379100  0.83620900  0.55630500  1
  O  O11  1  0.83620900  0.16379100  0.44369500  1
  O  O12  1  0.85698400  0.81832600  0.25000000  1
  O  O13  1  0.14301600  0.18167400  0.75000000  1
  O  O14  1  0.18167400  0.14301600  0.25000000  1
  O  O15  1  0.81832600  0.85698400  0.75000000  1
