# generated using pymatgen
data_KEuTiO4
_symmetry_space_group_name_H-M   'P 1'
_cell_length_a   5.54203100
_cell_length_b   13.33030900
_cell_length_c   5.46096400
_cell_angle_alpha   90.00000000
_cell_angle_beta   90.00000000
_cell_angle_gamma   90.00000000
_symmetry_Int_Tables_number   1
_chemical_formula_structural   KEuTiO4
_chemical_formula_sum   'K4 Eu4 Ti4 O16'
_cell_volume   403.43955943
_cell_formula_units_Z   4
loop_
 _symmetry_equiv_pos_site_id
 _symmetry_equiv_pos_as_xyz
  1  'x, y, z'
loop_
 _atom_site_type_symbol
 _atom_site_label
 _atom_site_symmetry_multiplicity
 _atom_site_fract_x
 _atom_site_fract_y
 _atom_site_fract_z
 _atom_site_occupancy
  K  K0  1  0.01796400  0.40420300  0.75000000  1
  K  K1  1  0.98203600  0.59579700  0.25000000  1
  K  K2  1  0.51796400  0.59579700  0.75000000  1
  K  K3  1  0.48203600  0.40420300  0.25000000  1
  Eu  Eu4  1  0.52353900  0.89789400  0.75000000  1
  Eu  Eu5  1  0.47646100  0.10210600  0.25000000  1
  Eu  Eu6  1  0.02353900  0.10210600  0.75000000  1
  Eu  Eu7  1  0.97646100  0.89789400  0.25000000  1
  Ti  Ti8  1  0.00719000  0.75273700  0.75000000  1
  Ti  Ti9  1  0.99281000  0.24726300  0.25000000  1
  Ti  Ti10  1  0.50719000  0.24726300  0.75000000  1
  Ti  Ti11  1  0.49281000  0.75273700  0.25000000  1
  O  O12  1  0.93677300  0.93577400  0.75000000  1
  O  O13  1  0.06322700  0.06422600  0.25000000  1
  O  O14  1  0.43677300  0.06422600  0.75000000  1
  O  O15  1  0.56322700  0.93577400  0.25000000  1
  O  O16  1  0.52629500  0.37963900  0.75000000  1
  O  O17  1  0.47370500  0.62036100  0.25000000  1
  O  O18  1  0.02629500  0.62036100  0.75000000  1
  O  O19  1  0.97370500  0.37963900  0.25000000  1
  O  O20  1  0.75000000  0.77084700  0.00000000  1
  O  O21  1  0.25000000  0.22915300  0.00000000  1
  O  O22  1  0.25000000  0.22915300  0.50000000  1
  O  O23  1  0.75000000  0.77084700  0.50000000  1
  O  O24  1  0.75000000  0.20617600  0.00000000  1
  O  O25  1  0.25000000  0.79382400  0.00000000  1
  O  O26  1  0.25000000  0.79382400  0.50000000  1
  O  O27  1  0.75000000  0.20617600  0.50000000  1
