# generated using pymatgen
data_KSm(WO4)2
_symmetry_space_group_name_H-M   'P 1'
_cell_length_a   5.26166300
_cell_length_b   8.26662000
_cell_length_c   18.67189400
_cell_angle_alpha   90.00000000
_cell_angle_beta   90.00000000
_cell_angle_gamma   90.00000000
_symmetry_Int_Tables_number   1
_chemical_formula_structural   KSm(WO4)2
_chemical_formula_sum   'K4 Sm4 W8 O32'
_cell_volume   812.15584930
_cell_formula_units_Z   4
loop_
 _symmetry_equiv_pos_site_id
 _symmetry_equiv_pos_as_xyz
  1  'x, y, z'
loop_
 _atom_site_type_symbol
 _atom_site_label
 _atom_site_symmetry_multiplicity
 _atom_site_fract_x
 _atom_site_fract_y
 _atom_site_fract_z
 _atom_site_occupancy
  K  K0  1  0.00000000  0.75000000  0.23002200  1
  K  K1  1  0.00000000  0.25000000  0.76997800  1
  K  K2  1  0.50000000  0.25000000  0.26997800  1
  K  K3  1  0.50000000  0.75000000  0.73002200  1
  Sm  Sm4  1  0.00000000  0.75000000  0.99326200  1
  Sm  Sm5  1  0.00000000  0.25000000  0.00673800  1
  Sm  Sm6  1  0.50000000  0.25000000  0.50673800  1
  Sm  Sm7  1  0.50000000  0.75000000  0.49326200  1
  W  W8  1  0.97750000  0.98289000  0.60074000  1
  W  W9  1  0.02250000  0.01711000  0.39926000  1
  W  W10  1  0.52250000  0.48289000  0.89926000  1
  W  W11  1  0.02250000  0.51711000  0.60074000  1
  W  W12  1  0.47750000  0.51711000  0.10074000  1
  W  W13  1  0.97750000  0.48289000  0.39926000  1
  W  W14  1  0.47750000  0.01711000  0.89926000  1
  W  W15  1  0.52250000  0.98289000  0.10074000  1
  O  O16  1  0.89855500  0.52432100  0.68902800  1
  O  O17  1  0.10144500  0.47567900  0.31097200  1
  O  O18  1  0.60144500  0.02432100  0.81097200  1
  O  O19  1  0.10144500  0.97567900  0.68902800  1
  O  O20  1  0.39855500  0.97567900  0.18902800  1
  O  O21  1  0.89855500  0.02432100  0.31097200  1
  O  O22  1  0.39855500  0.47567900  0.81097200  1
  O  O23  1  0.60144500  0.52432100  0.18902800  1
  O  O24  1  0.72720800  0.66005500  0.90099000  1
  O  O25  1  0.27279200  0.33994500  0.09901000  1
  O  O26  1  0.77279200  0.16005500  0.59901000  1
  O  O27  1  0.27279200  0.83994500  0.90099000  1
  O  O28  1  0.22720800  0.83994500  0.40099000  1
  O  O29  1  0.72720800  0.16005500  0.09901000  1
  O  O30  1  0.22720800  0.33994500  0.59901000  1
  O  O31  1  0.77279200  0.66005500  0.40099000  1
  O  O32  1  0.74648500  0.99596600  0.96530000  1
  O  O33  1  0.25351500  0.00403400  0.03470000  1
  O  O34  1  0.75351500  0.49596600  0.53470000  1
  O  O35  1  0.25351500  0.50403400  0.96530000  1
  O  O36  1  0.24648500  0.50403400  0.46530000  1
  O  O37  1  0.74648500  0.49596600  0.03470000  1
  O  O38  1  0.24648500  0.00403400  0.53470000  1
  O  O39  1  0.75351500  0.99596600  0.46530000  1
  O  O40  1  0.75816600  0.81011500  0.59265600  1
  O  O41  1  0.24183400  0.18988500  0.40734400  1
  O  O42  1  0.74183400  0.31011500  0.90734400  1
  O  O43  1  0.24183400  0.68988500  0.59265600  1
  O  O44  1  0.25816600  0.68988500  0.09265600  1
  O  O45  1  0.75816600  0.31011500  0.40734400  1
  O  O46  1  0.25816600  0.18988500  0.90734400  1
  O  O47  1  0.74183400  0.81011500  0.09265600  1
