# generated using pymatgen
data_KH2OsBr4N
_symmetry_space_group_name_H-M   'P 1'
_cell_length_a   7.75641900
_cell_length_b   8.52269021
_cell_length_c   8.52269021
_cell_angle_alpha   115.03073563
_cell_angle_beta   90.00000000
_cell_angle_gamma   90.00000000
_symmetry_Int_Tables_number   1
_chemical_formula_structural   KH2OsBr4N
_chemical_formula_sum   'K2 H4 Os2 Br8 N2'
_cell_volume   510.48344885
_cell_formula_units_Z   2
loop_
 _symmetry_equiv_pos_site_id
 _symmetry_equiv_pos_as_xyz
  1  'x, y, z'
loop_
 _atom_site_type_symbol
 _atom_site_label
 _atom_site_symmetry_multiplicity
 _atom_site_fract_x
 _atom_site_fract_y
 _atom_site_fract_z
 _atom_site_occupancy
  K  K0  1  0.81166500  0.33169500  0.66830500  1
  K  K1  1  0.31166500  0.66830500  0.33169500  1
  H  H2  1  0.97395900  0.54111200  0.45888800  1
  H  H3  1  0.47395900  0.45888800  0.54111200  1
  H  H4  1  0.52728100  0.85687000  0.14313000  1
  H  H5  1  0.02728100  0.14313000  0.85687000  1
  Os  Os6  1  0.78057500  0.83501000  0.16499000  1
  Os  Os7  1  0.28057500  0.16499000  0.83501000  1
  Br  Br8  1  0.68856800  0.53068900  0.09477000  1
  Br  Br9  1  0.18856800  0.46931100  0.90523100  1
  Br  Br10  1  0.18856800  0.09477000  0.53068900  1
  Br  Br11  1  0.68856800  0.90523100  0.46931100  1
  Br  Br12  1  0.73131600  0.76999900  0.85387600  1
  Br  Br13  1  0.23131600  0.23000100  0.14612400  1
  Br  Br14  1  0.23131600  0.85387600  0.76999900  1
  Br  Br15  1  0.73131600  0.14612400  0.23000100  1
  N  N16  1  0.99475200  0.82212500  0.17787500  1
  N  N17  1  0.49475200  0.17787500  0.82212500  1
