# generated using pymatgen
data_KCo3Cu(AsO4)3
_symmetry_space_group_name_H-M   'P 1'
_cell_length_a   8.95525917
_cell_length_b   8.95525917
_cell_length_c   6.92258180
_cell_angle_alpha   73.95081230
_cell_angle_beta   73.95081230
_cell_angle_gamma   92.34510766
_symmetry_Int_Tables_number   1
_chemical_formula_structural   KCo3Cu(AsO4)3
_chemical_formula_sum   'K2 Co6 Cu2 As6 O24'
_cell_volume   508.57986128
_cell_formula_units_Z   2
loop_
 _symmetry_equiv_pos_site_id
 _symmetry_equiv_pos_as_xyz
  1  'x, y, z'
loop_
 _atom_site_type_symbol
 _atom_site_label
 _atom_site_symmetry_multiplicity
 _atom_site_fract_x
 _atom_site_fract_y
 _atom_site_fract_z
 _atom_site_occupancy
  K  K0  1  0.51373700  0.48626300  0.25000000  1
  K  K1  1  0.48626300  0.51373700  0.75000000  1
  Co  Co2  1  0.56042000  0.87627700  0.37072900  1
  Co  Co3  1  0.43958000  0.12372300  0.62927100  1
  Co  Co4  1  0.12372300  0.43958000  0.12927100  1
  Co  Co5  1  0.87627700  0.56042000  0.87072900  1
  Co  Co6  1  0.24113500  0.75886500  0.25000000  1
  Co  Co7  1  0.75886500  0.24113500  0.75000000  1
  Cu  Cu8  1  0.99791200  0.00208800  0.25000000  1
  Cu  Cu9  1  0.00208800  0.99791200  0.75000000  1
  As  As10  1  0.37771800  0.14726800  0.12738000  1
  As  As11  1  0.62228200  0.85273200  0.87262000  1
  As  As12  1  0.85273200  0.62228200  0.37262000  1
  As  As13  1  0.14726800  0.37771800  0.62738000  1
  As  As14  1  0.78544600  0.21455400  0.25000000  1
  As  As15  1  0.21455400  0.78544600  0.75000000  1
  O  O16  1  0.22386700  0.99989300  0.18594700  1
  O  O17  1  0.77613300  0.00010700  0.81405300  1
  O  O18  1  0.00010700  0.77613300  0.31405300  1
  O  O19  1  0.99989300  0.22386700  0.68594700  1
  O  O20  1  0.47114300  0.09291400  0.31945800  1
  O  O21  1  0.52885700  0.90708600  0.68054200  1
  O  O22  1  0.90708600  0.52885700  0.18054200  1
  O  O23  1  0.09291400  0.47114300  0.81945800  1
  O  O24  1  0.49070500  0.83040000  0.11859100  1
  O  O25  1  0.50929500  0.16960000  0.88140900  1
  O  O26  1  0.16960000  0.50929500  0.38140900  1
  O  O27  1  0.83040000  0.49070500  0.61859100  1
  O  O28  1  0.67369300  0.25021400  0.47669700  1
  O  O29  1  0.32630700  0.74978600  0.52330300  1
  O  O30  1  0.74978600  0.32630700  0.02330300  1
  O  O31  1  0.25021400  0.67369300  0.97669700  1
  O  O32  1  0.77642900  0.01612100  0.26185300  1
  O  O33  1  0.22357100  0.98387900  0.73814700  1
  O  O34  1  0.98387900  0.22357100  0.23814700  1
  O  O35  1  0.01612100  0.77642900  0.76185300  1
  O  O36  1  0.67479200  0.68441600  0.37389000  1
  O  O37  1  0.32520800  0.31558400  0.62611000  1
  O  O38  1  0.31558400  0.32520800  0.12611000  1
  O  O39  1  0.68441600  0.67479200  0.87389000  1
