# generated using pymatgen
data_KH2CN5
_symmetry_space_group_name_H-M   'P 1'
_cell_length_a   9.94997300
_cell_length_b   7.01158200
_cell_length_c   7.32060680
_cell_angle_alpha   62.78925670
_cell_angle_beta   90.00000000
_cell_angle_gamma   90.00000000
_symmetry_Int_Tables_number   1
_chemical_formula_structural   KH2CN5
_chemical_formula_sum   'K4 H8 C4 N20'
_cell_volume   454.20118246
_cell_formula_units_Z   4
loop_
 _symmetry_equiv_pos_site_id
 _symmetry_equiv_pos_as_xyz
  1  'x, y, z'
loop_
 _atom_site_type_symbol
 _atom_site_label
 _atom_site_symmetry_multiplicity
 _atom_site_fract_x
 _atom_site_fract_y
 _atom_site_fract_z
 _atom_site_occupancy
  K  K0  1  0.62146400  0.21335300  0.77625900  1
  K  K1  1  0.37853600  0.78664700  0.22374100  1
  K  K2  1  0.12146400  0.28664700  0.22374100  1
  K  K3  1  0.87853600  0.71335300  0.77625900  1
  H  H4  1  0.29289900  0.23412800  0.64166400  1
  H  H5  1  0.70710100  0.76587200  0.35833600  1
  H  H6  1  0.79289900  0.26587200  0.35833600  1
  H  H7  1  0.20710100  0.73412800  0.64166400  1
  H  H8  1  0.21818300  0.83099300  0.81219000  1
  H  H9  1  0.78181700  0.16900700  0.18781000  1
  H  H10  1  0.71818300  0.66900700  0.18781000  1
  H  H11  1  0.28181700  0.33099300  0.81219000  1
  C  C12  1  0.10515900  0.23137900  0.74968200  1
  C  C13  1  0.89484100  0.76862100  0.25031800  1
  C  C14  1  0.60515900  0.26862100  0.25031800  1
  C  C15  1  0.39484100  0.73137900  0.74968200  1
  N  N16  1  0.47831300  0.80451100  0.84889400  1
  N  N17  1  0.52168700  0.19548900  0.15110600  1
  N  N18  1  0.97831300  0.69548900  0.15110600  1
  N  N19  1  0.02168700  0.30451100  0.84889400  1
  N  N20  1  0.40616400  0.30724000  0.33770600  1
  N  N21  1  0.59383600  0.69276000  0.66229400  1
  N  N22  1  0.90616400  0.19276000  0.66229400  1
  N  N23  1  0.09383600  0.80724000  0.33770600  1
  N  N24  1  0.03719900  0.15888300  0.63459300  1
  N  N25  1  0.96280100  0.84111700  0.36540700  1
  N  N26  1  0.53719900  0.34111700  0.36540700  1
  N  N27  1  0.46280100  0.65888300  0.63459300  1
  N  N28  1  0.24384400  0.22204000  0.76958400  1
  N  N29  1  0.75615600  0.77796000  0.23041600  1
  N  N30  1  0.74384400  0.27796000  0.23041600  1
  N  N31  1  0.25615600  0.72204000  0.76958400  1
  N  N32  1  0.60269600  0.77770400  0.78926100  1
  N  N33  1  0.39730400  0.22229600  0.21073900  1
  N  N34  1  0.10269600  0.72229600  0.21073900  1
  N  N35  1  0.89730400  0.27770400  0.78926100  1
