# generated using pymatgen
data_K4H5(SeO4)4
_symmetry_space_group_name_H-M   'P 1'
_cell_length_a   7.66135300
_cell_length_b   7.93003378
_cell_length_c   7.96790268
_cell_angle_alpha   72.23318446
_cell_angle_beta   86.78595100
_cell_angle_gamma   85.20907133
_symmetry_Int_Tables_number   1
_chemical_formula_structural   K4H5(SeO4)4
_chemical_formula_sum   'K4 H5 Se4 O16'
_cell_volume   459.15099549
_cell_formula_units_Z   1
loop_
 _symmetry_equiv_pos_site_id
 _symmetry_equiv_pos_as_xyz
  1  'x, y, z'
loop_
 _atom_site_type_symbol
 _atom_site_label
 _atom_site_symmetry_multiplicity
 _atom_site_fract_x
 _atom_site_fract_y
 _atom_site_fract_z
 _atom_site_occupancy
  K  K0  1  0.66504300  0.18840000  0.33672300  1
  K  K1  1  0.33495700  0.81160000  0.66327700  1
  K  K2  1  0.03252900  0.74687700  0.21668000  1
  K  K3  1  0.96747100  0.25312300  0.78332000  1
  H  H4  1  0.25170800  0.42458100  0.03135000  1
  H  H5  1  0.74829200  0.57541900  0.96865000  1
  H  H6  1  0.64281400  0.01231400  0.08070500  1
  H  H7  1  0.35718600  0.98768600  0.91929500  1
  H  H8  1  0.50000000  0.50000000  0.50000000  1
  Se  Se9  1  0.12933000  0.21814100  0.27885200  1
  Se  Se10  1  0.87067000  0.78185900  0.72114800  1
  Se  Se11  1  0.52961800  0.72104700  0.19934700  1
  Se  Se12  1  0.47038200  0.27895300  0.80065300  1
  O  O13  1  0.00546200  0.26978200  0.43525900  1
  O  O14  1  0.99453800  0.73021800  0.56474100  1
  O  O15  1  0.32318900  0.09805000  0.81556100  1
  O  O16  1  0.67681100  0.90195000  0.18443900  1
  O  O17  1  0.31145800  0.09553700  0.34820000  1
  O  O18  1  0.68854200  0.90446300  0.65180000  1
  O  O19  1  0.43254200  0.64106000  0.41094200  1
  O  O20  1  0.56745800  0.35894000  0.58905800  1
  O  O21  1  0.36936000  0.79765400  0.05055400  1
  O  O22  1  0.63064000  0.20234600  0.94944600  1
  O  O23  1  0.66403800  0.55567000  0.16277600  1
  O  O24  1  0.33596200  0.44433000  0.83722400  1
  O  O25  1  0.01449600  0.13695900  0.15376100  1
  O  O26  1  0.98550400  0.86304100  0.84623900  1
  O  O27  1  0.19118100  0.43129700  0.14722300  1
  O  O28  1  0.80881900  0.56870300  0.85277700  1
