# generated using pymatgen
data_K2Yb2(PO4)3
_symmetry_space_group_name_H-M   'P 1'
_cell_length_a   10.83116500
_cell_length_b   10.83116500
_cell_length_c   10.83116500
_cell_angle_alpha   90.00000000
_cell_angle_beta   90.00000000
_cell_angle_gamma   90.00000000
_symmetry_Int_Tables_number   1
_chemical_formula_structural   K2Yb2(PO4)3
_chemical_formula_sum   'K8 Yb8 P12 O48'
_cell_volume   1270.64875580
_cell_formula_units_Z   4
loop_
 _symmetry_equiv_pos_site_id
 _symmetry_equiv_pos_as_xyz
  1  'x, y, z'
loop_
 _atom_site_type_symbol
 _atom_site_label
 _atom_site_symmetry_multiplicity
 _atom_site_fract_x
 _atom_site_fract_y
 _atom_site_fract_z
 _atom_site_occupancy
  K  K0  1  0.05027600  0.05027600  0.05027600  1
  K  K1  1  0.44972400  0.94972400  0.55027600  1
  K  K2  1  0.94972400  0.55027600  0.44972400  1
  K  K3  1  0.55027600  0.44972400  0.94972400  1
  K  K4  1  0.81855300  0.81855300  0.81855300  1
  K  K5  1  0.68144700  0.18144700  0.31855300  1
  K  K6  1  0.18144700  0.31855300  0.68144700  1
  K  K7  1  0.31855300  0.68144700  0.18144700  1
  Yb  Yb8  1  0.33191100  0.33191100  0.33191100  1
  Yb  Yb9  1  0.16808900  0.66808900  0.83191100  1
  Yb  Yb10  1  0.66808900  0.83191100  0.16808900  1
  Yb  Yb11  1  0.83191100  0.16808900  0.66808900  1
  Yb  Yb12  1  0.60174700  0.60174700  0.60174700  1
  Yb  Yb13  1  0.89825300  0.39825300  0.10174700  1
  Yb  Yb14  1  0.39825300  0.10174700  0.89825300  1
  Yb  Yb15  1  0.10174700  0.89825300  0.39825300  1
  P  P16  1  0.01420100  0.21225500  0.37382500  1
  P  P17  1  0.48579900  0.78774500  0.87382500  1
  P  P18  1  0.98579900  0.71225500  0.12617500  1
  P  P19  1  0.37382500  0.01420100  0.21225500  1
  P  P20  1  0.51420100  0.28774500  0.62617500  1
  P  P21  1  0.87382500  0.48579900  0.78774500  1
  P  P22  1  0.12617500  0.98579900  0.71225500  1
  P  P23  1  0.62617500  0.51420100  0.28774500  1
  P  P24  1  0.21225500  0.37382500  0.01420100  1
  P  P25  1  0.71225500  0.12617500  0.98579900  1
  P  P26  1  0.28774500  0.62617500  0.51420100  1
  P  P27  1  0.78774500  0.87382500  0.48579900  1
  O  O28  1  0.01800600  0.07775400  0.32758600  1
  O  O29  1  0.48199400  0.92224600  0.82758600  1
  O  O30  1  0.98199400  0.57775400  0.17241400  1
  O  O31  1  0.32758600  0.01800600  0.07775400  1
  O  O32  1  0.51800600  0.42224600  0.67241400  1
  O  O33  1  0.82758600  0.48199400  0.92224600  1
  O  O34  1  0.17241400  0.98199400  0.57775400  1
  O  O35  1  0.67241400  0.51800600  0.42224600  1
  O  O36  1  0.07775400  0.32758600  0.01800600  1
  O  O37  1  0.57775400  0.17241400  0.98199400  1
  O  O38  1  0.42224600  0.67241400  0.51800600  1
  O  O39  1  0.92224600  0.82758600  0.48199400  1
  O  O40  1  0.04658300  0.79435400  0.22597000  1
  O  O41  1  0.45341700  0.20564600  0.72597000  1
  O  O42  1  0.95341700  0.29435400  0.27403000  1
  O  O43  1  0.22597000  0.04658300  0.79435400  1
  O  O44  1  0.54658300  0.70564600  0.77403000  1
  O  O45  1  0.72597000  0.45341700  0.20564600  1
  O  O46  1  0.27403000  0.95341700  0.29435400  1
  O  O47  1  0.77403000  0.54658300  0.70564600  1
  O  O48  1  0.79435400  0.22597000  0.04658300  1
  O  O49  1  0.29435400  0.27403000  0.95341700  1
  O  O50  1  0.70564600  0.77403000  0.54658300  1
  O  O51  1  0.20564600  0.72597000  0.45341700  1
  O  O52  1  0.27458400  0.51024600  0.43173300  1
  O  O53  1  0.22541600  0.48975400  0.93173300  1
  O  O54  1  0.72541600  0.01024600  0.06826700  1
  O  O55  1  0.43173300  0.27458400  0.51024600  1
  O  O56  1  0.77458400  0.98975400  0.56826700  1
  O  O57  1  0.93173300  0.22541600  0.48975400  1
  O  O58  1  0.06826700  0.72541600  0.01024600  1
  O  O59  1  0.56826700  0.77458400  0.98975400  1
  O  O60  1  0.51024600  0.43173300  0.27458400  1
  O  O61  1  0.01024600  0.06826700  0.72541600  1
  O  O62  1  0.98975400  0.56826700  0.77458400  1
  O  O63  1  0.48975400  0.93173300  0.22541600  1
  O  O64  1  0.14576400  0.25792600  0.40279300  1
  O  O65  1  0.35423600  0.74207400  0.90279300  1
  O  O66  1  0.85423600  0.75792600  0.09720700  1
  O  O67  1  0.40279300  0.14576400  0.25792600  1
  O  O68  1  0.64576400  0.24207400  0.59720700  1
  O  O69  1  0.90279300  0.35423600  0.74207400  1
  O  O70  1  0.09720700  0.85423600  0.75792600  1
  O  O71  1  0.59720700  0.64576400  0.24207400  1
  O  O72  1  0.25792600  0.40279300  0.14576400  1
  O  O73  1  0.75792600  0.09720700  0.85423600  1
  O  O74  1  0.24207400  0.59720700  0.64576400  1
  O  O75  1  0.74207400  0.90279300  0.35423600  1
