# generated using pymatgen
data_Mn2Se3(NO6)2
_symmetry_space_group_name_H-M   'P 1'
_cell_length_a   10.38444300
_cell_length_b   10.38444300
_cell_length_c   10.38444300
_cell_angle_alpha   90.00000000
_cell_angle_beta   90.00000000
_cell_angle_gamma   90.00000000
_symmetry_Int_Tables_number   1
_chemical_formula_structural   Mn2Se3(NO6)2
_chemical_formula_sum   'Mn8 Se12 N8 O48'
_cell_volume   1119.82361191
_cell_formula_units_Z   4
loop_
 _symmetry_equiv_pos_site_id
 _symmetry_equiv_pos_as_xyz
  1  'x, y, z'
loop_
 _atom_site_type_symbol
 _atom_site_label
 _atom_site_symmetry_multiplicity
 _atom_site_fract_x
 _atom_site_fract_y
 _atom_site_fract_z
 _atom_site_occupancy
  Mn  Mn0  1  0.33824100  0.33824100  0.33824100  1
  Mn  Mn1  1  0.16175900  0.66175900  0.83824100  1
  Mn  Mn2  1  0.66175900  0.83824100  0.16175900  1
  Mn  Mn3  1  0.83824100  0.16175900  0.66175900  1
  Mn  Mn4  1  0.60220800  0.60220800  0.60220800  1
  Mn  Mn5  1  0.89779200  0.39779200  0.10220800  1
  Mn  Mn6  1  0.39779200  0.10220800  0.89779200  1
  Mn  Mn7  1  0.10220800  0.89779200  0.39779200  1
  Se  Se8  1  0.02057900  0.21283000  0.37581700  1
  Se  Se9  1  0.47942100  0.78717000  0.87581700  1
  Se  Se10  1  0.97942100  0.71283000  0.12418300  1
  Se  Se11  1  0.37581700  0.02057900  0.21283000  1
  Se  Se12  1  0.52057900  0.28717000  0.62418300  1
  Se  Se13  1  0.87581700  0.47942100  0.78717000  1
  Se  Se14  1  0.12418300  0.97942100  0.71283000  1
  Se  Se15  1  0.62418300  0.52057900  0.28717000  1
  Se  Se16  1  0.21283000  0.37581700  0.02057900  1
  Se  Se17  1  0.71283000  0.12418300  0.97942100  1
  Se  Se18  1  0.28717000  0.62418300  0.52057900  1
  Se  Se19  1  0.78717000  0.87581700  0.47942100  1
  N  N20  1  0.04655900  0.04655900  0.04655900  1
  N  N21  1  0.45344100  0.95344100  0.54655900  1
  N  N22  1  0.95344100  0.54655900  0.45344100  1
  N  N23  1  0.54655900  0.45344100  0.95344100  1
  N  N24  1  0.81688200  0.81688200  0.81688200  1
  N  N25  1  0.68311800  0.18311800  0.31688200  1
  N  N26  1  0.18311800  0.31688200  0.68311800  1
  N  N27  1  0.31688200  0.68311800  0.18311800  1
  O  O28  1  0.00802600  0.05745300  0.32770200  1
  O  O29  1  0.49197400  0.94254600  0.82770200  1
  O  O30  1  0.99197400  0.55745400  0.17229800  1
  O  O31  1  0.32770200  0.00802600  0.05745300  1
  O  O32  1  0.50802600  0.44254700  0.67229800  1
  O  O33  1  0.82770200  0.49197400  0.94254600  1
  O  O34  1  0.17229800  0.99197400  0.55745400  1
  O  O35  1  0.67229800  0.50802600  0.44254700  1
  O  O36  1  0.05745300  0.32770200  0.00802600  1
  O  O37  1  0.55745400  0.17229800  0.99197400  1
  O  O38  1  0.44254700  0.67229800  0.50802600  1
  O  O39  1  0.94254600  0.82770200  0.49197400  1
  O  O40  1  0.26273700  0.48976500  0.43579900  1
  O  O41  1  0.23726300  0.51023500  0.93579900  1
  O  O42  1  0.73726300  0.98976500  0.06420100  1
  O  O43  1  0.43579900  0.26273700  0.48976500  1
  O  O44  1  0.76273700  0.01023500  0.56420100  1
  O  O45  1  0.93579900  0.23726300  0.51023500  1
  O  O46  1  0.06420100  0.73726300  0.98976500  1
  O  O47  1  0.56420100  0.76273700  0.01023500  1
  O  O48  1  0.48976500  0.43579900  0.26273700  1
  O  O49  1  0.98976500  0.06420100  0.73726300  1
  O  O50  1  0.01023500  0.56420100  0.76273700  1
  O  O51  1  0.51023500  0.93579900  0.23726300  1
  O  O52  1  0.04976300  0.80853600  0.23135700  1
  O  O53  1  0.45023700  0.19146400  0.73135700  1
  O  O54  1  0.95023700  0.30853600  0.26864300  1
  O  O55  1  0.23135700  0.04976300  0.80853600  1
  O  O56  1  0.54976300  0.69146400  0.76864300  1
  O  O57  1  0.73135700  0.45023700  0.19146400  1
  O  O58  1  0.26864300  0.95023700  0.30853600  1
  O  O59  1  0.76864300  0.54976300  0.69146400  1
  O  O60  1  0.80853600  0.23135700  0.04976300  1
  O  O61  1  0.30853600  0.26864300  0.95023700  1
  O  O62  1  0.69146400  0.76864300  0.54976300  1
  O  O63  1  0.19146400  0.73135700  0.45023700  1
  O  O64  1  0.17388300  0.24943700  0.40592500  1
  O  O65  1  0.32611700  0.75056300  0.90592500  1
  O  O66  1  0.82611700  0.74943700  0.09407500  1
  O  O67  1  0.40592500  0.17388300  0.24943700  1
  O  O68  1  0.67388300  0.25056300  0.59407500  1
  O  O69  1  0.90592500  0.32611700  0.75056300  1
  O  O70  1  0.09407500  0.82611700  0.74943700  1
  O  O71  1  0.59407500  0.67388300  0.25056300  1
  O  O72  1  0.24943700  0.40592500  0.17388300  1
  O  O73  1  0.74943700  0.09407500  0.82611700  1
  O  O74  1  0.25056300  0.59407500  0.67388300  1
  O  O75  1  0.75056300  0.90592500  0.32611700  1
