# generated using pymatgen
data_KCoF4
_symmetry_space_group_name_H-M   'P 1'
_cell_length_a   5.88112100
_cell_length_b   7.70236300
_cell_length_c   7.72393900
_cell_angle_alpha   90.00000000
_cell_angle_beta   90.00000000
_cell_angle_gamma   90.00000000
_symmetry_Int_Tables_number   1
_chemical_formula_structural   KCoF4
_chemical_formula_sum   'K4 Co4 F16'
_cell_volume   349.88307316
_cell_formula_units_Z   4
loop_
 _symmetry_equiv_pos_site_id
 _symmetry_equiv_pos_as_xyz
  1  'x, y, z'
loop_
 _atom_site_type_symbol
 _atom_site_label
 _atom_site_symmetry_multiplicity
 _atom_site_fract_x
 _atom_site_fract_y
 _atom_site_fract_z
 _atom_site_occupancy
  K  K0  1  0.49366500  0.00000000  0.50000000  1
  K  K1  1  0.50633500  0.50000000  0.00000000  1
  K  K2  1  0.43199300  0.00000000  0.00000000  1
  K  K3  1  0.56800700  0.50000000  0.50000000  1
  Co  Co4  1  0.99984900  0.24257100  0.25282300  1
  Co  Co5  1  0.99984900  0.75742900  0.74717700  1
  Co  Co6  1  0.00015100  0.25742900  0.75282300  1
  Co  Co7  1  0.00015100  0.74257100  0.24717700  1
  F  F8  1  0.10554800  0.99022400  0.26609800  1
  F  F9  1  0.10554800  0.00977600  0.73390200  1
  F  F10  1  0.89445200  0.50977600  0.76609800  1
  F  F11  1  0.89445200  0.49022400  0.23390200  1
  F  F12  1  0.29075100  0.29654700  0.31222800  1
  F  F13  1  0.29075100  0.70345300  0.68777200  1
  F  F14  1  0.70924900  0.20345300  0.81222800  1
  F  F15  1  0.70924900  0.79654700  0.18777200  1
  F  F16  1  0.09889900  0.25285400  0.00494700  1
  F  F17  1  0.09889900  0.74714600  0.99505300  1
  F  F18  1  0.90110100  0.24714600  0.50494700  1
  F  F19  1  0.90110100  0.75285400  0.49505300  1
  F  F20  1  0.28848300  0.67571200  0.29458800  1
  F  F21  1  0.28848300  0.32428800  0.70541200  1
  F  F22  1  0.71151700  0.82428800  0.79458800  1
  F  F23  1  0.71151700  0.17571200  0.20541200  1
