# generated using pymatgen
data_KGdTiO4
_symmetry_space_group_name_H-M   'P 1'
_cell_length_a   5.41075200
_cell_length_b   5.52534800
_cell_length_c   13.17142600
_cell_angle_alpha   90.00000000
_cell_angle_beta   90.00000000
_cell_angle_gamma   90.00000000
_symmetry_Int_Tables_number   1
_chemical_formula_structural   KGdTiO4
_chemical_formula_sum   'K4 Gd4 Ti4 O16'
_cell_volume   393.77674166
_cell_formula_units_Z   4
loop_
 _symmetry_equiv_pos_site_id
 _symmetry_equiv_pos_as_xyz
  1  'x, y, z'
loop_
 _atom_site_type_symbol
 _atom_site_label
 _atom_site_symmetry_multiplicity
 _atom_site_fract_x
 _atom_site_fract_y
 _atom_site_fract_z
 _atom_site_occupancy
  K  K0  1  0.25000000  0.47869900  0.59555500  1
  K  K1  1  0.75000000  0.52130100  0.40444500  1
  K  K2  1  0.25000000  0.97869900  0.40444500  1
  K  K3  1  0.75000000  0.02130100  0.59555500  1
  Gd  Gd4  1  0.25000000  0.97422200  0.10117300  1
  Gd  Gd5  1  0.75000000  0.02577800  0.89882700  1
  Gd  Gd6  1  0.25000000  0.47422200  0.89882700  1
  Gd  Gd7  1  0.75000000  0.52577800  0.10117300  1
  Ti  Ti8  1  0.25000000  0.49206000  0.24624300  1
  Ti  Ti9  1  0.75000000  0.50794000  0.75375700  1
  Ti  Ti10  1  0.25000000  0.99206000  0.75375700  1
  Ti  Ti11  1  0.75000000  0.00794000  0.24624300  1
  O  O12  1  0.00000000  0.75000000  0.79816300  1
  O  O13  1  0.00000000  0.25000000  0.20183700  1
  O  O14  1  0.50000000  0.25000000  0.20183700  1
  O  O15  1  0.50000000  0.75000000  0.79816300  1
  O  O16  1  0.25000000  0.56537500  0.06252700  1
  O  O17  1  0.75000000  0.43462500  0.93747300  1
  O  O18  1  0.25000000  0.06537500  0.93747300  1
  O  O19  1  0.75000000  0.93462500  0.06252700  1
  O  O20  1  0.00000000  0.75000000  0.22804500  1
  O  O21  1  0.00000000  0.25000000  0.77195500  1
  O  O22  1  0.50000000  0.25000000  0.77195500  1
  O  O23  1  0.50000000  0.75000000  0.22804500  1
  O  O24  1  0.25000000  0.96387500  0.62001600  1
  O  O25  1  0.75000000  0.03612500  0.37998400  1
  O  O26  1  0.25000000  0.46387500  0.37998400  1
  O  O27  1  0.75000000  0.53612500  0.62001600  1
