# generated using pymatgen
data_Rb2Ta2Si2O11
_symmetry_space_group_name_H-M   'P 1'
_cell_length_a   7.38773000
_cell_length_b   7.38773000
_cell_length_c   39.69310300
_cell_angle_alpha   90.00000000
_cell_angle_beta   90.00000000
_cell_angle_gamma   90.00000000
_symmetry_Int_Tables_number   1
_chemical_formula_structural   Rb2Ta2Si2O11
_chemical_formula_sum   'Rb16 Ta16 Si16 O88'
_cell_volume   2166.39218746
_cell_formula_units_Z   8
loop_
 _symmetry_equiv_pos_site_id
 _symmetry_equiv_pos_as_xyz
  1  'x, y, z'
loop_
 _atom_site_type_symbol
 _atom_site_label
 _atom_site_symmetry_multiplicity
 _atom_site_fract_x
 _atom_site_fract_y
 _atom_site_fract_z
 _atom_site_occupancy
  Rb  Rb0  1  0.03014500  0.03014500  0.37500000  1
  Rb  Rb1  1  0.96985500  0.96985500  0.87500000  1
  Rb  Rb2  1  0.96985500  0.03014500  0.62500000  1
  Rb  Rb3  1  0.03014500  0.96985500  0.12500000  1
  Rb  Rb4  1  0.01436000  0.47372900  0.07409400  1
  Rb  Rb5  1  0.98564000  0.52627100  0.57409400  1
  Rb  Rb6  1  0.52627100  0.01436000  0.32409400  1
  Rb  Rb7  1  0.98564000  0.47372900  0.92590600  1
  Rb  Rb8  1  0.47372900  0.98564000  0.82409400  1
  Rb  Rb9  1  0.01436000  0.52627100  0.42590600  1
  Rb  Rb10  1  0.47372900  0.01436000  0.67590600  1
  Rb  Rb11  1  0.52627100  0.98564000  0.17590600  1
  Rb  Rb12  1  0.50000000  0.38392900  0.00000000  1
  Rb  Rb13  1  0.50000000  0.61607100  0.50000000  1
  Rb  Rb14  1  0.61607100  0.50000000  0.25000000  1
  Rb  Rb15  1  0.38392900  0.50000000  0.75000000  1
  Ta  Ta16  1  0.26660300  0.49768100  0.16023500  1
  Ta  Ta17  1  0.73339700  0.50231900  0.66023500  1
  Ta  Ta18  1  0.50231900  0.26660300  0.41023500  1
  Ta  Ta19  1  0.73339700  0.49768100  0.83976500  1
  Ta  Ta20  1  0.49768100  0.73339700  0.91023500  1
  Ta  Ta21  1  0.26660300  0.50231900  0.33976500  1
  Ta  Ta22  1  0.49768100  0.26660300  0.58976500  1
  Ta  Ta23  1  0.50231900  0.73339700  0.08976500  1
  Ta  Ta24  1  0.50274500  0.23922300  0.09291400  1
  Ta  Ta25  1  0.49725500  0.76077700  0.59291400  1
  Ta  Ta26  1  0.76077700  0.50274500  0.34291400  1
  Ta  Ta27  1  0.49725500  0.23922300  0.90708600  1
  Ta  Ta28  1  0.23922300  0.49725500  0.84291400  1
  Ta  Ta29  1  0.50274500  0.76077700  0.40708600  1
  Ta  Ta30  1  0.23922300  0.50274500  0.65708600  1
  Ta  Ta31  1  0.76077700  0.49725500  0.15708600  1
  Si  Si32  1  0.00567900  0.22105300  0.20970300  1
  Si  Si33  1  0.99432100  0.77894700  0.70970300  1
  Si  Si34  1  0.77894700  0.00567900  0.45970300  1
  Si  Si35  1  0.99432100  0.22105300  0.79029700  1
  Si  Si36  1  0.22105300  0.99432100  0.95970300  1
  Si  Si37  1  0.00567900  0.77894700  0.29029700  1
  Si  Si38  1  0.22105300  0.00567900  0.54029700  1
  Si  Si39  1  0.77894700  0.99432100  0.04029700  1
  Si  Si40  1  0.00569100  0.21642100  0.29144700  1
  Si  Si41  1  0.99430900  0.78357900  0.79144700  1
  Si  Si42  1  0.78357900  0.00569100  0.54144700  1
  Si  Si43  1  0.99430900  0.21642100  0.70855300  1
  Si  Si44  1  0.21642100  0.99430900  0.04144700  1
  Si  Si45  1  0.00569100  0.78357900  0.20855300  1
  Si  Si46  1  0.21642100  0.00569100  0.45855300  1
  Si  Si47  1  0.78357900  0.99430900  0.95855300  1
  O  O48  1  0.29938200  0.17672100  0.05868600  1
  O  O49  1  0.70061800  0.82327900  0.55868600  1
  O  O50  1  0.82327900  0.29938200  0.30868600  1
  O  O51  1  0.70061800  0.17672100  0.94131400  1
  O  O52  1  0.17672100  0.70061800  0.80868600  1
  O  O53  1  0.29938200  0.82327900  0.44131400  1
  O  O54  1  0.17672100  0.29938200  0.69131400  1
  O  O55  1  0.82327900  0.70061800  0.19131400  1
  O  O56  1  0.32237600  0.30459700  0.12704100  1
  O  O57  1  0.67762400  0.69540300  0.62704100  1
  O  O58  1  0.69540300  0.32237600  0.37704100  1
  O  O59  1  0.67762400  0.30459700  0.87295900  1
  O  O60  1  0.30459700  0.67762400  0.87704100  1
  O  O61  1  0.32237600  0.69540300  0.37295900  1
  O  O62  1  0.30459700  0.32237600  0.62295900  1
  O  O63  1  0.69540300  0.67762400  0.12295900  1
  O  O64  1  0.00818200  0.00301600  0.20061200  1
  O  O65  1  0.99181800  0.99698400  0.70061200  1
  O  O66  1  0.99698400  0.00818200  0.45061200  1
  O  O67  1  0.99181800  0.00301600  0.79938800  1
  O  O68  1  0.00301600  0.99181800  0.95061200  1
  O  O69  1  0.00818200  0.99698400  0.29938800  1
  O  O70  1  0.00301600  0.00818200  0.54938800  1
  O  O71  1  0.99698400  0.99181800  0.04938800  1
  O  O72  1  0.24673000  0.00590500  0.00070900  1
  O  O73  1  0.75327000  0.99409500  0.50070900  1
  O  O74  1  0.99409500  0.24673000  0.25070900  1
  O  O75  1  0.75327000  0.00590500  0.99929100  1
  O  O76  1  0.00590500  0.75327000  0.75070900  1
  O  O77  1  0.24673000  0.99409500  0.49929100  1
  O  O78  1  0.00590500  0.24673000  0.74929100  1
  O  O79  1  0.99409500  0.75327000  0.24929100  1
  O  O80  1  0.69352100  0.17749100  0.05670900  1
  O  O81  1  0.30647900  0.82250900  0.55670900  1
  O  O82  1  0.82250900  0.69352100  0.30670900  1
  O  O83  1  0.30647900  0.17749100  0.94329100  1
  O  O84  1  0.17749100  0.30647900  0.80670900  1
  O  O85  1  0.69352100  0.82250900  0.44329100  1
  O  O86  1  0.17749100  0.69352100  0.69329100  1
  O  O87  1  0.82250900  0.30647900  0.19329100  1
  O  O88  1  0.69508100  0.69508100  0.37500000  1
  O  O89  1  0.30491900  0.30491900  0.87500000  1
  O  O90  1  0.30491900  0.69508100  0.62500000  1
  O  O91  1  0.69508100  0.30491900  0.12500000  1
  O  O92  1  0.49778800  0.48709000  0.07276200  1
  O  O93  1  0.50221200  0.51291000  0.57276200  1
  O  O94  1  0.51291000  0.49778800  0.32276200  1
  O  O95  1  0.50221200  0.48709000  0.92723800  1
  O  O96  1  0.48709000  0.50221200  0.82276200  1
  O  O97  1  0.49778800  0.51291000  0.42723800  1
  O  O98  1  0.48709000  0.49778800  0.67723800  1
  O  O99  1  0.51291000  0.50221200  0.17723800  1
  O  O100  1  0.32175500  0.32175500  0.37500000  1
  O  O101  1  0.67824500  0.67824500  0.87500000  1
  O  O102  1  0.67824500  0.32175500  0.62500000  1
  O  O103  1  0.32175500  0.67824500  0.12500000  1
  O  O104  1  0.39727900  0.08377900  0.24867800  1
  O  O105  1  0.60272100  0.91622100  0.74867800  1
  O  O106  1  0.91622100  0.39727900  0.49867800  1
  O  O107  1  0.60272100  0.08377900  0.75132200  1
  O  O108  1  0.08377900  0.60272100  0.99867800  1
  O  O109  1  0.39727900  0.91622100  0.25132200  1
  O  O110  1  0.08377900  0.39727900  0.50132200  1
  O  O111  1  0.91622100  0.60272100  0.00132200  1
  O  O112  1  0.19080400  0.30901300  0.19472100  1
  O  O113  1  0.80919600  0.69098700  0.69472100  1
  O  O114  1  0.69098700  0.19080400  0.44472100  1
  O  O115  1  0.80919600  0.30901300  0.80527900  1
  O  O116  1  0.30901300  0.80919600  0.94472100  1
  O  O117  1  0.19080400  0.69098700  0.30527900  1
  O  O118  1  0.30901300  0.19080400  0.55527900  1
  O  O119  1  0.69098700  0.80919600  0.05527900  1
  O  O120  1  0.01145800  0.49643300  0.14353700  1
  O  O121  1  0.98854200  0.50356700  0.64353700  1
  O  O122  1  0.50356700  0.01145800  0.39353700  1
  O  O123  1  0.98854200  0.49643300  0.85646300  1
  O  O124  1  0.49643300  0.98854200  0.89353700  1
  O  O125  1  0.01145800  0.50356700  0.35646300  1
  O  O126  1  0.49643300  0.01145800  0.60646300  1
  O  O127  1  0.50356700  0.98854200  0.10646300  1
  O  O128  1  0.19063300  0.29976000  0.30756400  1
  O  O129  1  0.80936700  0.70024000  0.80756400  1
  O  O130  1  0.70024000  0.19063300  0.55756400  1
  O  O131  1  0.80936700  0.29976000  0.69243600  1
  O  O132  1  0.29976000  0.80936700  0.05756400  1
  O  O133  1  0.19063300  0.70024000  0.19243600  1
  O  O134  1  0.29976000  0.19063300  0.44243600  1
  O  O135  1  0.70024000  0.80936700  0.94243600  1
