# generated using pymatgen
data_K2Zn(SO7)2
_symmetry_space_group_name_H-M   'P 1'
_cell_length_a   12.22803400
_cell_length_b   5.90081500
_cell_length_c   8.88613830
_cell_angle_alpha   78.18012112
_cell_angle_beta   90.00000000
_cell_angle_gamma   90.00000000
_symmetry_Int_Tables_number   1
_chemical_formula_structural   K2Zn(SO7)2
_chemical_formula_sum   'K4 Zn2 S4 O28'
_cell_volume   627.58717386
_cell_formula_units_Z   2
loop_
 _symmetry_equiv_pos_site_id
 _symmetry_equiv_pos_as_xyz
  1  'x, y, z'
loop_
 _atom_site_type_symbol
 _atom_site_label
 _atom_site_symmetry_multiplicity
 _atom_site_fract_x
 _atom_site_fract_y
 _atom_site_fract_z
 _atom_site_occupancy
  K  K0  1  0.65713900  0.83625100  0.86722900  1
  K  K1  1  0.34286100  0.16374900  0.13277100  1
  K  K2  1  0.15713900  0.16374900  0.63277100  1
  K  K3  1  0.84286100  0.83625100  0.36722900  1
  Zn  Zn4  1  0.50000000  0.50000000  0.50000000  1
  Zn  Zn5  1  0.00000000  0.50000000  0.00000000  1
  S  S6  1  0.35946400  0.75856400  0.89989900  1
  S  S7  1  0.64053600  0.24143600  0.10010100  1
  S  S8  1  0.85946500  0.24143600  0.60010100  1
  S  S9  1  0.14053600  0.75856400  0.39989900  1
  O  O10  1  0.31823000  0.53318400  0.87445100  1
  O  O11  1  0.68177000  0.46681600  0.12554900  1
  O  O12  1  0.81823000  0.46681600  0.62554900  1
  O  O13  1  0.18177000  0.53318400  0.37445100  1
  O  O14  1  0.07838900  0.73176500  0.54570000  1
  O  O15  1  0.92161100  0.26823500  0.45430000  1
  O  O16  1  0.57838900  0.26823500  0.95430000  1
  O  O17  1  0.42161100  0.73176500  0.04570000  1
  O  O18  1  0.38829700  0.30956500  0.62178200  1
  O  O19  1  0.61170300  0.69043500  0.37821800  1
  O  O20  1  0.88829700  0.69043500  0.87821800  1
  O  O21  1  0.11170300  0.30956500  0.12178200  1
  O  O22  1  0.43949100  0.86081800  0.77305800  1
  O  O23  1  0.56050900  0.13918200  0.22694200  1
  O  O24  1  0.93949100  0.13918200  0.72694200  1
  O  O25  1  0.06050900  0.86081800  0.27305800  1
  O  O26  1  0.11278300  0.39112000  0.87876500  1
  O  O27  1  0.88721700  0.60888000  0.12123500  1
  O  O28  1  0.61278300  0.60888000  0.62123500  1
  O  O29  1  0.38721700  0.39112000  0.37876500  1
  O  O30  1  0.44974200  0.85412500  0.50949900  1
  O  O31  1  0.55025800  0.14587500  0.49050100  1
  O  O32  1  0.94974200  0.14587500  0.99050100  1
  O  O33  1  0.05025800  0.85412500  0.00949900  1
  O  O34  1  0.26659200  0.92129600  0.89591600  1
  O  O35  1  0.73340800  0.07870400  0.10408400  1
  O  O36  1  0.76659200  0.07870400  0.60408400  1
  O  O37  1  0.23340800  0.92129600  0.39591600  1
