# generated using pymatgen
data_NaZnBP2O11
_symmetry_space_group_name_H-M   'P 1'
_cell_length_a   10.05422229
_cell_length_b   10.05422229
_cell_length_c   14.68039800
_cell_angle_alpha   90.00000000
_cell_angle_beta   90.00000000
_cell_angle_gamma   120.00000190
_symmetry_Int_Tables_number   1
_chemical_formula_structural   NaZnBP2O11
_chemical_formula_sum   'Na6 Zn6 B6 P12 O66'
_cell_volume   1285.18432176
_cell_formula_units_Z   6
loop_
 _symmetry_equiv_pos_site_id
 _symmetry_equiv_pos_as_xyz
  1  'x, y, z'
loop_
 _atom_site_type_symbol
 _atom_site_label
 _atom_site_symmetry_multiplicity
 _atom_site_fract_x
 _atom_site_fract_y
 _atom_site_fract_z
 _atom_site_occupancy
  Na  Na0  1  0.26335500  0.52671000  0.25000000  1
  Na  Na1  1  0.47329000  0.73664500  0.58333300  1
  Na  Na2  1  0.73664500  0.47329000  0.75000000  1
  Na  Na3  1  0.52671000  0.26335500  0.08333300  1
  Na  Na4  1  0.26335500  0.73664500  0.91666700  1
  Na  Na5  1  0.73664500  0.26335500  0.41666700  1
  Zn  Zn6  1  0.50336700  0.00673400  0.25000000  1
  Zn  Zn7  1  0.99326600  0.49663300  0.58333300  1
  Zn  Zn8  1  0.49663300  0.99326600  0.75000000  1
  Zn  Zn9  1  0.00673400  0.50336700  0.08333300  1
  Zn  Zn10  1  0.50336700  0.49663300  0.91666700  1
  Zn  Zn11  1  0.49663300  0.50336700  0.41666700  1
  B  B12  1  0.84175600  0.68351300  0.25000000  1
  B  B13  1  0.31648700  0.15824400  0.58333300  1
  B  B14  1  0.15824400  0.31648700  0.75000000  1
  B  B15  1  0.68351300  0.84175600  0.08333300  1
  B  B16  1  0.84175600  0.15824400  0.91666700  1
  B  B17  1  0.15824400  0.84175600  0.41666700  1
  P  P18  1  0.37840700  0.14945900  0.40280800  1
  P  P19  1  0.85054100  0.22894800  0.73614100  1
  P  P20  1  0.62159300  0.85054100  0.90280800  1
  P  P21  1  0.14945900  0.37840700  0.93052500  1
  P  P22  1  0.77105200  0.62159300  0.06947500  1
  P  P23  1  0.14945900  0.77105200  0.23614100  1
  P  P24  1  0.22894800  0.85054100  0.59719200  1
  P  P25  1  0.85054100  0.62159300  0.43052500  1
  P  P26  1  0.22894800  0.37840700  0.56947500  1
  P  P27  1  0.77105200  0.14945900  0.09719200  1
  P  P28  1  0.62159300  0.77105200  0.26385900  1
  P  P29  1  0.37840700  0.22894800  0.76385900  1
  O  O30  1  0.22985200  0.34547000  0.13534600  1
  O  O31  1  0.65453000  0.88438200  0.46867900  1
  O  O32  1  0.77014800  0.65453000  0.63534600  1
  O  O33  1  0.34547000  0.22985200  0.19798800  1
  O  O34  1  0.11561800  0.77014800  0.80201200  1
  O  O35  1  0.34547000  0.11561800  0.96867900  1
  O  O36  1  0.88438200  0.65453000  0.86465400  1
  O  O37  1  0.65453000  0.77014800  0.69798800  1
  O  O38  1  0.88438200  0.22985200  0.30201200  1
  O  O39  1  0.11561800  0.34547000  0.36465400  1
  O  O40  1  0.77014800  0.11561800  0.53132100  1
  O  O41  1  0.22985200  0.88438200  0.03132100  1
  O  O42  1  0.22024200  0.00000000  0.00000000  1
  O  O43  1  0.00000000  0.22024200  0.33333300  1
  O  O44  1  0.77975800  0.00000000  0.50000000  1
  O  O45  1  0.77975800  0.77975800  0.66666700  1
  O  O46  1  0.00000000  0.77975800  0.83333300  1
  O  O47  1  0.22024200  0.22024200  0.16666700  1
  O  O48  1  0.42057000  0.17175900  0.50763800  1
  O  O49  1  0.82824100  0.24881100  0.84097100  1
  O  O50  1  0.57943000  0.82824100  0.00763800  1
  O  O51  1  0.17175900  0.42057000  0.82569500  1
  O  O52  1  0.75118900  0.57943000  0.17430500  1
  O  O53  1  0.17175900  0.75118900  0.34097100  1
  O  O54  1  0.24881100  0.82824100  0.49236200  1
  O  O55  1  0.82824100  0.57943000  0.32569500  1
  O  O56  1  0.24881100  0.42057000  0.67430500  1
  O  O57  1  0.75118900  0.17175900  0.99236200  1
  O  O58  1  0.57943000  0.75118900  0.15902900  1
  O  O59  1  0.42057000  0.24881100  0.65902900  1
  O  O60  1  0.37675800  0.29296800  0.36867400  1
  O  O61  1  0.70703200  0.08378900  0.70200700  1
  O  O62  1  0.62324200  0.70703200  0.86867400  1
  O  O63  1  0.29296800  0.37675800  0.96466000  1
  O  O64  1  0.91621100  0.62324200  0.03534000  1
  O  O65  1  0.29296800  0.91621100  0.20200700  1
  O  O66  1  0.08378900  0.70703200  0.63132600  1
  O  O67  1  0.70703200  0.62324200  0.46466000  1
  O  O68  1  0.08378900  0.37675800  0.53534000  1
  O  O69  1  0.91621100  0.29296800  0.13132600  1
  O  O70  1  0.62324200  0.91621100  0.29799300  1
  O  O71  1  0.37675800  0.08378900  0.79799300  1
  O  O72  1  0.21675700  0.00423200  0.39010700  1
  O  O73  1  0.99576800  0.21252500  0.72344000  1
  O  O74  1  0.78324300  0.99576800  0.89010700  1
  O  O75  1  0.00423200  0.21675700  0.94322600  1
  O  O76  1  0.78747500  0.78324300  0.05677400  1
  O  O77  1  0.00423200  0.78747500  0.22344000  1
  O  O78  1  0.21252500  0.99576800  0.60989300  1
  O  O79  1  0.99576800  0.78324300  0.44322600  1
  O  O80  1  0.21252500  0.21675700  0.55677400  1
  O  O81  1  0.78747500  0.00423200  0.10989300  1
  O  O82  1  0.78324300  0.78747500  0.27656000  1
  O  O83  1  0.21675700  0.21252500  0.77656000  1
  O  O84  1  0.62643200  0.13131300  0.14492000  1
  O  O85  1  0.86868700  0.49511900  0.47825300  1
  O  O86  1  0.37356800  0.86868700  0.64492000  1
  O  O87  1  0.13131300  0.62643200  0.18841400  1
  O  O88  1  0.50488100  0.37356800  0.81158600  1
  O  O89  1  0.13131300  0.50488100  0.97825300  1
  O  O90  1  0.49511900  0.86868700  0.85508000  1
  O  O91  1  0.86868700  0.37356800  0.68841400  1
  O  O92  1  0.49511900  0.62643200  0.31158600  1
  O  O93  1  0.50488100  0.13131300  0.35508000  1
  O  O94  1  0.37356800  0.50488100  0.52174700  1
  O  O95  1  0.62643200  0.49511900  0.02174700  1
