# generated using pymatgen
data_MnV8O24
_symmetry_space_group_name_H-M   'P 1'
_cell_length_a   8.02347000
_cell_length_b   11.75795521
_cell_length_c   10.69503729
_cell_angle_alpha   90.75985535
_cell_angle_beta   90.00000000
_cell_angle_gamma   90.00000000
_symmetry_Int_Tables_number   1
_chemical_formula_structural   MnV8O24
_chemical_formula_sum   'Mn2 V16 O48'
_cell_volume   1008.87682220
_cell_formula_units_Z   2
loop_
 _symmetry_equiv_pos_site_id
 _symmetry_equiv_pos_as_xyz
  1  'x, y, z'
loop_
 _atom_site_type_symbol
 _atom_site_label
 _atom_site_symmetry_multiplicity
 _atom_site_fract_x
 _atom_site_fract_y
 _atom_site_fract_z
 _atom_site_occupancy
  Mn  Mn0  1  0.00000000  0.00000000  0.00000000  1
  Mn  Mn1  1  0.50000000  0.00000000  0.50000000  1
  V  V2  1  0.53955800  0.64241400  0.91504000  1
  V  V3  1  0.46044200  0.35758600  0.08496000  1
  V  V4  1  0.03955800  0.35758600  0.58496000  1
  V  V5  1  0.96044200  0.64241400  0.41504000  1
  V  V6  1  0.97095100  0.66235000  0.97485000  1
  V  V7  1  0.02904900  0.33765000  0.02515000  1
  V  V8  1  0.47095100  0.33765000  0.52515000  1
  V  V9  1  0.52904900  0.66235000  0.47485000  1
  V  V10  1  0.72412900  0.35648700  0.79894800  1
  V  V11  1  0.27587100  0.64351300  0.20105200  1
  V  V12  1  0.22412900  0.64351300  0.70105200  1
  V  V13  1  0.77587100  0.35648700  0.29894800  1
  V  V14  1  0.83916800  0.64748100  0.68760500  1
  V  V15  1  0.16083200  0.35251900  0.31239500  1
  V  V16  1  0.33916800  0.35251900  0.81239500  1
  V  V17  1  0.66083200  0.64748100  0.18760500  1
  O  O18  1  0.28712100  0.99117000  0.49062600  1
  O  O19  1  0.71287900  0.00883000  0.50937400  1
  O  O20  1  0.78712100  0.00883000  0.00937400  1
  O  O21  1  0.21287900  0.99117000  0.99062600  1
  O  O22  1  0.53873200  0.38769200  0.91738600  1
  O  O23  1  0.46126800  0.61230800  0.08261400  1
  O  O24  1  0.03873200  0.61230800  0.58261400  1
  O  O25  1  0.96126800  0.38769200  0.41738600  1
  O  O26  1  0.51987400  0.37682200  0.68812700  1
  O  O27  1  0.48012600  0.62317800  0.31187300  1
  O  O28  1  0.01987400  0.62317800  0.81187300  1
  O  O29  1  0.98012600  0.37682200  0.18812700  1
  O  O30  1  0.87992800  0.39627500  0.92391300  1
  O  O31  1  0.12007200  0.60372500  0.07608700  1
  O  O32  1  0.37992800  0.60372500  0.57608700  1
  O  O33  1  0.62007200  0.39627500  0.42391300  1
  O  O34  1  0.24017900  0.77867700  0.70551200  1
  O  O35  1  0.75982100  0.22132300  0.29448800  1
  O  O36  1  0.74017900  0.22132300  0.79448800  1
  O  O37  1  0.25982100  0.77867700  0.20551200  1
  O  O38  1  0.52205100  0.99423100  0.65935400  1
  O  O39  1  0.47794900  0.00576900  0.34064600  1
  O  O40  1  0.02205100  0.00576900  0.84064600  1
  O  O41  1  0.97794900  0.99423100  0.15935400  1
  O  O42  1  0.74101200  0.62305200  0.52485300  1
  O  O43  1  0.25898800  0.37694800  0.47514700  1
  O  O44  1  0.24101200  0.37694800  0.97514700  1
  O  O45  1  0.75898800  0.62305200  0.02485300  1
  O  O46  1  0.85386000  0.40590900  0.66759300  1
  O  O47  1  0.14614000  0.59409100  0.33240700  1
  O  O48  1  0.35386000  0.59409100  0.83240700  1
  O  O49  1  0.64614000  0.40590900  0.16759300  1
  O  O50  1  0.81862400  0.78216600  0.70331500  1
  O  O51  1  0.18137600  0.21783400  0.29668500  1
  O  O52  1  0.31862400  0.21783400  0.79668500  1
  O  O53  1  0.68137600  0.78216600  0.20331500  1
  O  O54  1  0.53866000  0.77742500  0.90161400  1
  O  O55  1  0.46134000  0.22257500  0.09838600  1
  O  O56  1  0.03866000  0.22257500  0.59838600  1
  O  O57  1  0.96134000  0.77742500  0.40161400  1
  O  O58  1  0.98344200  0.79930200  0.98728600  1
  O  O59  1  0.01655800  0.20069800  0.01271400  1
  O  O60  1  0.48344200  0.20069800  0.51271400  1
  O  O61  1  0.51655800  0.79930200  0.48728600  1
  O  O62  1  0.68559200  0.58703400  0.79004500  1
  O  O63  1  0.31440800  0.41296600  0.20995500  1
  O  O64  1  0.18559200  0.41296600  0.70995500  1
  O  O65  1  0.81440800  0.58703400  0.29004500  1
