# generated using pymatgen
data_KO4F
_symmetry_space_group_name_H-M   'P 1'
_cell_length_a   6.39725400
_cell_length_b   11.21500100
_cell_length_c   12.91405000
_cell_angle_alpha   90.00000000
_cell_angle_beta   90.00000000
_cell_angle_gamma   90.00000000
_symmetry_Int_Tables_number   1
_chemical_formula_structural   KO4F
_chemical_formula_sum   'K8 O32 F8'
_cell_volume   926.52122929
_cell_formula_units_Z   8
loop_
 _symmetry_equiv_pos_site_id
 _symmetry_equiv_pos_as_xyz
  1  'x, y, z'
loop_
 _atom_site_type_symbol
 _atom_site_label
 _atom_site_symmetry_multiplicity
 _atom_site_fract_x
 _atom_site_fract_y
 _atom_site_fract_z
 _atom_site_occupancy
  K  K0  1  0.30341000  0.55870300  0.65679900  1
  K  K1  1  0.69659000  0.44129700  0.34320100  1
  K  K2  1  0.19659000  0.05870300  0.34320100  1
  K  K3  1  0.69659000  0.94129700  0.15679900  1
  K  K4  1  0.80341000  0.94129700  0.65679900  1
  K  K5  1  0.30341000  0.05870300  0.84320100  1
  K  K6  1  0.80341000  0.44129700  0.84320100  1
  K  K7  1  0.19659000  0.55870300  0.15679900  1
  O  O8  1  0.12060200  0.64702500  0.85390600  1
  O  O9  1  0.87939800  0.35297500  0.14609400  1
  O  O10  1  0.37939800  0.14702500  0.14609400  1
  O  O11  1  0.87939800  0.85297500  0.35390600  1
  O  O12  1  0.62060200  0.85297500  0.85390600  1
  O  O13  1  0.12060200  0.14702500  0.64609400  1
  O  O14  1  0.62060200  0.35297500  0.64609400  1
  O  O15  1  0.37939800  0.64702500  0.35390600  1
  O  O16  1  0.26719000  0.64040700  0.91618200  1
  O  O17  1  0.73281000  0.35959300  0.08381800  1
  O  O18  1  0.23281000  0.14040700  0.08381800  1
  O  O19  1  0.73281000  0.85959300  0.41618200  1
  O  O20  1  0.76719000  0.85959300  0.91618200  1
  O  O21  1  0.26719000  0.14040700  0.58381800  1
  O  O22  1  0.76719000  0.35959300  0.58381800  1
  O  O23  1  0.23281000  0.64040700  0.41618200  1
  O  O24  1  0.24516500  0.87055100  0.53451000  1
  O  O25  1  0.75483500  0.12944900  0.46549000  1
  O  O26  1  0.25483500  0.37055100  0.46549000  1
  O  O27  1  0.75483500  0.62944900  0.03451000  1
  O  O28  1  0.74516500  0.62944900  0.53451000  1
  O  O29  1  0.24516500  0.37055100  0.96549000  1
  O  O30  1  0.74516500  0.12944900  0.96549000  1
  O  O31  1  0.25483500  0.87055100  0.03451000  1
  O  O32  1  0.35288000  0.83579400  0.60830300  1
  O  O33  1  0.64712000  0.16420600  0.39169700  1
  O  O34  1  0.14712000  0.33579400  0.39169700  1
  O  O35  1  0.64712000  0.66420600  0.10830300  1
  O  O36  1  0.85288000  0.66420600  0.60830300  1
  O  O37  1  0.35288000  0.33579400  0.89169700  1
  O  O38  1  0.85288000  0.16420600  0.89169700  1
  O  O39  1  0.14712000  0.83579400  0.10830300  1
  F  F40  1  0.10752700  0.88797500  0.76820200  1
  F  F41  1  0.89247300  0.11202500  0.23179800  1
  F  F42  1  0.39247300  0.38797500  0.23179800  1
  F  F43  1  0.89247300  0.61202500  0.26820200  1
  F  F44  1  0.60752700  0.61202500  0.76820200  1
  F  F45  1  0.10752700  0.38797500  0.73179800  1
  F  F46  1  0.60752700  0.11202500  0.73179800  1
  F  F47  1  0.39247300  0.88797500  0.26820200  1
