# generated using pymatgen
data_Li3SbF6
_symmetry_space_group_name_H-M   'P 1'
_cell_length_a   5.46774294
_cell_length_b   7.78814149
_cell_length_c   7.63906362
_cell_angle_alpha   77.95298235
_cell_angle_beta   104.65583087
_cell_angle_gamma   129.58117834
_symmetry_Int_Tables_number   1
_chemical_formula_structural   Li3SbF6
_chemical_formula_sum   'Li3 Sb1 F6'
_cell_volume   242.06469932
_cell_formula_units_Z   1
loop_
 _symmetry_equiv_pos_site_id
 _symmetry_equiv_pos_as_xyz
  1  'x, y, z'
loop_
 _atom_site_type_symbol
 _atom_site_label
 _atom_site_symmetry_multiplicity
 _atom_site_fract_x
 _atom_site_fract_y
 _atom_site_fract_z
 _atom_site_occupancy
  Li  Li0  1  0.00000000  0.00000000  0.50000000  1
  Li  Li1  1  0.50000000  0.50000000  0.00000000  1
  Li  Li2  1  0.00000000  0.50000000  0.00000000  1
  Sb  Sb3  1  0.00000000  0.00000000  0.00000000  1
  F  F4  1  0.04696600  0.30710600  0.91136400  1
  F  F5  1  0.95303400  0.69289400  0.08863600  1
  F  F6  1  0.92715600  0.91108900  0.72580900  1
  F  F7  1  0.07284400  0.08891100  0.27419100  1
  F  F8  1  0.47167400  0.73211100  0.99688800  1
  F  F9  1  0.52832600  0.26788900  0.00311200  1
