# generated using pymatgen
data_K3Cr2(AsO4)3
_symmetry_space_group_name_H-M   'P 1'
_cell_length_a   11.09549669
_cell_length_b   11.09549669
_cell_length_c   11.09549669
_cell_angle_alpha   109.47122063
_cell_angle_beta   109.47122063
_cell_angle_gamma   109.47122063
_symmetry_Int_Tables_number   1
_chemical_formula_structural   K3Cr2(AsO4)3
_chemical_formula_sum   'K12 Cr8 As12 O48'
_cell_volume   1051.52197637
_cell_formula_units_Z   4
loop_
 _symmetry_equiv_pos_site_id
 _symmetry_equiv_pos_as_xyz
  1  'x, y, z'
loop_
 _atom_site_type_symbol
 _atom_site_label
 _atom_site_symmetry_multiplicity
 _atom_site_fract_x
 _atom_site_fract_y
 _atom_site_fract_z
 _atom_site_occupancy
  K  K0  1  0.25000000  0.37500000  0.12500000  1
  K  K1  1  0.75000000  0.62500000  0.87500000  1
  K  K2  1  0.75000000  0.12500000  0.37500000  1
  K  K3  1  0.12500000  0.25000000  0.37500000  1
  K  K4  1  0.37500000  0.75000000  0.12500000  1
  K  K5  1  0.25000000  0.87500000  0.62500000  1
  K  K6  1  0.87500000  0.75000000  0.62500000  1
  K  K7  1  0.62500000  0.25000000  0.87500000  1
  K  K8  1  0.37500000  0.12500000  0.25000000  1
  K  K9  1  0.62500000  0.87500000  0.75000000  1
  K  K10  1  0.12500000  0.37500000  0.75000000  1
  K  K11  1  0.87500000  0.62500000  0.25000000  1
  Cr  Cr12  1  0.00000000  0.00000000  0.00000000  1
  Cr  Cr13  1  0.50000000  0.00000000  0.50000000  1
  Cr  Cr14  1  0.00000000  0.50000000  0.50000000  1
  Cr  Cr15  1  0.50000000  0.00000000  0.00000000  1
  Cr  Cr16  1  0.50000000  0.50000000  0.00000000  1
  Cr  Cr17  1  0.50000000  0.50000000  0.50000000  1
  Cr  Cr18  1  0.00000000  0.00000000  0.50000000  1
  Cr  Cr19  1  0.00000000  0.50000000  0.00000000  1
  As  As20  1  0.25000000  0.62500000  0.37500000  1
  As  As21  1  0.75000000  0.37500000  0.62500000  1
  As  As22  1  0.75000000  0.87500000  0.12500000  1
  As  As23  1  0.37500000  0.25000000  0.62500000  1
  As  As24  1  0.62500000  0.75000000  0.37500000  1
  As  As25  1  0.25000000  0.12500000  0.87500000  1
  As  As26  1  0.12500000  0.75000000  0.87500000  1
  As  As27  1  0.87500000  0.25000000  0.12500000  1
  As  As28  1  0.62500000  0.37500000  0.25000000  1
  As  As29  1  0.37500000  0.62500000  0.75000000  1
  As  As30  1  0.87500000  0.12500000  0.75000000  1
  As  As31  1  0.12500000  0.87500000  0.25000000  1
  O  O32  1  0.50241200  0.39558100  0.30788000  1
  O  O33  1  0.49758800  0.60441900  0.69212000  1
  O  O34  1  0.58770100  0.19453200  0.19212000  1
  O  O35  1  0.91229900  0.10441900  0.60683100  1
  O  O36  1  0.30788000  0.50241200  0.39558100  1
  O  O37  1  0.30546800  0.91229900  0.30788000  1
  O  O38  1  0.41229900  0.80546800  0.80788000  1
  O  O39  1  0.08770100  0.89558100  0.39316900  1
  O  O40  1  0.69212000  0.49758800  0.60441900  1
  O  O41  1  0.69453200  0.08770100  0.69212000  1
  O  O42  1  0.99758800  0.30546800  0.89316900  1
  O  O43  1  0.19212000  0.58770100  0.19453200  1
  O  O44  1  0.10441900  0.99758800  0.19212000  1
  O  O45  1  0.00241200  0.69453200  0.10683100  1
  O  O46  1  0.80788000  0.41229900  0.80546800  1
  O  O47  1  0.89558100  0.00241200  0.80788000  1
  O  O48  1  0.60683100  0.91229900  0.10441900  1
  O  O49  1  0.19453200  0.50241200  0.60683100  1
  O  O50  1  0.39316900  0.08770100  0.89558100  1
  O  O51  1  0.80546800  0.49758800  0.39316900  1
  O  O52  1  0.89316900  0.99758800  0.30546800  1
  O  O53  1  0.39558100  0.58770100  0.89316900  1
  O  O54  1  0.10683100  0.00241200  0.69453200  1
  O  O55  1  0.60441900  0.41229900  0.10683100  1
  O  O56  1  0.39558100  0.30788000  0.50241200  1
  O  O57  1  0.58770100  0.89316900  0.39558100  1
  O  O58  1  0.60441900  0.69212000  0.49758800  1
  O  O59  1  0.41229900  0.10683100  0.60441900  1
  O  O60  1  0.10441900  0.60683100  0.91229900  1
  O  O61  1  0.99758800  0.19212000  0.10441900  1
  O  O62  1  0.89558100  0.39316900  0.08770100  1
  O  O63  1  0.00241200  0.80788000  0.89558100  1
  O  O64  1  0.30546800  0.89316900  0.99758800  1
  O  O65  1  0.91229900  0.30788000  0.30546800  1
  O  O66  1  0.69453200  0.10683100  0.00241200  1
  O  O67  1  0.08770100  0.69212000  0.69453200  1
  O  O68  1  0.19453200  0.19212000  0.58770100  1
  O  O69  1  0.50241200  0.60683100  0.19453200  1
  O  O70  1  0.80546800  0.80788000  0.41229900  1
  O  O71  1  0.49758800  0.39316900  0.80546800  1
  O  O72  1  0.30788000  0.30546800  0.91229900  1
  O  O73  1  0.69212000  0.69453200  0.08770100  1
  O  O74  1  0.19212000  0.10441900  0.99758800  1
  O  O75  1  0.80788000  0.89558100  0.00241200  1
  O  O76  1  0.89316900  0.39558100  0.58770100  1
  O  O77  1  0.10683100  0.60441900  0.41229900  1
  O  O78  1  0.60683100  0.19453200  0.50241200  1
  O  O79  1  0.39316900  0.80546800  0.49758800  1
