# generated using pymatgen
data_Mg5Pb(SO4)6
_symmetry_space_group_name_H-M   'P 1'
_cell_length_a   14.55453384
_cell_length_b   14.55453384
_cell_length_c   7.36427700
_cell_angle_alpha   90.00000000
_cell_angle_beta   90.00000000
_cell_angle_gamma   119.99999927
_symmetry_Int_Tables_number   1
_chemical_formula_structural   Mg5Pb(SO4)6
_chemical_formula_sum   'Mg15 Pb3 S18 O72'
_cell_volume   1351.00622769
_cell_formula_units_Z   3
loop_
 _symmetry_equiv_pos_site_id
 _symmetry_equiv_pos_as_xyz
  1  'x, y, z'
loop_
 _atom_site_type_symbol
 _atom_site_label
 _atom_site_symmetry_multiplicity
 _atom_site_fract_x
 _atom_site_fract_y
 _atom_site_fract_z
 _atom_site_occupancy
  Mg  Mg0  1  0.65343500  0.99747200  0.95802700  1
  Mg  Mg1  1  0.34656500  0.00252800  0.04197300  1
  Mg  Mg2  1  0.34403700  0.34656500  0.95802700  1
  Mg  Mg3  1  0.65596300  0.65343500  0.04197300  1
  Mg  Mg4  1  0.00252800  0.65596300  0.95802700  1
  Mg  Mg5  1  0.99747200  0.34403700  0.04197300  1
  Mg  Mg6  1  0.99753800  0.67747300  0.55111400  1
  Mg  Mg7  1  0.00246200  0.32252700  0.44888600  1
  Mg  Mg8  1  0.67993500  0.00246200  0.55111400  1
  Mg  Mg9  1  0.32006500  0.99753800  0.44888600  1
  Mg  Mg10  1  0.32252700  0.32006500  0.55111400  1
  Mg  Mg11  1  0.67747300  0.67993500  0.44888600  1
  Mg  Mg12  1  0.33333300  0.66666700  0.49812300  1
  Mg  Mg13  1  0.66666700  0.33333300  0.50187700  1
  Mg  Mg14  1  0.00000000  0.00000000  0.00000000  1
  Pb  Pb15  1  0.33333300  0.66666700  0.99974800  1
  Pb  Pb16  1  0.66666700  0.33333300  0.00025200  1
  Pb  Pb17  1  0.00000000  0.00000000  0.50000000  1
  S  S18  1  0.77143300  0.86802400  0.75903900  1
  S  S19  1  0.22856700  0.13197600  0.24096100  1
  S  S20  1  0.09659100  0.22856700  0.75903900  1
  S  S21  1  0.90340900  0.77143300  0.24096100  1
  S  S22  1  0.13197600  0.90340900  0.75903900  1
  S  S23  1  0.86802400  0.09659100  0.24096100  1
  S  S24  1  0.76535500  0.56138900  0.74127100  1
  S  S25  1  0.23464500  0.43861100  0.25872900  1
  S  S26  1  0.79603400  0.23464500  0.74127100  1
  S  S27  1  0.20396600  0.76535500  0.25872900  1
  S  S28  1  0.43861100  0.20396600  0.74127100  1
  S  S29  1  0.56138900  0.79603400  0.25872900  1
  S  S30  1  0.43047500  0.89452600  0.73820700  1
  S  S31  1  0.56952500  0.10547400  0.26179300  1
  S  S32  1  0.46405100  0.56952500  0.73820700  1
  S  S33  1  0.53594900  0.43047500  0.26179300  1
  S  S34  1  0.10547400  0.53594900  0.73820700  1
  S  S35  1  0.89452600  0.46405100  0.26179300  1
  O  O36  1  0.74776900  0.45263400  0.70591200  1
  O  O37  1  0.25223100  0.54736600  0.29408800  1
  O  O38  1  0.70486500  0.25223100  0.70591200  1
  O  O39  1  0.29513500  0.74776900  0.29408800  1
  O  O40  1  0.54736600  0.29513500  0.70591200  1
  O  O41  1  0.45263400  0.70486500  0.29408800  1
  O  O42  1  0.38603300  0.89534700  0.92032000  1
  O  O43  1  0.61396700  0.10465300  0.07968000  1
  O  O44  1  0.50931500  0.61396700  0.92032000  1
  O  O45  1  0.49068500  0.38603300  0.07968000  1
  O  O46  1  0.10465300  0.49068500  0.92032000  1
  O  O47  1  0.89534700  0.50931500  0.07968000  1
  O  O48  1  0.77416000  0.82926200  0.57258400  1
  O  O49  1  0.22584000  0.17073800  0.42741600  1
  O  O50  1  0.05510200  0.22584000  0.57258400  1
  O  O51  1  0.94489800  0.77416000  0.42741600  1
  O  O52  1  0.17073800  0.94489800  0.57258400  1
  O  O53  1  0.82926200  0.05510200  0.42741600  1
  O  O54  1  0.54342900  0.61991300  0.59549800  1
  O  O55  1  0.45657100  0.38008700  0.40450200  1
  O  O56  1  0.07648400  0.45657100  0.59549800  1
  O  O57  1  0.92351600  0.54342900  0.40450200  1
  O  O58  1  0.38008700  0.92351600  0.59549800  1
  O  O59  1  0.61991300  0.07648400  0.40450200  1
  O  O60  1  0.87926400  0.95707500  0.80368900  1
  O  O61  1  0.12073600  0.04292500  0.19631100  1
  O  O62  1  0.07781000  0.12073600  0.80368900  1
  O  O63  1  0.92219000  0.87926400  0.19631100  1
  O  O64  1  0.04292500  0.92219000  0.80368900  1
  O  O65  1  0.95707500  0.07781000  0.19631100  1
  O  O66  1  0.54788400  0.96943100  0.74407900  1
  O  O67  1  0.45211600  0.03056900  0.25592100  1
  O  O68  1  0.42154700  0.45211600  0.74407900  1
  O  O69  1  0.57845300  0.54788400  0.25592100  1
  O  O70  1  0.03056900  0.57845300  0.74407900  1
  O  O71  1  0.96943100  0.42154700  0.25592100  1
  O  O72  1  0.69672600  0.91082200  0.76023000  1
  O  O73  1  0.30327400  0.08917800  0.23977000  1
  O  O74  1  0.21409600  0.30327400  0.76023000  1
  O  O75  1  0.78590400  0.69672600  0.23977000  1
  O  O76  1  0.08917800  0.78590400  0.76023000  1
  O  O77  1  0.91082200  0.21409600  0.23977000  1
  O  O78  1  0.71149400  0.55929100  0.91443700  1
  O  O79  1  0.28850600  0.44070900  0.08556300  1
  O  O80  1  0.84779800  0.28850600  0.91443700  1
  O  O81  1  0.15220200  0.71149400  0.08556300  1
  O  O82  1  0.44070900  0.15220200  0.91443700  1
  O  O83  1  0.55929100  0.84779800  0.08556300  1
  O  O84  1  0.72498700  0.59414200  0.58783200  1
  O  O85  1  0.27501300  0.40585800  0.41216800  1
  O  O86  1  0.86915500  0.27501300  0.58783200  1
  O  O87  1  0.13084500  0.72498700  0.41216800  1
  O  O88  1  0.40585800  0.13084500  0.58783200  1
  O  O89  1  0.59414200  0.86915500  0.41216800  1
  O  O90  1  0.41288700  0.78590900  0.70160000  1
  O  O91  1  0.58711300  0.21409100  0.29840000  1
  O  O92  1  0.37302200  0.58711300  0.70160000  1
  O  O93  1  0.62697800  0.41288700  0.29840000  1
  O  O94  1  0.21409100  0.62697800  0.70160000  1
  O  O95  1  0.78590900  0.37302200  0.29840000  1
  O  O96  1  0.88261800  0.63543000  0.75950500  1
  O  O97  1  0.11738200  0.36457000  0.24049500  1
  O  O98  1  0.75281100  0.11738200  0.75950500  1
  O  O99  1  0.24718900  0.88261800  0.24049500  1
  O  O100  1  0.36457000  0.24718900  0.75950500  1
  O  O101  1  0.63543000  0.75281100  0.24049500  1
  O  O102  1  0.73920400  0.78238900  0.89157900  1
  O  O103  1  0.26079600  0.21761100  0.10842100  1
  O  O104  1  0.04318500  0.26079600  0.89157900  1
  O  O105  1  0.95681500  0.73920400  0.10842100  1
  O  O106  1  0.21761100  0.95681500  0.89157900  1
  O  O107  1  0.78238900  0.04318500  0.10842100  1
