# generated using pymatgen
data_K2Na4Fe2O5
_symmetry_space_group_name_H-M   'P 1'
_cell_length_a   6.48647200
_cell_length_b   6.48647300
_cell_length_c   10.54203400
_cell_angle_alpha   90.00001427
_cell_angle_beta   89.99996603
_cell_angle_gamma   89.99996467
_symmetry_Int_Tables_number   1
_chemical_formula_structural   K2Na4Fe2O5
_chemical_formula_sum   'K4 Na8 Fe4 O10'
_cell_volume   443.54896988
_cell_formula_units_Z   2
loop_
 _symmetry_equiv_pos_site_id
 _symmetry_equiv_pos_as_xyz
  1  'x, y, z'
loop_
 _atom_site_type_symbol
 _atom_site_label
 _atom_site_symmetry_multiplicity
 _atom_site_fract_x
 _atom_site_fract_y
 _atom_site_fract_z
 _atom_site_occupancy
  K  K0  1  0.31125700  0.68874300  0.99999900  1
  K  K1  1  0.68874800  0.31125000  0.00000000  1
  K  K2  1  0.81124900  0.81125200  0.50000100  1
  K  K3  1  0.18874500  0.18874700  0.50000000  1
  Na  Na4  1  0.00000400  0.99999600  0.22392500  1
  Na  Na5  1  0.00000400  0.99999500  0.77607600  1
  Na  Na6  1  0.49999800  0.49999600  0.72392500  1
  Na  Na7  1  0.49999700  0.49999600  0.27607500  1
  Na  Na8  1  0.00000300  0.49999900  0.25000000  1
  Na  Na9  1  0.00000300  0.49999800  0.75000000  1
  Na  Na10  1  0.49999700  0.99999900  0.25000000  1
  Na  Na11  1  0.49999700  0.99999800  0.75000000  1
  Fe  Fe12  1  0.79224500  0.79223200  0.99999800  1
  Fe  Fe13  1  0.70775100  0.29224200  0.50000000  1
  Fe  Fe14  1  0.20778900  0.20779600  0.00000000  1
  Fe  Fe15  1  0.29220800  0.70779300  0.49999900  1
  O  O16  1  0.00000000  0.00000000  0.00000000  1
  O  O17  1  0.49999800  0.49999700  0.50000000  1
  O  O18  1  0.29105400  0.29105000  0.16260500  1
  O  O19  1  0.70894500  0.70894200  0.83739300  1
  O  O20  1  0.70894500  0.70894300  0.16260800  1
  O  O21  1  0.20894800  0.79105000  0.66260400  1
  O  O22  1  0.20894900  0.79105100  0.33739600  1
  O  O23  1  0.29105400  0.29104900  0.83739500  1
  O  O24  1  0.79105500  0.20894300  0.33739300  1
  O  O25  1  0.79105500  0.20894300  0.66260700  1
