# generated using pymatgen
data_InH3(IO4)2
_symmetry_space_group_name_H-M   'P 1'
_cell_length_a   6.96733359
_cell_length_b   7.91239453
_cell_length_c   7.80891925
_cell_angle_alpha   99.51442788
_cell_angle_beta   92.02717455
_cell_angle_gamma   109.21650437
_symmetry_Int_Tables_number   1
_chemical_formula_structural   InH3(IO4)2
_chemical_formula_sum   'In2 H6 I4 O16'
_cell_volume   399.04686117
_cell_formula_units_Z   2
loop_
 _symmetry_equiv_pos_site_id
 _symmetry_equiv_pos_as_xyz
  1  'x, y, z'
loop_
 _atom_site_type_symbol
 _atom_site_label
 _atom_site_symmetry_multiplicity
 _atom_site_fract_x
 _atom_site_fract_y
 _atom_site_fract_z
 _atom_site_occupancy
  In  In0  1  0.00000000  0.00000000  0.00000000  1
  In  In1  1  0.00000000  0.00000000  0.50000000  1
  H  H2  1  0.84982600  0.44947500  0.07185600  1
  H  H3  1  0.15017400  0.55052500  0.92814400  1
  H  H4  1  0.20453800  0.50242400  0.74118400  1
  H  H5  1  0.79546200  0.49757600  0.25881600  1
  H  H6  1  0.01505700  0.23380400  0.79156800  1
  H  H7  1  0.98494300  0.76619600  0.20843200  1
  I  I8  1  0.29006600  0.41963800  0.32837200  1
  I  I9  1  0.70993400  0.58036200  0.67162800  1
  I  I10  1  0.46813800  0.02764100  0.76102900  1
  I  I11  1  0.53186200  0.97235900  0.23897100  1
  O  O12  1  0.47086400  0.72885600  0.18476300  1
  O  O13  1  0.52913600  0.27114400  0.81523700  1
  O  O14  1  0.71675600  0.05452400  0.07914700  1
  O  O15  1  0.28324400  0.94547600  0.92085300  1
  O  O16  1  0.03728800  0.90237700  0.23334100  1
  O  O17  1  0.96271200  0.09762300  0.76665900  1
  O  O18  1  0.08989700  0.47604900  0.81370000  1
  O  O19  1  0.91010300  0.52395100  0.18630000  1
  O  O20  1  0.18809600  0.27867600  0.11263300  1
  O  O21  1  0.81190400  0.72132400  0.88736700  1
  O  O22  1  0.52476400  0.36575000  0.35422100  1
  O  O23  1  0.47523600  0.63425000  0.64577900  1
  O  O24  1  0.70519100  0.03159300  0.44171900  1
  O  O25  1  0.29480900  0.96840700  0.55828100  1
  O  O26  1  0.12996600  0.28358600  0.47275000  1
  O  O27  1  0.87003400  0.71641400  0.52725000  1
