# generated using pymatgen
data_MnCu8Sb3S13N6
_symmetry_space_group_name_H-M   'P 1'
_cell_length_a   12.46313603
_cell_length_b   12.46313603
_cell_length_c   12.46313603
_cell_angle_alpha   60.00000000
_cell_angle_beta   60.00000000
_cell_angle_gamma   60.00000000
_symmetry_Int_Tables_number   1
_chemical_formula_structural   MnCu8Sb3S13N6
_chemical_formula_sum   'Mn2 Cu16 Sb6 S26 N12'
_cell_volume   1368.88513524
_cell_formula_units_Z   2
loop_
 _symmetry_equiv_pos_site_id
 _symmetry_equiv_pos_as_xyz
  1  'x, y, z'
loop_
 _atom_site_type_symbol
 _atom_site_label
 _atom_site_symmetry_multiplicity
 _atom_site_fract_x
 _atom_site_fract_y
 _atom_site_fract_z
 _atom_site_occupancy
  Mn  Mn0  1  0.75000000  0.75000000  0.75000000  1
  Mn  Mn1  1  0.25000000  0.25000000  0.25000000  1
  Cu  Cu2  1  0.08458400  0.08458400  0.08458400  1
  Cu  Cu3  1  0.08458400  0.08458400  0.74624700  1
  Cu  Cu4  1  0.08458400  0.74624700  0.08458400  1
  Cu  Cu5  1  0.58458400  0.58458400  0.58458400  1
  Cu  Cu6  1  0.74624700  0.08458400  0.08458400  1
  Cu  Cu7  1  0.58458400  0.58458400  0.24624700  1
  Cu  Cu8  1  0.24624700  0.58458400  0.58458400  1
  Cu  Cu9  1  0.58458400  0.24624700  0.58458400  1
  Cu  Cu10  1  0.91541600  0.91541600  0.91541600  1
  Cu  Cu11  1  0.91541600  0.91541600  0.25375300  1
  Cu  Cu12  1  0.91541600  0.25375300  0.91541600  1
  Cu  Cu13  1  0.41541600  0.41541600  0.41541600  1
  Cu  Cu14  1  0.25375300  0.91541600  0.91541600  1
  Cu  Cu15  1  0.41541600  0.41541600  0.75375300  1
  Cu  Cu16  1  0.75375300  0.41541600  0.41541600  1
  Cu  Cu17  1  0.41541600  0.75375300  0.41541600  1
  Sb  Sb18  1  0.25000000  0.75000000  0.75000000  1
  Sb  Sb19  1  0.75000000  0.25000000  0.25000000  1
  Sb  Sb20  1  0.75000000  0.25000000  0.75000000  1
  Sb  Sb21  1  0.25000000  0.75000000  0.25000000  1
  Sb  Sb22  1  0.75000000  0.75000000  0.25000000  1
  Sb  Sb23  1  0.25000000  0.25000000  0.75000000  1
  S  S24  1  0.05980200  0.94019800  0.70834600  1
  S  S25  1  0.94019800  0.05980200  0.29165400  1
  S  S26  1  0.70834600  0.29165400  0.05980200  1
  S  S27  1  0.70834600  0.05980200  0.94019800  1
  S  S28  1  0.44019800  0.55980200  0.20834600  1
  S  S29  1  0.29165400  0.70834600  0.94019800  1
  S  S30  1  0.29165400  0.94019800  0.05980200  1
  S  S31  1  0.55980200  0.44019800  0.79165400  1
  S  S32  1  0.05980200  0.70834600  0.29165400  1
  S  S33  1  0.79165400  0.20834600  0.55980200  1
  S  S34  1  0.94019800  0.29165400  0.70834600  1
  S  S35  1  0.20834600  0.79165400  0.44019800  1
  S  S36  1  0.94019800  0.70834600  0.05980200  1
  S  S37  1  0.55980200  0.20834600  0.44019800  1
  S  S38  1  0.29165400  0.05980200  0.70834600  1
  S  S39  1  0.20834600  0.55980200  0.79165400  1
  S  S40  1  0.70834600  0.94019800  0.29165400  1
  S  S41  1  0.79165400  0.44019800  0.20834600  1
  S  S42  1  0.05980200  0.29165400  0.94019800  1
  S  S43  1  0.44019800  0.79165400  0.55980200  1
  S  S44  1  0.20834600  0.44019800  0.55980200  1
  S  S45  1  0.79165400  0.55980200  0.44019800  1
  S  S46  1  0.44019800  0.20834600  0.79165400  1
  S  S47  1  0.55980200  0.79165400  0.20834600  1
  S  S48  1  0.00000000  0.00000000  0.00000000  1
  S  S49  1  0.50000000  0.50000000  0.50000000  1
  N  N50  1  0.64564600  0.85435400  0.85435400  1
  N  N51  1  0.85435400  0.64564600  0.64564600  1
  N  N52  1  0.85435400  0.64564600  0.85435400  1
  N  N53  1  0.35435400  0.14564600  0.35435400  1
  N  N54  1  0.64564600  0.85435400  0.64564600  1
  N  N55  1  0.14564600  0.35435400  0.14564600  1
  N  N56  1  0.85435400  0.85435400  0.64564600  1
  N  N57  1  0.14564600  0.35435400  0.35435400  1
  N  N58  1  0.64564600  0.64564600  0.85435400  1
  N  N59  1  0.35435400  0.14564600  0.14564600  1
  N  N60  1  0.35435400  0.35435400  0.14564600  1
  N  N61  1  0.14564600  0.14564600  0.35435400  1
