# generated using pymatgen
data_K2Fe2(PO4)3
_symmetry_space_group_name_H-M   'P 1'
_cell_length_a   10.03759900
_cell_length_b   10.03759900
_cell_length_c   10.03759900
_cell_angle_alpha   90.00000000
_cell_angle_beta   90.00000000
_cell_angle_gamma   90.00000000
_symmetry_Int_Tables_number   1
_chemical_formula_structural   K2Fe2(PO4)3
_chemical_formula_sum   'K8 Fe8 P12 O48'
_cell_volume   1011.32216370
_cell_formula_units_Z   4
loop_
 _symmetry_equiv_pos_site_id
 _symmetry_equiv_pos_as_xyz
  1  'x, y, z'
loop_
 _atom_site_type_symbol
 _atom_site_label
 _atom_site_symmetry_multiplicity
 _atom_site_fract_x
 _atom_site_fract_y
 _atom_site_fract_z
 _atom_site_occupancy
  K  K0  1  0.04310400  0.04310400  0.04310400  1
  K  K1  1  0.45689600  0.95689600  0.54310400  1
  K  K2  1  0.95689600  0.54310400  0.45689600  1
  K  K3  1  0.54310400  0.45689600  0.95689600  1
  K  K4  1  0.81716700  0.81716700  0.81716700  1
  K  K5  1  0.68283300  0.18283300  0.31716700  1
  K  K6  1  0.18283300  0.31716700  0.68283300  1
  K  K7  1  0.31716700  0.68283300  0.18283300  1
  Fe  Fe8  1  0.33590900  0.33590900  0.33590900  1
  Fe  Fe9  1  0.16409100  0.66409100  0.83590900  1
  Fe  Fe10  1  0.66409100  0.83590900  0.16409100  1
  Fe  Fe11  1  0.83590900  0.16409100  0.66409100  1
  Fe  Fe12  1  0.60342400  0.60342400  0.60342400  1
  Fe  Fe13  1  0.89657600  0.39657600  0.10342400  1
  Fe  Fe14  1  0.39657600  0.10342400  0.89657600  1
  Fe  Fe15  1  0.10342400  0.89657600  0.39657600  1
  P  P16  1  0.02086100  0.21087900  0.37577100  1
  P  P17  1  0.47913900  0.78912100  0.87577100  1
  P  P18  1  0.97913900  0.71087900  0.12422900  1
  P  P19  1  0.37577100  0.02086100  0.21087900  1
  P  P20  1  0.52086100  0.28912100  0.62422900  1
  P  P21  1  0.87577100  0.47913900  0.78912100  1
  P  P22  1  0.12422900  0.97913900  0.71087900  1
  P  P23  1  0.62422900  0.52086100  0.28912100  1
  P  P24  1  0.21087900  0.37577100  0.02086100  1
  P  P25  1  0.71087900  0.12422900  0.97913900  1
  P  P26  1  0.28912100  0.62422900  0.52086100  1
  P  P27  1  0.78912100  0.87577100  0.47913900  1
  O  O28  1  0.01277400  0.06390000  0.32784900  1
  O  O29  1  0.48722600  0.93610000  0.82784900  1
  O  O30  1  0.98722600  0.56390000  0.17215100  1
  O  O31  1  0.32784900  0.01277400  0.06390000  1
  O  O32  1  0.51277400  0.43610000  0.67215100  1
  O  O33  1  0.82784900  0.48722600  0.93610000  1
  O  O34  1  0.17215100  0.98722600  0.56390000  1
  O  O35  1  0.67215100  0.51277400  0.43610000  1
  O  O36  1  0.06390000  0.32784900  0.01277400  1
  O  O37  1  0.56390000  0.17215100  0.98722600  1
  O  O38  1  0.43610000  0.67215100  0.51277400  1
  O  O39  1  0.93610000  0.82784900  0.48722600  1
  O  O40  1  0.16724000  0.25037600  0.40069000  1
  O  O41  1  0.33276000  0.74962400  0.90069000  1
  O  O42  1  0.83276000  0.75037600  0.09931000  1
  O  O43  1  0.40069000  0.16724000  0.25037600  1
  O  O44  1  0.66724000  0.24962400  0.59931000  1
  O  O45  1  0.90069000  0.33276000  0.74962400  1
  O  O46  1  0.09931000  0.83276000  0.75037600  1
  O  O47  1  0.59931000  0.66724000  0.24962400  1
  O  O48  1  0.25037600  0.40069000  0.16724000  1
  O  O49  1  0.75037600  0.09931000  0.83276000  1
  O  O50  1  0.24962400  0.59931000  0.66724000  1
  O  O51  1  0.74962400  0.90069000  0.33276000  1
  O  O52  1  0.04680600  0.80197600  0.22778300  1
  O  O53  1  0.45319400  0.19802400  0.72778300  1
  O  O54  1  0.95319400  0.30197600  0.27221700  1
  O  O55  1  0.22778300  0.04680600  0.80197600  1
  O  O56  1  0.54680600  0.69802400  0.77221700  1
  O  O57  1  0.72778300  0.45319400  0.19802400  1
  O  O58  1  0.27221700  0.95319400  0.30197600  1
  O  O59  1  0.77221700  0.54680600  0.69802400  1
  O  O60  1  0.80197600  0.22778300  0.04680600  1
  O  O61  1  0.30197600  0.27221700  0.95319400  1
  O  O62  1  0.69802400  0.77221700  0.54680600  1
  O  O63  1  0.19802400  0.72778300  0.45319400  1
  O  O64  1  0.26811300  0.49247800  0.44355400  1
  O  O65  1  0.23188700  0.50752200  0.94355400  1
  O  O66  1  0.73188700  0.99247800  0.05644600  1
  O  O67  1  0.44355400  0.26811300  0.49247800  1
  O  O68  1  0.76811300  0.00752200  0.55644600  1
  O  O69  1  0.94355400  0.23188700  0.50752200  1
  O  O70  1  0.05644600  0.73188700  0.99247800  1
  O  O71  1  0.55644600  0.76811300  0.00752200  1
  O  O72  1  0.49247800  0.44355400  0.26811300  1
  O  O73  1  0.99247800  0.05644600  0.73188700  1
  O  O74  1  0.00752200  0.55644600  0.76811300  1
  O  O75  1  0.50752200  0.94355400  0.23188700  1
