# generated using pymatgen
data_K2HoNb5O15
_symmetry_space_group_name_H-M   'P 1'
_cell_length_a   12.73894100
_cell_length_b   12.73894100
_cell_length_c   3.95326100
_cell_angle_alpha   90.00000000
_cell_angle_beta   90.00000000
_cell_angle_gamma   90.00000000
_symmetry_Int_Tables_number   1
_chemical_formula_structural   K2HoNb5O15
_chemical_formula_sum   'K4 Ho2 Nb10 O30'
_cell_volume   641.53763741
_cell_formula_units_Z   2
loop_
 _symmetry_equiv_pos_site_id
 _symmetry_equiv_pos_as_xyz
  1  'x, y, z'
loop_
 _atom_site_type_symbol
 _atom_site_label
 _atom_site_symmetry_multiplicity
 _atom_site_fract_x
 _atom_site_fract_y
 _atom_site_fract_z
 _atom_site_occupancy
  K  K0  1  0.66985800  0.16985800  0.50000000  1
  K  K1  1  0.33014200  0.83014200  0.50000000  1
  K  K2  1  0.16985800  0.33014200  0.50000000  1
  K  K3  1  0.83014200  0.66985800  0.50000000  1
  Ho  Ho4  1  0.00000000  0.00000000  0.50000000  1
  Ho  Ho5  1  0.50000000  0.50000000  0.50000000  1
  Nb  Nb6  1  0.50000000  0.00000000  0.00000000  1
  Nb  Nb7  1  0.00000000  0.50000000  0.00000000  1
  Nb  Nb8  1  0.21165900  0.07644300  0.00000000  1
  Nb  Nb9  1  0.78834100  0.92355700  0.00000000  1
  Nb  Nb10  1  0.07644300  0.78834100  0.00000000  1
  Nb  Nb11  1  0.71165900  0.42355700  0.00000000  1
  Nb  Nb12  1  0.92355700  0.21165900  0.00000000  1
  Nb  Nb13  1  0.28834100  0.57644300  0.00000000  1
  Nb  Nb14  1  0.57644300  0.71165900  0.00000000  1
  Nb  Nb15  1  0.42355700  0.28834100  0.00000000  1
  O  O16  1  0.18427800  0.07813000  0.50000000  1
  O  O17  1  0.81572200  0.92187000  0.50000000  1
  O  O18  1  0.07813000  0.81572200  0.50000000  1
  O  O19  1  0.68427800  0.42187000  0.50000000  1
  O  O20  1  0.92187000  0.18427800  0.50000000  1
  O  O21  1  0.31572200  0.57813000  0.50000000  1
  O  O22  1  0.57813000  0.68427800  0.50000000  1
  O  O23  1  0.42187000  0.31572200  0.50000000  1
  O  O24  1  0.21735000  0.71735000  0.00000000  1
  O  O25  1  0.78265000  0.28265000  0.00000000  1
  O  O26  1  0.71735000  0.78265000  0.00000000  1
  O  O27  1  0.28265000  0.21735000  0.00000000  1
  O  O28  1  0.50000000  0.00000000  0.50000000  1
  O  O29  1  0.00000000  0.50000000  0.50000000  1
  O  O30  1  0.05756400  0.13038400  0.00000000  1
  O  O31  1  0.94243600  0.86961600  0.00000000  1
  O  O32  1  0.13038400  0.94243600  0.00000000  1
  O  O33  1  0.55756400  0.36961600  0.00000000  1
  O  O34  1  0.86961600  0.05756400  0.00000000  1
  O  O35  1  0.44243600  0.63038400  0.00000000  1
  O  O36  1  0.63038400  0.55756400  0.00000000  1
  O  O37  1  0.36961600  0.44243600  0.00000000  1
  O  O38  1  0.34186400  0.99951600  0.00000000  1
  O  O39  1  0.65813600  0.00048400  0.00000000  1
  O  O40  1  0.99951600  0.65813600  0.00000000  1
  O  O41  1  0.84186400  0.50048400  0.00000000  1
  O  O42  1  0.00048400  0.34186400  0.00000000  1
  O  O43  1  0.15813600  0.49951600  0.00000000  1
  O  O44  1  0.49951600  0.84186400  0.00000000  1
  O  O45  1  0.50048400  0.15813600  0.00000000  1
