# generated using pymatgen
data_InFe(CuSe2)2
_symmetry_space_group_name_H-M   'P 1'
_cell_length_a   6.98337491
_cell_length_b   6.98337491
_cell_length_c   6.98337491
_cell_angle_alpha   131.61972061
_cell_angle_beta   131.61972061
_cell_angle_gamma   70.83030403
_symmetry_Int_Tables_number   1
_chemical_formula_structural   InFe(CuSe2)2
_chemical_formula_sum   'In1 Fe1 Cu2 Se4'
_cell_volume   186.41123652
_cell_formula_units_Z   1
loop_
 _symmetry_equiv_pos_site_id
 _symmetry_equiv_pos_as_xyz
  1  'x, y, z'
loop_
 _atom_site_type_symbol
 _atom_site_label
 _atom_site_symmetry_multiplicity
 _atom_site_fract_x
 _atom_site_fract_y
 _atom_site_fract_z
 _atom_site_occupancy
  In  In0  1  0.50000000  0.50000000  0.00000000  1
  Fe  Fe1  1  0.00000000  0.00000000  0.00000000  1
  Cu  Cu2  1  0.25000000  0.75000000  0.50000000  1
  Cu  Cu3  1  0.75000000  0.25000000  0.50000000  1
  Se  Se4  1  0.09938900  0.09938900  0.46417900  1
  Se  Se5  1  0.63521000  0.63521000  0.53582100  1
  Se  Se6  1  0.90061100  0.36479000  0.00000000  1
  Se  Se7  1  0.36479000  0.90061100  0.00000000  1
