# generated using pymatgen
data_K3Zr2S(O2F3)3
_symmetry_space_group_name_H-M   'P 1'
_cell_length_a   7.99432984
_cell_length_b   7.99432984
_cell_length_c   11.97358052
_cell_angle_alpha   69.09992791
_cell_angle_beta   69.09992791
_cell_angle_gamma   83.25220365
_symmetry_Int_Tables_number   1
_chemical_formula_structural   K3Zr2S(O2F3)3
_chemical_formula_sum   'K6 Zr4 S2 O12 F18'
_cell_volume   667.79698485
_cell_formula_units_Z   2
loop_
 _symmetry_equiv_pos_site_id
 _symmetry_equiv_pos_as_xyz
  1  'x, y, z'
loop_
 _atom_site_type_symbol
 _atom_site_label
 _atom_site_symmetry_multiplicity
 _atom_site_fract_x
 _atom_site_fract_y
 _atom_site_fract_z
 _atom_site_occupancy
  K  K0  1  0.66757200  0.66757200  0.33948900  1
  K  K1  1  0.33242800  0.33242800  0.66051100  1
  K  K2  1  0.32223500  0.32223500  0.27726500  1
  K  K3  1  0.67776500  0.67776500  0.72273500  1
  K  K4  1  0.79880300  0.20119700  0.00000000  1
  K  K5  1  0.20119700  0.79880300  0.00000000  1
  Zr  Zr6  1  0.76415700  0.11084800  0.38735500  1
  Zr  Zr7  1  0.23584200  0.88915200  0.61264500  1
  Zr  Zr8  1  0.88915200  0.23584300  0.61264500  1
  Zr  Zr9  1  0.11084800  0.76415700  0.38735500  1
  S  S10  1  0.70987200  0.70987200  0.99682000  1
  S  S11  1  0.29012800  0.29012800  0.00318000  1
  O  O12  1  0.59187700  0.59187700  0.12234000  1
  O  O13  1  0.40812300  0.40812300  0.87766000  1
  O  O14  1  0.41086600  0.17973300  0.07402200  1
  O  O15  1  0.58913400  0.82026700  0.92597800  1
  O  O16  1  0.82026700  0.58913400  0.92597800  1
  O  O17  1  0.17973300  0.41086600  0.07402200  1
  O  O18  1  0.82496900  0.82496900  0.01264500  1
  O  O19  1  0.17503100  0.17503100  0.98735500  1
  O  O20  1  0.31628600  0.86812700  0.19311300  1
  O  O21  1  0.68371400  0.13187300  0.80688700  1
  O  O22  1  0.13187300  0.68371400  0.80688700  1
  O  O23  1  0.86812700  0.31628600  0.19311300  1
  F  F24  1  0.81838000  0.81838000  0.46446500  1
  F  F25  1  0.18162000  0.18162000  0.53553500  1
  F  F26  1  0.50000000  0.00000000  0.50000000  1
  F  F27  1  0.00000000  0.50000000  0.50000000  1
  F  F28  1  0.70113500  0.03616300  0.26082700  1
  F  F29  1  0.29886500  0.96383700  0.73917300  1
  F  F30  1  0.96383700  0.29886500  0.73917300  1
  F  F31  1  0.03616300  0.70113500  0.26082700  1
  F  F32  1  0.96479100  0.96479100  0.70075900  1
  F  F33  1  0.03520900  0.03520900  0.29924100  1
  F  F34  1  0.60488700  0.32682800  0.38916000  1
  F  F35  1  0.39511300  0.67317200  0.61084000  1
  F  F36  1  0.67317200  0.39511300  0.61084000  1
  F  F37  1  0.32682800  0.60488700  0.38916000  1
  F  F38  1  0.72962400  0.05790500  0.58764800  1
  F  F39  1  0.27037600  0.94209500  0.41235200  1
  F  F40  1  0.94209500  0.27037600  0.41235200  1
  F  F41  1  0.05790500  0.72962400  0.58764800  1
