# generated using pymatgen
data_K2Er2(PO4)3
_symmetry_space_group_name_H-M   'P 1'
_cell_length_a   10.68595800
_cell_length_b   10.68595800
_cell_length_c   10.68595800
_cell_angle_alpha   90.00000000
_cell_angle_beta   90.00000000
_cell_angle_gamma   90.00000000
_symmetry_Int_Tables_number   1
_chemical_formula_structural   K2Er2(PO4)3
_chemical_formula_sum   'K8 Er8 P12 O48'
_cell_volume   1220.22632090
_cell_formula_units_Z   4
loop_
 _symmetry_equiv_pos_site_id
 _symmetry_equiv_pos_as_xyz
  1  'x, y, z'
loop_
 _atom_site_type_symbol
 _atom_site_label
 _atom_site_symmetry_multiplicity
 _atom_site_fract_x
 _atom_site_fract_y
 _atom_site_fract_z
 _atom_site_occupancy
  K  K0  1  0.04581400  0.04581400  0.04581400  1
  K  K1  1  0.45418600  0.95418600  0.54581400  1
  K  K2  1  0.95418600  0.54581400  0.45418600  1
  K  K3  1  0.54581400  0.45418600  0.95418600  1
  K  K4  1  0.81887100  0.81887100  0.81887100  1
  K  K5  1  0.68112900  0.18112900  0.31887100  1
  K  K6  1  0.18112900  0.31887100  0.68112900  1
  K  K7  1  0.31887100  0.68112900  0.18112900  1
  Er  Er8  1  0.33357800  0.33357800  0.33357800  1
  Er  Er9  1  0.16642200  0.66642200  0.83357800  1
  Er  Er10  1  0.66642200  0.83357800  0.16642200  1
  Er  Er11  1  0.83357800  0.16642200  0.66642200  1
  Er  Er12  1  0.60232800  0.60232800  0.60232800  1
  Er  Er13  1  0.89767200  0.39767200  0.10232800  1
  Er  Er14  1  0.39767200  0.10232800  0.89767200  1
  Er  Er15  1  0.10232800  0.89767200  0.39767200  1
  P  P16  1  0.01534600  0.21293200  0.37371900  1
  P  P17  1  0.48465400  0.78706800  0.87371900  1
  P  P18  1  0.98465400  0.71293200  0.12628100  1
  P  P19  1  0.37371900  0.01534600  0.21293200  1
  P  P20  1  0.51534600  0.28706800  0.62628100  1
  P  P21  1  0.87371900  0.48465400  0.78706800  1
  P  P22  1  0.12628100  0.98465400  0.71293200  1
  P  P23  1  0.62628100  0.51534600  0.28706800  1
  P  P24  1  0.21293200  0.37371900  0.01534600  1
  P  P25  1  0.71293200  0.12628100  0.98465400  1
  P  P26  1  0.28706800  0.62628100  0.51534600  1
  P  P27  1  0.78706800  0.87371900  0.48465400  1
  O  O28  1  0.15066800  0.25770500  0.40011300  1
  O  O29  1  0.34933200  0.74229500  0.90011300  1
  O  O30  1  0.84933200  0.75770500  0.09988700  1
  O  O31  1  0.40011300  0.15066800  0.25770500  1
  O  O32  1  0.65066800  0.24229500  0.59988700  1
  O  O33  1  0.90011300  0.34933200  0.74229500  1
  O  O34  1  0.09988700  0.84933200  0.75770500  1
  O  O35  1  0.59988700  0.65066800  0.24229500  1
  O  O36  1  0.25770500  0.40011300  0.15066800  1
  O  O37  1  0.75770500  0.09988700  0.84933200  1
  O  O38  1  0.24229500  0.59988700  0.65066800  1
  O  O39  1  0.74229500  0.90011300  0.34933200  1
  O  O40  1  0.04538800  0.79457200  0.22895700  1
  O  O41  1  0.45461200  0.20542800  0.72895700  1
  O  O42  1  0.95461200  0.29457200  0.27104300  1
  O  O43  1  0.22895700  0.04538800  0.79457200  1
  O  O44  1  0.54538800  0.70542800  0.77104300  1
  O  O45  1  0.72895700  0.45461200  0.20542800  1
  O  O46  1  0.27104300  0.95461200  0.29457200  1
  O  O47  1  0.77104300  0.54538800  0.70542800  1
  O  O48  1  0.79457200  0.22895700  0.04538800  1
  O  O49  1  0.29457200  0.27104300  0.95461200  1
  O  O50  1  0.70542800  0.77104300  0.54538800  1
  O  O51  1  0.20542800  0.72895700  0.45461200  1
  O  O52  1  0.01470800  0.07476500  0.33007100  1
  O  O53  1  0.48529200  0.92523500  0.83007100  1
  O  O54  1  0.98529200  0.57476500  0.16992900  1
  O  O55  1  0.33007100  0.01470800  0.07476500  1
  O  O56  1  0.51470800  0.42523500  0.66992900  1
  O  O57  1  0.83007100  0.48529200  0.92523500  1
  O  O58  1  0.16992900  0.98529200  0.57476500  1
  O  O59  1  0.66992900  0.51470800  0.42523500  1
  O  O60  1  0.07476500  0.33007100  0.01470800  1
  O  O61  1  0.57476500  0.16992900  0.98529200  1
  O  O62  1  0.42523500  0.66992900  0.51470800  1
  O  O63  1  0.92523500  0.83007100  0.48529200  1
  O  O64  1  0.27164300  0.50651300  0.43465300  1
  O  O65  1  0.22835700  0.49348700  0.93465300  1
  O  O66  1  0.72835700  0.00651300  0.06534700  1
  O  O67  1  0.43465300  0.27164300  0.50651300  1
  O  O68  1  0.77164300  0.99348700  0.56534700  1
  O  O69  1  0.93465300  0.22835700  0.49348700  1
  O  O70  1  0.06534700  0.72835700  0.00651300  1
  O  O71  1  0.56534700  0.77164300  0.99348700  1
  O  O72  1  0.50651300  0.43465300  0.27164300  1
  O  O73  1  0.00651300  0.06534700  0.72835700  1
  O  O74  1  0.99348700  0.56534700  0.77164300  1
  O  O75  1  0.49348700  0.93465300  0.22835700  1
