# generated using pymatgen
data_K2HgHCl4
_symmetry_space_group_name_H-M   'P 1'
_cell_length_a   4.56315700
_cell_length_b   7.86150800
_cell_length_c   12.00721500
_cell_angle_alpha   90.00000000
_cell_angle_beta   90.00000000
_cell_angle_gamma   90.00000000
_symmetry_Int_Tables_number   1
_chemical_formula_structural   K2HgHCl4
_chemical_formula_sum   'K4 Hg2 H2 Cl8'
_cell_volume   430.73836895
_cell_formula_units_Z   2
loop_
 _symmetry_equiv_pos_site_id
 _symmetry_equiv_pos_as_xyz
  1  'x, y, z'
loop_
 _atom_site_type_symbol
 _atom_site_label
 _atom_site_symmetry_multiplicity
 _atom_site_fract_x
 _atom_site_fract_y
 _atom_site_fract_z
 _atom_site_occupancy
  K  K0  1  0.00000000  0.09412200  0.31913200  1
  K  K1  1  0.00000000  0.90587800  0.68086800  1
  K  K2  1  0.00000000  0.40587800  0.81913200  1
  K  K3  1  0.00000000  0.59412200  0.18086800  1
  Hg  Hg4  1  0.50000000  0.00000000  0.00000000  1
  Hg  Hg5  1  0.50000000  0.50000000  0.50000000  1
  H  H6  1  0.50000000  0.00000000  0.50000000  1
  H  H7  1  0.50000000  0.50000000  0.00000000  1
  Cl  Cl8  1  0.00000000  0.22777100  0.05911700  1
  Cl  Cl9  1  0.00000000  0.77222900  0.94088300  1
  Cl  Cl10  1  0.00000000  0.27222900  0.55911700  1
  Cl  Cl11  1  0.00000000  0.72777100  0.44088300  1
  Cl  Cl12  1  0.50000000  0.37967300  0.30952100  1
  Cl  Cl13  1  0.50000000  0.62032700  0.69047900  1
  Cl  Cl14  1  0.50000000  0.12032700  0.80952100  1
  Cl  Cl15  1  0.50000000  0.87967300  0.19047900  1
