# generated using pymatgen
data_KH2F3
_symmetry_space_group_name_H-M   'P 1'
_cell_length_a   7.01933700
_cell_length_b   7.01933700
_cell_length_c   11.02617485
_cell_angle_alpha   108.56035301
_cell_angle_beta   108.56035301
_cell_angle_gamma   90.00000000
_symmetry_Int_Tables_number   1
_chemical_formula_structural   KH2F3
_chemical_formula_sum   'K4 H8 F12'
_cell_volume   485.11632236
_cell_formula_units_Z   4
loop_
 _symmetry_equiv_pos_site_id
 _symmetry_equiv_pos_as_xyz
  1  'x, y, z'
loop_
 _atom_site_type_symbol
 _atom_site_label
 _atom_site_symmetry_multiplicity
 _atom_site_fract_x
 _atom_site_fract_y
 _atom_site_fract_z
 _atom_site_occupancy
  K  K0  1  0.62500000  0.87500000  0.25000000  1
  K  K1  1  0.62500000  0.37500000  0.25000000  1
  K  K2  1  0.62500000  0.37500000  0.75000000  1
  K  K3  1  0.12500000  0.37500000  0.75000000  1
  H  H4  1  0.21344100  0.23866100  0.18701300  1
  H  H5  1  0.97357300  0.94835300  0.18701300  1
  H  H6  1  0.19835300  0.96344100  0.68701300  1
  H  H7  1  0.03655900  0.51133900  0.31298700  1
  H  H8  1  0.48866100  0.72357300  0.68701300  1
  H  H9  1  0.27642700  0.80164700  0.31298700  1
  H  H10  1  0.05164700  0.78655900  0.81298700  1
  H  H11  1  0.76133900  0.02642700  0.81298700  1
  F  F12  1  0.31054500  0.14401000  0.14485000  1
  F  F13  1  0.83430500  0.00084000  0.14485000  1
  F  F14  1  0.25084000  0.06054500  0.64485000  1
  F  F15  1  0.93945500  0.60599000  0.35515000  1
  F  F16  1  0.39401000  0.58430500  0.64485000  1
  F  F17  1  0.41569500  0.74916000  0.35515000  1
  F  F18  1  0.99916000  0.68945500  0.85515000  1
  F  F19  1  0.85599000  0.16569500  0.85515000  1
  F  F20  1  0.12500000  0.37500000  0.25000000  1
  F  F21  1  0.12500000  0.87500000  0.25000000  1
  F  F22  1  0.12500000  0.87500000  0.75000000  1
  F  F23  1  0.62500000  0.87500000  0.75000000  1
