# generated using pymatgen
data_K2GdNb5O15
_symmetry_space_group_name_H-M   'P 1'
_cell_length_a   12.76103600
_cell_length_b   12.76103600
_cell_length_c   3.96058400
_cell_angle_alpha   90.00000000
_cell_angle_beta   90.00000000
_cell_angle_gamma   90.00000000
_symmetry_Int_Tables_number   1
_chemical_formula_structural   K2GdNb5O15
_chemical_formula_sum   'K4 Gd2 Nb10 O30'
_cell_volume   644.95749850
_cell_formula_units_Z   2
loop_
 _symmetry_equiv_pos_site_id
 _symmetry_equiv_pos_as_xyz
  1  'x, y, z'
loop_
 _atom_site_type_symbol
 _atom_site_label
 _atom_site_symmetry_multiplicity
 _atom_site_fract_x
 _atom_site_fract_y
 _atom_site_fract_z
 _atom_site_occupancy
  K  K0  1  0.66981000  0.16981000  0.50000000  1
  K  K1  1  0.33019000  0.83019000  0.50000000  1
  K  K2  1  0.16981000  0.33019000  0.50000000  1
  K  K3  1  0.83019000  0.66981000  0.50000000  1
  Gd  Gd4  1  0.00000000  0.00000000  0.50000000  1
  Gd  Gd5  1  0.50000000  0.50000000  0.50000000  1
  Nb  Nb6  1  0.50000000  0.00000000  0.00000000  1
  Nb  Nb7  1  0.00000000  0.50000000  0.00000000  1
  Nb  Nb8  1  0.21228900  0.07663900  0.00000000  1
  Nb  Nb9  1  0.78771100  0.92336100  0.00000000  1
  Nb  Nb10  1  0.07663900  0.78771100  0.00000000  1
  Nb  Nb11  1  0.71228900  0.42336100  0.00000000  1
  Nb  Nb12  1  0.92336100  0.21228900  0.00000000  1
  Nb  Nb13  1  0.28771100  0.57663900  0.00000000  1
  Nb  Nb14  1  0.57663900  0.71228900  0.00000000  1
  Nb  Nb15  1  0.42336100  0.28771100  0.00000000  1
  O  O16  1  0.18705400  0.07869400  0.50000000  1
  O  O17  1  0.81294600  0.92130600  0.50000000  1
  O  O18  1  0.07869400  0.81294600  0.50000000  1
  O  O19  1  0.68705400  0.42130600  0.50000000  1
  O  O20  1  0.92130600  0.18705400  0.50000000  1
  O  O21  1  0.31294600  0.57869400  0.50000000  1
  O  O22  1  0.57869400  0.68705400  0.50000000  1
  O  O23  1  0.42130600  0.31294600  0.50000000  1
  O  O24  1  0.21747200  0.71747200  0.00000000  1
  O  O25  1  0.78252800  0.28252800  0.00000000  1
  O  O26  1  0.71747200  0.78252800  0.00000000  1
  O  O27  1  0.28252800  0.21747200  0.00000000  1
  O  O28  1  0.50000000  0.00000000  0.50000000  1
  O  O29  1  0.00000000  0.50000000  0.50000000  1
  O  O30  1  0.05804300  0.13103500  0.00000000  1
  O  O31  1  0.94195700  0.86896500  0.00000000  1
  O  O32  1  0.13103500  0.94195700  0.00000000  1
  O  O33  1  0.55804300  0.36896500  0.00000000  1
  O  O34  1  0.86896500  0.05804300  0.00000000  1
  O  O35  1  0.44195700  0.63103500  0.00000000  1
  O  O36  1  0.63103500  0.55804300  0.00000000  1
  O  O37  1  0.36896500  0.44195700  0.00000000  1
  O  O38  1  0.34233200  0.99924100  0.00000000  1
  O  O39  1  0.65766800  0.00075900  0.00000000  1
  O  O40  1  0.99924100  0.65766800  0.00000000  1
  O  O41  1  0.84233200  0.50075900  0.00000000  1
  O  O42  1  0.00075900  0.34233200  0.00000000  1
  O  O43  1  0.15766800  0.49924100  0.00000000  1
  O  O44  1  0.49924100  0.84233200  0.00000000  1
  O  O45  1  0.50075900  0.15766800  0.00000000  1
