# generated using pymatgen
data_K3Be3B3P6O25
_symmetry_space_group_name_H-M   'P 1'
_cell_length_a   12.71851001
_cell_length_b   12.71851001
_cell_length_c   12.71851001
_cell_angle_alpha   90.00000000
_cell_angle_beta   90.00000000
_cell_angle_gamma   90.00000000
_symmetry_Int_Tables_number   1
_chemical_formula_structural   K3Be3B3P6O25
_chemical_formula_sum   'K12 Be12 B12 P24 O100'
_cell_volume   2057.35249872
_cell_formula_units_Z   4
loop_
 _symmetry_equiv_pos_site_id
 _symmetry_equiv_pos_as_xyz
  1  'x, y, z'
loop_
 _atom_site_type_symbol
 _atom_site_label
 _atom_site_symmetry_multiplicity
 _atom_site_fract_x
 _atom_site_fract_y
 _atom_site_fract_z
 _atom_site_occupancy
  K  K0  1  0.37501247  0.37501247  0.37501247  1
  K  K1  1  0.12498753  0.62498753  0.87501247  1
  K  K2  1  0.62498753  0.87501247  0.12498753  1
  K  K3  1  0.87501247  0.12498753  0.62498753  1
  K  K4  1  0.65021404  0.65021404  0.65021404  1
  K  K5  1  0.84978596  0.34978596  0.15021404  1
  K  K6  1  0.34978596  0.15021404  0.84978596  1
  K  K7  1  0.15021404  0.84978596  0.34978596  1
  K  K8  1  0.09950722  0.09950722  0.09950722  1
  K  K9  1  0.40049278  0.90049278  0.59950722  1
  K  K10  1  0.90049278  0.59950722  0.40049278  1
  K  K11  1  0.59950722  0.40049278  0.90049278  1
  Be  Be12  1  0.18359087  0.56677246  0.37483848  1
  Be  Be13  1  0.31640913  0.43322754  0.87483848  1
  Be  Be14  1  0.81640913  0.06677246  0.12516152  1
  Be  Be15  1  0.37483848  0.18359087  0.56677246  1
  Be  Be16  1  0.68359087  0.93322754  0.62516152  1
  Be  Be17  1  0.87483848  0.31640913  0.43322754  1
  Be  Be18  1  0.12516152  0.81640913  0.06677246  1
  Be  Be19  1  0.62516152  0.68359087  0.93322754  1
  Be  Be20  1  0.56677246  0.37483848  0.18359087  1
  Be  Be21  1  0.06677246  0.12516152  0.81640913  1
  Be  Be22  1  0.93322754  0.62516152  0.68359087  1
  Be  Be23  1  0.43322754  0.87483848  0.31640913  1
  B  B24  1  0.12490321  0.14102634  0.39056234  1
  B  B25  1  0.37509679  0.85897366  0.89056234  1
  B  B26  1  0.87509679  0.64102634  0.10943766  1
  B  B27  1  0.39056234  0.12490321  0.14102634  1
  B  B28  1  0.62490321  0.35897366  0.60943766  1
  B  B29  1  0.89056234  0.37509679  0.85897366  1
  B  B30  1  0.10943766  0.87509679  0.64102634  1
  B  B31  1  0.60943766  0.62490321  0.35897366  1
  B  B32  1  0.14102634  0.39056234  0.12490321  1
  B  B33  1  0.64102634  0.10943766  0.87509679  1
  B  B34  1  0.35897366  0.60943766  0.62490321  1
  B  B35  1  0.85897366  0.89056234  0.37509679  1
  P  P36  1  0.08952960  0.35658724  0.33799782  1
  P  P37  1  0.41047040  0.64341276  0.83799782  1
  P  P38  1  0.91047040  0.85658724  0.16200218  1
  P  P39  1  0.33799782  0.08952960  0.35658724  1
  P  P40  1  0.58952960  0.14341276  0.66200218  1
  P  P41  1  0.83799782  0.41047040  0.64341276  1
  P  P42  1  0.16200218  0.91047040  0.85658724  1
  P  P43  1  0.66200218  0.58952960  0.14341276  1
  P  P44  1  0.35658724  0.33799782  0.08952960  1
  P  P45  1  0.85658724  0.16200218  0.91047040  1
  P  P46  1  0.14341276  0.66200218  0.58952960  1
  P  P47  1  0.64341276  0.83799782  0.41047040  1
  P  P48  1  0.08828000  0.60656794  0.16038675  1
  P  P49  1  0.41172000  0.39343206  0.66038675  1
  P  P50  1  0.91172000  0.10656794  0.33961325  1
  P  P51  1  0.16038675  0.08828000  0.60656794  1
  P  P52  1  0.58828000  0.89343206  0.83961325  1
  P  P53  1  0.66038675  0.41172000  0.39343206  1
  P  P54  1  0.33961325  0.91172000  0.10656794  1
  P  P55  1  0.83961325  0.58828000  0.89343206  1
  P  P56  1  0.60656794  0.16038675  0.08828000  1
  P  P57  1  0.10656794  0.33961325  0.91172000  1
  P  P58  1  0.89343206  0.83961325  0.58828000  1
  P  P59  1  0.39343206  0.66038675  0.41172000  1
  O  O60  1  0.08403966  0.12153055  0.69167991  1
  O  O61  1  0.41596034  0.87846945  0.19167991  1
  O  O62  1  0.91596034  0.62153055  0.80832009  1
  O  O63  1  0.69167991  0.08403966  0.12153055  1
  O  O64  1  0.58403966  0.37846945  0.30832009  1
  O  O65  1  0.19167991  0.41596034  0.87846945  1
  O  O66  1  0.80832009  0.91596034  0.62153055  1
  O  O67  1  0.30832009  0.58403966  0.37846945  1
  O  O68  1  0.12153055  0.69167991  0.08403966  1
  O  O69  1  0.62153055  0.80832009  0.91596034  1
  O  O70  1  0.37846945  0.30832009  0.58403966  1
  O  O71  1  0.87846945  0.19167991  0.41596034  1
  O  O72  1  0.12983552  0.62225194  0.27165668  1
  O  O73  1  0.37016448  0.37774806  0.77165668  1
  O  O74  1  0.87016448  0.12225194  0.22834332  1
  O  O75  1  0.27165668  0.12983552  0.62225194  1
  O  O76  1  0.62983552  0.87774806  0.72834332  1
  O  O77  1  0.77165668  0.37016448  0.37774806  1
  O  O78  1  0.22834332  0.87016448  0.12225194  1
  O  O79  1  0.72834332  0.62983552  0.87774806  1
  O  O80  1  0.62225194  0.27165668  0.12983552  1
  O  O81  1  0.12225194  0.22834332  0.87016448  1
  O  O82  1  0.87774806  0.72834332  0.62983552  1
  O  O83  1  0.37774806  0.77165668  0.37016448  1
  O  O84  1  0.16471708  0.44233119  0.37145619  1
  O  O85  1  0.33528292  0.55766881  0.87145619  1
  O  O86  1  0.83528292  0.94233119  0.12854381  1
  O  O87  1  0.37145619  0.16471708  0.44233119  1
  O  O88  1  0.66471708  0.05766881  0.62854381  1
  O  O89  1  0.87145619  0.33528292  0.55766881  1
  O  O90  1  0.12854381  0.83528292  0.94233119  1
  O  O91  1  0.62854381  0.66471708  0.05766881  1
  O  O92  1  0.44233119  0.37145619  0.16471708  1
  O  O93  1  0.94233119  0.12854381  0.83528292  1
  O  O94  1  0.05766881  0.62854381  0.66471708  1
  O  O95  1  0.55766881  0.87145619  0.33528292  1
  O  O96  1  0.03545932  0.10220665  0.32665166  1
  O  O97  1  0.46454068  0.89779335  0.82665166  1
  O  O98  1  0.96454068  0.60220665  0.17334834  1
  O  O99  1  0.32665166  0.03545932  0.10220665  1
  O  O100  1  0.53545932  0.39779335  0.67334834  1
  O  O101  1  0.82665166  0.46454068  0.89779335  1
  O  O102  1  0.17334834  0.96454068  0.60220665  1
  O  O103  1  0.67334834  0.53545932  0.39779335  1
  O  O104  1  0.10220665  0.32665166  0.03545932  1
  O  O105  1  0.60220665  0.17334834  0.96454068  1
  O  O106  1  0.39779335  0.67334834  0.53545932  1
  O  O107  1  0.89779335  0.82665166  0.46454068  1
  O  O108  1  0.14490790  0.25313595  0.37339679  1
  O  O109  1  0.35509210  0.74686405  0.87339679  1
  O  O110  1  0.85509210  0.75313595  0.12660321  1
  O  O111  1  0.37339679  0.14490790  0.25313595  1
  O  O112  1  0.64490790  0.24686405  0.62660321  1
  O  O113  1  0.87339679  0.35509210  0.74686405  1
  O  O114  1  0.12660321  0.85509210  0.75313595  1
  O  O115  1  0.62660321  0.64490790  0.24686405  1
  O  O116  1  0.25313595  0.37339679  0.14490790  1
  O  O117  1  0.75313595  0.12660321  0.85509210  1
  O  O118  1  0.24686405  0.62660321  0.64490790  1
  O  O119  1  0.74686405  0.87339679  0.35509210  1
  O  O120  1  0.87369747  0.87369747  0.87369747  1
  O  O121  1  0.62630253  0.12630253  0.37369747  1
  O  O122  1  0.12630253  0.37369747  0.62630253  1
  O  O123  1  0.37369747  0.62630253  0.12630253  1
  O  O124  1  0.12833864  0.62169797  0.47750395  1
  O  O125  1  0.37166136  0.37830203  0.97750395  1
  O  O126  1  0.87166136  0.12169797  0.02249605  1
  O  O127  1  0.47750395  0.12833864  0.62169797  1
  O  O128  1  0.62833864  0.87830203  0.52249605  1
  O  O129  1  0.97750395  0.37166136  0.37830203  1
  O  O130  1  0.02249605  0.87166136  0.12169797  1
  O  O131  1  0.52249605  0.62833864  0.87830203  1
  O  O132  1  0.62169797  0.47750395  0.12833864  1
  O  O133  1  0.12169797  0.02249605  0.87166136  1
  O  O134  1  0.87830203  0.52249605  0.62833864  1
  O  O135  1  0.37830203  0.97750395  0.37166136  1
  O  O136  1  0.07737973  0.35091305  0.21427654  1
  O  O137  1  0.42262027  0.64908695  0.71427654  1
  O  O138  1  0.92262027  0.85091305  0.28572346  1
  O  O139  1  0.21427654  0.07737973  0.35091305  1
  O  O140  1  0.57737973  0.14908695  0.78572346  1
  O  O141  1  0.71427654  0.42262027  0.64908695  1
  O  O142  1  0.28572346  0.92262027  0.85091305  1
  O  O143  1  0.78572346  0.57737973  0.14908695  1
  O  O144  1  0.35091305  0.21427654  0.07737973  1
  O  O145  1  0.85091305  0.28572346  0.92262027  1
  O  O146  1  0.14908695  0.78572346  0.57737973  1
  O  O147  1  0.64908695  0.71427654  0.42262027  1
  O  O148  1  0.10529827  0.12257579  0.50261978  1
  O  O149  1  0.39470173  0.87742421  0.00261978  1
  O  O150  1  0.89470173  0.62257579  0.99738022  1
  O  O151  1  0.50261978  0.10529827  0.12257579  1
  O  O152  1  0.60529827  0.37742421  0.49738022  1
  O  O153  1  0.00261978  0.39470173  0.87742421  1
  O  O154  1  0.99738022  0.89470173  0.62257579  1
  O  O155  1  0.49738022  0.60529827  0.37742421  1
  O  O156  1  0.12257579  0.50261978  0.10529827  1
  O  O157  1  0.62257579  0.99738022  0.89470173  1
  O  O158  1  0.37742421  0.49738022  0.60529827  1
  O  O159  1  0.87742421  0.00261978  0.39470173  1
