# generated using pymatgen
data_KCu2H2C2BrN2O
_symmetry_space_group_name_H-M   'P 1'
_cell_length_a   7.81708900
_cell_length_b   9.34195700
_cell_length_c   10.67580400
_cell_angle_alpha   90.00000000
_cell_angle_beta   90.00000000
_cell_angle_gamma   90.00000000
_symmetry_Int_Tables_number   1
_chemical_formula_structural   KCu2H2C2BrN2O
_chemical_formula_sum   'K4 Cu8 H8 C8 Br4 N8 O4'
_cell_volume   779.62097045
_cell_formula_units_Z   4
loop_
 _symmetry_equiv_pos_site_id
 _symmetry_equiv_pos_as_xyz
  1  'x, y, z'
loop_
 _atom_site_type_symbol
 _atom_site_label
 _atom_site_symmetry_multiplicity
 _atom_site_fract_x
 _atom_site_fract_y
 _atom_site_fract_z
 _atom_site_occupancy
  K  K0  1  0.56097400  0.42030700  0.75000000  1
  K  K1  1  0.43902600  0.57969300  0.25000000  1
  K  K2  1  0.93902600  0.92030700  0.25000000  1
  K  K3  1  0.06097400  0.07969300  0.75000000  1
  Cu  Cu4  1  0.74566300  0.77585500  0.93538800  1
  Cu  Cu5  1  0.25433700  0.22414500  0.06461200  1
  Cu  Cu6  1  0.75433700  0.27585500  0.06461200  1
  Cu  Cu7  1  0.25433700  0.22414500  0.43538800  1
  Cu  Cu8  1  0.24566300  0.72414500  0.93538800  1
  Cu  Cu9  1  0.74566300  0.77585500  0.56461200  1
  Cu  Cu10  1  0.24566300  0.72414500  0.56461200  1
  Cu  Cu11  1  0.75433700  0.27585500  0.43538800  1
  H  H12  1  0.96343400  0.41794200  0.82150300  1
  H  H13  1  0.03656600  0.58205800  0.17849700  1
  H  H14  1  0.53656600  0.91794200  0.17849700  1
  H  H15  1  0.03656600  0.58205800  0.32150300  1
  H  H16  1  0.46343400  0.08205800  0.82150300  1
  H  H17  1  0.96343400  0.41794200  0.67849700  1
  H  H18  1  0.46343400  0.08205800  0.67849700  1
  H  H19  1  0.53656600  0.91794200  0.32150300  1
  C  C20  1  0.74171300  0.59301700  0.49969000  1
  C  C21  1  0.25828700  0.40698300  0.50031000  1
  C  C22  1  0.75828700  0.09301700  0.50031000  1
  C  C23  1  0.25828700  0.40698300  0.99969000  1
  C  C24  1  0.24171300  0.90698300  0.49969000  1
  C  C25  1  0.74171300  0.59301700  0.00031000  1
  C  C26  1  0.24171300  0.90698300  0.00031000  1
  C  C27  1  0.75828700  0.09301700  0.99969000  1
  Br  Br28  1  0.99975900  0.73363600  0.75000000  1
  Br  Br29  1  0.00024100  0.26636400  0.25000000  1
  Br  Br30  1  0.50024100  0.23363600  0.25000000  1
  Br  Br31  1  0.49975900  0.76636400  0.75000000  1
  N  N32  1  0.75901800  0.97292500  0.96554500  1
  N  N33  1  0.24098200  0.02707500  0.03445500  1
  N  N34  1  0.74098200  0.47292500  0.03445500  1
  N  N35  1  0.24098200  0.02707500  0.46554500  1
  N  N36  1  0.25901800  0.52707500  0.96554500  1
  N  N37  1  0.75901800  0.97292500  0.53445500  1
  N  N38  1  0.25901800  0.52707500  0.53445500  1
  N  N39  1  0.74098200  0.47292500  0.46554500  1
  O  O40  1  0.92990500  0.35912500  0.75000000  1
  O  O41  1  0.07009500  0.64087500  0.25000000  1
  O  O42  1  0.57009500  0.85912500  0.25000000  1
  O  O43  1  0.42990500  0.14087500  0.75000000  1
