# generated using pymatgen
data_K2HRuCl5
_symmetry_space_group_name_H-M   'P 1'
_cell_length_a   7.36261100
_cell_length_b   9.31360200
_cell_length_c   13.76668600
_cell_angle_alpha   90.00000000
_cell_angle_beta   90.00000000
_cell_angle_gamma   90.00000000
_symmetry_Int_Tables_number   1
_chemical_formula_structural   K2HRuCl5
_chemical_formula_sum   'K8 H4 Ru4 Cl20'
_cell_volume   944.01509190
_cell_formula_units_Z   4
loop_
 _symmetry_equiv_pos_site_id
 _symmetry_equiv_pos_as_xyz
  1  'x, y, z'
loop_
 _atom_site_type_symbol
 _atom_site_label
 _atom_site_symmetry_multiplicity
 _atom_site_fract_x
 _atom_site_fract_y
 _atom_site_fract_z
 _atom_site_occupancy
  K  K0  1  0.85146700  0.50040200  0.85146200  1
  K  K1  1  0.14853300  0.49959800  0.14853800  1
  K  K2  1  0.35146700  0.49959800  0.64853800  1
  K  K3  1  0.14853300  0.00040200  0.14853800  1
  K  K4  1  0.64853300  0.50040200  0.35146200  1
  K  K5  1  0.85146700  0.99959800  0.85146200  1
  K  K6  1  0.64853300  0.99959800  0.35146200  1
  K  K7  1  0.35146700  0.00040200  0.64853800  1
  H  H8  1  0.94412600  0.75000000  0.50935700  1
  H  H9  1  0.05587400  0.25000000  0.49064300  1
  H  H10  1  0.44412600  0.25000000  0.99064300  1
  H  H11  1  0.55587400  0.75000000  0.00935700  1
  Ru  Ru12  1  0.81498200  0.75000000  0.60269400  1
  Ru  Ru13  1  0.18501800  0.25000000  0.39730600  1
  Ru  Ru14  1  0.31498200  0.25000000  0.89730600  1
  Ru  Ru15  1  0.68501800  0.75000000  0.10269400  1
  Cl  Cl16  1  0.60434600  0.75000000  0.75290100  1
  Cl  Cl17  1  0.39565400  0.25000000  0.24709900  1
  Cl  Cl18  1  0.10434600  0.25000000  0.74709900  1
  Cl  Cl19  1  0.89565400  0.75000000  0.25290100  1
  Cl  Cl20  1  0.82306900  0.50405700  0.59693100  1
  Cl  Cl21  1  0.17693100  0.49594300  0.40306900  1
  Cl  Cl22  1  0.32306900  0.49594300  0.90306900  1
  Cl  Cl23  1  0.17693100  0.00405700  0.40306900  1
  Cl  Cl24  1  0.67693100  0.50405700  0.09693100  1
  Cl  Cl25  1  0.82306900  0.99594300  0.59693100  1
  Cl  Cl26  1  0.67693100  0.99594300  0.09693100  1
  Cl  Cl27  1  0.32306900  0.00405700  0.90306900  1
  Cl  Cl28  1  0.07849500  0.75000000  0.70336900  1
  Cl  Cl29  1  0.92150500  0.25000000  0.29663100  1
  Cl  Cl30  1  0.57849500  0.25000000  0.79663100  1
  Cl  Cl31  1  0.42150500  0.75000000  0.20336900  1
  Cl  Cl32  1  0.55444700  0.75000000  0.49897700  1
  Cl  Cl33  1  0.44555300  0.25000000  0.50102300  1
  Cl  Cl34  1  0.05444700  0.25000000  0.00102300  1
  Cl  Cl35  1  0.94555300  0.75000000  0.99897700  1
