# generated using pymatgen
data_K2UC2SeSNO8
_symmetry_space_group_name_H-M   'P 1'
_cell_length_a   7.30482200
_cell_length_b   11.79814891
_cell_length_c   14.53494714
_cell_angle_alpha   93.67111236
_cell_angle_beta   90.00000000
_cell_angle_gamma   90.00000000
_symmetry_Int_Tables_number   1
_chemical_formula_structural   K2UC2SeSNO8
_chemical_formula_sum   'K8 U4 C8 Se4 S4 N4 O32'
_cell_volume   1250.10039297
_cell_formula_units_Z   4
loop_
 _symmetry_equiv_pos_site_id
 _symmetry_equiv_pos_as_xyz
  1  'x, y, z'
loop_
 _atom_site_type_symbol
 _atom_site_label
 _atom_site_symmetry_multiplicity
 _atom_site_fract_x
 _atom_site_fract_y
 _atom_site_fract_z
 _atom_site_occupancy
  K  K0  1  0.84882400  0.54429700  0.64557100  1
  K  K1  1  0.15117600  0.45570300  0.35442900  1
  K  K2  1  0.34882400  0.45570300  0.85442900  1
  K  K3  1  0.65117600  0.54429700  0.14557100  1
  K  K4  1  0.56842100  0.83668400  0.86200900  1
  K  K5  1  0.43157900  0.16331600  0.13799100  1
  K  K6  1  0.06842100  0.16331600  0.63799100  1
  K  K7  1  0.93157900  0.83668400  0.36200900  1
  U  U8  1  0.85286300  0.25070500  0.95962900  1
  U  U9  1  0.14713700  0.74929500  0.04037100  1
  U  U10  1  0.35286300  0.74929500  0.54037100  1
  U  U11  1  0.64713700  0.25070500  0.45962900  1
  C  C12  1  0.95304800  0.85218300  0.64329200  1
  C  C13  1  0.04695200  0.14781700  0.35670800  1
  C  C14  1  0.45304800  0.14781700  0.85670800  1
  C  C15  1  0.54695200  0.85218300  0.14329200  1
  C  C16  1  0.91217700  0.97421700  0.97925200  1
  C  C17  1  0.08782300  0.02578300  0.02074800  1
  C  C18  1  0.41217700  0.02578300  0.52074800  1
  C  C19  1  0.58782300  0.97421700  0.47925200  1
  Se  Se20  1  0.82652800  0.55384400  0.90033700  1
  Se  Se21  1  0.17347200  0.44615600  0.09966300  1
  Se  Se22  1  0.32652800  0.44615600  0.59966300  1
  Se  Se23  1  0.67347200  0.55384400  0.40033700  1
  S  S24  1  0.82818000  0.94504400  0.69950800  1
  S  S25  1  0.17182000  0.05495600  0.30049200  1
  S  S26  1  0.32818000  0.05495600  0.80049200  1
  S  S27  1  0.67182000  0.94504400  0.19950800  1
  N  N28  1  0.54668200  0.21562100  0.89933700  1
  N  N29  1  0.45331800  0.78437900  0.10066300  1
  N  N30  1  0.04668200  0.78437900  0.60066300  1
  N  N31  1  0.95331800  0.21562100  0.39933700  1
  O  O32  1  0.44694800  0.76124800  0.65560800  1
  O  O33  1  0.55305200  0.23875200  0.34439200  1
  O  O34  1  0.94694800  0.23875200  0.84439200  1
  O  O35  1  0.05305200  0.76124800  0.15560800  1
  O  O36  1  0.65552500  0.61876200  0.85100000  1
  O  O37  1  0.34447500  0.38123800  0.14900000  1
  O  O38  1  0.15552500  0.38123800  0.64900000  1
  O  O39  1  0.84447500  0.61876200  0.35100000  1
  O  O40  1  0.24155200  0.73967600  0.92435600  1
  O  O41  1  0.75844800  0.26032400  0.07564400  1
  O  O42  1  0.74155200  0.26032400  0.57564400  1
  O  O43  1  0.25844800  0.73967600  0.42435600  1
  O  O44  1  0.73429300  0.43506200  0.94342100  1
  O  O45  1  0.26570700  0.56493800  0.05657900  1
  O  O46  1  0.23429300  0.56493800  0.55657900  1
  O  O47  1  0.76570700  0.43506200  0.44342100  1
  O  O48  1  0.89798500  0.86722500  0.97591400  1
  O  O49  1  0.10201500  0.13277500  0.02408600  1
  O  O50  1  0.39798500  0.13277500  0.52408600  1
  O  O51  1  0.60201500  0.86722500  0.47591400  1
  O  O52  1  0.89626600  0.63043600  0.99729400  1
  O  O53  1  0.10373400  0.36956400  0.00270600  1
  O  O54  1  0.39626600  0.36956400  0.50270600  1
  O  O55  1  0.60373400  0.63043600  0.49729400  1
  O  O56  1  0.29464500  0.95664300  0.54893200  1
  O  O57  1  0.70535500  0.04335700  0.45106800  1
  O  O58  1  0.79464500  0.04335700  0.95106800  1
  O  O59  1  0.20535500  0.95664300  0.04893200  1
  O  O60  1  0.99578900  0.52367400  0.82798900  1
  O  O61  1  0.00421100  0.47632600  0.17201100  1
  O  O62  1  0.49578900  0.47632600  0.67201100  1
  O  O63  1  0.50421100  0.52367400  0.32798900  1
