# generated using pymatgen
data_KCaCr2F9
_symmetry_space_group_name_H-M   'P 1'
_cell_length_a   7.52821627
_cell_length_b   7.52821627
_cell_length_c   23.81974900
_cell_angle_alpha   90.00000000
_cell_angle_beta   90.00000000
_cell_angle_gamma   119.84949131
_symmetry_Int_Tables_number   1
_chemical_formula_structural   KCaCr2F9
_chemical_formula_sum   'K6 Ca6 Cr12 F54'
_cell_volume   1170.86993066
_cell_formula_units_Z   6
loop_
 _symmetry_equiv_pos_site_id
 _symmetry_equiv_pos_as_xyz
  1  'x, y, z'
loop_
 _atom_site_type_symbol
 _atom_site_label
 _atom_site_symmetry_multiplicity
 _atom_site_fract_x
 _atom_site_fract_y
 _atom_site_fract_z
 _atom_site_occupancy
  K  K0  1  0.49055000  0.50945000  0.75000000  1
  K  K1  1  0.50945000  0.49055000  0.25000000  1
  K  K2  1  0.53607800  0.49382600  0.58337400  1
  K  K3  1  0.46392200  0.50617400  0.08337400  1
  K  K4  1  0.50617400  0.46392200  0.91662600  1
  K  K5  1  0.49382600  0.53607800  0.41662600  1
  Ca  Ca6  1  0.01559000  0.01559000  0.50000000  1
  Ca  Ca7  1  0.98441000  0.98441000  0.00000000  1
  Ca  Ca8  1  0.99928900  0.48601700  0.83329600  1
  Ca  Ca9  1  0.00071100  0.51398300  0.33329600  1
  Ca  Ca10  1  0.51398300  0.00071100  0.66670400  1
  Ca  Ca11  1  0.48601700  0.99928900  0.16670400  1
  Cr  Cr12  1  0.01999000  0.51763100  0.50262600  1
  Cr  Cr13  1  0.98001000  0.48236900  0.00262600  1
  Cr  Cr14  1  0.48236900  0.98001000  0.99737400  1
  Cr  Cr15  1  0.51763100  0.01999000  0.49737400  1
  Cr  Cr16  1  0.01552000  0.49786200  0.66413900  1
  Cr  Cr17  1  0.98448000  0.50213800  0.16413900  1
  Cr  Cr18  1  0.50213800  0.98448000  0.83586100  1
  Cr  Cr19  1  0.49786200  0.01552000  0.33586100  1
  Cr  Cr20  1  0.98773600  0.00352500  0.16916200  1
  Cr  Cr21  1  0.01226400  0.99647500  0.66916200  1
  Cr  Cr22  1  0.99647500  0.01226400  0.33083800  1
  Cr  Cr23  1  0.00352500  0.98773600  0.83083800  1
  F  F24  1  0.17441000  0.37835900  0.51642600  1
  F  F25  1  0.82559000  0.62164100  0.01642600  1
  F  F26  1  0.62164100  0.82559000  0.98357400  1
  F  F27  1  0.37835900  0.17441000  0.48357400  1
  F  F28  1  0.72289600  0.36347600  0.67779600  1
  F  F29  1  0.27710400  0.63652400  0.17779600  1
  F  F30  1  0.63652400  0.27710400  0.82220400  1
  F  F31  1  0.36347600  0.72289600  0.32220400  1
  F  F32  1  0.96954200  0.22449300  0.65367000  1
  F  F33  1  0.03045800  0.77550700  0.15367000  1
  F  F34  1  0.77550700  0.03045800  0.84633000  1
  F  F35  1  0.22449300  0.96954200  0.34633000  1
  F  F36  1  0.07501100  0.48916500  0.74230300  1
  F  F37  1  0.92498900  0.51083500  0.24230300  1
  F  F38  1  0.51083500  0.92498900  0.75769700  1
  F  F39  1  0.48916500  0.07501100  0.25769700  1
  F  F40  1  0.04145400  0.97970700  0.59031100  1
  F  F41  1  0.95854600  0.02029300  0.09031100  1
  F  F42  1  0.02029300  0.95854600  0.90968900  1
  F  F43  1  0.97970700  0.04145400  0.40968900  1
  F  F44  1  0.24783400  0.79122000  0.51373800  1
  F  F45  1  0.75216600  0.20878000  0.01373800  1
  F  F46  1  0.20878000  0.75216600  0.98626200  1
  F  F47  1  0.79122000  0.24783400  0.48626200  1
  F  F48  1  0.98068400  0.01931600  0.75000000  1
  F  F49  1  0.01931600  0.98068400  0.25000000  1
  F  F50  1  0.91257700  0.46443900  0.92417100  1
  F  F51  1  0.08742300  0.53556100  0.42417100  1
  F  F52  1  0.53556100  0.08742300  0.57582900  1
  F  F53  1  0.46443900  0.91257700  0.07582900  1
  F  F54  1  0.16824100  0.28381200  0.83591600  1
  F  F55  1  0.83175900  0.71618800  0.33591600  1
  F  F56  1  0.71618800  0.83175900  0.66408400  1
  F  F57  1  0.28381200  0.16824100  0.16408400  1
  F  F58  1  0.14240900  0.35022500  0.99141000  1
  F  F59  1  0.85759100  0.64977500  0.49141000  1
  F  F60  1  0.64977500  0.85759100  0.50859000  1
  F  F61  1  0.35022500  0.14240900  0.00859000  1
  F  F62  1  0.83954500  0.69219000  0.82259400  1
  F  F63  1  0.16045500  0.30781000  0.32259400  1
  F  F64  1  0.30781000  0.16045500  0.67740600  1
  F  F65  1  0.69219000  0.83954500  0.17740600  1
  F  F66  1  0.05372500  0.76613100  0.68023000  1
  F  F67  1  0.94627500  0.23386900  0.18023000  1
  F  F68  1  0.23386900  0.94627500  0.81977000  1
  F  F69  1  0.76613100  0.05372500  0.31977000  1
  F  F70  1  0.30652300  0.63823900  0.64793600  1
  F  F71  1  0.69347700  0.36176100  0.14793600  1
  F  F72  1  0.36176100  0.69347700  0.85206400  1
  F  F73  1  0.63823900  0.30652300  0.35206400  1
  F  F74  1  0.95045100  0.50435000  0.58351400  1
  F  F75  1  0.04954900  0.49565000  0.08351400  1
  F  F76  1  0.49565000  0.04954900  0.91648600  1
  F  F77  1  0.50435000  0.95045100  0.41648600  1
