# generated using pymatgen
data_La2Sn3(PbS4)3
_symmetry_space_group_name_H-M   'P 1'
_cell_length_a   4.02560900
_cell_length_b   11.76650100
_cell_length_c   20.70956000
_cell_angle_alpha   90.00000000
_cell_angle_beta   90.00000000
_cell_angle_gamma   90.00000000
_symmetry_Int_Tables_number   1
_chemical_formula_structural   La2Sn3(PbS4)3
_chemical_formula_sum   'La4 Sn6 Pb6 S24'
_cell_volume   980.95661081
_cell_formula_units_Z   2
loop_
 _symmetry_equiv_pos_site_id
 _symmetry_equiv_pos_as_xyz
  1  'x, y, z'
loop_
 _atom_site_type_symbol
 _atom_site_label
 _atom_site_symmetry_multiplicity
 _atom_site_fract_x
 _atom_site_fract_y
 _atom_site_fract_z
 _atom_site_occupancy
  La  La0  1  0.50000000  0.65325300  0.41249500  1
  La  La1  1  0.50000000  0.15325300  0.58750500  1
  La  La2  1  0.50000000  0.82420300  0.89483000  1
  La  La3  1  0.50000000  0.32420300  0.10517000  1
  Sn  Sn4  1  0.00000000  0.00129300  0.74983200  1
  Sn  Sn5  1  0.00000000  0.50129300  0.25016800  1
  Sn  Sn6  1  0.00000000  0.51773400  0.91140600  1
  Sn  Sn7  1  0.00000000  0.01773400  0.08859400  1
  Sn  Sn8  1  0.00000000  0.99487200  0.42295000  1
  Sn  Sn9  1  0.00000000  0.49487200  0.57705000  1
  Pb  Pb10  1  0.50000000  0.40371600  0.74332800  1
  Pb  Pb11  1  0.50000000  0.90371600  0.25667200  1
  Pb  Pb12  1  0.50000000  0.19753500  0.91255000  1
  Pb  Pb13  1  0.50000000  0.69753500  0.08745000  1
  Pb  Pb14  1  0.50000000  0.77145600  0.62302400  1
  Pb  Pb15  1  0.50000000  0.27145600  0.37697600  1
  S  S16  1  0.00000000  0.99935900  0.87420300  1
  S  S17  1  0.00000000  0.49935900  0.12579700  1
  S  S18  1  0.00000000  0.97916500  0.62739500  1
  S  S19  1  0.00000000  0.47916500  0.37260500  1
  S  S20  1  0.00000000  0.68401500  0.51440500  1
  S  S21  1  0.00000000  0.18401500  0.48559500  1
  S  S22  1  0.50000000  0.64370300  0.25658400  1
  S  S23  1  0.50000000  0.14370300  0.74341600  1
  S  S24  1  0.50000000  0.85114800  0.75492800  1
  S  S25  1  0.50000000  0.35114800  0.24507200  1
  S  S26  1  0.50000000  0.59544000  0.84060600  1
  S  S27  1  0.50000000  0.09544000  0.15939400  1
  S  S28  1  0.50000000  0.44159200  0.98092600  1
  S  S29  1  0.50000000  0.94159200  0.01907400  1
  S  S30  1  0.50000000  0.93343500  0.48609200  1
  S  S31  1  0.50000000  0.43343500  0.51390800  1
  S  S32  1  0.00000000  0.33771800  0.84276200  1
  S  S33  1  0.00000000  0.83771800  0.15723800  1
  S  S34  1  0.00000000  0.70723100  0.97274200  1
  S  S35  1  0.00000000  0.20723100  0.02725800  1
  S  S36  1  0.00000000  0.81000300  0.35619300  1
  S  S37  1  0.00000000  0.31000300  0.64380700  1
  S  S38  1  0.00000000  0.60242800  0.67764400  1
  S  S39  1  0.00000000  0.10242800  0.32235600  1
