# generated using pymatgen
data_K2Mg(SO6)2
_symmetry_space_group_name_H-M   'P 1'
_cell_length_a   7.74682585
_cell_length_b   7.74682585
_cell_length_c   10.07881253
_cell_angle_alpha   83.67696264
_cell_angle_beta   83.67696264
_cell_angle_gamma   80.35509068
_symmetry_Int_Tables_number   1
_chemical_formula_structural   K2Mg(SO6)2
_chemical_formula_sum   'K4 Mg2 S4 O24'
_cell_volume   590.08561787
_cell_formula_units_Z   2
loop_
 _symmetry_equiv_pos_site_id
 _symmetry_equiv_pos_as_xyz
  1  'x, y, z'
loop_
 _atom_site_type_symbol
 _atom_site_label
 _atom_site_symmetry_multiplicity
 _atom_site_fract_x
 _atom_site_fract_y
 _atom_site_fract_z
 _atom_site_occupancy
  K  K0  1  0.58882300  0.08948000  0.23527000  1
  K  K1  1  0.41117700  0.91052000  0.76473000  1
  K  K2  1  0.91052000  0.41117700  0.76473000  1
  K  K3  1  0.08948000  0.58882300  0.23527000  1
  Mg  Mg4  1  0.00000000  0.00000000  0.00000000  1
  Mg  Mg5  1  0.50000000  0.50000000  0.50000000  1
  S  S6  1  0.70250600  0.70250600  0.04229700  1
  S  S7  1  0.29749400  0.29749400  0.95770300  1
  S  S8  1  0.78254300  0.78254300  0.52208200  1
  S  S9  1  0.21745700  0.21745700  0.47791800  1
  O  O10  1  0.99003000  0.99003000  0.79940200  1
  O  O11  1  0.00997000  0.00997000  0.20059800  1
  O  O12  1  0.35587300  0.67076700  0.36984000  1
  O  O13  1  0.64412700  0.32923300  0.63016000  1
  O  O14  1  0.32923300  0.64412700  0.63016000  1
  O  O15  1  0.67076700  0.35587300  0.36984000  1
  O  O16  1  0.70974500  0.95260500  0.57522800  1
  O  O17  1  0.29025500  0.04739500  0.42477200  1
  O  O18  1  0.04739500  0.29025500  0.42477200  1
  O  O19  1  0.95260500  0.70974500  0.57522800  1
  O  O20  1  0.80088400  0.80088400  0.37371400  1
  O  O21  1  0.19911600  0.19911600  0.62628600  1
  O  O22  1  0.82959300  0.82959300  0.05074400  1
  O  O23  1  0.17040700  0.17040700  0.94925600  1
  O  O24  1  0.79760200  0.20239800  0.00000000  1
  O  O25  1  0.20239800  0.79760200  0.00000000  1
  O  O26  1  0.31594000  0.31594000  0.09894300  1
  O  O27  1  0.68406000  0.68406000  0.90105700  1
  O  O28  1  0.53278800  0.77973600  0.11162700  1
  O  O29  1  0.46721200  0.22026400  0.88837300  1
  O  O30  1  0.22026400  0.46721200  0.88837300  1
  O  O31  1  0.77973600  0.53278800  0.11162700  1
  O  O32  1  0.65452300  0.65452300  0.57045500  1
  O  O33  1  0.34547700  0.34547700  0.42954500  1
