# generated using pymatgen
data_K2Al2Si3(HO5)2
_symmetry_space_group_name_H-M   'P 1'
_cell_length_a   14.13179874
_cell_length_b   10.51995590
_cell_length_c   10.49791462
_cell_angle_alpha   84.50052166
_cell_angle_beta   47.81588768
_cell_angle_gamma   47.68359066
_symmetry_Int_Tables_number   1
_chemical_formula_structural   K2Al2Si3(HO5)2
_chemical_formula_sum   'K4 Al4 Si6 H4 O20'
_cell_volume   649.70782794
_cell_formula_units_Z   2
loop_
 _symmetry_equiv_pos_site_id
 _symmetry_equiv_pos_as_xyz
  1  'x, y, z'
loop_
 _atom_site_type_symbol
 _atom_site_label
 _atom_site_symmetry_multiplicity
 _atom_site_fract_x
 _atom_site_fract_y
 _atom_site_fract_z
 _atom_site_occupancy
  K  K0  1  0.37399000  0.41755200  0.33608400  1
  K  K1  1  0.87237400  0.33608400  0.41755200  1
  K  K2  1  0.91391600  0.37762600  0.87601000  1
  K  K3  1  0.83244800  0.87601000  0.37762600  1
  Al  Al4  1  0.74447200  0.86505200  0.91231600  1
  Al  Al5  1  0.47816100  0.91231600  0.86505200  1
  Al  Al6  1  0.33768400  0.77183900  0.50552800  1
  Al  Al7  1  0.38494800  0.50552800  0.77183900  1
  Si  Si8  1  0.00010700  0.49989300  0.49989300  1
  Si  Si9  1  0.75010700  0.24989300  0.24989300  1
  Si  Si10  1  0.98929700  0.85042700  0.89949500  1
  Si  Si11  1  0.26078200  0.89949500  0.85042700  1
  Si  Si12  1  0.35050500  0.98921800  0.26070300  1
  Si  Si13  1  0.39957300  0.26070300  0.98921800  1
  H  H14  1  0.81272100  0.22158200  0.72304900  1
  H  H15  1  0.24264800  0.72304900  0.22158200  1
  H  H16  1  0.52695100  0.00735200  0.43727900  1
  H  H17  1  0.02841800  0.43727900  0.00735200  1
  O  O18  1  0.85743300  0.84652600  0.94571200  1
  O  O19  1  0.35032800  0.94571200  0.84652600  1
  O  O20  1  0.30428800  0.89967200  0.39256700  1
  O  O21  1  0.40347400  0.39256700  0.89967200  1
  O  O22  1  0.15810800  0.78593300  0.65488800  1
  O  O23  1  0.40107100  0.65488800  0.78593300  1
  O  O24  1  0.59511200  0.84892900  0.09189200  1
  O  O25  1  0.46406700  0.09189200  0.84892900  1
  O  O26  1  0.61722900  0.48074300  0.28589600  1
  O  O27  1  0.61613200  0.28589600  0.48074300  1
  O  O28  1  0.96410400  0.63386800  0.63277100  1
  O  O29  1  0.76925700  0.63277200  0.63386800  1
  O  O30  1  0.56211300  0.12752500  0.98011800  1
  O  O31  1  0.33024400  0.98011800  0.12752500  1
  O  O32  1  0.26988200  0.91975600  0.68788700  1
  O  O33  1  0.12247500  0.68788700  0.91975600  1
  O  O34  1  0.79145200  0.11449500  0.10751500  1
  O  O35  1  0.98653900  0.10751500  0.11449500  1
  O  O36  1  0.14248500  0.26346100  0.45854800  1
  O  O37  1  0.13550500  0.45854800  0.26346100  1
