# generated using pymatgen
data_K3Si5H2O11
_symmetry_space_group_name_H-M   'P 1'
_cell_length_a   7.61042305
_cell_length_b   7.61042305
_cell_length_c   14.05719713
_cell_angle_alpha   74.81907815
_cell_angle_beta   74.81907815
_cell_angle_gamma   63.40763544
_symmetry_Int_Tables_number   1
_chemical_formula_structural   K3Si5H2O11
_chemical_formula_sum   'K6 Si10 H4 O22'
_cell_volume   692.69873559
_cell_formula_units_Z   2
loop_
 _symmetry_equiv_pos_site_id
 _symmetry_equiv_pos_as_xyz
  1  'x, y, z'
loop_
 _atom_site_type_symbol
 _atom_site_label
 _atom_site_symmetry_multiplicity
 _atom_site_fract_x
 _atom_site_fract_y
 _atom_site_fract_z
 _atom_site_occupancy
  K  K0  1  0.52173500  0.58793100  0.03302600  1
  K  K1  1  0.58793100  0.52173500  0.53302600  1
  K  K2  1  0.26774100  0.45779300  0.35453400  1
  K  K3  1  0.45779300  0.26774100  0.85453400  1
  K  K4  1  0.18160900  0.12248700  0.22662500  1
  K  K5  1  0.12248700  0.18160900  0.72662500  1
  Si  Si6  1  0.81276800  0.88758900  0.36663700  1
  Si  Si7  1  0.88758900  0.81276800  0.86663700  1
  Si  Si8  1  0.66942000  0.76299200  0.73541900  1
  Si  Si9  1  0.76299200  0.66942000  0.23541900  1
  Si  Si10  1  0.64593900  0.11726700  0.17941300  1
  Si  Si11  1  0.11726700  0.64593900  0.67941300  1
  Si  Si12  1  0.53547800  0.07800100  0.54032700  1
  Si  Si13  1  0.07800100  0.53547800  0.04032700  1
  Si  Si14  1  0.97909500  0.99688400  0.99682600  1
  Si  Si15  1  0.99688400  0.97909500  0.49682600  1
  H  H16  1  0.18078100  0.14476400  0.49015800  1
  H  H17  1  0.14476400  0.18078100  0.99015800  1
  H  H18  1  0.42430800  0.65894800  0.78329300  1
  H  H19  1  0.65894800  0.42430800  0.28329300  1
  O  O20  1  0.63631000  0.89573000  0.46260800  1
  O  O21  1  0.89573000  0.63631000  0.96260800  1
  O  O22  1  0.01040900  0.87154800  0.40300800  1
  O  O23  1  0.87154800  0.01040900  0.90300900  1
  O  O24  1  0.60525500  0.56255200  0.29455500  1
  O  O25  1  0.56255200  0.60525500  0.79455500  1
  O  O26  1  0.62918300  0.90003100  0.18766100  1
  O  O27  1  0.90003100  0.62918300  0.68766100  1
  O  O28  1  0.87169800  0.68501000  0.32010300  1
  O  O29  1  0.68501000  0.87169800  0.82010300  1
  O  O30  1  0.75933800  0.08105800  0.27551900  1
  O  O31  1  0.08105800  0.75933800  0.77551900  1
  O  O32  1  0.43890700  0.30396900  0.18593700  1
  O  O33  1  0.30396900  0.43890700  0.68593700  1
  O  O34  1  0.10361700  0.13801000  0.44395400  1
  O  O35  1  0.13801000  0.10361700  0.94395400  1
  O  O36  1  0.76154600  0.09301100  0.54305100  1
  O  O37  1  0.09301100  0.76154600  0.04305100  1
  O  O38  1  0.52604800  0.92518300  0.65710500  1
  O  O39  1  0.92518300  0.52604800  0.15710500  1
  O  O40  1  0.80396800  0.13968800  0.07474300  1
  O  O41  1  0.13968800  0.80396800  0.57474300  1
