# generated using pymatgen
data_K2CoH2(SO5)2
_symmetry_space_group_name_H-M   'P 1'
_cell_length_a   5.27281632
_cell_length_b   6.61286319
_cell_length_c   7.40968857
_cell_angle_alpha   107.57907099
_cell_angle_beta   96.30717230
_cell_angle_gamma   104.04707460
_symmetry_Int_Tables_number   1
_chemical_formula_structural   K2CoH2(SO5)2
_chemical_formula_sum   'K2 Co1 H2 S2 O10'
_cell_volume   234.20026846
_cell_formula_units_Z   1
loop_
 _symmetry_equiv_pos_site_id
 _symmetry_equiv_pos_as_xyz
  1  'x, y, z'
loop_
 _atom_site_type_symbol
 _atom_site_label
 _atom_site_symmetry_multiplicity
 _atom_site_fract_x
 _atom_site_fract_y
 _atom_site_fract_z
 _atom_site_occupancy
  K  K0  1  0.29741400  0.67748600  0.27348800  1
  K  K1  1  0.70258600  0.32251400  0.72651200  1
  Co  Co2  1  0.00000000  0.00000000  0.00000000  1
  H  H3  1  0.89775000  0.03888900  0.29841900  1
  H  H4  1  0.10225000  0.96111100  0.70158100  1
  S  S5  1  0.64705900  0.28869900  0.21714600  1
  S  S6  1  0.35294100  0.71130100  0.78285400  1
  O  O7  1  0.02627600  0.96976900  0.23124700  1
  O  O8  1  0.97372400  0.03023100  0.76875300  1
  O  O9  1  0.85498600  0.25381200  0.08659400  1
  O  O10  1  0.14501400  0.74618800  0.91340600  1
  O  O11  1  0.26037900  0.47769800  0.65893400  1
  O  O12  1  0.73962100  0.52230200  0.34106600  1
  O  O13  1  0.38896600  0.24443100  0.08550500  1
  O  O14  1  0.61103400  0.75556900  0.91449500  1
  O  O15  1  0.63230600  0.13526600  0.32842000  1
  O  O16  1  0.36769400  0.86473400  0.67158000  1
