# generated using pymatgen
data_K2Cu(SO7)2
_symmetry_space_group_name_H-M   'P 1'
_cell_length_a   6.35019245
_cell_length_b   7.59058489
_cell_length_c   13.44836500
_cell_angle_alpha   90.00000000
_cell_angle_beta   90.00000000
_cell_angle_gamma   102.58686225
_symmetry_Int_Tables_number   1
_chemical_formula_structural   K2Cu(SO7)2
_chemical_formula_sum   'K4 Cu2 S4 O28'
_cell_volume   632.65455829
_cell_formula_units_Z   2
loop_
 _symmetry_equiv_pos_site_id
 _symmetry_equiv_pos_as_xyz
  1  'x, y, z'
loop_
 _atom_site_type_symbol
 _atom_site_label
 _atom_site_symmetry_multiplicity
 _atom_site_fract_x
 _atom_site_fract_y
 _atom_site_fract_z
 _atom_site_occupancy
  K  K0  1  0.85024600  0.62866800  0.15481900  1
  K  K1  1  0.14975400  0.37133200  0.84518100  1
  K  K2  1  0.14975400  0.87133200  0.65481900  1
  K  K3  1  0.85024600  0.12866800  0.34518100  1
  Cu  Cu4  1  0.50000000  0.00000000  0.00000000  1
  Cu  Cu5  1  0.50000000  0.50000000  0.50000000  1
  S  S6  1  0.74248900  0.59191400  0.85544700  1
  S  S7  1  0.25751100  0.40808600  0.14455300  1
  S  S8  1  0.25751100  0.90808600  0.35544700  1
  S  S9  1  0.74248900  0.09191400  0.64455300  1
  O  O10  1  0.53671900  0.62353700  0.82406700  1
  O  O11  1  0.46328100  0.37646300  0.17593300  1
  O  O12  1  0.46328100  0.87646300  0.32406700  1
  O  O13  1  0.53671900  0.12353700  0.67593300  1
  O  O14  1  0.74126000  0.93870800  0.57857900  1
  O  O15  1  0.25874000  0.06129200  0.42142100  1
  O  O16  1  0.25874000  0.56129200  0.07857900  1
  O  O17  1  0.74126000  0.43870800  0.92142100  1
  O  O18  1  0.31937300  0.90878400  0.87899800  1
  O  O19  1  0.68062700  0.09121600  0.12100200  1
  O  O20  1  0.68062700  0.59121600  0.37899800  1
  O  O21  1  0.31937300  0.40878400  0.62100200  1
  O  O22  1  0.83884300  0.77205500  0.94445600  1
  O  O23  1  0.16115700  0.22794500  0.05554400  1
  O  O24  1  0.16115700  0.72794500  0.44445600  1
  O  O25  1  0.83884300  0.27205500  0.55554400  1
  O  O26  1  0.36931800  0.58727200  0.62006500  1
  O  O27  1  0.63068200  0.41272800  0.37993500  1
  O  O28  1  0.63068200  0.91272800  0.12006500  1
  O  O29  1  0.36931800  0.08727200  0.87993500  1
  O  O30  1  0.77107500  0.92400900  0.92293400  1
  O  O31  1  0.22892500  0.07599100  0.07706600  1
  O  O32  1  0.22892500  0.57599100  0.42293400  1
  O  O33  1  0.77107500  0.42400900  0.57706600  1
  O  O34  1  0.91336300  0.61994100  0.78053800  1
  O  O35  1  0.08663700  0.38005900  0.21946200  1
  O  O36  1  0.08663700  0.88005900  0.28053800  1
  O  O37  1  0.91336300  0.11994100  0.71946200  1
