# generated using pymatgen
data_Mn6Zn3Si(AsO10)2
_symmetry_space_group_name_H-M   'P 1'
_cell_length_a   8.54622295
_cell_length_b   11.50148862
_cell_length_c   15.68912672
_cell_angle_alpha   90.00000000
_cell_angle_beta   105.80482995
_cell_angle_gamma   90.00000000
_symmetry_Int_Tables_number   1
_chemical_formula_structural   Mn6Zn3Si(AsO10)2
_chemical_formula_sum   'Mn24 Zn12 Si4 As8 O80'
_cell_volume   1483.85052873
_cell_formula_units_Z   4
loop_
 _symmetry_equiv_pos_site_id
 _symmetry_equiv_pos_as_xyz
  1  'x, y, z'
loop_
 _atom_site_type_symbol
 _atom_site_label
 _atom_site_symmetry_multiplicity
 _atom_site_fract_x
 _atom_site_fract_y
 _atom_site_fract_z
 _atom_site_occupancy
  Mn  Mn0  1  0.09812592  0.00000000  0.19625185  1
  Mn  Mn1  1  0.90187408  0.00000000  0.80374815  1
  Mn  Mn2  1  0.40187408  0.50000000  0.80374815  1
  Mn  Mn3  1  0.59812592  0.50000000  0.19625185  1
  Mn  Mn4  1  0.41004048  0.13382633  0.30946981  1
  Mn  Mn5  1  0.58995952  0.86617367  0.69053019  1
  Mn  Mn6  1  0.08995952  0.63382633  0.69053019  1
  Mn  Mn7  1  0.60057067  0.36617367  0.69053019  1
  Mn  Mn8  1  0.91004048  0.36617367  0.30946981  1
  Mn  Mn9  1  0.39942933  0.63382633  0.30946981  1
  Mn  Mn10  1  0.89942933  0.86617367  0.30946981  1
  Mn  Mn11  1  0.10057067  0.13382633  0.69053019  1
  Mn  Mn12  1  0.19841141  0.00000000  0.39682282  1
  Mn  Mn13  1  0.80158859  0.00000000  0.60317718  1
  Mn  Mn14  1  0.30158859  0.50000000  0.60317718  1
  Mn  Mn15  1  0.69841141  0.50000000  0.39682282  1
  Mn  Mn16  1  0.31272966  0.12423348  0.09618729  1
  Mn  Mn17  1  0.68727034  0.87576652  0.90381271  1
  Mn  Mn18  1  0.18727034  0.62423348  0.90381271  1
  Mn  Mn19  1  0.71654237  0.37576652  0.90381271  1
  Mn  Mn20  1  0.81272966  0.37576652  0.09618729  1
  Mn  Mn21  1  0.28345763  0.62423348  0.09618729  1
  Mn  Mn22  1  0.78345763  0.87576652  0.09618729  1
  Mn  Mn23  1  0.21654237  0.12423348  0.90381271  1
  Zn  Zn24  1  0.40267390  0.37901678  0.00000000  1
  Zn  Zn25  1  0.59732610  0.62098322  1.00000000  1
  Zn  Zn26  1  0.09732610  0.87901678  1.00000000  1
  Zn  Zn27  1  0.90267390  0.12098322  0.00000000  1
  Zn  Zn28  1  0.43417653  0.11538316  0.59203411  1
  Zn  Zn29  1  0.56582347  0.88461684  0.40796589  1
  Zn  Zn30  1  0.06582347  0.61538316  0.40796589  1
  Zn  Zn31  1  0.34214243  0.38461684  0.40796589  1
  Zn  Zn32  1  0.93417653  0.38461684  0.59203411  1
  Zn  Zn33  1  0.65785757  0.61538316  0.59203411  1
  Zn  Zn34  1  0.15785757  0.88461684  0.59203411  1
  Zn  Zn35  1  0.84214243  0.11538316  0.40796589  1
  Si  Si36  1  0.63669362  0.25000000  0.50000000  1
  Si  Si37  1  0.36330638  0.75000000  0.50000000  1
  Si  Si38  1  0.86330638  0.75000000  0.50000000  1
  Si  Si39  1  0.13669362  0.25000000  0.50000000  1
  As  As40  1  0.21274227  0.36492603  0.19804719  1
  As  As41  1  0.78725773  0.63507397  0.80195281  1
  As  As42  1  0.28725773  0.86492603  0.80195281  1
  As  As43  1  0.51469508  0.13507397  0.80195281  1
  As  As44  1  0.71274227  0.13507397  0.19804719  1
  As  As45  1  0.48530492  0.86492603  0.19804719  1
  As  As46  1  0.98530492  0.63507397  0.19804719  1
  As  As47  1  0.01469508  0.36492603  0.80195281  1
  O  O48  1  0.74398241  0.12831816  0.50547566  1
  O  O49  1  0.25601759  0.87168184  0.49452434  1
  O  O50  1  0.75601759  0.62831816  0.49452434  1
  O  O51  1  0.73850675  0.37168184  0.49452434  1
  O  O52  1  0.24398241  0.37168184  0.50547566  1
  O  O53  1  0.26149325  0.62831816  0.50547566  1
  O  O54  1  0.76149325  0.87168184  0.50547566  1
  O  O55  1  0.23850675  0.12831816  0.49452434  1
  O  O56  1  0.34739564  0.24724694  0.20468851  1
  O  O57  1  0.65260436  0.75275306  0.79531149  1
  O  O58  1  0.15260436  0.74724694  0.79531149  1
  O  O59  1  0.64270712  0.25275306  0.79531149  1
  O  O60  1  0.84739564  0.25275306  0.20468851  1
  O  O61  1  0.35729288  0.74724694  0.20468851  1
  O  O62  1  0.85729288  0.75275306  0.20468851  1
  O  O63  1  0.14270712  0.24724694  0.79531149  1
  O  O64  1  0.05158560  0.36402189  0.10806828  1
  O  O65  1  0.94841440  0.63597811  0.89193172  1
  O  O66  1  0.44841440  0.86402189  0.89193172  1
  O  O67  1  0.44351733  0.13597811  0.89193172  1
  O  O68  1  0.55158560  0.13597811  0.10806828  1
  O  O69  1  0.55648267  0.86402189  0.10806828  1
  O  O70  1  0.05648267  0.63597811  0.10806828  1
  O  O71  1  0.94351733  0.36402189  0.89193172  1
  O  O72  1  0.17752408  0.10687225  0.29897603  1
  O  O73  1  0.82247592  0.89312775  0.70102397  1
  O  O74  1  0.32247592  0.60687225  0.70102397  1
  O  O75  1  0.37854805  0.39312775  0.70102397  1
  O  O76  1  0.67752408  0.39312775  0.29897603  1
  O  O77  1  0.62145195  0.60687225  0.29897603  1
  O  O78  1  0.12145195  0.89312775  0.29897603  1
  O  O79  1  0.87854805  0.10687225  0.70102397  1
  O  O80  1  0.42241143  0.01467705  0.39571465  1
  O  O81  1  0.57758857  0.98532295  0.60428535  1
  O  O82  1  0.07758857  0.51467705  0.60428535  1
  O  O83  1  0.52669678  0.48532295  0.60428535  1
  O  O84  1  0.92241143  0.48532295  0.39571465  1
  O  O85  1  0.47330322  0.51467705  0.39571465  1
  O  O86  1  0.97330322  0.98532295  0.39571465  1
  O  O87  1  0.02669678  0.01467705  0.60428535  1
  O  O88  1  0.35990986  0.13014799  0.70331992  1
  O  O89  1  0.64009014  0.86985201  0.29668008  1
  O  O90  1  0.14009014  0.63014799  0.29668008  1
  O  O91  1  0.15658993  0.36985201  0.29668008  1
  O  O92  1  0.85990986  0.36985201  0.70331992  1
  O  O93  1  0.84341007  0.63014799  0.70331992  1
  O  O94  1  0.34341007  0.86985201  0.70331992  1
  O  O95  1  0.65658993  0.13014799  0.29668008  1
  O  O96  1  0.09591962  0.11359767  0.10654395  1
  O  O97  1  0.90408038  0.88640233  0.89345605  1
  O  O98  1  0.40408038  0.61359767  0.89345605  1
  O  O99  1  0.48937568  0.38640233  0.89345605  1
  O  O100  1  0.59591962  0.38640233  0.10654395  1
  O  O101  1  0.51062432  0.61359767  0.10654395  1
  O  O102  1  0.01062432  0.88640233  0.10654395  1
  O  O103  1  0.98937568  0.11359767  0.89345605  1
  O  O104  1  0.27392610  0.23670497  1.00000000  1
  O  O105  1  0.72607390  0.76329503  0.00000000  1
  O  O106  1  0.22607390  0.73670497  0.00000000  1
  O  O107  1  0.77392610  0.26329503  1.00000000  1
  O  O108  1  0.25781139  0.01240169  0.00000000  1
  O  O109  1  0.74218861  0.98759831  1.00000000  1
  O  O110  1  0.24218861  0.51240169  1.00000000  1
  O  O111  1  0.75781139  0.48759831  0.00000000  1
  O  O112  1  0.48635746  0.25173006  0.40991923  1
  O  O113  1  0.51364254  0.74826994  0.59008077  1
  O  O114  1  0.01364254  0.75173006  0.59008077  1
  O  O115  1  0.57643823  0.24826994  0.59008077  1
  O  O116  1  0.98635746  0.24826994  0.40991923  1
  O  O117  1  0.42356177  0.75173006  0.40991923  1
  O  O118  1  0.92356177  0.74826994  0.40991923  1
  O  O119  1  0.07643823  0.25173006  0.59008077  1
  O  O120  1  0.63673180  0.01082560  0.80447001  1
  O  O121  1  0.36326820  0.98917440  0.19552999  1
  O  O122  1  0.86326820  0.51082560  0.19552999  1
  O  O123  1  0.33226179  0.48917440  0.19552999  1
  O  O124  1  0.13673180  0.48917440  0.80447001  1
  O  O125  1  0.66773821  0.51082560  0.80447001  1
  O  O126  1  0.16773821  0.98917440  0.80447001  1
  O  O127  1  0.83226179  0.01082560  0.19552999  1
