# generated using pymatgen
data_K3Tc2Cl8O3
_symmetry_space_group_name_H-M   'P 1'
_cell_length_a   13.13837430
_cell_length_b   13.13837430
_cell_length_c   8.34345800
_cell_angle_alpha   90.00000000
_cell_angle_beta   90.00000000
_cell_angle_gamma   120.00000153
_symmetry_Int_Tables_number   1
_chemical_formula_structural   K3Tc2Cl8O3
_chemical_formula_sum   'K9 Tc6 Cl24 O9'
_cell_volume   1247.26854535
_cell_formula_units_Z   3
loop_
 _symmetry_equiv_pos_site_id
 _symmetry_equiv_pos_as_xyz
  1  'x, y, z'
loop_
 _atom_site_type_symbol
 _atom_site_label
 _atom_site_symmetry_multiplicity
 _atom_site_fract_x
 _atom_site_fract_y
 _atom_site_fract_z
 _atom_site_occupancy
  K  K0  1  0.71826200  0.00000000  0.33333300  1
  K  K1  1  0.00000000  0.71826200  0.66666700  1
  K  K2  1  0.28173800  0.28173800  0.00000000  1
  K  K3  1  0.50969200  0.18090700  0.74649200  1
  K  K4  1  0.81909300  0.32878400  0.07982500  1
  K  K5  1  0.18090700  0.50969200  0.25350800  1
  K  K6  1  0.67121600  0.49030800  0.41315900  1
  K  K7  1  0.32878400  0.81909300  0.92017500  1
  K  K8  1  0.49030800  0.67121600  0.58684100  1
  Tc  Tc9  1  0.08322300  0.44426100  0.72996900  1
  Tc  Tc10  1  0.55573900  0.63896200  0.06330200  1
  Tc  Tc11  1  0.44426100  0.08322300  0.27003100  1
  Tc  Tc12  1  0.36103800  0.91677700  0.39663500  1
  Tc  Tc13  1  0.63896200  0.55573900  0.93669800  1
  Tc  Tc14  1  0.91677700  0.36103800  0.60336500  1
  Cl  Cl15  1  0.20381800  0.62994900  0.60122300  1
  Cl  Cl16  1  0.37005100  0.57386900  0.93455600  1
  Cl  Cl17  1  0.62994900  0.20381800  0.39877700  1
  Cl  Cl18  1  0.42613100  0.79618200  0.26788900  1
  Cl  Cl19  1  0.57386900  0.37005100  0.06544400  1
  Cl  Cl20  1  0.79618200  0.42613100  0.73211100  1
  Cl  Cl21  1  0.49950600  0.43756800  0.73377100  1
  Cl  Cl22  1  0.56243200  0.06193800  0.06710500  1
  Cl  Cl23  1  0.43756800  0.49950600  0.26622900  1
  Cl  Cl24  1  0.93806200  0.50049400  0.40043800  1
  Cl  Cl25  1  0.06193800  0.56243200  0.93289500  1
  Cl  Cl26  1  0.50049400  0.93806200  0.59956200  1
  Cl  Cl27  1  0.05269900  0.31269200  0.93789600  1
  Cl  Cl28  1  0.68730800  0.74000700  0.27122900  1
  Cl  Cl29  1  0.31269200  0.05269900  0.06210400  1
  Cl  Cl30  1  0.25999300  0.94730100  0.60456200  1
  Cl  Cl31  1  0.74000700  0.68730800  0.72877100  1
  Cl  Cl32  1  0.94730100  0.25999300  0.39543800  1
  Cl  Cl33  1  0.19593300  0.37992900  0.59549900  1
  Cl  Cl34  1  0.62007100  0.81600400  0.92883200  1
  Cl  Cl35  1  0.37992900  0.19593300  0.40450100  1
  Cl  Cl36  1  0.18399600  0.80406700  0.26216500  1
  Cl  Cl37  1  0.81600400  0.62007100  0.07116800  1
  Cl  Cl38  1  0.80406700  0.18399600  0.73783500  1
  O  O39  1  0.15028500  0.09267300  0.78834400  1
  O  O40  1  0.90732700  0.05761200  0.12167700  1
  O  O41  1  0.09267300  0.15028500  0.21165600  1
  O  O42  1  0.94238800  0.84971500  0.45501000  1
  O  O43  1  0.05761200  0.90732700  0.87832300  1
  O  O44  1  0.84971500  0.94238800  0.54499000  1
  O  O45  1  0.05088300  0.00000000  0.83333300  1
  O  O46  1  0.00000000  0.05088300  0.16666700  1
  O  O47  1  0.94911700  0.94911700  0.50000000  1
