# generated using pymatgen
data_K2Be3Ni2F12
_symmetry_space_group_name_H-M   'P 1'
_cell_length_a   10.03274000
_cell_length_b   10.03274000
_cell_length_c   10.03274000
_cell_angle_alpha   90.00000000
_cell_angle_beta   90.00000000
_cell_angle_gamma   90.00000000
_symmetry_Int_Tables_number   1
_chemical_formula_structural   K2Be3Ni2F12
_chemical_formula_sum   'K8 Be12 Ni8 F48'
_cell_volume   1009.85419232
_cell_formula_units_Z   4
loop_
 _symmetry_equiv_pos_site_id
 _symmetry_equiv_pos_as_xyz
  1  'x, y, z'
loop_
 _atom_site_type_symbol
 _atom_site_label
 _atom_site_symmetry_multiplicity
 _atom_site_fract_x
 _atom_site_fract_y
 _atom_site_fract_z
 _atom_site_occupancy
  K  K0  1  0.04971200  0.04971200  0.04971200  1
  K  K1  1  0.45028800  0.95028800  0.54971200  1
  K  K2  1  0.95028800  0.54971200  0.45028800  1
  K  K3  1  0.54971200  0.45028800  0.95028800  1
  K  K4  1  0.81565600  0.81565600  0.81565600  1
  K  K5  1  0.68434400  0.18434400  0.31565600  1
  K  K6  1  0.18434400  0.31565600  0.68434400  1
  K  K7  1  0.31565600  0.68434400  0.18434400  1
  Be  Be8  1  0.02009700  0.21394000  0.37561000  1
  Be  Be9  1  0.47990300  0.78606000  0.87561000  1
  Be  Be10  1  0.97990300  0.71394000  0.12439000  1
  Be  Be11  1  0.37561000  0.02009700  0.21394000  1
  Be  Be12  1  0.52009700  0.28606000  0.62439000  1
  Be  Be13  1  0.87561000  0.47990300  0.78606000  1
  Be  Be14  1  0.12439000  0.97990300  0.71394000  1
  Be  Be15  1  0.62439000  0.52009700  0.28606000  1
  Be  Be16  1  0.21394000  0.37561000  0.02009700  1
  Be  Be17  1  0.71394000  0.12439000  0.97990300  1
  Be  Be18  1  0.28606000  0.62439000  0.52009700  1
  Be  Be19  1  0.78606000  0.87561000  0.47990300  1
  Ni  Ni20  1  0.33579500  0.33579500  0.33579500  1
  Ni  Ni21  1  0.16420500  0.66420500  0.83579500  1
  Ni  Ni22  1  0.66420500  0.83579500  0.16420500  1
  Ni  Ni23  1  0.83579500  0.16420500  0.66420500  1
  Ni  Ni24  1  0.59923000  0.59923000  0.59923000  1
  Ni  Ni25  1  0.90077000  0.40077000  0.09923000  1
  Ni  Ni26  1  0.40077000  0.09923000  0.90077000  1
  Ni  Ni27  1  0.09923000  0.90077000  0.40077000  1
  F  F28  1  0.01196800  0.06736900  0.32734500  1
  F  F29  1  0.48803200  0.93263100  0.82734500  1
  F  F30  1  0.98803200  0.56736900  0.17265500  1
  F  F31  1  0.32734500  0.01196800  0.06736900  1
  F  F32  1  0.51196800  0.43263100  0.67265500  1
  F  F33  1  0.82734500  0.48803200  0.93263100  1
  F  F34  1  0.17265500  0.98803200  0.56736900  1
  F  F35  1  0.67265500  0.51196800  0.43263100  1
  F  F36  1  0.06736900  0.32734500  0.01196800  1
  F  F37  1  0.56736900  0.17265500  0.98803200  1
  F  F38  1  0.43263100  0.67265500  0.51196800  1
  F  F39  1  0.93263100  0.82734500  0.48803200  1
  F  F40  1  0.26533800  0.49571200  0.43644200  1
  F  F41  1  0.23466200  0.50428800  0.93644200  1
  F  F42  1  0.73466200  0.99571200  0.06355800  1
  F  F43  1  0.43644200  0.26533800  0.49571200  1
  F  F44  1  0.76533800  0.00428800  0.56355800  1
  F  F45  1  0.93644200  0.23466200  0.50428800  1
  F  F46  1  0.06355800  0.73466200  0.99571200  1
  F  F47  1  0.56355800  0.76533800  0.00428800  1
  F  F48  1  0.49571200  0.43644200  0.26533800  1
  F  F49  1  0.99571200  0.06355800  0.73466200  1
  F  F50  1  0.00428800  0.56355800  0.76533800  1
  F  F51  1  0.50428800  0.93644200  0.23466200  1
  F  F52  1  0.04696400  0.80671100  0.22931900  1
  F  F53  1  0.45303600  0.19328900  0.72931900  1
  F  F54  1  0.95303600  0.30671100  0.27068100  1
  F  F55  1  0.22931900  0.04696400  0.80671100  1
  F  F56  1  0.54696400  0.69328900  0.77068100  1
  F  F57  1  0.72931900  0.45303600  0.19328900  1
  F  F58  1  0.27068100  0.95303600  0.30671100  1
  F  F59  1  0.77068100  0.54696400  0.69328900  1
  F  F60  1  0.80671100  0.22931900  0.04696400  1
  F  F61  1  0.30671100  0.27068100  0.95303600  1
  F  F62  1  0.69328900  0.77068100  0.54696400  1
  F  F63  1  0.19328900  0.72931900  0.45303600  1
  F  F64  1  0.16494700  0.25516000  0.40460000  1
  F  F65  1  0.33505300  0.74484000  0.90460000  1
  F  F66  1  0.83505300  0.75516000  0.09540000  1
  F  F67  1  0.40460000  0.16494700  0.25516000  1
  F  F68  1  0.66494700  0.24484000  0.59540000  1
  F  F69  1  0.90460000  0.33505300  0.74484000  1
  F  F70  1  0.09540000  0.83505300  0.75516000  1
  F  F71  1  0.59540000  0.66494700  0.24484000  1
  F  F72  1  0.25516000  0.40460000  0.16494700  1
  F  F73  1  0.75516000  0.09540000  0.83505300  1
  F  F74  1  0.24484000  0.59540000  0.66494700  1
  F  F75  1  0.74484000  0.90460000  0.33505300  1
