# generated using pymatgen
data_InSb2
_symmetry_space_group_name_H-M   'P 1'
_cell_length_a   15.71030900
_cell_length_b   16.54748100
_cell_length_c   16.63645400
_cell_angle_alpha   90.00000000
_cell_angle_beta   90.00000000
_cell_angle_gamma   90.00000000
_symmetry_Int_Tables_number   1
_chemical_formula_structural   InSb2
_chemical_formula_sum   'In1 Sb2'
_cell_volume   4324.91306073
_cell_formula_units_Z   1
loop_
 _symmetry_equiv_pos_site_id
 _symmetry_equiv_pos_as_xyz
  1  'x, y, z'
loop_
 _atom_site_type_symbol
 _atom_site_label
 _atom_site_symmetry_multiplicity
 _atom_site_fract_x
 _atom_site_fract_y
 _atom_site_fract_z
 _atom_site_occupancy
  In  In0  1  0.50000000  0.00000000  0.50000000  1
  Sb  Sb1  1  0.50000000  0.83701000  0.50000000  1
  Sb  Sb2  1  0.50000000  0.16299000  0.50000000  1
