# generated using pymatgen
data_In2P3H3O10
_symmetry_space_group_name_H-M   'P 1'
_cell_length_a   6.71944625
_cell_length_b   7.55427715
_cell_length_c   10.46683100
_cell_angle_alpha   90.00000000
_cell_angle_beta   90.00000000
_cell_angle_gamma   108.44686297
_symmetry_Int_Tables_number   1
_chemical_formula_structural   In2P3H3O10
_chemical_formula_sum   'In4 P6 H6 O20'
_cell_volume   504.00257132
_cell_formula_units_Z   2
loop_
 _symmetry_equiv_pos_site_id
 _symmetry_equiv_pos_as_xyz
  1  'x, y, z'
loop_
 _atom_site_type_symbol
 _atom_site_label
 _atom_site_symmetry_multiplicity
 _atom_site_fract_x
 _atom_site_fract_y
 _atom_site_fract_z
 _atom_site_occupancy
  In  In0  1  0.92832500  0.46897100  0.98463100  1
  In  In1  1  0.07167500  0.53102900  0.48463100  1
  In  In2  1  0.67714500  0.75440800  0.81987200  1
  In  In3  1  0.32285500  0.24559200  0.31987200  1
  P  P4  1  0.80539500  0.19003900  0.70805300  1
  P  P5  1  0.19460500  0.80996100  0.20805300  1
  P  P6  1  0.59372800  0.60027900  0.52074600  1
  P  P7  1  0.40627200  0.39972100  0.02074600  1
  P  P8  1  0.19905700  0.80667600  0.76490400  1
  P  P9  1  0.80094300  0.19332400  0.26490400  1
  H  H10  1  0.19925800  0.99243500  0.75774800  1
  H  H11  1  0.80074200  0.00756500  0.25774800  1
  H  H12  1  0.59618700  0.78352800  0.49442900  1
  H  H13  1  0.40381300  0.21647200  0.99442900  1
  H  H14  1  0.61345400  0.18422200  0.65044000  1
  H  H15  1  0.38654600  0.81577800  0.15044000  1
  O  O16  1  0.81768800  0.99005400  0.70419500  1
  O  O17  1  0.18231200  0.00994600  0.20419500  1
  O  O18  1  0.38764700  0.80626500  0.84635600  1
  O  O19  1  0.61235300  0.19373500  0.34635600  1
  O  O20  1  0.79442400  0.25661300  0.84580200  1
  O  O21  1  0.20557600  0.74338700  0.34580200  1
  O  O22  1  0.20150000  0.73733900  0.62812100  1
  O  O23  1  0.79850000  0.26266100  0.12812100  1
  O  O24  1  0.59182800  0.56808900  0.66482900  1
  O  O25  1  0.40817200  0.43191100  0.16482900  1
  O  O26  1  0.98926500  0.69972900  0.83750500  1
  O  O27  1  0.01073500  0.30027100  0.33750500  1
  O  O28  1  0.77727100  0.56785300  0.45059900  1
  O  O29  1  0.22272900  0.43214700  0.95059900  1
  O  O30  1  0.98585700  0.31913700  0.62824900  1
  O  O31  1  0.01414300  0.68086300  0.12824900  1
  O  O32  1  0.80651100  0.91279200  0.00334700  1
  O  O33  1  0.19348900  0.08720800  0.50334700  1
  O  O34  1  0.61974400  0.52818700  0.96205400  1
  O  O35  1  0.38025600  0.47181300  0.46205400  1
