# generated using pymatgen
data_HgH4C12O3F8
_symmetry_space_group_name_H-M   'P 1'
_cell_length_a   7.52224029
_cell_length_b   8.96625235
_cell_length_c   12.17973784
_cell_angle_alpha   84.14346640
_cell_angle_beta   99.55350089
_cell_angle_gamma   100.63594999
_symmetry_Int_Tables_number   1
_chemical_formula_structural   HgH4C12O3F8
_chemical_formula_sum   'Hg2 H8 C24 O6 F16'
_cell_volume   794.00402701
_cell_formula_units_Z   2
loop_
 _symmetry_equiv_pos_site_id
 _symmetry_equiv_pos_as_xyz
  1  'x, y, z'
loop_
 _atom_site_type_symbol
 _atom_site_label
 _atom_site_symmetry_multiplicity
 _atom_site_fract_x
 _atom_site_fract_y
 _atom_site_fract_z
 _atom_site_occupancy
  Hg  Hg0  1  0.34093000  0.05536200  0.68217300  1
  Hg  Hg1  1  0.65907000  0.94463800  0.31782700  1
  H  H2  1  0.11195700  0.33864200  0.82979600  1
  H  H3  1  0.88804300  0.66135800  0.17020400  1
  H  H4  1  0.64231700  0.53568600  0.25899800  1
  H  H5  1  0.35768300  0.46431400  0.74100200  1
  H  H6  1  0.05106800  0.33153400  0.70174100  1
  H  H7  1  0.94893200  0.66846600  0.29825900  1
  H  H8  1  0.31426900  0.58411100  0.14772600  1
  H  H9  1  0.68573100  0.41588900  0.85227400  1
  C  C10  1  0.57444900  0.25169000  0.52238400  1
  C  C11  1  0.42555100  0.74831000  0.47761600  1
  C  C12  1  0.29512400  0.33280300  0.36394600  1
  C  C13  1  0.70487600  0.66719700  0.63605400  1
  C  C14  1  0.47641700  0.39374700  0.34835200  1
  C  C15  1  0.52358300  0.60625300  0.65164800  1
  C  C16  1  0.90170700  0.20694300  0.04018400  1
  C  C17  1  0.09829300  0.79305700  0.95981600  1
  C  C18  1  0.87156100  0.11126200  0.13491600  1
  C  C19  1  0.12843900  0.88873800  0.86508400  1
  C  C20  1  0.39619500  0.19209900  0.53859500  1
  C  C21  1  0.60380500  0.80790100  0.46140500  1
  C  C22  1  0.61564900  0.34888900  0.43014700  1
  C  C23  1  0.38435100  0.65111100  0.56985300  1
  C  C24  1  0.70407200  0.08229200  0.17375700  1
  C  C25  1  0.29592800  0.91770800  0.82624300  1
  C  C26  1  0.56513600  0.15275700  0.11291800  1
  C  C27  1  0.43486400  0.84724300  0.88708200  1
  C  C28  1  0.59159700  0.24860700  0.01802500  1
  C  C29  1  0.40840300  0.75139300  0.98197500  1
  C  C30  1  0.23924000  0.72171500  0.02077300  1
  C  C31  1  0.76076000  0.27828500  0.97922700  1
  C  C32  1  0.25915000  0.23435200  0.45663700  1
  C  C33  1  0.74085000  0.76564800  0.54336300  1
  O  O34  1  0.15867600  0.34435300  0.75899000  1
  O  O35  1  0.84132400  0.65564700  0.24101000  1
  O  O36  1  0.50882800  0.49028600  0.25822600  1
  O  O37  1  0.49117200  0.50971400  0.74177400  1
  O  O38  1  0.20637900  0.62952500  0.11305900  1
  O  O39  1  0.79362100  0.37047500  0.88694100  1
  F  F40  1  0.28351400  0.78431300  0.39947100  1
  F  F41  1  0.71648600  0.21568700  0.60052900  1
  F  F42  1  0.06746700  0.23284300  0.00426100  1
  F  F43  1  0.93253300  0.76715700  0.99573900  1
  F  F44  1  0.39746500  0.12729000  0.14673500  1
  F  F45  1  0.60253500  0.87271000  0.85326500  1
  F  F46  1  0.20724400  0.59425800  0.58137300  1
  F  F47  1  0.79275600  0.40574200  0.41862700  1
  F  F48  1  0.08071600  0.17939700  0.46785100  1
  F  F49  1  0.91928400  0.82060300  0.53214900  1
  F  F50  1  0.15520900  0.37322900  0.28813800  1
  F  F51  1  0.84479100  0.62677100  0.71186200  1
  F  F52  1  0.54606400  0.68302600  0.04072100  1
  F  F53  1  0.45393600  0.31697400  0.95927900  1
  F  F54  1  0.01179700  0.04401000  0.19150000  1
  F  F55  1  0.98820300  0.95599000  0.80850000  1
