# generated using pymatgen
data_HoFe3(BO3)4
_symmetry_space_group_name_H-M   'P 1'
_cell_length_a   9.60005791
_cell_length_b   9.60005791
_cell_length_c   7.62754800
_cell_angle_alpha   90.00000000
_cell_angle_beta   90.00000000
_cell_angle_gamma   119.99999937
_symmetry_Int_Tables_number   1
_chemical_formula_structural   HoFe3(BO3)4
_chemical_formula_sum   'Ho3 Fe9 B12 O36'
_cell_volume   608.78408335
_cell_formula_units_Z   3
loop_
 _symmetry_equiv_pos_site_id
 _symmetry_equiv_pos_as_xyz
  1  'x, y, z'
loop_
 _atom_site_type_symbol
 _atom_site_label
 _atom_site_symmetry_multiplicity
 _atom_site_fract_x
 _atom_site_fract_y
 _atom_site_fract_z
 _atom_site_occupancy
  Ho  Ho0  1  0.66443500  0.00000000  0.33333300  1
  Ho  Ho1  1  0.00000000  0.66443500  0.66666700  1
  Ho  Ho2  1  0.33556500  0.33556500  0.00000000  1
  Fe  Fe3  1  0.54925600  0.21213600  0.65494200  1
  Fe  Fe4  1  0.78786400  0.33712100  0.98827600  1
  Fe  Fe5  1  0.21213600  0.54925600  0.34505800  1
  Fe  Fe6  1  0.66287900  0.45074400  0.32160900  1
  Fe  Fe7  1  0.33712100  0.78786400  0.01172400  1
  Fe  Fe8  1  0.45074400  0.66287900  0.67839100  1
  Fe  Fe9  1  0.11604000  0.00000000  0.33333300  1
  Fe  Fe10  1  0.00000000  0.11604000  0.66666700  1
  Fe  Fe11  1  0.88396000  0.88396000  0.00000000  1
  B  B12  1  0.22132000  0.00000000  0.83333300  1
  B  B13  1  0.00000000  0.22132000  0.16666700  1
  B  B14  1  0.77868000  0.77868000  0.50000000  1
  B  B15  1  0.12528900  0.44856700  0.84932500  1
  B  B16  1  0.55143300  0.67672200  0.18265800  1
  B  B17  1  0.44856700  0.12528900  0.15067500  1
  B  B18  1  0.32327800  0.87471100  0.51599100  1
  B  B19  1  0.67672200  0.55143300  0.81734200  1
  B  B20  1  0.87471100  0.32327800  0.48400900  1
  B  B21  1  0.66876800  0.00000000  0.83333300  1
  B  B22  1  0.00000000  0.66876800  0.16666700  1
  B  B23  1  0.33123200  0.33123200  0.50000000  1
  O  O24  1  0.12445100  0.30577200  0.82332300  1
  O  O25  1  0.69422800  0.81867900  0.15665600  1
  O  O26  1  0.30577200  0.12445100  0.17667700  1
  O  O27  1  0.18132100  0.87554900  0.48999000  1
  O  O28  1  0.81867900  0.69422800  0.84334400  1
  O  O29  1  0.87554900  0.18132100  0.51001000  1
  O  O30  1  0.36126200  0.14748000  0.81374600  1
  O  O31  1  0.85252000  0.21378200  0.14707900  1
  O  O32  1  0.14748000  0.36126200  0.18625400  1
  O  O33  1  0.78621800  0.63873800  0.48041200  1
  O  O34  1  0.21378200  0.85252000  0.85292100  1
  O  O35  1  0.63873800  0.78621800  0.51958800  1
  O  O36  1  0.32957200  0.47434000  0.50847700  1
  O  O37  1  0.52566000  0.85523200  0.84181000  1
  O  O38  1  0.47434000  0.32957200  0.49152300  1
  O  O39  1  0.14476800  0.67042800  0.17514400  1
  O  O40  1  0.85523200  0.52566000  0.15819000  1
  O  O41  1  0.67042800  0.14476800  0.82485600  1
  O  O42  1  0.07789400  0.00000000  0.83333300  1
  O  O43  1  0.00000000  0.07789400  0.16666700  1
  O  O44  1  0.92210600  0.92210600  0.50000000  1
  O  O45  1  0.47469300  0.00852300  0.51685500  1
  O  O46  1  0.99147700  0.46617000  0.85018800  1
  O  O47  1  0.00852300  0.47469300  0.48314500  1
  O  O48  1  0.53383000  0.52530700  0.18352200  1
  O  O49  1  0.46617000  0.99147700  0.14981200  1
  O  O50  1  0.52530700  0.53383000  0.81647800  1
  O  O51  1  0.27630000  0.58122400  0.87540300  1
  O  O52  1  0.41877600  0.69507600  0.20873600  1
  O  O53  1  0.58122400  0.27630000  0.12459700  1
  O  O54  1  0.30492400  0.72370000  0.54206900  1
  O  O55  1  0.69507600  0.41877600  0.79126400  1
  O  O56  1  0.72370000  0.30492400  0.45793100  1
  O  O57  1  0.81245700  0.00000000  0.83333300  1
  O  O58  1  0.00000000  0.81245700  0.16666700  1
  O  O59  1  0.18754300  0.18754300  0.50000000  1
