# generated using pymatgen
data_MnSN2O4F3
_symmetry_space_group_name_H-M   'P 1'
_cell_length_a   11.65491600
_cell_length_b   7.25456500
_cell_length_c   9.30274965
_cell_angle_alpha   88.38296370
_cell_angle_beta   90.00000000
_cell_angle_gamma   90.00000000
_symmetry_Int_Tables_number   1
_chemical_formula_structural   MnSN2O4F3
_chemical_formula_sum   'Mn4 S4 N8 O16 F12'
_cell_volume   786.24676840
_cell_formula_units_Z   4
loop_
 _symmetry_equiv_pos_site_id
 _symmetry_equiv_pos_as_xyz
  1  'x, y, z'
loop_
 _atom_site_type_symbol
 _atom_site_label
 _atom_site_symmetry_multiplicity
 _atom_site_fract_x
 _atom_site_fract_y
 _atom_site_fract_z
 _atom_site_occupancy
  Mn  Mn0  1  0.00000000  0.00000000  0.00000000  1
  Mn  Mn1  1  0.50000000  0.00000000  0.50000000  1
  Mn  Mn2  1  0.00000000  0.50000000  0.00000000  1
  Mn  Mn3  1  0.50000000  0.50000000  0.50000000  1
  S  S4  1  0.97479300  0.25872300  0.29280100  1
  S  S5  1  0.02520700  0.74127700  0.70719900  1
  S  S6  1  0.47479300  0.74127700  0.20719900  1
  S  S7  1  0.52520700  0.25872300  0.79280100  1
  N  N8  1  0.65880800  0.07560500  0.14648800  1
  N  N9  1  0.34119200  0.92439500  0.85351200  1
  N  N10  1  0.15880800  0.92439500  0.35351200  1
  N  N11  1  0.84119200  0.07560500  0.64648800  1
  N  N12  1  0.31805000  0.30127200  0.16235800  1
  N  N13  1  0.68195000  0.69872800  0.83764200  1
  N  N14  1  0.81805000  0.69872800  0.33764200  1
  N  N15  1  0.18195000  0.30127200  0.66235800  1
  O  O16  1  0.05831900  0.37884700  0.22116100  1
  O  O17  1  0.94168100  0.62115300  0.77883900  1
  O  O18  1  0.55831900  0.62115300  0.27883900  1
  O  O19  1  0.44168100  0.37884700  0.72116100  1
  O  O20  1  0.56863100  0.09998800  0.71645200  1
  O  O21  1  0.43136900  0.90001200  0.28354800  1
  O  O22  1  0.06863100  0.90001200  0.78354800  1
  O  O23  1  0.93136900  0.09998800  0.21645200  1
  O  O24  1  0.14509700  0.07133800  0.39325100  1
  O  O25  1  0.85490300  0.92866200  0.60674900  1
  O  O26  1  0.64509700  0.92866200  0.10674900  1
  O  O27  1  0.35490300  0.07133800  0.89325100  1
  O  O28  1  0.41295200  0.68067100  0.08365700  1
  O  O29  1  0.58704800  0.31932900  0.91634300  1
  O  O30  1  0.91295200  0.31932900  0.41634300  1
  O  O31  1  0.08704800  0.68067100  0.58365700  1
  F  F32  1  0.14470600  0.01977000  0.07099700  1
  F  F33  1  0.85529400  0.98023000  0.92900300  1
  F  F34  1  0.64470600  0.98023000  0.42900300  1
  F  F35  1  0.35529400  0.01977000  0.57099700  1
  F  F36  1  0.49432500  0.25429000  0.42453000  1
  F  F37  1  0.50567500  0.74571000  0.57547000  1
  F  F38  1  0.99432500  0.74571000  0.07547000  1
  F  F39  1  0.00567500  0.25429000  0.92453000  1
  F  F40  1  0.36143500  0.55194000  0.41667300  1
  F  F41  1  0.63856500  0.44806000  0.58332700  1
  F  F42  1  0.86143500  0.44806000  0.08332700  1
  F  F43  1  0.13856500  0.55194000  0.91667300  1
