# generated using pymatgen
data_GdSBr
_symmetry_space_group_name_H-M   'P 1'
_cell_length_a   6.96979700
_cell_length_b   6.82156900
_cell_length_c   6.83969742
_cell_angle_alpha   80.74757696
_cell_angle_beta   90.00000000
_cell_angle_gamma   90.00000000
_symmetry_Int_Tables_number   1
_chemical_formula_structural   GdSBr
_chemical_formula_sum   'Gd4 S4 Br4'
_cell_volume   320.96217719
_cell_formula_units_Z   4
loop_
 _symmetry_equiv_pos_site_id
 _symmetry_equiv_pos_as_xyz
  1  'x, y, z'
loop_
 _atom_site_type_symbol
 _atom_site_label
 _atom_site_symmetry_multiplicity
 _atom_site_fract_x
 _atom_site_fract_y
 _atom_site_fract_z
 _atom_site_occupancy
  Gd  Gd0  1  0.96466500  0.78960100  0.31870400  1
  Gd  Gd1  1  0.03533500  0.21039900  0.68129600  1
  Gd  Gd2  1  0.46466500  0.71039900  0.68129600  1
  Gd  Gd3  1  0.53533500  0.28960100  0.31870400  1
  S  S4  1  0.73978700  0.99184800  0.55431100  1
  S  S5  1  0.26021300  0.00815200  0.44568900  1
  S  S6  1  0.23978700  0.50815200  0.44568900  1
  S  S7  1  0.76021300  0.49184800  0.55431100  1
  Br  Br8  1  0.61602500  0.71266800  0.08469000  1
  Br  Br9  1  0.38397500  0.28733200  0.91531000  1
  Br  Br10  1  0.11602500  0.78733200  0.91531000  1
  Br  Br11  1  0.88397500  0.21266800  0.08469000  1
