# generated using pymatgen
data_Ho2Fe17C3
_symmetry_space_group_name_H-M   'P 1'
_cell_length_a   8.32656400
_cell_length_b   8.63035553
_cell_length_c   8.63035553
_cell_angle_alpha   119.99999642
_cell_angle_beta   90.00000000
_cell_angle_gamma   90.00000000
_symmetry_Int_Tables_number   1
_chemical_formula_structural   Ho2Fe17C3
_chemical_formula_sum   'Ho4 Fe34 C6'
_cell_volume   537.09838447
_cell_formula_units_Z   2
loop_
 _symmetry_equiv_pos_site_id
 _symmetry_equiv_pos_as_xyz
  1  'x, y, z'
loop_
 _atom_site_type_symbol
 _atom_site_label
 _atom_site_symmetry_multiplicity
 _atom_site_fract_x
 _atom_site_fract_y
 _atom_site_fract_z
 _atom_site_occupancy
  Ho  Ho0  1  0.75000000  0.00000000  0.00000000  1
  Ho  Ho1  1  0.25000000  0.00000000  0.00000000  1
  Ho  Ho2  1  0.75000000  0.66666700  0.33333300  1
  Ho  Ho3  1  0.25000000  0.33333300  0.66666700  1
  Fe  Fe4  1  0.75000000  0.62142500  0.67287400  1
  Fe  Fe5  1  0.25000000  0.37857500  0.32712600  1
  Fe  Fe6  1  0.75000000  0.05144900  0.37857500  1
  Fe  Fe7  1  0.25000000  0.94855100  0.32712600  1
  Fe  Fe8  1  0.25000000  0.94855100  0.62142500  1
  Fe  Fe9  1  0.75000000  0.05144900  0.67287400  1
  Fe  Fe10  1  0.75000000  0.32712600  0.94855100  1
  Fe  Fe11  1  0.25000000  0.67287400  0.62142500  1
  Fe  Fe12  1  0.25000000  0.67287400  0.05144900  1
  Fe  Fe13  1  0.75000000  0.32712600  0.37857500  1
  Fe  Fe14  1  0.25000000  0.37857500  0.05144900  1
  Fe  Fe15  1  0.75000000  0.62142500  0.94855100  1
  Fe  Fe16  1  0.39252100  0.66666700  0.33333300  1
  Fe  Fe17  1  0.60747900  0.33333300  0.66666700  1
  Fe  Fe18  1  0.89252100  0.33333300  0.66666700  1
  Fe  Fe19  1  0.10747900  0.66666700  0.33333300  1
  Fe  Fe20  1  0.98044500  0.83182400  0.16817600  1
  Fe  Fe21  1  0.01955500  0.16817600  0.83182400  1
  Fe  Fe22  1  0.98044500  0.33635200  0.16817600  1
  Fe  Fe23  1  0.48044500  0.16817600  0.83182400  1
  Fe  Fe24  1  0.01955500  0.66364800  0.83182400  1
  Fe  Fe25  1  0.51955500  0.83182400  0.16817600  1
  Fe  Fe26  1  0.98044500  0.83182400  0.66364800  1
  Fe  Fe27  1  0.48044500  0.66364800  0.83182400  1
  Fe  Fe28  1  0.01955500  0.16817600  0.33635200  1
  Fe  Fe29  1  0.51955500  0.33635200  0.16817600  1
  Fe  Fe30  1  0.48044500  0.16817600  0.33635200  1
  Fe  Fe31  1  0.51955500  0.83182400  0.66364800  1
  Fe  Fe32  1  0.00000000  0.50000000  0.50000000  1
  Fe  Fe33  1  0.00000000  0.00000000  0.50000000  1
  Fe  Fe34  1  0.50000000  0.50000000  0.50000000  1
  Fe  Fe35  1  0.00000000  0.50000000  0.00000000  1
  Fe  Fe36  1  0.50000000  0.00000000  0.50000000  1
  Fe  Fe37  1  0.50000000  0.50000000  0.00000000  1
  C  C38  1  0.75000000  0.83411400  0.16588600  1
  C  C39  1  0.25000000  0.16588600  0.83411400  1
  C  C40  1  0.75000000  0.33177200  0.16588600  1
  C  C41  1  0.25000000  0.66822800  0.83411400  1
  C  C42  1  0.75000000  0.83411400  0.66822800  1
  C  C43  1  0.25000000  0.16588600  0.33177200  1
