# generated using pymatgen
data_Na2Sn
_symmetry_space_group_name_H-M   'P 1'
_cell_length_a   12.99177069
_cell_length_b   12.99177069
_cell_length_c   12.99177069
_cell_angle_alpha   121.67573657
_cell_angle_beta   121.67573657
_cell_angle_gamma   87.12124532
_symmetry_Int_Tables_number   1
_chemical_formula_structural   Na2Sn
_chemical_formula_sum   'Na32 Sn16'
_cell_volume   1509.21999334
_cell_formula_units_Z   16
loop_
 _symmetry_equiv_pos_site_id
 _symmetry_equiv_pos_as_xyz
  1  'x, y, z'
loop_
 _atom_site_type_symbol
 _atom_site_label
 _atom_site_symmetry_multiplicity
 _atom_site_fract_x
 _atom_site_fract_y
 _atom_site_fract_z
 _atom_site_occupancy
  Na  Na0  1  0.26906600  0.44449100  0.20236000  1
  Na  Na1  1  0.24213100  0.06670600  0.79764000  1
  Na  Na2  1  0.19449100  0.49213100  0.67542500  1
  Na  Na3  1  0.00786900  0.30550900  0.32457500  1
  Na  Na4  1  0.48093400  0.80550900  0.29764000  1
  Na  Na5  1  0.81670600  0.51906600  0.32457500  1
  Na  Na6  1  0.98093400  0.68329400  0.67542500  1
  Na  Na7  1  0.50786900  0.18329400  0.70236000  1
  Na  Na8  1  0.43329400  0.25786900  0.20236000  1
  Na  Na9  1  0.55550900  0.75786900  0.82457500  1
  Na  Na10  1  0.05550900  0.23093400  0.79764000  1
  Na  Na11  1  0.93329400  0.73093400  0.17542500  1
  Na  Na12  1  0.74213100  0.94449100  0.17542500  1
  Na  Na13  1  0.76906600  0.56670600  0.82457500  1
  Na  Na14  1  0.69449100  0.01906600  0.70236000  1
  Na  Na15  1  0.31670600  0.99213100  0.29764000  1
  Na  Na16  1  0.56404200  0.27431800  0.50454600  1
  Na  Na17  1  0.76977100  0.05949600  0.49545400  1
  Na  Na18  1  0.02431800  0.01977100  0.21027600  1
  Na  Na19  1  0.48022900  0.47568200  0.78972400  1
  Na  Na20  1  0.18595800  0.97568200  0.99545400  1
  Na  Na21  1  0.80949600  0.81404200  0.78972400  1
  Na  Na22  1  0.68595800  0.69050400  0.21027600  1
  Na  Na23  1  0.98022900  0.19050400  0.00454600  1
  Na  Na24  1  0.44050400  0.73022900  0.50454600  1
  Na  Na25  1  0.72568200  0.23022900  0.28972400  1
  Na  Na26  1  0.22568200  0.93595800  0.49545400  1
  Na  Na27  1  0.94050400  0.43595800  0.71027600  1
  Na  Na28  1  0.26977100  0.77431800  0.71027600  1
  Na  Na29  1  0.06404200  0.55949600  0.28972400  1
  Na  Na30  1  0.52431800  0.31404200  0.00454600  1
  Na  Na31  1  0.30949600  0.51977100  0.99545400  1
  Sn  Sn32  1  0.31400600  0.50937600  0.50615300  1
  Sn  Sn33  1  0.00322300  0.80785200  0.49384700  1
  Sn  Sn34  1  0.25937600  0.25322300  0.69537000  1
  Sn  Sn35  1  0.24677700  0.24062400  0.30463000  1
  Sn  Sn36  1  0.43599400  0.74062400  0.99384700  1
  Sn  Sn37  1  0.55785200  0.56400600  0.30463000  1
  Sn  Sn38  1  0.93599400  0.94214800  0.69537000  1
  Sn  Sn39  1  0.74677700  0.44214800  0.00615300  1
  Sn  Sn40  1  0.69214800  0.49677700  0.50615300  1
  Sn  Sn41  1  0.49062400  0.99677700  0.80463000  1
  Sn  Sn42  1  0.99062400  0.18599400  0.49384700  1
  Sn  Sn43  1  0.19214800  0.68599400  0.19537000  1
  Sn  Sn44  1  0.50322300  0.00937600  0.19537000  1
  Sn  Sn45  1  0.81400600  0.30785200  0.80463000  1
  Sn  Sn46  1  0.75937600  0.06400600  0.00615300  1
  Sn  Sn47  1  0.05785200  0.75322300  0.99384700  1
