# generated using pymatgen
data_Mn2Cd3(GeO4)3
_symmetry_space_group_name_H-M   'P 1'
_cell_length_a   10.85244493
_cell_length_b   10.85244493
_cell_length_c   10.85244493
_cell_angle_alpha   109.47122063
_cell_angle_beta   109.47122063
_cell_angle_gamma   109.47122063
_symmetry_Int_Tables_number   1
_chemical_formula_structural   Mn2Cd3(GeO4)3
_chemical_formula_sum   'Mn8 Cd12 Ge12 O48'
_cell_volume   983.92247524
_cell_formula_units_Z   4
loop_
 _symmetry_equiv_pos_site_id
 _symmetry_equiv_pos_as_xyz
  1  'x, y, z'
loop_
 _atom_site_type_symbol
 _atom_site_label
 _atom_site_symmetry_multiplicity
 _atom_site_fract_x
 _atom_site_fract_y
 _atom_site_fract_z
 _atom_site_occupancy
  Mn  Mn0  1  0.00000000  0.00000000  0.00000000  1
  Mn  Mn1  1  0.50000000  0.00000000  0.50000000  1
  Mn  Mn2  1  0.00000000  0.50000000  0.50000000  1
  Mn  Mn3  1  0.50000000  0.00000000  0.00000000  1
  Mn  Mn4  1  0.50000000  0.50000000  0.00000000  1
  Mn  Mn5  1  0.50000000  0.50000000  0.50000000  1
  Mn  Mn6  1  0.00000000  0.00000000  0.50000000  1
  Mn  Mn7  1  0.00000000  0.50000000  0.00000000  1
  Cd  Cd8  1  0.25000000  0.37500000  0.12500000  1
  Cd  Cd9  1  0.75000000  0.62500000  0.87500000  1
  Cd  Cd10  1  0.75000000  0.12500000  0.37500000  1
  Cd  Cd11  1  0.12500000  0.25000000  0.37500000  1
  Cd  Cd12  1  0.37500000  0.75000000  0.12500000  1
  Cd  Cd13  1  0.25000000  0.87500000  0.62500000  1
  Cd  Cd14  1  0.87500000  0.75000000  0.62500000  1
  Cd  Cd15  1  0.62500000  0.25000000  0.87500000  1
  Cd  Cd16  1  0.37500000  0.12500000  0.25000000  1
  Cd  Cd17  1  0.62500000  0.87500000  0.75000000  1
  Cd  Cd18  1  0.12500000  0.37500000  0.75000000  1
  Cd  Cd19  1  0.87500000  0.62500000  0.25000000  1
  Ge  Ge20  1  0.25000000  0.62500000  0.37500000  1
  Ge  Ge21  1  0.75000000  0.37500000  0.62500000  1
  Ge  Ge22  1  0.75000000  0.87500000  0.12500000  1
  Ge  Ge23  1  0.37500000  0.25000000  0.62500000  1
  Ge  Ge24  1  0.62500000  0.75000000  0.37500000  1
  Ge  Ge25  1  0.25000000  0.12500000  0.87500000  1
  Ge  Ge26  1  0.12500000  0.75000000  0.87500000  1
  Ge  Ge27  1  0.87500000  0.25000000  0.12500000  1
  Ge  Ge28  1  0.62500000  0.37500000  0.25000000  1
  Ge  Ge29  1  0.37500000  0.62500000  0.75000000  1
  Ge  Ge30  1  0.87500000  0.12500000  0.75000000  1
  Ge  Ge31  1  0.12500000  0.87500000  0.25000000  1
  O  O32  1  0.48305500  0.37875700  0.29792800  1
  O  O33  1  0.51694500  0.62124300  0.70207200  1
  O  O34  1  0.58082900  0.18512700  0.20207200  1
  O  O35  1  0.91917100  0.12124300  0.60429800  1
  O  O36  1  0.29792800  0.48305500  0.37875700  1
  O  O37  1  0.31487300  0.91917100  0.29792800  1
  O  O38  1  0.41917100  0.81487300  0.79792800  1
  O  O39  1  0.08082900  0.87875700  0.39570200  1
  O  O40  1  0.70207200  0.51694500  0.62124300  1
  O  O41  1  0.68512700  0.08082900  0.70207200  1
  O  O42  1  0.01694500  0.31487300  0.89570200  1
  O  O43  1  0.20207200  0.58082900  0.18512700  1
  O  O44  1  0.12124300  0.01694500  0.20207200  1
  O  O45  1  0.98305500  0.68512700  0.10429800  1
  O  O46  1  0.79792800  0.41917100  0.81487300  1
  O  O47  1  0.87875700  0.98305500  0.79792800  1
  O  O48  1  0.60429800  0.91917100  0.12124300  1
  O  O49  1  0.18512700  0.48305500  0.60429800  1
  O  O50  1  0.39570200  0.08082900  0.87875700  1
  O  O51  1  0.81487300  0.51694500  0.39570200  1
  O  O52  1  0.89570200  0.01694500  0.31487300  1
  O  O53  1  0.37875700  0.58082900  0.89570200  1
  O  O54  1  0.10429800  0.98305500  0.68512700  1
  O  O55  1  0.62124300  0.41917100  0.10429800  1
  O  O56  1  0.37875700  0.29792800  0.48305500  1
  O  O57  1  0.58082900  0.89570200  0.37875700  1
  O  O58  1  0.62124300  0.70207200  0.51694500  1
  O  O59  1  0.41917100  0.10429800  0.62124300  1
  O  O60  1  0.12124300  0.60429800  0.91917100  1
  O  O61  1  0.01694500  0.20207200  0.12124300  1
  O  O62  1  0.87875700  0.39570200  0.08082900  1
  O  O63  1  0.98305500  0.79792800  0.87875700  1
  O  O64  1  0.31487300  0.89570200  0.01694500  1
  O  O65  1  0.91917100  0.29792800  0.31487300  1
  O  O66  1  0.68512700  0.10429800  0.98305500  1
  O  O67  1  0.08082900  0.70207200  0.68512700  1
  O  O68  1  0.18512700  0.20207200  0.58082900  1
  O  O69  1  0.48305500  0.60429800  0.18512700  1
  O  O70  1  0.81487300  0.79792800  0.41917100  1
  O  O71  1  0.51694500  0.39570200  0.81487300  1
  O  O72  1  0.29792800  0.31487300  0.91917100  1
  O  O73  1  0.70207200  0.68512700  0.08082900  1
  O  O74  1  0.20207200  0.12124300  0.01694500  1
  O  O75  1  0.79792800  0.87875700  0.98305500  1
  O  O76  1  0.89570200  0.37875700  0.58082900  1
  O  O77  1  0.10429800  0.62124300  0.41917100  1
  O  O78  1  0.60429800  0.18512700  0.48305500  1
  O  O79  1  0.39570200  0.81487300  0.51694500  1
