# generated using pymatgen
data_HfNF5
_symmetry_space_group_name_H-M   'P 1'
_cell_length_a   8.35537900
_cell_length_b   7.81397000
_cell_length_c   8.33206868
_cell_angle_alpha   63.14054474
_cell_angle_beta   90.00000000
_cell_angle_gamma   90.00000000
_symmetry_Int_Tables_number   1
_chemical_formula_structural   HfNF5
_chemical_formula_sum   'Hf4 N4 F20'
_cell_volume   485.30277784
_cell_formula_units_Z   4
loop_
 _symmetry_equiv_pos_site_id
 _symmetry_equiv_pos_as_xyz
  1  'x, y, z'
loop_
 _atom_site_type_symbol
 _atom_site_label
 _atom_site_symmetry_multiplicity
 _atom_site_fract_x
 _atom_site_fract_y
 _atom_site_fract_z
 _atom_site_occupancy
  Hf  Hf0  1  0.25030400  0.00148500  0.75207600  1
  Hf  Hf1  1  0.74969600  0.99851500  0.24792400  1
  Hf  Hf2  1  0.75030400  0.99851500  0.74792400  1
  Hf  Hf3  1  0.24969600  0.00148500  0.25207600  1
  N  N4  1  0.02405300  0.50452100  0.75082100  1
  N  N5  1  0.97594700  0.49547900  0.24917900  1
  N  N6  1  0.52405300  0.49547900  0.74917900  1
  N  N7  1  0.47594700  0.50452100  0.25082100  1
  F  F8  1  0.27518800  0.27454000  0.62248600  1
  F  F9  1  0.72481200  0.72546000  0.37751400  1
  F  F10  1  0.77518800  0.72546000  0.87751400  1
  F  F11  1  0.22481200  0.27454000  0.12248600  1
  F  F12  1  0.00661900  0.99832800  0.75325100  1
  F  F13  1  0.99338100  0.00167200  0.24674900  1
  F  F14  1  0.50661900  0.00167200  0.74674900  1
  F  F15  1  0.49338100  0.99832800  0.25325100  1
  F  F16  1  0.25191500  0.00137500  0.49881600  1
  F  F17  1  0.74808500  0.99862500  0.50118400  1
  F  F18  1  0.75191500  0.99862500  0.00118400  1
  F  F19  1  0.24808500  0.00137500  0.99881600  1
  F  F20  1  0.99892000  0.68931700  0.63181400  1
  F  F21  1  0.00108000  0.31068300  0.36818600  1
  F  F22  1  0.49892000  0.31068300  0.86818600  1
  F  F23  1  0.50108000  0.68931700  0.13181400  1
  F  F24  1  0.27771500  0.72855500  0.85374600  1
  F  F25  1  0.72228500  0.27144500  0.14625400  1
  F  F26  1  0.77771500  0.27144500  0.64625400  1
  F  F27  1  0.22228500  0.72855500  0.35374600  1
