# generated using pymatgen
data_Na2CaZr2Si10HO26
_symmetry_space_group_name_H-M   'P 1'
_cell_length_a   9.49199945
_cell_length_b   9.49199945
_cell_length_c   18.90366111
_cell_angle_alpha   81.94606803
_cell_angle_beta   81.94606803
_cell_angle_gamma   113.37634322
_symmetry_Int_Tables_number   1
_chemical_formula_structural   Na2CaZr2Si10HO26
_chemical_formula_sum   'Na4 Ca2 Zr4 Si20 H2 O52'
_cell_volume   1511.65416938
_cell_formula_units_Z   2
loop_
 _symmetry_equiv_pos_site_id
 _symmetry_equiv_pos_as_xyz
  1  'x, y, z'
loop_
 _atom_site_type_symbol
 _atom_site_label
 _atom_site_symmetry_multiplicity
 _atom_site_fract_x
 _atom_site_fract_y
 _atom_site_fract_z
 _atom_site_occupancy
  Na  Na0  1  0.03696800  0.10292000  0.80623600  1
  Na  Na1  1  0.10292000  0.03696800  0.30623600  1
  Na  Na2  1  0.32149000  0.26047800  0.98324300  1
  Na  Na3  1  0.26047800  0.32149000  0.48324300  1
  Ca  Ca4  1  0.49621400  0.72555500  0.89584100  1
  Ca  Ca5  1  0.72555500  0.49621400  0.39584100  1
  Zr  Zr6  1  0.10641100  0.60469800  0.88610300  1
  Zr  Zr7  1  0.60469800  0.10641100  0.38610300  1
  Zr  Zr8  1  0.14631300  0.63354400  0.38578300  1
  Zr  Zr9  1  0.63354400  0.14631300  0.88578300  1
  Si  Si10  1  0.39460200  0.97409200  0.77154000  1
  Si  Si11  1  0.97409200  0.39460200  0.27154000  1
  Si  Si12  1  0.87429900  0.26910600  0.00197600  1
  Si  Si13  1  0.26910600  0.87429900  0.50197600  1
  Si  Si14  1  0.82232800  0.42129700  0.62979700  1
  Si  Si15  1  0.42129700  0.82232800  0.12979700  1
  Si  Si16  1  0.88292700  0.27729500  0.49246800  1
  Si  Si17  1  0.27729500  0.88292700  0.99246800  1
  Si  Si18  1  0.93037100  0.73238500  0.51280100  1
  Si  Si19  1  0.73238500  0.93037100  0.01280100  1
  Si  Si20  1  0.73827900  0.93509300  0.50867000  1
  Si  Si21  1  0.93509300  0.73827900  0.00867000  1
  Si  Si22  1  0.97531200  0.38525400  0.76577900  1
  Si  Si23  1  0.38525400  0.97531200  0.26577900  1
  Si  Si24  1  0.42544700  0.83084800  0.63168700  1
  Si  Si25  1  0.83084800  0.42544700  0.13168700  1
  Si  Si26  1  0.32160500  0.52386200  0.75131900  1
  Si  Si27  1  0.52386200  0.32160500  0.25131900  1
  Si  Si28  1  0.31914500  0.51950400  0.25136600  1
  Si  Si29  1  0.51950400  0.31914500  0.75136600  1
  H  H30  1  0.59309400  0.50095500  0.94874000  1
  H  H31  1  0.50095500  0.59309400  0.44874000  1
  O  O32  1  0.88732300  0.60432700  0.58867900  1
  O  O33  1  0.60432700  0.88732300  0.08867900  1
  O  O34  1  0.26916700  0.75108600  0.94295000  1
  O  O35  1  0.75108600  0.26916700  0.44295000  1
  O  O36  1  0.82691900  0.31320200  0.57111600  1
  O  O37  1  0.31320200  0.82691900  0.07111600  1
  O  O38  1  0.43695000  0.94369500  0.69006900  1
  O  O39  1  0.94369500  0.43695000  0.19006900  1
  O  O40  1  0.14123100  0.37069500  0.26070800  1
  O  O41  1  0.37069500  0.14123100  0.76070800  1
  O  O42  1  0.79537400  0.79594900  0.51557200  1
  O  O43  1  0.79594900  0.79537400  0.01557200  1
  O  O44  1  0.97695900  0.52595100  0.31838900  1
  O  O45  1  0.52595100  0.97695900  0.81838900  1
  O  O46  1  0.29860400  0.84118000  0.58460200  1
  O  O47  1  0.84118000  0.29860400  0.08460200  1
  O  O48  1  0.60360100  0.31601100  0.81949300  1
  O  O49  1  0.31601100  0.60360100  0.31949300  1
  O  O50  1  0.59763500  0.89278100  0.57914900  1
  O  O51  1  0.89278100  0.59763500  0.07914900  1
  O  O52  1  0.88521700  0.10205200  0.50980400  1
  O  O53  1  0.10205200  0.88521700  0.00980400  1
  O  O54  1  0.93515600  0.40999900  0.68526900  1
  O  O55  1  0.40999900  0.93515600  0.18526900  1
  O  O56  1  0.85791700  0.21234600  0.81593000  1
  O  O57  1  0.21234600  0.85791700  0.31593000  1
  O  O58  1  0.95274500  0.68326600  0.93139200  1
  O  O59  1  0.68326600  0.95274500  0.43139200  1
  O  O60  1  0.15087400  0.37628100  0.75383400  1
  O  O61  1  0.37628100  0.15087400  0.25383400  1
  O  O62  1  0.04690600  0.40216800  0.95553400  1
  O  O63  1  0.40216800  0.04690600  0.45553400  1
  O  O64  1  0.88351300  0.09758900  0.00958700  1
  O  O65  1  0.09758900  0.88351300  0.50958700  1
  O  O66  1  0.73563800  0.26594400  0.96021700  1
  O  O67  1  0.26594400  0.73563800  0.46021700  1
  O  O68  1  0.36841400  0.65046000  0.67471600  1
  O  O69  1  0.65046000  0.36841400  0.17471600  1
  O  O70  1  0.65783500  0.93908800  0.94040100  1
  O  O71  1  0.93908800  0.65783500  0.44040100  1
  O  O72  1  0.35818100  0.64013500  0.17335000  1
  O  O73  1  0.64013500  0.35818100  0.67335000  1
  O  O74  1  0.50813800  0.49334300  0.45075100  1
  O  O75  1  0.49334300  0.50813800  0.95075100  1
  O  O76  1  0.31598000  0.60543300  0.82184100  1
  O  O77  1  0.60543300  0.31598000  0.32184100  1
  O  O78  1  0.99838500  0.53428300  0.80369200  1
  O  O79  1  0.53428300  0.99838500  0.30369200  1
  O  O80  1  0.44798900  0.44838400  0.75002000  1
  O  O81  1  0.44838400  0.44798900  0.25002000  1
  O  O82  1  0.06094000  0.40307400  0.45258500  1
  O  O83  1  0.40307400  0.06094000  0.95258500  1
