# generated using pymatgen
data_K2NaTi2Fe7Si8H4O31
_symmetry_space_group_name_H-M   'P 1'
_cell_length_a   5.45028995
_cell_length_b   11.72230442
_cell_length_c   12.07849702
_cell_angle_alpha   63.93341126
_cell_angle_beta   76.91292089
_cell_angle_gamma   85.69017342
_symmetry_Int_Tables_number   1
_chemical_formula_structural   K2NaTi2Fe7Si8H4O31
_chemical_formula_sum   'K2 Na1 Ti2 Fe7 Si8 H4 O31'
_cell_volume   674.93499866
_cell_formula_units_Z   1
loop_
 _symmetry_equiv_pos_site_id
 _symmetry_equiv_pos_as_xyz
  1  'x, y, z'
loop_
 _atom_site_type_symbol
 _atom_site_label
 _atom_site_symmetry_multiplicity
 _atom_site_fract_x
 _atom_site_fract_y
 _atom_site_fract_z
 _atom_site_occupancy
  K  K0  1  0.37349000  0.00325400  0.25552200  1
  K  K1  1  0.62651000  0.99674600  0.74447800  1
  Na  Na2  1  0.00000000  0.00000000  0.00000000  1
  Ti  Ti3  1  0.49374800  0.82142300  0.07599300  1
  Ti  Ti4  1  0.50625200  0.17857700  0.92400700  1
  Fe  Fe5  1  0.56667200  0.52154900  0.34050300  1
  Fe  Fe6  1  0.43332800  0.47845100  0.65949700  1
  Fe  Fe7  1  0.15407000  0.52398000  0.20146500  1
  Fe  Fe8  1  0.84593000  0.47602000  0.79853500  1
  Fe  Fe9  1  0.70774400  0.51629700  0.06752700  1
  Fe  Fe10  1  0.29225600  0.48370300  0.93247300  1
  Fe  Fe11  1  0.00000000  0.50000000  0.50000000  1
  Si  Si12  1  0.79837400  0.25802600  0.32405500  1
  Si  Si13  1  0.20162600  0.74197400  0.67594500  1
  Si  Si14  1  0.09445200  0.23088200  0.72603000  1
  Si  Si15  1  0.90554800  0.76911800  0.27397000  1
  Si  Si16  1  0.92523100  0.23735100  0.06818800  1
  Si  Si17  1  0.07476900  0.76264900  0.93181200  1
  Si  Si18  1  0.22921500  0.25193500  0.45495000  1
  Si  Si19  1  0.77078500  0.74806500  0.54505000  1
  H  H20  1  0.32770400  0.68831700  0.40494100  1
  H  H21  1  0.67229600  0.31168300  0.59505900  1
  H  H22  1  0.38619600  0.31723600  0.15468200  1
  H  H23  1  0.61380400  0.68276400  0.84531800  1
  O  O24  1  0.85079100  0.19807900  0.22277700  1
  O  O25  1  0.14920900  0.80192100  0.77722300  1
  O  O26  1  0.22219200  0.40652600  0.40031600  1
  O  O27  1  0.77780800  0.59347400  0.59968400  1
  O  O28  1  0.47734900  0.62335900  0.16534300  1
  O  O29  1  0.52265100  0.37664100  0.83465700  1
  O  O30  1  0.09543000  0.38838600  0.66677000  1
  O  O31  1  0.90457000  0.61161400  0.33323000  1
  O  O32  1  0.01355400  0.19871900  0.41110900  1
  O  O33  1  0.98644600  0.80128100  0.58889100  1
  O  O34  1  0.32326900  0.59807400  0.46158100  1
  O  O35  1  0.67673100  0.40192600  0.53841900  1
  O  O36  1  0.70211100  0.17445400  0.04280500  1
  O  O37  1  0.29788900  0.82554600  0.95719500  1
  O  O38  1  0.19246600  0.17227900  0.04473700  1
  O  O39  1  0.80753400  0.82772100  0.95526300  1
  O  O40  1  0.05752800  0.60794600  0.01489700  1
  O  O41  1  0.94247200  0.39205400  0.98510300  1
  O  O42  1  0.18354700  0.82718300  0.19700000  1
  O  O43  1  0.81645300  0.17281700  0.80300000  1
  O  O44  1  0.37387300  0.40872100  0.11693000  1
  O  O45  1  0.62612700  0.59127900  0.88307000  1
  O  O46  1  0.31054900  0.17368400  0.80535400  1
  O  O47  1  0.68945100  0.82631600  0.19464600  1
  O  O48  1  0.81549900  0.41239400  0.25856300  1
  O  O49  1  0.18450100  0.58760600  0.74143700  1
  O  O50  1  0.16161800  0.18739800  0.60822300  1
  O  O51  1  0.83838200  0.81260200  0.39177700  1
  O  O52  1  0.50000000  0.00000000  0.00000000  1
  O  O53  1  0.51170000  0.20451400  0.41079300  1
  O  O54  1  0.48830000  0.79548600  0.58920700  1
