# generated using pymatgen
data_Ho2Cu(GeO4)2
_symmetry_space_group_name_H-M   'P 1'
_cell_length_a   8.91512411
_cell_length_b   8.91512411
_cell_length_c   5.14131288
_cell_angle_alpha   73.63697716
_cell_angle_beta   73.63697716
_cell_angle_gamma   114.94013635
_symmetry_Int_Tables_number   1
_chemical_formula_structural   Ho2Cu(GeO4)2
_chemical_formula_sum   'Ho4 Cu2 Ge4 O16'
_cell_volume   315.60438403
_cell_formula_units_Z   2
loop_
 _symmetry_equiv_pos_site_id
 _symmetry_equiv_pos_as_xyz
  1  'x, y, z'
loop_
 _atom_site_type_symbol
 _atom_site_label
 _atom_site_symmetry_multiplicity
 _atom_site_fract_x
 _atom_site_fract_y
 _atom_site_fract_z
 _atom_site_occupancy
  Ho  Ho0  1  0.30028700  0.54026900  0.81425900  1
  Ho  Ho1  1  0.54026900  0.30028700  0.81425900  1
  Ho  Ho2  1  0.04418300  0.80289400  0.32144000  1
  Ho  Ho3  1  0.80289400  0.04418300  0.32144000  1
  Cu  Cu4  1  0.92489600  0.33911100  0.62305000  1
  Cu  Cu5  1  0.33911100  0.92489600  0.62305000  1
  Ge  Ge6  1  0.16290000  0.16290000  0.62467400  1
  Ge  Ge7  1  0.88871200  0.46751600  0.08216700  1
  Ge  Ge8  1  0.46751600  0.88871200  0.08216700  1
  Ge  Ge9  1  0.66648600  0.66648600  0.02117300  1
  O  O10  1  0.09602600  0.62751800  0.07534300  1
  O  O11  1  0.62751800  0.09602600  0.07534300  1
  O  O12  1  0.06373300  0.25144300  0.41544600  1
  O  O13  1  0.25144300  0.06373300  0.41544600  1
  O  O14  1  0.49155300  0.49155300  0.98766700  1
  O  O15  1  0.74523300  0.26264800  0.45099900  1
  O  O16  1  0.26264800  0.74523300  0.45099900  1
  O  O17  1  0.75733000  0.57311900  0.24676400  1
  O  O18  1  0.57311900  0.75733000  0.24676400  1
  O  O19  1  0.33764000  0.33764000  0.66361300  1
  O  O20  1  0.83676400  0.83676400  0.64225000  1
  O  O21  1  0.83866800  0.49954900  0.75670300  1
  O  O22  1  0.49954900  0.83866800  0.75670300  1
  O  O23  1  0.99592000  0.99592000  0.01354500  1
  O  O24  1  0.00436600  0.34563700  0.92976800  1
  O  O25  1  0.34563700  0.00436600  0.92976800  1
