# generated using pymatgen
data_Na3V3H6O7
_symmetry_space_group_name_H-M   'P 1'
_cell_length_a   11.36722494
_cell_length_b   9.53428863
_cell_length_c   9.20006227
_cell_angle_alpha   116.24429008
_cell_angle_beta   99.17871412
_cell_angle_gamma   91.60163884
_symmetry_Int_Tables_number   1
_chemical_formula_structural   Na3V3H6O7
_chemical_formula_sum   'Na3 V3 H6 O7'
_cell_volume   877.37553393
_cell_formula_units_Z   1
loop_
 _symmetry_equiv_pos_site_id
 _symmetry_equiv_pos_as_xyz
  1  'x, y, z'
loop_
 _atom_site_type_symbol
 _atom_site_label
 _atom_site_symmetry_multiplicity
 _atom_site_fract_x
 _atom_site_fract_y
 _atom_site_fract_z
 _atom_site_occupancy
  Na  Na0  1  0.86926800  0.52201700  0.69090900  1
  Na  Na1  1  0.90768200  0.87819200  0.51528200  1
  Na  Na2  1  0.55022800  0.89387800  0.98312400  1
  V  V3  1  0.80209900  0.94531100  0.85693000  1
  V  V4  1  0.04609600  0.83893600  0.85840800  1
  V  V5  1  0.93674700  0.00950700  0.19193600  1
  H  H6  1  0.72934700  0.62025500  0.99566000  1
  H  H7  1  0.60488800  0.72098400  0.13369200  1
  H  H8  1  0.67210800  0.66963100  0.77465400  1
  H  H9  1  0.78960700  0.75745900  0.17691600  1
  H  H10  1  0.49193600  0.77603400  0.22277700  1
  H  H11  1  0.61266900  0.49276100  0.73526700  1
  O  O12  1  0.66309700  0.82496000  0.79511300  1
  O  O13  1  0.05082600  0.63828000  0.76542900  1
  O  O14  1  0.87686500  0.92176500  0.30089300  1
  O  O15  1  0.96193200  0.01505200  0.98921900  1
  O  O16  1  0.72981800  0.65924100  0.11477700  1
  O  O17  1  0.52537300  0.76952600  0.12993800  1
  O  O18  1  0.68960300  0.55639900  0.76907600  1
