# generated using pymatgen
data_K3CrH3(CO2)6
_symmetry_space_group_name_H-M   'P 1'
_cell_length_a   7.55735779
_cell_length_b   10.84815552
_cell_length_c   10.92222131
_cell_angle_alpha   84.61872147
_cell_angle_beta   69.75943828
_cell_angle_gamma   74.27155153
_symmetry_Int_Tables_number   1
_chemical_formula_structural   K3CrH3(CO2)6
_chemical_formula_sum   'K6 Cr2 H6 C12 O24'
_cell_volume   808.68845117
_cell_formula_units_Z   2
loop_
 _symmetry_equiv_pos_site_id
 _symmetry_equiv_pos_as_xyz
  1  'x, y, z'
loop_
 _atom_site_type_symbol
 _atom_site_label
 _atom_site_symmetry_multiplicity
 _atom_site_fract_x
 _atom_site_fract_y
 _atom_site_fract_z
 _atom_site_occupancy
  K  K0  1  0.87451300  0.83417300  0.67781400  1
  K  K1  1  0.12548700  0.16582700  0.32218600  1
  K  K2  1  0.44767400  0.66582700  0.67781400  1
  K  K3  1  0.55232600  0.33417300  0.32218600  1
  K  K4  1  0.32946100  0.75000000  0.34107800  1
  K  K5  1  0.67053900  0.25000000  0.65892200  1
  Cr  Cr6  1  0.87982800  0.75000000  0.24034400  1
  Cr  Cr7  1  0.12017200  0.25000000  0.75965600  1
  H  H8  1  0.74014900  0.75000000  0.51970100  1
  H  H9  1  0.25985100  0.25000000  0.48029900  1
  H  H10  1  0.24211800  0.97157800  0.12182700  1
  H  H11  1  0.75788200  0.02842200  0.87817300  1
  H  H12  1  0.63605500  0.52842200  0.12182700  1
  H  H13  1  0.36394500  0.47157800  0.87817300  1
  C  C14  1  0.05695900  0.29284500  0.02210500  1
  C  C15  1  0.94304100  0.70715500  0.97789500  1
  C  C16  1  0.92093600  0.20715500  0.02210500  1
  C  C17  1  0.07906400  0.79284500  0.97789500  1
  C  C18  1  0.80944800  0.52579400  0.38698400  1
  C  C19  1  0.19055200  0.47420600  0.61301600  1
  C  C20  1  0.80356800  0.97420600  0.38698400  1
  C  C21  1  0.19643200  0.02579400  0.61301600  1
  C  C22  1  0.03537200  0.50589800  0.32979500  1
  C  C23  1  0.96462800  0.49410200  0.67020500  1
  C  C24  1  0.63483300  0.99410200  0.32979500  1
  C  C25  1  0.36516700  0.00589800  0.67020500  1
  O  O26  1  0.85479800  0.59412200  0.64672300  1
  O  O27  1  0.14520200  0.40587800  0.35327700  1
  O  O28  1  0.49847900  0.90587800  0.64672300  1
  O  O29  1  0.50152100  0.09412200  0.35327700  1
  O  O30  1  0.05993700  0.32488800  0.12714100  1
  O  O31  1  0.94006300  0.67511200  0.87285900  1
  O  O32  1  0.81292200  0.17511200  0.12714100  1
  O  O33  1  0.18707800  0.82488800  0.87285900  1
  O  O34  1  0.06651500  0.82373000  0.09358300  1
  O  O35  1  0.93348500  0.17627000  0.90641700  1
  O  O36  1  0.83990200  0.67627000  0.09358300  1
  O  O37  1  0.16009800  0.32373000  0.90641700  1
  O  O38  1  0.18768700  0.93888200  0.54987000  1
  O  O39  1  0.81231300  0.06111800  0.45013000  1
  O  O40  1  0.26244200  0.56111800  0.54987000  1
  O  O41  1  0.73755800  0.43888200  0.45013000  1
  O  O42  1  0.92572800  0.86149300  0.36473000  1
  O  O43  1  0.07427200  0.13850700  0.63527000  1
  O  O44  1  0.70954100  0.63850700  0.36473000  1
  O  O45  1  0.29045900  0.36149300  0.63527000  1
  O  O46  1  0.09308600  0.60117100  0.26213900  1
  O  O47  1  0.90691400  0.39882900  0.73786100  1
  O  O48  1  0.64477600  0.89882900  0.26213900  1
  O  O49  1  0.35522400  0.10117100  0.73786100  1
