# generated using pymatgen
data_Mg29Pd4
_symmetry_space_group_name_H-M   'P 1'
_cell_length_a   14.29819268
_cell_length_b   14.29819268
_cell_length_c   14.29819268
_cell_angle_alpha   60.00000000
_cell_angle_beta   60.00000000
_cell_angle_gamma   60.00000000
_symmetry_Int_Tables_number   1
_chemical_formula_structural   Mg29Pd4
_chemical_formula_sum   'Mg87 Pd12'
_cell_volume   2066.94270153
_cell_formula_units_Z   3
loop_
 _symmetry_equiv_pos_site_id
 _symmetry_equiv_pos_as_xyz
  1  'x, y, z'
loop_
 _atom_site_type_symbol
 _atom_site_label
 _atom_site_symmetry_multiplicity
 _atom_site_fract_x
 _atom_site_fract_y
 _atom_site_fract_z
 _atom_site_occupancy
  Mg  Mg0  1  0.16023300  0.16023300  0.94168200  1
  Mg  Mg1  1  0.16023300  0.16023300  0.73785200  1
  Mg  Mg2  1  0.94168200  0.73785200  0.16023300  1
  Mg  Mg3  1  0.94168200  0.16023300  0.16023300  1
  Mg  Mg4  1  0.73785200  0.94168200  0.16023300  1
  Mg  Mg5  1  0.73785200  0.16023300  0.16023300  1
  Mg  Mg6  1  0.16023300  0.94168200  0.73785200  1
  Mg  Mg7  1  0.16023300  0.73785200  0.94168200  1
  Mg  Mg8  1  0.16023300  0.94168200  0.16023300  1
  Mg  Mg9  1  0.73785200  0.16023300  0.94168200  1
  Mg  Mg10  1  0.94168200  0.16023300  0.73785200  1
  Mg  Mg11  1  0.16023300  0.73785200  0.16023300  1
  Mg  Mg12  1  0.52107200  0.52107200  0.79121200  1
  Mg  Mg13  1  0.52107200  0.52107200  0.16664500  1
  Mg  Mg14  1  0.79121200  0.16664500  0.52107200  1
  Mg  Mg15  1  0.79121200  0.52107200  0.52107200  1
  Mg  Mg16  1  0.16664500  0.79121200  0.52107200  1
  Mg  Mg17  1  0.16664500  0.52107200  0.52107200  1
  Mg  Mg18  1  0.52107200  0.79121200  0.16664500  1
  Mg  Mg19  1  0.52107200  0.16664500  0.79121200  1
  Mg  Mg20  1  0.52107200  0.79121200  0.52107200  1
  Mg  Mg21  1  0.16664500  0.52107200  0.79121200  1
  Mg  Mg22  1  0.79121200  0.52107200  0.16664500  1
  Mg  Mg23  1  0.52107200  0.16664500  0.52107200  1
  Mg  Mg24  1  0.77048500  0.77048500  0.42213000  1
  Mg  Mg25  1  0.77048500  0.77048500  0.03690100  1
  Mg  Mg26  1  0.42213000  0.03690100  0.77048500  1
  Mg  Mg27  1  0.42213000  0.77048500  0.77048500  1
  Mg  Mg28  1  0.03690100  0.42213000  0.77048500  1
  Mg  Mg29  1  0.03690100  0.77048500  0.77048500  1
  Mg  Mg30  1  0.77048500  0.42213000  0.03690100  1
  Mg  Mg31  1  0.77048500  0.03690100  0.42213000  1
  Mg  Mg32  1  0.77048500  0.42213000  0.77048500  1
  Mg  Mg33  1  0.03690100  0.77048500  0.42213000  1
  Mg  Mg34  1  0.42213000  0.77048500  0.03690100  1
  Mg  Mg35  1  0.77048500  0.03690100  0.77048500  1
  Mg  Mg36  1  0.35526100  0.14473900  0.14473900  1
  Mg  Mg37  1  0.14473900  0.35526100  0.35526100  1
  Mg  Mg38  1  0.14473900  0.35526100  0.14473900  1
  Mg  Mg39  1  0.35526100  0.14473900  0.35526100  1
  Mg  Mg40  1  0.14473900  0.14473900  0.35526100  1
  Mg  Mg41  1  0.35526100  0.35526100  0.14473900  1
  Mg  Mg42  1  0.01814200  0.01814200  0.36934000  1
  Mg  Mg43  1  0.01814200  0.01814200  0.59437600  1
  Mg  Mg44  1  0.36934000  0.59437600  0.01814200  1
  Mg  Mg45  1  0.36934000  0.01814200  0.01814200  1
  Mg  Mg46  1  0.59437600  0.36934000  0.01814200  1
  Mg  Mg47  1  0.59437600  0.01814200  0.01814200  1
  Mg  Mg48  1  0.01814200  0.36934000  0.59437600  1
  Mg  Mg49  1  0.01814200  0.59437600  0.36934000  1
  Mg  Mg50  1  0.01814200  0.36934000  0.01814200  1
  Mg  Mg51  1  0.59437600  0.01814200  0.36934000  1
  Mg  Mg52  1  0.36934000  0.01814200  0.59437600  1
  Mg  Mg53  1  0.01814200  0.59437600  0.01814200  1
  Mg  Mg54  1  0.91572800  0.91572800  0.91572800  1
  Mg  Mg55  1  0.91572800  0.91572800  0.25281700  1
  Mg  Mg56  1  0.91572800  0.25281700  0.91572800  1
  Mg  Mg57  1  0.25281700  0.91572800  0.91572800  1
  Mg  Mg58  1  0.55363200  0.55363200  0.55363200  1
  Mg  Mg59  1  0.55363200  0.55363200  0.33910400  1
  Mg  Mg60  1  0.55363200  0.33910400  0.55363200  1
  Mg  Mg61  1  0.33910400  0.55363200  0.55363200  1
  Mg  Mg62  1  0.87168000  0.62832000  0.62832000  1
  Mg  Mg63  1  0.62832000  0.87168000  0.87168000  1
  Mg  Mg64  1  0.62832000  0.87168000  0.62832000  1
  Mg  Mg65  1  0.87168000  0.62832000  0.87168000  1
  Mg  Mg66  1  0.62832000  0.62832000  0.87168000  1
  Mg  Mg67  1  0.87168000  0.87168000  0.62832000  1
  Mg  Mg68  1  0.68385100  0.31614900  0.31614900  1
  Mg  Mg69  1  0.31614900  0.68385100  0.68385100  1
  Mg  Mg70  1  0.31614900  0.68385100  0.31614900  1
  Mg  Mg71  1  0.68385100  0.31614900  0.68385100  1
  Mg  Mg72  1  0.31614900  0.31614900  0.68385100  1
  Mg  Mg73  1  0.68385100  0.68385100  0.31614900  1
  Mg  Mg74  1  0.00000000  0.00000000  0.00000000  1
  Mg  Mg75  1  0.28433200  0.28433200  0.93018500  1
  Mg  Mg76  1  0.28433200  0.28433200  0.50115200  1
  Mg  Mg77  1  0.93018500  0.50115200  0.28433200  1
  Mg  Mg78  1  0.93018500  0.28433200  0.28433200  1
  Mg  Mg79  1  0.50115200  0.93018500  0.28433200  1
  Mg  Mg80  1  0.50115200  0.28433200  0.28433200  1
  Mg  Mg81  1  0.28433200  0.93018500  0.50115200  1
  Mg  Mg82  1  0.28433200  0.50115200  0.93018500  1
  Mg  Mg83  1  0.28433200  0.93018500  0.28433200  1
  Mg  Mg84  1  0.50115200  0.28433200  0.93018500  1
  Mg  Mg85  1  0.93018500  0.28433200  0.50115200  1
  Mg  Mg86  1  0.28433200  0.50115200  0.28433200  1
  Pd  Pd87  1  0.41795600  0.41795600  0.41795600  1
  Pd  Pd88  1  0.41795600  0.41795600  0.74613100  1
  Pd  Pd89  1  0.41795600  0.74613100  0.41795600  1
  Pd  Pd90  1  0.74613100  0.41795600  0.41795600  1
  Pd  Pd91  1  0.65681300  0.65681300  0.65681300  1
  Pd  Pd92  1  0.65681300  0.65681300  0.02956100  1
  Pd  Pd93  1  0.65681300  0.02956100  0.65681300  1
  Pd  Pd94  1  0.02956100  0.65681300  0.65681300  1
  Pd  Pd95  1  0.14866300  0.14866300  0.14866300  1
  Pd  Pd96  1  0.14866300  0.14866300  0.55401000  1
  Pd  Pd97  1  0.14866300  0.55401000  0.14866300  1
  Pd  Pd98  1  0.55401000  0.14866300  0.14866300  1
