# generated using pymatgen
data_IrRhN5Cl7
_symmetry_space_group_name_H-M   'P 1'
_cell_length_a   7.81100400
_cell_length_b   10.73130100
_cell_length_c   14.86167421
_cell_angle_alpha   75.79007155
_cell_angle_beta   90.00000000
_cell_angle_gamma   90.00000000
_symmetry_Int_Tables_number   1
_chemical_formula_structural   IrRhN5Cl7
_chemical_formula_sum   'Ir4 Rh4 N20 Cl28'
_cell_volume   1207.62266523
_cell_formula_units_Z   4
loop_
 _symmetry_equiv_pos_site_id
 _symmetry_equiv_pos_as_xyz
  1  'x, y, z'
loop_
 _atom_site_type_symbol
 _atom_site_label
 _atom_site_symmetry_multiplicity
 _atom_site_fract_x
 _atom_site_fract_y
 _atom_site_fract_z
 _atom_site_occupancy
  Ir  Ir0  1  0.25000000  0.29911700  0.63825300  1
  Ir  Ir1  1  0.75000000  0.70088300  0.36174700  1
  Ir  Ir2  1  0.25000000  0.28669800  0.13806500  1
  Ir  Ir3  1  0.75000000  0.71330200  0.86193500  1
  Rh  Rh4  1  0.25000000  0.78169700  0.14026600  1
  Rh  Rh5  1  0.75000000  0.21830300  0.85973400  1
  Rh  Rh6  1  0.25000000  0.76743700  0.62109500  1
  Rh  Rh7  1  0.75000000  0.23256300  0.37890500  1
  N  N8  1  0.42321600  0.68992700  0.08432100  1
  N  N9  1  0.57678400  0.31007300  0.91567900  1
  N  N10  1  0.92321600  0.31007300  0.91567900  1
  N  N11  1  0.07678400  0.68992700  0.08432100  1
  N  N12  1  0.50043400  0.80636700  0.59816800  1
  N  N13  1  0.49956600  0.19363300  0.40183200  1
  N  N14  1  0.00043400  0.19363300  0.40183200  1
  N  N15  1  0.99956600  0.80636700  0.59816800  1
  N  N16  1  0.25000000  0.62901900  0.70783900  1
  N  N17  1  0.75000000  0.37098100  0.29216100  1
  N  N18  1  0.25000000  0.71292100  0.25622600  1
  N  N19  1  0.75000000  0.28707900  0.74377400  1
  N  N20  1  0.42259300  0.92371400  0.12603800  1
  N  N21  1  0.57740700  0.07628600  0.87396200  1
  N  N22  1  0.92259300  0.07628600  0.87396200  1
  N  N23  1  0.07740700  0.92371400  0.12603800  1
  N  N24  1  0.25000000  0.70896200  0.50476200  1
  N  N25  1  0.75000000  0.29103800  0.49523800  1
  N  N26  1  0.25000000  0.91083000  0.68825600  1
  N  N27  1  0.75000000  0.08917000  0.31174400  1
  Cl  Cl28  1  0.25000000  0.90432800  0.96521200  1
  Cl  Cl29  1  0.75000000  0.09567200  0.03478800  1
  Cl  Cl30  1  0.25000000  0.47399500  0.02070600  1
  Cl  Cl31  1  0.75000000  0.52600500  0.97929400  1
  Cl  Cl32  1  0.25000000  0.97624000  0.49184600  1
  Cl  Cl33  1  0.75000000  0.02376000  0.50815400  1
  Cl  Cl34  1  0.25000000  0.25488800  0.79865400  1
  Cl  Cl35  1  0.75000000  0.74511200  0.20134600  1
  Cl  Cl36  1  0.95702000  0.28679700  0.13967900  1
  Cl  Cl37  1  0.04298000  0.71320300  0.86032100  1
  Cl  Cl38  1  0.45702000  0.71320300  0.86032100  1
  Cl  Cl39  1  0.54298000  0.28679700  0.13967900  1
  Cl  Cl40  1  0.25000000  0.34411000  0.47961000  1
  Cl  Cl41  1  0.75000000  0.65589000  0.52039000  1
  Cl  Cl42  1  0.25000000  0.10191700  0.25457400  1
  Cl  Cl43  1  0.75000000  0.89808300  0.74542600  1
  Cl  Cl44  1  0.25000000  0.16365500  0.03163600  1
  Cl  Cl45  1  0.75000000  0.83634500  0.96836400  1
  Cl  Cl46  1  0.96044700  0.85007100  0.35627300  1
  Cl  Cl47  1  0.03955300  0.14992900  0.64372700  1
  Cl  Cl48  1  0.46044700  0.14992900  0.64372700  1
  Cl  Cl49  1  0.53955300  0.85007100  0.35627300  1
  Cl  Cl50  1  0.95488200  0.54403000  0.36448500  1
  Cl  Cl51  1  0.04511800  0.45597000  0.63551500  1
  Cl  Cl52  1  0.45488200  0.45597000  0.63551500  1
  Cl  Cl53  1  0.54511800  0.54403000  0.36448500  1
  Cl  Cl54  1  0.25000000  0.41117400  0.24433300  1
  Cl  Cl55  1  0.75000000  0.58882600  0.75566700  1
