# generated using pymatgen
data_ReC2
_symmetry_space_group_name_H-M   'P 1'
_cell_length_a   2.87991117
_cell_length_b   2.87991117
_cell_length_c   4.06349700
_cell_angle_alpha   90.00000000
_cell_angle_beta   90.00000000
_cell_angle_gamma   119.99998105
_symmetry_Int_Tables_number   1
_chemical_formula_structural   ReC2
_chemical_formula_sum   'Re1 C2'
_cell_volume   29.18695874
_cell_formula_units_Z   1
loop_
 _symmetry_equiv_pos_site_id
 _symmetry_equiv_pos_as_xyz
  1  'x, y, z'
loop_
 _atom_site_type_symbol
 _atom_site_label
 _atom_site_symmetry_multiplicity
 _atom_site_fract_x
 _atom_site_fract_y
 _atom_site_fract_z
 _atom_site_occupancy
  Re  Re0  1  0.66666700  0.33333300  0.50000000  1
  C  C1  1  0.00000000  0.00000000  0.82926200  1
  C  C2  1  0.00000000  0.00000000  0.17073800  1
