# generated using pymatgen
data_K15P16Pd9O56
_symmetry_space_group_name_H-M   'P 1'
_cell_length_a   12.00067118
_cell_length_b   12.00067118
_cell_length_c   12.42590525
_cell_angle_alpha   66.38722650
_cell_angle_beta   66.38722650
_cell_angle_gamma   72.36315146
_symmetry_Int_Tables_number   1
_chemical_formula_structural   K15P16Pd9O56
_chemical_formula_sum   'K15 P16 Pd9 O56'
_cell_volume   1480.60093471
_cell_formula_units_Z   1
loop_
 _symmetry_equiv_pos_site_id
 _symmetry_equiv_pos_as_xyz
  1  'x, y, z'
loop_
 _atom_site_type_symbol
 _atom_site_label
 _atom_site_symmetry_multiplicity
 _atom_site_fract_x
 _atom_site_fract_y
 _atom_site_fract_z
 _atom_site_occupancy
  K  K0  1  0.15863600  0.15863600  0.09317400  1
  K  K1  1  0.84136400  0.84136400  0.90682600  1
  K  K2  1  0.74051400  0.25948600  0.00000000  1
  K  K3  1  0.25948600  0.74051400  0.00000000  1
  K  K4  1  0.41528800  0.87771500  0.08315500  1
  K  K5  1  0.58471200  0.12228500  0.91684500  1
  K  K6  1  0.12228500  0.58471200  0.91684500  1
  K  K7  1  0.87771500  0.41528800  0.08315500  1
  K  K8  1  0.35392100  0.88395000  0.40119300  1
  K  K9  1  0.64607900  0.11605000  0.59880700  1
  K  K10  1  0.11605000  0.64607900  0.59880700  1
  K  K11  1  0.88395000  0.35392100  0.40119300  1
  K  K12  1  0.74708900  0.74708900  0.50018000  1
  K  K13  1  0.25291100  0.25291100  0.49982000  1
  K  K14  1  0.00000000  0.00000000  0.00000000  1
  P  P15  1  0.67934000  0.89131800  0.19805700  1
  P  P16  1  0.32066000  0.10868200  0.80194300  1
  P  P17  1  0.10868200  0.32066000  0.80194300  1
  P  P18  1  0.89131800  0.67934000  0.19805700  1
  P  P19  1  0.86070200  0.07588000  0.30353700  1
  P  P20  1  0.13929800  0.92412000  0.69646300  1
  P  P21  1  0.92412000  0.13929800  0.69646300  1
  P  P22  1  0.07588000  0.86070200  0.30353700  1
  P  P23  1  0.39567400  0.18062200  0.18837300  1
  P  P24  1  0.60432600  0.81937800  0.81162700  1
  P  P25  1  0.81937800  0.60432600  0.81162700  1
  P  P26  1  0.18062200  0.39567400  0.18837300  1
  P  P27  1  0.57599700  0.37145100  0.30715400  1
  P  P28  1  0.42400300  0.62854900  0.69284600  1
  P  P29  1  0.62854900  0.42400300  0.69284600  1
  P  P30  1  0.37145100  0.57599700  0.30715400  1
  Pd  Pd31  1  0.62647400  0.62647400  0.25670000  1
  Pd  Pd32  1  0.37352600  0.37352600  0.74330000  1
  Pd  Pd33  1  0.56551500  0.56551500  0.04740600  1
  Pd  Pd34  1  0.43448500  0.43448500  0.95259400  1
  Pd  Pd35  1  0.58710200  0.08376200  0.34364900  1
  Pd  Pd36  1  0.41289800  0.91623800  0.65635100  1
  Pd  Pd37  1  0.91623800  0.41289800  0.65635100  1
  Pd  Pd38  1  0.08376200  0.58710200  0.34364900  1
  Pd  Pd39  1  0.00000000  0.00000000  0.50000000  1
  O  O40  1  0.41899900  0.15393000  0.31107700  1
  O  O41  1  0.58100100  0.84607000  0.68892300  1
  O  O42  1  0.84607000  0.58100100  0.68892300  1
  O  O43  1  0.15393000  0.41899900  0.31107700  1
  O  O44  1  0.59503700  0.92338000  0.31797600  1
  O  O45  1  0.40496300  0.07662000  0.68202400  1
  O  O46  1  0.07662000  0.40496300  0.68202400  1
  O  O47  1  0.92338000  0.59503700  0.31797600  1
  O  O48  1  0.43070200  0.43070200  0.35753800  1
  O  O49  1  0.56929800  0.56929800  0.64246200  1
  O  O50  1  0.43343500  0.65224300  0.33481800  1
  O  O51  1  0.56656500  0.34775700  0.66518200  1
  O  O52  1  0.34775700  0.56656500  0.66518200  1
  O  O53  1  0.65224300  0.43343500  0.33481800  1
  O  O54  1  0.88191000  0.09052100  0.62233200  1
  O  O55  1  0.11809000  0.90947900  0.37766800  1
  O  O56  1  0.90947900  0.11809000  0.37766800  1
  O  O57  1  0.09052100  0.88191000  0.62233200  1
  O  O58  1  0.39288500  0.60883300  0.16776200  1
  O  O59  1  0.60711500  0.39116700  0.83223800  1
  O  O60  1  0.39116700  0.60711500  0.83223800  1
  O  O61  1  0.60883300  0.39288500  0.16776200  1
  O  O62  1  0.39315200  0.06808500  0.16288900  1
  O  O63  1  0.60684800  0.93191500  0.83711100  1
  O  O64  1  0.93191500  0.60684800  0.83711100  1
  O  O65  1  0.06808500  0.39315200  0.16288900  1
  O  O66  1  0.61447900  0.81564200  0.17135400  1
  O  O67  1  0.38552100  0.18435800  0.82864600  1
  O  O68  1  0.18435800  0.38552100  0.82864600  1
  O  O69  1  0.81564200  0.61447900  0.17135400  1
  O  O70  1  0.58275500  0.23525800  0.38606700  1
  O  O71  1  0.41724500  0.76474200  0.61393300  1
  O  O72  1  0.76474200  0.41724500  0.61393300  1
  O  O73  1  0.23525800  0.58275500  0.38606700  1
  O  O74  1  0.25290600  0.25290600  0.21289100  1
  O  O75  1  0.74709400  0.74709400  0.78710900  1
  O  O76  1  0.97051700  0.97051700  0.25315500  1
  O  O77  1  0.02948300  0.02948300  0.74684500  1
  O  O78  1  0.17739700  0.84708000  0.18757100  1
  O  O79  1  0.82260300  0.15292000  0.81242900  1
  O  O80  1  0.15292000  0.82260300  0.81242900  1
  O  O81  1  0.84708000  0.17739700  0.18757100  1
  O  O82  1  0.79622000  0.79622000  0.24118500  1
  O  O83  1  0.20378000  0.20377900  0.75881500  1
  O  O84  1  0.74810700  0.01006800  0.39053000  1
  O  O85  1  0.25189300  0.98993200  0.60947000  1
  O  O86  1  0.98993200  0.25189300  0.60947000  1
  O  O87  1  0.01006800  0.74810700  0.39053000  1
  O  O88  1  0.48040400  0.26685000  0.07624300  1
  O  O89  1  0.51959600  0.73315000  0.92375700  1
  O  O90  1  0.73315000  0.51959600  0.92375700  1
  O  O91  1  0.26685000  0.48040400  0.07624300  1
  O  O92  1  0.72839700  0.99519300  0.08391500  1
  O  O93  1  0.27160300  0.00480700  0.91608500  1
  O  O94  1  0.00480700  0.27160300  0.91608500  1
  O  O95  1  0.99519300  0.72839700  0.08391500  1
