# generated using pymatgen
data_La7V2BO17
_symmetry_space_group_name_H-M   'P 1'
_cell_length_a   18.41837900
_cell_length_b   7.10451600
_cell_length_c   13.90085069
_cell_angle_alpha   66.81200262
_cell_angle_beta   90.00000000
_cell_angle_gamma   90.00000000
_symmetry_Int_Tables_number   1
_chemical_formula_structural   La7V2BO17
_chemical_formula_sum   'La28 V8 B4 O68'
_cell_volume   1672.03639670
_cell_formula_units_Z   4
loop_
 _symmetry_equiv_pos_site_id
 _symmetry_equiv_pos_as_xyz
  1  'x, y, z'
loop_
 _atom_site_type_symbol
 _atom_site_label
 _atom_site_symmetry_multiplicity
 _atom_site_fract_x
 _atom_site_fract_y
 _atom_site_fract_z
 _atom_site_occupancy
  La  La0  1  0.72330500  0.79870200  0.17913900  1
  La  La1  1  0.27669500  0.20129800  0.82086100  1
  La  La2  1  0.22330500  0.20129800  0.32086100  1
  La  La3  1  0.77669500  0.79870200  0.67913900  1
  La  La4  1  0.86889400  0.78035800  0.43659100  1
  La  La5  1  0.13110600  0.21964200  0.56340900  1
  La  La6  1  0.36889400  0.21964200  0.06340900  1
  La  La7  1  0.63110600  0.78035800  0.93659100  1
  La  La8  1  0.60736500  0.30630400  0.19752000  1
  La  La9  1  0.39263500  0.69369600  0.80248000  1
  La  La10  1  0.10736500  0.69369600  0.30248000  1
  La  La11  1  0.89263500  0.30630400  0.69752000  1
  La  La12  1  0.27348700  0.71113200  0.09634300  1
  La  La13  1  0.72651300  0.28886800  0.90365700  1
  La  La14  1  0.77348700  0.28886800  0.40365700  1
  La  La15  1  0.22651300  0.71113200  0.59634300  1
  La  La16  1  0.44680300  0.70897100  0.51472600  1
  La  La17  1  0.55319700  0.29102900  0.48527400  1
  La  La18  1  0.94680300  0.29102900  0.98527400  1
  La  La19  1  0.05319700  0.70897100  0.01472600  1
  La  La20  1  0.51978900  0.79749000  0.20936100  1
  La  La21  1  0.48021100  0.20251000  0.79063900  1
  La  La22  1  0.01978900  0.20251000  0.29063900  1
  La  La23  1  0.98021100  0.79749000  0.70936100  1
  La  La24  1  0.65481200  0.81350800  0.42613400  1
  La  La25  1  0.34518800  0.18649200  0.57386600  1
  La  La26  1  0.15481200  0.18649200  0.07386600  1
  La  La27  1  0.84518800  0.81350800  0.92613400  1
  V  V28  1  0.80245500  0.28962000  0.16336600  1
  V  V29  1  0.19754500  0.71038000  0.83663400  1
  V  V30  1  0.30245500  0.71038000  0.33663400  1
  V  V31  1  0.69754500  0.28962000  0.66336600  1
  V  V32  1  0.93689700  0.77910200  0.18331500  1
  V  V33  1  0.06310300  0.22089800  0.81668500  1
  V  V34  1  0.43689700  0.22089800  0.31668500  1
  V  V35  1  0.56310300  0.77910200  0.68331500  1
  B  B36  1  0.43076700  0.74843200  0.00099800  1
  B  B37  1  0.56923300  0.25156800  0.99900200  1
  B  B38  1  0.93076700  0.25156800  0.49900200  1
  B  B39  1  0.06923300  0.74843200  0.50099800  1
  O  O40  1  0.87241800  0.43897700  0.08929300  1
  O  O41  1  0.12758200  0.56102300  0.91070700  1
  O  O42  1  0.37241800  0.56102300  0.41070700  1
  O  O43  1  0.62758200  0.43897700  0.58929300  1
  O  O44  1  0.37915000  0.59804600  0.00115300  1
  O  O45  1  0.62085000  0.40195400  0.99884700  1
  O  O46  1  0.87915000  0.40195400  0.49884700  1
  O  O47  1  0.12085000  0.59804600  0.50115300  1
  O  O48  1  0.76851200  0.90017000  0.49168700  1
  O  O49  1  0.23148800  0.09983000  0.50831300  1
  O  O50  1  0.26851200  0.09983000  0.00831300  1
  O  O51  1  0.73148800  0.90017000  0.99168700  1
  O  O52  1  0.63194000  0.95118800  0.24182000  1
  O  O53  1  0.36806000  0.04881200  0.75818000  1
  O  O54  1  0.13194000  0.04881200  0.25818000  1
  O  O55  1  0.86806000  0.95118800  0.74182000  1
  O  O56  1  0.93543400  0.86963300  0.04606800  1
  O  O57  1  0.06456600  0.13036700  0.95393200  1
  O  O58  1  0.43543400  0.13036700  0.45393200  1
  O  O59  1  0.56456600  0.86963300  0.54606800  1
  O  O60  1  0.85503500  0.70594900  0.24433900  1
  O  O61  1  0.14496500  0.29405100  0.75566100  1
  O  O62  1  0.35503500  0.29405100  0.25566100  1
  O  O63  1  0.64496500  0.70594900  0.74433900  1
  O  O64  1  0.14481100  0.79528700  0.12038000  1
  O  O65  1  0.85518900  0.20471300  0.87962000  1
  O  O66  1  0.64481100  0.20471300  0.37962000  1
  O  O67  1  0.35518900  0.79528700  0.62038000  1
  O  O68  1  0.73878000  0.43417200  0.19996100  1
  O  O69  1  0.26122000  0.56582800  0.80003900  1
  O  O70  1  0.23878000  0.56582800  0.30003900  1
  O  O71  1  0.76122000  0.43417200  0.69996100  1
  O  O72  1  0.54228000  0.63506500  0.40320100  1
  O  O73  1  0.45772000  0.36493500  0.59679900  1
  O  O74  1  0.04228000  0.36493500  0.09679900  1
  O  O75  1  0.95772000  0.63506500  0.90320100  1
  O  O76  1  0.00326900  0.58567900  0.22567700  1
  O  O77  1  0.99673100  0.41432100  0.77432300  1
  O  O78  1  0.50326900  0.41432100  0.27432300  1
  O  O79  1  0.49673100  0.58567900  0.72567700  1
  O  O80  1  0.33005700  0.89100700  0.21806200  1
  O  O81  1  0.66994300  0.10899300  0.78193800  1
  O  O82  1  0.83005700  0.10899300  0.28193800  1
  O  O83  1  0.16994300  0.89100700  0.71806200  1
  O  O84  1  0.60999300  0.68072900  0.12462200  1
  O  O85  1  0.39000700  0.31927100  0.87537800  1
  O  O86  1  0.10999300  0.31927100  0.37537800  1
  O  O87  1  0.89000700  0.68072900  0.62462200  1
  O  O88  1  0.97026100  0.98358200  0.20579300  1
  O  O89  1  0.02973900  0.01641800  0.79420700  1
  O  O90  1  0.47026100  0.01641800  0.29420700  1
  O  O91  1  0.52973900  0.98358200  0.70579300  1
  O  O92  1  0.42023900  0.83586800  0.07286900  1
  O  O93  1  0.57976100  0.16413200  0.92713100  1
  O  O94  1  0.92023900  0.16413200  0.42713100  1
  O  O95  1  0.07976100  0.83586800  0.57286900  1
  O  O96  1  0.51637600  0.19520300  0.07718400  1
  O  O97  1  0.48362400  0.80479700  0.92281600  1
  O  O98  1  0.01637600  0.80479700  0.42281600  1
  O  O99  1  0.98362400  0.19520300  0.57718400  1
  O  O100  1  0.73966600  0.62759600  0.37425800  1
  O  O101  1  0.26033400  0.37240400  0.62574200  1
  O  O102  1  0.23966600  0.37240400  0.12574200  1
  O  O103  1  0.76033400  0.62759600  0.87425800  1
  O  O104  1  0.26106500  0.83350200  0.40815100  1
  O  O105  1  0.73893500  0.16649800  0.59184900  1
  O  O106  1  0.76106500  0.16649800  0.09184900  1
  O  O107  1  0.23893500  0.83350200  0.90815100  1
