# generated using pymatgen
data_K2Cu2(MoO4)3
_symmetry_space_group_name_H-M   'P 1'
_cell_length_a   9.10378300
_cell_length_b   7.07622400
_cell_length_c   20.57518758
_cell_angle_alpha   71.06630545
_cell_angle_beta   90.00000000
_cell_angle_gamma   90.00000000
_symmetry_Int_Tables_number   1
_chemical_formula_structural   K2Cu2(MoO4)3
_chemical_formula_sum   'K8 Cu8 Mo12 O48'
_cell_volume   1253.74746334
_cell_formula_units_Z   4
loop_
 _symmetry_equiv_pos_site_id
 _symmetry_equiv_pos_as_xyz
  1  'x, y, z'
loop_
 _atom_site_type_symbol
 _atom_site_label
 _atom_site_symmetry_multiplicity
 _atom_site_fract_x
 _atom_site_fract_y
 _atom_site_fract_z
 _atom_site_occupancy
  K  K0  1  0.03148800  0.80165200  0.90481300  1
  K  K1  1  0.96851200  0.19834800  0.09518700  1
  K  K2  1  0.53148800  0.19834800  0.59518700  1
  K  K3  1  0.46851200  0.80165200  0.40481300  1
  K  K4  1  0.11757400  0.40174600  0.78726800  1
  K  K5  1  0.88242600  0.59825400  0.21273200  1
  K  K6  1  0.61757400  0.59825400  0.71273200  1
  K  K7  1  0.38242600  0.40174600  0.28726800  1
  Cu  Cu8  1  0.41082500  0.93726300  0.94001000  1
  Cu  Cu9  1  0.58917500  0.06273700  0.05999000  1
  Cu  Cu10  1  0.91082500  0.06273700  0.55999000  1
  Cu  Cu11  1  0.08917500  0.93726300  0.44001000  1
  Cu  Cu12  1  0.14272200  0.26770400  0.63464500  1
  Cu  Cu13  1  0.85727800  0.73229600  0.36535500  1
  Cu  Cu14  1  0.64272200  0.73229600  0.86535500  1
  Cu  Cu15  1  0.35727800  0.26770400  0.13464500  1
  Mo  Mo16  1  0.22219900  0.80305400  0.59775900  1
  Mo  Mo17  1  0.77780100  0.19694600  0.40224100  1
  Mo  Mo18  1  0.72219900  0.19694600  0.90224100  1
  Mo  Mo19  1  0.27780100  0.80305400  0.09775900  1
  Mo  Mo20  1  0.32934300  0.94738400  0.77419300  1
  Mo  Mo21  1  0.67065700  0.05261600  0.22580700  1
  Mo  Mo22  1  0.82934300  0.05261600  0.72580700  1
  Mo  Mo23  1  0.17065700  0.94738400  0.27419300  1
  Mo  Mo24  1  0.33879300  0.41533200  0.96562200  1
  Mo  Mo25  1  0.66120700  0.58466800  0.03437800  1
  Mo  Mo26  1  0.83879300  0.58466800  0.53437800  1
  Mo  Mo27  1  0.16120700  0.41533200  0.46562200  1
  O  O28  1  0.78181100  0.97950400  0.65191200  1
  O  O29  1  0.21818900  0.02049600  0.34808800  1
  O  O30  1  0.28181100  0.02049600  0.84808800  1
  O  O31  1  0.71818900  0.97950400  0.15191200  1
  O  O32  1  0.50719100  0.81903900  0.78694100  1
  O  O33  1  0.49280900  0.18096100  0.21305900  1
  O  O34  1  0.00719100  0.18096100  0.71305900  1
  O  O35  1  0.99280900  0.81903900  0.28694100  1
  O  O36  1  0.82640500  0.83240300  0.80199900  1
  O  O37  1  0.17359500  0.16759700  0.19800100  1
  O  O38  1  0.32640500  0.16759700  0.69800100  1
  O  O39  1  0.67359500  0.83240300  0.30199900  1
  O  O40  1  0.19224100  0.78102200  0.76643400  1
  O  O41  1  0.80775900  0.21897800  0.23356600  1
  O  O42  1  0.69224100  0.21897800  0.73356600  1
  O  O43  1  0.30775900  0.78102200  0.26643400  1
  O  O44  1  0.15793500  0.55593300  0.64313100  1
  O  O45  1  0.84206500  0.44406700  0.35686900  1
  O  O46  1  0.65793500  0.44406700  0.85686900  1
  O  O47  1  0.34206500  0.55593300  0.14313100  1
  O  O48  1  0.25713300  0.36319800  0.54719000  1
  O  O49  1  0.74286700  0.63680200  0.45281000  1
  O  O50  1  0.75713300  0.63680200  0.95281000  1
  O  O51  1  0.24286700  0.36319800  0.04719000  1
  O  O52  1  0.19570000  0.46430900  0.90586100  1
  O  O53  1  0.80430000  0.53569100  0.09413900  1
  O  O54  1  0.69570000  0.53569100  0.59413900  1
  O  O55  1  0.30430000  0.46430900  0.40586100  1
  O  O56  1  0.39668300  0.82939500  0.63060100  1
  O  O57  1  0.60331700  0.17060500  0.36939900  1
  O  O58  1  0.89668300  0.17060500  0.86939900  1
  O  O59  1  0.10331700  0.82939500  0.13060100  1
  O  O60  1  0.93650700  0.80042200  0.54256700  1
  O  O61  1  0.06349300  0.19957800  0.45743300  1
  O  O62  1  0.43650700  0.19957800  0.95743300  1
  O  O63  1  0.56349300  0.80042200  0.04256700  1
  O  O64  1  0.10076000  0.99854400  0.61124800  1
  O  O65  1  0.89924000  0.00145600  0.38875200  1
  O  O66  1  0.60076000  0.00145600  0.88875200  1
  O  O67  1  0.39924000  0.99854400  0.11124800  1
  O  O68  1  0.25125300  0.84449200  0.50611800  1
  O  O69  1  0.74874700  0.15550800  0.49388200  1
  O  O70  1  0.75125300  0.15550800  0.99388200  1
  O  O71  1  0.24874700  0.84449200  0.00611800  1
  O  O72  1  0.45273300  0.64682000  0.94064800  1
  O  O73  1  0.54726700  0.35318000  0.05935200  1
  O  O74  1  0.95273300  0.35318000  0.55935200  1
  O  O75  1  0.04726700  0.64682000  0.44064800  1
