# generated using pymatgen
data_Ge19(PCl)4
_symmetry_space_group_name_H-M   'P 1'
_cell_length_a   10.51468100
_cell_length_b   10.51468100
_cell_length_c   10.51468100
_cell_angle_alpha   90.00000000
_cell_angle_beta   90.00000000
_cell_angle_gamma   90.00000000
_symmetry_Int_Tables_number   1
_chemical_formula_structural   Ge19(PCl)4
_chemical_formula_sum   'Ge38 P8 Cl8'
_cell_volume   1162.48753316
_cell_formula_units_Z   2
loop_
 _symmetry_equiv_pos_site_id
 _symmetry_equiv_pos_as_xyz
  1  'x, y, z'
loop_
 _atom_site_type_symbol
 _atom_site_label
 _atom_site_symmetry_multiplicity
 _atom_site_fract_x
 _atom_site_fract_y
 _atom_site_fract_z
 _atom_site_occupancy
  Ge  Ge0  1  0.31527700  0.31527700  0.31527700  1
  Ge  Ge1  1  0.68472300  0.68472300  0.31527700  1
  Ge  Ge2  1  0.68472300  0.31527700  0.68472300  1
  Ge  Ge3  1  0.81527700  0.81527700  0.81527700  1
  Ge  Ge4  1  0.31527700  0.68472300  0.68472300  1
  Ge  Ge5  1  0.18472300  0.18472300  0.81527700  1
  Ge  Ge6  1  0.81527700  0.18472300  0.18472300  1
  Ge  Ge7  1  0.18472300  0.81527700  0.18472300  1
  Ge  Ge8  1  0.00202400  0.11822800  0.30718500  1
  Ge  Ge9  1  0.99797600  0.88177200  0.30718500  1
  Ge  Ge10  1  0.99797600  0.11822800  0.69281500  1
  Ge  Ge11  1  0.30718500  0.00202400  0.11822800  1
  Ge  Ge12  1  0.61822800  0.50202400  0.80718500  1
  Ge  Ge13  1  0.00202400  0.88177200  0.69281500  1
  Ge  Ge14  1  0.30718500  0.99797600  0.88177200  1
  Ge  Ge15  1  0.38177200  0.49797600  0.80718500  1
  Ge  Ge16  1  0.69281500  0.99797600  0.11822800  1
  Ge  Ge17  1  0.61822800  0.49797600  0.19281500  1
  Ge  Ge18  1  0.69281500  0.00202400  0.88177200  1
  Ge  Ge19  1  0.38177200  0.50202400  0.19281500  1
  Ge  Ge20  1  0.11822800  0.30718500  0.00202400  1
  Ge  Ge21  1  0.50202400  0.80718500  0.61822800  1
  Ge  Ge22  1  0.11822800  0.69281500  0.99797600  1
  Ge  Ge23  1  0.49797600  0.19281500  0.61822800  1
  Ge  Ge24  1  0.88177200  0.69281500  0.00202400  1
  Ge  Ge25  1  0.50202400  0.19281500  0.38177200  1
  Ge  Ge26  1  0.88177200  0.30718500  0.99797600  1
  Ge  Ge27  1  0.49797600  0.80718500  0.38177200  1
  Ge  Ge28  1  0.80718500  0.61822800  0.50202400  1
  Ge  Ge29  1  0.80718500  0.38177200  0.49797600  1
  Ge  Ge30  1  0.19281500  0.38177200  0.50202400  1
  Ge  Ge31  1  0.19281500  0.61822800  0.49797600  1
  Ge  Ge32  1  0.25000000  0.50000000  0.00000000  1
  Ge  Ge33  1  0.75000000  0.50000000  0.00000000  1
  Ge  Ge34  1  0.00000000  0.25000000  0.50000000  1
  Ge  Ge35  1  0.00000000  0.75000000  0.50000000  1
  Ge  Ge36  1  0.50000000  0.00000000  0.25000000  1
  Ge  Ge37  1  0.50000000  0.00000000  0.75000000  1
  P  P38  1  0.18444400  0.18444400  0.18444400  1
  P  P39  1  0.81555600  0.81555600  0.18444400  1
  P  P40  1  0.81555600  0.18444400  0.81555600  1
  P  P41  1  0.68444400  0.68444400  0.68444400  1
  P  P42  1  0.18444400  0.81555600  0.81555600  1
  P  P43  1  0.31555600  0.31555600  0.68444400  1
  P  P44  1  0.68444400  0.31555600  0.31555600  1
  P  P45  1  0.31555600  0.68444400  0.31555600  1
  Cl  Cl46  1  0.25000000  0.00000000  0.50000000  1
  Cl  Cl47  1  0.75000000  0.00000000  0.50000000  1
  Cl  Cl48  1  0.50000000  0.25000000  0.00000000  1
  Cl  Cl49  1  0.50000000  0.75000000  0.00000000  1
  Cl  Cl50  1  0.00000000  0.50000000  0.25000000  1
  Cl  Cl51  1  0.00000000  0.50000000  0.75000000  1
  Cl  Cl52  1  0.00000000  0.00000000  0.00000000  1
  Cl  Cl53  1  0.50000000  0.50000000  0.50000000  1
