# generated using pymatgen
data_FeSe2NO8
_symmetry_space_group_name_H-M   'P 1'
_cell_length_a   5.21865492
_cell_length_b   5.21865492
_cell_length_c   9.05809800
_cell_angle_alpha   90.00000000
_cell_angle_beta   90.00000000
_cell_angle_gamma   120.00001166
_symmetry_Int_Tables_number   1
_chemical_formula_structural   FeSe2NO8
_chemical_formula_sum   'Fe1 Se2 N1 O8'
_cell_volume   213.64107591
_cell_formula_units_Z   1
loop_
 _symmetry_equiv_pos_site_id
 _symmetry_equiv_pos_as_xyz
  1  'x, y, z'
loop_
 _atom_site_type_symbol
 _atom_site_label
 _atom_site_symmetry_multiplicity
 _atom_site_fract_x
 _atom_site_fract_y
 _atom_site_fract_z
 _atom_site_occupancy
  Fe  Fe0  1  0.00000000  0.00000000  0.00000000  1
  Se  Se1  1  0.66666700  0.33333300  0.79652300  1
  Se  Se2  1  0.33333300  0.66666700  0.20347700  1
  N  N3  1  0.00000000  0.00000000  0.50000000  1
  O  O4  1  0.92590600  0.26152900  0.86175900  1
  O  O5  1  0.33562400  0.07409400  0.86175900  1
  O  O6  1  0.66437600  0.73847100  0.13824100  1
  O  O7  1  0.73847100  0.66437600  0.86175900  1
  O  O8  1  0.26152900  0.92590600  0.13824100  1
  O  O9  1  0.07409400  0.33562400  0.13824100  1
  O  O10  1  0.66666700  0.33333300  0.61456600  1
  O  O11  1  0.33333300  0.66666700  0.38543400  1
