# generated using pymatgen
data_La2(N4O9)3
_symmetry_space_group_name_H-M   'P 1'
_cell_length_a   13.62861047
_cell_length_b   13.62861047
_cell_length_c   13.62861047
_cell_angle_alpha   90.00000000
_cell_angle_beta   90.00000000
_cell_angle_gamma   90.00000000
_symmetry_Int_Tables_number   1
_chemical_formula_structural   La2(N4O9)3
_chemical_formula_sum   'La8 N48 O108'
_cell_volume   2531.36479822
_cell_formula_units_Z   4
loop_
 _symmetry_equiv_pos_site_id
 _symmetry_equiv_pos_as_xyz
  1  'x, y, z'
loop_
 _atom_site_type_symbol
 _atom_site_label
 _atom_site_symmetry_multiplicity
 _atom_site_fract_x
 _atom_site_fract_y
 _atom_site_fract_z
 _atom_site_occupancy
  La  La0  1  0.05277559  0.05277559  0.05277559  1
  La  La1  1  0.44722441  0.94722441  0.55277559  1
  La  La2  1  0.94722441  0.55277559  0.44722441  1
  La  La3  1  0.80277559  0.30277559  0.19722441  1
  La  La4  1  0.55277559  0.44722441  0.94722441  1
  La  La5  1  0.69722441  0.69722441  0.69722441  1
  La  La6  1  0.30277559  0.19722441  0.80277559  1
  La  La7  1  0.19722441  0.80277559  0.30277559  1
  N  N8  1  0.10420195  0.40940132  0.36223673  1
  N  N9  1  0.39579805  0.59059868  0.86223673  1
  N  N10  1  0.89579805  0.90940132  0.13776327  1
  N  N11  1  0.36223673  0.10420195  0.40940132  1
  N  N12  1  0.15940132  0.35420195  0.88776327  1
  N  N13  1  0.60420195  0.09059868  0.63776327  1
  N  N14  1  0.86223673  0.39579805  0.59059868  1
  N  N15  1  0.34059868  0.64579805  0.38776327  1
  N  N16  1  0.13776327  0.89579805  0.90940132  1
  N  N17  1  0.65940132  0.14579805  0.11223673  1
  N  N18  1  0.63776327  0.60420195  0.09059868  1
  N  N19  1  0.84059868  0.85420195  0.61223673  1
  N  N20  1  0.40940132  0.36223673  0.10420195  1
  N  N21  1  0.85420195  0.61223673  0.84059868  1
  N  N22  1  0.90940132  0.13776327  0.89579805  1
  N  N23  1  0.64579805  0.38776327  0.34059868  1
  N  N24  1  0.09059868  0.63776327  0.60420195  1
  N  N25  1  0.35420195  0.88776327  0.15940132  1
  N  N26  1  0.59059868  0.86223673  0.39579805  1
  N  N27  1  0.14579805  0.11223673  0.65940132  1
  N  N28  1  0.88776327  0.15940132  0.35420195  1
  N  N29  1  0.38776327  0.34059868  0.64579805  1
  N  N30  1  0.61223673  0.84059868  0.85420195  1
  N  N31  1  0.11223673  0.65940132  0.14579805  1
  N  N32  1  0.12500000  0.18886585  0.43886585  1
  N  N33  1  0.37500000  0.81113415  0.93886585  1
  N  N34  1  0.87500000  0.68886585  0.06113415  1
  N  N35  1  0.43886585  0.12500000  0.18886585  1
  N  N36  1  0.93886585  0.37500000  0.81113415  1
  N  N37  1  0.62500000  0.31113415  0.56113415  1
  N  N38  1  0.56113415  0.62500000  0.31113415  1
  N  N39  1  0.06113415  0.87500000  0.68886585  1
  N  N40  1  0.18886585  0.43886585  0.12500000  1
  N  N41  1  0.68886585  0.06113415  0.87500000  1
  N  N42  1  0.31113415  0.56113415  0.62500000  1
  N  N43  1  0.81113415  0.93886585  0.37500000  1
  N  N44  1  0.12500000  0.01697327  0.26697327  1
  N  N45  1  0.37500000  0.98302673  0.76697327  1
  N  N46  1  0.87500000  0.51697327  0.23302673  1
  N  N47  1  0.26697327  0.12500000  0.01697327  1
  N  N48  1  0.76697327  0.37500000  0.98302673  1
  N  N49  1  0.62500000  0.48302673  0.73302673  1
  N  N50  1  0.73302673  0.62500000  0.48302673  1
  N  N51  1  0.23302673  0.87500000  0.51697327  1
  N  N52  1  0.01697327  0.26697327  0.12500000  1
  N  N53  1  0.51697327  0.23302673  0.87500000  1
  N  N54  1  0.48302673  0.73302673  0.62500000  1
  N  N55  1  0.98302673  0.76697327  0.37500000  1
  O  O56  1  0.12500000  0.94904273  0.19904273  1
  O  O57  1  0.37500000  0.05095727  0.69904273  1
  O  O58  1  0.87500000  0.44904273  0.30095727  1
  O  O59  1  0.19904273  0.12500000  0.94904273  1
  O  O60  1  0.69904273  0.37500000  0.05095727  1
  O  O61  1  0.62500000  0.55095727  0.80095727  1
  O  O62  1  0.80095727  0.62500000  0.55095727  1
  O  O63  1  0.30095727  0.87500000  0.44904273  1
  O  O64  1  0.94904273  0.19904273  0.12500000  1
  O  O65  1  0.44904273  0.30095727  0.87500000  1
  O  O66  1  0.55095727  0.80095727  0.62500000  1
  O  O67  1  0.05095727  0.69904273  0.37500000  1
  O  O68  1  0.05711497  0.38834021  0.43949074  1
  O  O69  1  0.44288503  0.61165979  0.93949074  1
  O  O70  1  0.94288503  0.88834021  0.06050926  1
  O  O71  1  0.43949074  0.05711497  0.38834021  1
  O  O72  1  0.13834021  0.30711497  0.81050926  1
  O  O73  1  0.55711497  0.11165979  0.56050926  1
  O  O74  1  0.93949074  0.44288503  0.61165979  1
  O  O75  1  0.36165979  0.69288503  0.31050926  1
  O  O76  1  0.06050926  0.94288503  0.88834021  1
  O  O77  1  0.63834021  0.19288503  0.18949074  1
  O  O78  1  0.56050926  0.55711497  0.11165979  1
  O  O79  1  0.86165979  0.80711497  0.68949074  1
  O  O80  1  0.38834021  0.43949074  0.05711497  1
  O  O81  1  0.80711497  0.68949074  0.86165979  1
  O  O82  1  0.88834021  0.06050926  0.94288503  1
  O  O83  1  0.69288503  0.31050926  0.36165979  1
  O  O84  1  0.11165979  0.56050926  0.55711497  1
  O  O85  1  0.30711497  0.81050926  0.13834021  1
  O  O86  1  0.61165979  0.93949074  0.44288503  1
  O  O87  1  0.19288503  0.18949074  0.63834021  1
  O  O88  1  0.81050926  0.13834021  0.30711497  1
  O  O89  1  0.31050926  0.36165979  0.69288503  1
  O  O90  1  0.68949074  0.86165979  0.80711497  1
  O  O91  1  0.18949074  0.63834021  0.19288503  1
  O  O92  1  0.09011118  0.49305773  0.32345863  1
  O  O93  1  0.40988882  0.50694227  0.82345863  1
  O  O94  1  0.90988882  0.99305773  0.17654137  1
  O  O95  1  0.32345863  0.09011118  0.49305773  1
  O  O96  1  0.24305773  0.34011118  0.92654137  1
  O  O97  1  0.59011118  0.00694227  0.67654137  1
  O  O98  1  0.82345863  0.40988882  0.50694227  1
  O  O99  1  0.25694227  0.65988882  0.42654137  1
  O  O100  1  0.17654137  0.90988882  0.99305773  1
  O  O101  1  0.74305773  0.15988882  0.07345863  1
  O  O102  1  0.67654137  0.59011118  0.00694227  1
  O  O103  1  0.75694227  0.84011118  0.57345863  1
  O  O104  1  0.49305773  0.32345863  0.09011118  1
  O  O105  1  0.84011118  0.57345863  0.75694227  1
  O  O106  1  0.99305773  0.17654137  0.90988882  1
  O  O107  1  0.65988882  0.42654137  0.25694227  1
  O  O108  1  0.00694227  0.67654137  0.59011118  1
  O  O109  1  0.34011118  0.92654137  0.24305773  1
  O  O110  1  0.50694227  0.82345863  0.40988882  1
  O  O111  1  0.15988882  0.07345863  0.74305773  1
  O  O112  1  0.92654137  0.24305773  0.34011118  1
  O  O113  1  0.42654137  0.25694227  0.65988882  1
  O  O114  1  0.57345863  0.75694227  0.84011118  1
  O  O115  1  0.07345863  0.74305773  0.15988882  1
  O  O116  1  0.16307785  0.35007553  0.32484081  1
  O  O117  1  0.33692215  0.64992447  0.82484081  1
  O  O118  1  0.83692215  0.85007553  0.17515919  1
  O  O119  1  0.32484081  0.16307785  0.35007553  1
  O  O120  1  0.10007553  0.41307785  0.92515919  1
  O  O121  1  0.66307785  0.14992447  0.67515919  1
  O  O122  1  0.82484081  0.33692215  0.64992447  1
  O  O123  1  0.39992447  0.58692215  0.42515919  1
  O  O124  1  0.17515919  0.83692215  0.85007553  1
  O  O125  1  0.60007553  0.08692215  0.07484081  1
  O  O126  1  0.67515919  0.66307785  0.14992447  1
  O  O127  1  0.89992447  0.91307785  0.57484081  1
  O  O128  1  0.35007553  0.32484081  0.16307785  1
  O  O129  1  0.91307785  0.57484081  0.89992447  1
  O  O130  1  0.85007553  0.17515919  0.83692215  1
  O  O131  1  0.58692215  0.42515919  0.39992447  1
  O  O132  1  0.14992447  0.67515919  0.66307785  1
  O  O133  1  0.41307785  0.92515919  0.10007553  1
  O  O134  1  0.64992447  0.82484081  0.33692215  1
  O  O135  1  0.08692215  0.07484081  0.60007553  1
  O  O136  1  0.92515919  0.10007553  0.41307785  1
  O  O137  1  0.42515919  0.39992447  0.58692215  1
  O  O138  1  0.57484081  0.89992447  0.91307785  1
  O  O139  1  0.07484081  0.60007553  0.08692215  1
  O  O140  1  0.09108061  0.09904676  0.24524693  1
  O  O141  1  0.40891939  0.90095324  0.74524693  1
  O  O142  1  0.90891939  0.59904676  0.25475307  1
  O  O143  1  0.24524693  0.09108061  0.09904676  1
  O  O144  1  0.84904676  0.34108061  0.00475307  1
  O  O145  1  0.59108061  0.40095324  0.75475307  1
  O  O146  1  0.74524693  0.40891939  0.90095324  1
  O  O147  1  0.65095324  0.65891939  0.50475307  1
  O  O148  1  0.25475307  0.90891939  0.59904676  1
  O  O149  1  0.34904676  0.15891939  0.99524693  1
  O  O150  1  0.75475307  0.59108061  0.40095324  1
  O  O151  1  0.15095324  0.84108061  0.49524693  1
  O  O152  1  0.09904676  0.24524693  0.09108061  1
  O  O153  1  0.84108061  0.49524693  0.15095324  1
  O  O154  1  0.59904676  0.25475307  0.90891939  1
  O  O155  1  0.65891939  0.50475307  0.65095324  1
  O  O156  1  0.40095324  0.75475307  0.59108061  1
  O  O157  1  0.34108061  0.00475307  0.84904676  1
  O  O158  1  0.90095324  0.74524693  0.40891939  1
  O  O159  1  0.15891939  0.99524693  0.34904676  1
  O  O160  1  0.00475307  0.84904676  0.34108061  1
  O  O161  1  0.50475307  0.65095324  0.65891939  1
  O  O162  1  0.49524693  0.15095324  0.84108061  1
  O  O163  1  0.99524693  0.34904676  0.15891939  1
