# generated using pymatgen
data_FeTe3O8
_symmetry_space_group_name_H-M   'P 1'
_cell_length_a   9.65687780
_cell_length_b   9.65687780
_cell_length_c   9.65687780
_cell_angle_alpha   109.47122063
_cell_angle_beta   109.47122063
_cell_angle_gamma   109.47122063
_symmetry_Int_Tables_number   1
_chemical_formula_structural   FeTe3O8
_chemical_formula_sum   'Fe4 Te12 O32'
_cell_volume   693.24750823
_cell_formula_units_Z   4
loop_
 _symmetry_equiv_pos_site_id
 _symmetry_equiv_pos_as_xyz
  1  'x, y, z'
loop_
 _atom_site_type_symbol
 _atom_site_label
 _atom_site_symmetry_multiplicity
 _atom_site_fract_x
 _atom_site_fract_y
 _atom_site_fract_z
 _atom_site_occupancy
  Fe  Fe0  1  0.50000000  0.50000000  0.50000000  1
  Fe  Fe1  1  0.00000000  0.50000000  0.00000000  1
  Fe  Fe2  1  0.00000000  0.00000000  0.50000000  1
  Fe  Fe3  1  0.50000000  0.00000000  0.00000000  1
  Te  Te4  1  0.29226200  0.04226200  0.25000000  1
  Te  Te5  1  0.70773800  0.95773800  0.75000000  1
  Te  Te6  1  0.20773800  0.45773800  0.75000000  1
  Te  Te7  1  0.04226200  0.25000000  0.29226200  1
  Te  Te8  1  0.79226200  0.54226200  0.25000000  1
  Te  Te9  1  0.95773800  0.75000000  0.70773800  1
  Te  Te10  1  0.45773800  0.75000000  0.20773800  1
  Te  Te11  1  0.54226200  0.25000000  0.79226200  1
  Te  Te12  1  0.25000000  0.29226200  0.04226200  1
  Te  Te13  1  0.75000000  0.70773800  0.95773800  1
  Te  Te14  1  0.75000000  0.20773800  0.45773800  1
  Te  Te15  1  0.25000000  0.79226200  0.54226200  1
  O  O16  1  0.06509500  0.32895500  0.02749500  1
  O  O17  1  0.93490500  0.67104500  0.97250500  1
  O  O18  1  0.43490500  0.46240100  0.26386100  1
  O  O19  1  0.69854000  0.17104500  0.23613900  1
  O  O20  1  0.32895500  0.02749500  0.06509500  1
  O  O21  1  0.56509500  0.53759900  0.73613900  1
  O  O22  1  0.30146000  0.82895500  0.76386100  1
  O  O23  1  0.67104500  0.97250500  0.93490500  1
  O  O24  1  0.80146000  0.03759900  0.47250500  1
  O  O25  1  0.46240100  0.26386100  0.43490500  1
  O  O26  1  0.19854000  0.96240100  0.52749500  1
  O  O27  1  0.53759900  0.73613900  0.56509500  1
  O  O28  1  0.17104500  0.23613900  0.69854000  1
  O  O29  1  0.82895500  0.76386100  0.30146000  1
  O  O30  1  0.03759900  0.47250500  0.80146000  1
  O  O31  1  0.96240100  0.52749500  0.19854000  1
  O  O32  1  0.02749500  0.06509500  0.32895500  1
  O  O33  1  0.97250500  0.93490500  0.67104500  1
  O  O34  1  0.23613900  0.69854000  0.17104500  1
  O  O35  1  0.76386100  0.30146000  0.82895500  1
  O  O36  1  0.47250500  0.80146000  0.03759900  1
  O  O37  1  0.52749500  0.19854000  0.96240100  1
  O  O38  1  0.26386100  0.43490500  0.46240100  1
  O  O39  1  0.73613900  0.56509500  0.53759900  1
  O  O40  1  0.15478900  0.15478900  0.15478900  1
  O  O41  1  0.84521100  0.84521100  0.84521100  1
  O  O42  1  0.34521100  0.50000000  0.00000000  1
  O  O43  1  0.00000000  0.34521100  0.50000000  1
  O  O44  1  0.65478900  0.50000000  0.00000000  1
  O  O45  1  0.00000000  0.65478900  0.50000000  1
  O  O46  1  0.50000000  0.00000000  0.34521100  1
  O  O47  1  0.50000000  0.00000000  0.65478900  1
