# generated using pymatgen
data_KBaV5(H2O7)2
_symmetry_space_group_name_H-M   'P 1'
_cell_length_a   16.81087500
_cell_length_b   9.44142000
_cell_length_c   10.90259634
_cell_angle_alpha   60.22943715
_cell_angle_beta   90.00000000
_cell_angle_gamma   90.00000000
_symmetry_Int_Tables_number   1
_chemical_formula_structural   KBaV5(H2O7)2
_chemical_formula_sum   'K4 Ba4 V20 H16 O56'
_cell_volume   1502.06123292
_cell_formula_units_Z   4
loop_
 _symmetry_equiv_pos_site_id
 _symmetry_equiv_pos_as_xyz
  1  'x, y, z'
loop_
 _atom_site_type_symbol
 _atom_site_label
 _atom_site_symmetry_multiplicity
 _atom_site_fract_x
 _atom_site_fract_y
 _atom_site_fract_z
 _atom_site_occupancy
  K  K0  1  0.58568500  0.79262200  0.22349700  1
  K  K1  1  0.41431500  0.20737800  0.77650300  1
  K  K2  1  0.08568500  0.20737800  0.27650300  1
  K  K3  1  0.91431500  0.79262200  0.72349700  1
  Ba  Ba4  1  0.88134800  0.31477500  0.05322500  1
  Ba  Ba5  1  0.11865200  0.68522500  0.94677500  1
  Ba  Ba6  1  0.38134800  0.68522500  0.44677500  1
  Ba  Ba7  1  0.61865200  0.31477500  0.55322500  1
  V  V8  1  0.80628800  0.57759100  0.37273100  1
  V  V9  1  0.19371200  0.42240900  0.62726900  1
  V  V10  1  0.30628800  0.42240900  0.12726900  1
  V  V11  1  0.69371200  0.57759100  0.87273100  1
  V  V12  1  0.93871800  0.60122200  0.16689300  1
  V  V13  1  0.06128200  0.39877800  0.83310700  1
  V  V14  1  0.43871800  0.39877800  0.33310700  1
  V  V15  1  0.56128200  0.60122200  0.66689300  1
  V  V16  1  0.41722400  0.72451700  0.04141000  1
  V  V17  1  0.58277600  0.27548300  0.95859000  1
  V  V18  1  0.91722400  0.27548300  0.45859000  1
  V  V19  1  0.08277600  0.72451700  0.54141000  1
  V  V20  1  0.95258700  0.81734200  0.30985400  1
  V  V21  1  0.04741300  0.18265800  0.69014600  1
  V  V22  1  0.45258700  0.18265800  0.19014600  1
  V  V23  1  0.54741300  0.81734200  0.80985400  1
  V  V24  1  0.56919100  0.48796500  0.11049300  1
  V  V25  1  0.43080900  0.51203500  0.88950700  1
  V  V26  1  0.06919100  0.51203500  0.38950700  1
  V  V27  1  0.93080900  0.48796500  0.61049300  1
  H  H28  1  0.39333900  0.96271600  0.56006600  1
  H  H29  1  0.60666100  0.03728400  0.43993400  1
  H  H30  1  0.89333900  0.03728400  0.93993400  1
  H  H31  1  0.10666100  0.96271600  0.06006600  1
  H  H32  1  0.24492600  0.73449100  0.21771900  1
  H  H33  1  0.75507400  0.26550900  0.78228100  1
  H  H34  1  0.74492600  0.26550900  0.28228100  1
  H  H35  1  0.25507400  0.73449100  0.71771900  1
  H  H36  1  0.73246900  0.85603000  0.01394300  1
  H  H37  1  0.26753100  0.14397000  0.98605700  1
  H  H38  1  0.23246900  0.14397000  0.48605700  1
  H  H39  1  0.76753100  0.85603000  0.51394300  1
  H  H40  1  0.72741600  0.99874100  0.20389000  1
  H  H41  1  0.27258400  0.00125900  0.79611000  1
  H  H42  1  0.22741600  0.00125900  0.29611000  1
  H  H43  1  0.77258400  0.99874100  0.70389000  1
  O  O44  1  0.59533300  0.08169900  0.01067500  1
  O  O45  1  0.40466700  0.91830100  0.98932500  1
  O  O46  1  0.09533300  0.91830100  0.48932500  1
  O  O47  1  0.90466700  0.08169900  0.51067500  1
  O  O48  1  0.96103700  0.80131100  0.14777000  1
  O  O49  1  0.03896300  0.19868900  0.85223000  1
  O  O50  1  0.46103700  0.19868900  0.35223000  1
  O  O51  1  0.53896300  0.80131100  0.64777000  1
  O  O52  1  0.95048000  0.62844600  0.00305100  1
  O  O53  1  0.04952000  0.37155400  0.99694900  1
  O  O54  1  0.45048000  0.37155400  0.49694900  1
  O  O55  1  0.54952000  0.62844600  0.50305100  1
  O  O56  1  0.93094700  0.36467700  0.26462900  1
  O  O57  1  0.06905300  0.63532300  0.73537100  1
  O  O58  1  0.43094700  0.63532300  0.23537100  1
  O  O59  1  0.56905300  0.36467700  0.76462900  1
  O  O60  1  0.84605800  0.78531800  0.32449800  1
  O  O61  1  0.15394200  0.21468200  0.67550200  1
  O  O62  1  0.34605800  0.21468200  0.17550200  1
  O  O63  1  0.65394200  0.78531800  0.82449800  1
  O  O64  1  0.55929000  0.44709500  0.28508600  1
  O  O65  1  0.44071000  0.55290500  0.71491400  1
  O  O66  1  0.05929000  0.55290500  0.21491400  1
  O  O67  1  0.94071000  0.44709500  0.78508600  1
  O  O68  1  0.53812000  0.71755600  0.01968900  1
  O  O69  1  0.46188000  0.28244400  0.98031100  1
  O  O70  1  0.03812000  0.28244400  0.48031100  1
  O  O71  1  0.96188000  0.71755600  0.51968900  1
  O  O72  1  0.70802000  0.59320500  0.37382000  1
  O  O73  1  0.29198000  0.40679500  0.62618000  1
  O  O74  1  0.20802000  0.40679500  0.12618000  1
  O  O75  1  0.79198000  0.59320500  0.87382000  1
  O  O76  1  0.66866700  0.52391700  0.07079400  1
  O  O77  1  0.33133300  0.47608300  0.92920600  1
  O  O78  1  0.16866700  0.47608300  0.42920600  1
  O  O79  1  0.83133300  0.52391700  0.57079400  1
  O  O80  1  0.31519500  0.64988800  0.05253500  1
  O  O81  1  0.68480500  0.35011200  0.94746500  1
  O  O82  1  0.81519500  0.35011200  0.44746500  1
  O  O83  1  0.18480500  0.64988800  0.55253500  1
  O  O84  1  0.56645500  0.26885500  0.14472700  1
  O  O85  1  0.43354500  0.73114500  0.85527300  1
  O  O86  1  0.06645500  0.73114500  0.35527300  1
  O  O87  1  0.93354500  0.26885500  0.64472700  1
  O  O88  1  0.83319300  0.61410300  0.19375000  1
  O  O89  1  0.16680700  0.38589700  0.80625000  1
  O  O90  1  0.33319300  0.38589700  0.30625000  1
  O  O91  1  0.66680700  0.61410300  0.69375000  1
  O  O92  1  0.94638200  0.53616900  0.39722400  1
  O  O93  1  0.05361800  0.46383100  0.60277600  1
  O  O94  1  0.44638200  0.46383100  0.10277600  1
  O  O95  1  0.55361800  0.53616900  0.89722400  1
  O  O96  1  0.96132600  0.01795000  0.24546900  1
  O  O97  1  0.03867400  0.98205000  0.75453100  1
  O  O98  1  0.46132600  0.98205000  0.25453100  1
  O  O99  1  0.53867400  0.01795000  0.74546900  1
