# generated using pymatgen
data_Gd3W(ClO2)3
_symmetry_space_group_name_H-M   'P 1'
_cell_length_a   9.22050786
_cell_length_b   9.22050786
_cell_length_c   5.33336600
_cell_angle_alpha   90.00000000
_cell_angle_beta   90.00000000
_cell_angle_gamma   119.99999898
_symmetry_Int_Tables_number   1
_chemical_formula_structural   Gd3W(ClO2)3
_chemical_formula_sum   'Gd6 W2 Cl6 O12'
_cell_volume   392.68264601
_cell_formula_units_Z   2
loop_
 _symmetry_equiv_pos_site_id
 _symmetry_equiv_pos_as_xyz
  1  'x, y, z'
loop_
 _atom_site_type_symbol
 _atom_site_label
 _atom_site_symmetry_multiplicity
 _atom_site_fract_x
 _atom_site_fract_y
 _atom_site_fract_z
 _atom_site_occupancy
  Gd  Gd0  1  0.40495700  0.09025500  0.25000000  1
  Gd  Gd1  1  0.59504300  0.90974500  0.75000000  1
  Gd  Gd2  1  0.90974500  0.31470200  0.25000000  1
  Gd  Gd3  1  0.09025500  0.68529800  0.75000000  1
  Gd  Gd4  1  0.68529800  0.59504300  0.25000000  1
  Gd  Gd5  1  0.31470200  0.40495700  0.75000000  1
  W  W6  1  0.33333300  0.66666700  0.25000000  1
  W  W7  1  0.66666700  0.33333300  0.75000000  1
  Cl  Cl8  1  0.19116400  0.24018100  0.25000000  1
  Cl  Cl9  1  0.80883600  0.75981900  0.75000000  1
  Cl  Cl10  1  0.75981900  0.95098300  0.25000000  1
  Cl  Cl11  1  0.24018100  0.04901700  0.75000000  1
  Cl  Cl12  1  0.04901700  0.80883600  0.25000000  1
  Cl  Cl13  1  0.95098300  0.19116400  0.75000000  1
  O  O14  1  0.15659100  0.52176500  0.01413800  1
  O  O15  1  0.84340900  0.47823500  0.98586200  1
  O  O16  1  0.47823500  0.63482500  0.01413800  1
  O  O17  1  0.84340900  0.47823500  0.51413800  1
  O  O18  1  0.52176500  0.36517500  0.98586200  1
  O  O19  1  0.15659100  0.52176500  0.48586200  1
  O  O20  1  0.36517500  0.84340900  0.01413800  1
  O  O21  1  0.52176500  0.36517500  0.51413800  1
  O  O22  1  0.63482500  0.15659100  0.98586200  1
  O  O23  1  0.47823500  0.63482500  0.48586200  1
  O  O24  1  0.63482500  0.15659100  0.51413800  1
  O  O25  1  0.36517500  0.84340900  0.48586200  1
