# generated using pymatgen
data_Eu2Al3O8
_symmetry_space_group_name_H-M   'P 1'
_cell_length_a   7.78596156
_cell_length_b   7.78596156
_cell_length_c   7.78596156
_cell_angle_alpha   109.47122063
_cell_angle_beta   109.47122063
_cell_angle_gamma   109.47122063
_symmetry_Int_Tables_number   1
_chemical_formula_structural   Eu2Al3O8
_chemical_formula_sum   'Eu4 Al6 O16'
_cell_volume   363.34139077
_cell_formula_units_Z   2
loop_
 _symmetry_equiv_pos_site_id
 _symmetry_equiv_pos_as_xyz
  1  'x, y, z'
loop_
 _atom_site_type_symbol
 _atom_site_label
 _atom_site_symmetry_multiplicity
 _atom_site_fract_x
 _atom_site_fract_y
 _atom_site_fract_z
 _atom_site_occupancy
  Eu  Eu0  1  0.29681800  0.29681800  0.29681800  1
  Eu  Eu1  1  0.70318200  0.00000000  0.00000000  1
  Eu  Eu2  1  0.00000000  0.70318200  0.00000000  1
  Eu  Eu3  1  0.00000000  0.00000000  0.70318200  1
  Al  Al4  1  0.25000000  0.75000000  0.50000000  1
  Al  Al5  1  0.75000000  0.25000000  0.50000000  1
  Al  Al6  1  0.75000000  0.50000000  0.25000000  1
  Al  Al7  1  0.25000000  0.50000000  0.75000000  1
  Al  Al8  1  0.50000000  0.25000000  0.75000000  1
  Al  Al9  1  0.50000000  0.75000000  0.25000000  1
  O  O10  1  0.78978800  0.78978800  0.78978800  1
  O  O11  1  0.21021200  0.00000000  0.00000000  1
  O  O12  1  0.00000000  0.21021200  0.00000000  1
  O  O13  1  0.00000000  0.00000000  0.21021200  1
  O  O14  1  0.27794200  0.55347600  0.55347600  1
  O  O15  1  0.72205800  0.27553300  0.27553300  1
  O  O16  1  0.00000000  0.44652400  0.72446700  1
  O  O17  1  0.55347600  0.55347600  0.27794200  1
  O  O18  1  0.00000000  0.72446700  0.44652400  1
  O  O19  1  0.27553300  0.27553300  0.72205800  1
  O  O20  1  0.44652400  0.72446700  0.00000000  1
  O  O21  1  0.72446700  0.44652400  0.00000000  1
  O  O22  1  0.55347600  0.27794200  0.55347600  1
  O  O23  1  0.72446700  0.00000000  0.44652400  1
  O  O24  1  0.44652400  0.00000000  0.72446700  1
  O  O25  1  0.27553300  0.72205800  0.27553300  1
