# generated using pymatgen
data_FeH12C2(N5O3)2
_symmetry_space_group_name_H-M   'P 1'
_cell_length_a   6.36577298
_cell_length_b   7.25044579
_cell_length_c   7.84348559
_cell_angle_alpha   75.33541349
_cell_angle_beta   73.30347735
_cell_angle_gamma   67.99625923
_symmetry_Int_Tables_number   1
_chemical_formula_structural   FeH12C2(N5O3)2
_chemical_formula_sum   'Fe1 H12 C2 N10 O6'
_cell_volume   317.14825799
_cell_formula_units_Z   1
loop_
 _symmetry_equiv_pos_site_id
 _symmetry_equiv_pos_as_xyz
  1  'x, y, z'
loop_
 _atom_site_type_symbol
 _atom_site_label
 _atom_site_symmetry_multiplicity
 _atom_site_fract_x
 _atom_site_fract_y
 _atom_site_fract_z
 _atom_site_occupancy
  Fe  Fe0  1  0.00000000  0.00000000  0.00000000  1
  H  H1  1  0.57542800  0.16027000  0.16926400  1
  H  H2  1  0.42457200  0.83973000  0.83073600  1
  H  H3  1  0.66945500  0.34454400  0.10492400  1
  H  H4  1  0.33054500  0.65545600  0.89507600  1
  H  H5  1  0.16188300  0.20214300  0.16967600  1
  H  H6  1  0.83811700  0.79785700  0.83032400  1
  H  H7  1  0.71765700  0.47848400  0.30427900  1
  H  H8  1  0.28234300  0.52151600  0.69572100  1
  H  H9  1  0.22602400  0.28690900  0.95753000  1
  H  H10  1  0.77397600  0.71309100  0.04247000  1
  H  H11  1  0.48084400  0.61764200  0.23918700  1
  H  H12  1  0.51915600  0.38235800  0.76081300  1
  C  C13  1  0.20083900  0.12314100  0.55966500  1
  C  C14  1  0.79916100  0.87685900  0.44033500  1
  N  N15  1  0.10499000  0.68383100  0.53108600  1
  N  N16  1  0.89501000  0.31616900  0.46891400  1
  N  N17  1  0.11998800  0.22556100  0.40921300  1
  N  N18  1  0.88001200  0.77443900  0.59078700  1
  N  N19  1  0.02720600  0.14882800  0.70884200  1
  N  N20  1  0.97279400  0.85117200  0.29115800  1
  N  N21  1  0.16172500  0.72944200  0.35167500  1
  N  N22  1  0.83827500  0.27055800  0.64832500  1
  N  N23  1  0.42529600  0.00508500  0.57464200  1
  N  N24  1  0.57470400  0.99491500  0.42535800  1
  O  O25  1  0.64798800  0.54557800  0.19623500  1
  O  O26  1  0.35201200  0.45442200  0.80376500  1
  O  O27  1  0.67064500  0.22256300  0.06565500  1
  O  O28  1  0.32935500  0.77743700  0.93434500  1
  O  O29  1  0.15845500  0.18864400  0.04811900  1
  O  O30  1  0.84154500  0.81135600  0.95188100  1
