# generated using pymatgen
data_H4C(N3O)2
_symmetry_space_group_name_H-M   'P 1'
_cell_length_a   13.50745400
_cell_length_b   5.15715800
_cell_length_c   8.70354255
_cell_angle_alpha   88.62269513
_cell_angle_beta   90.00000000
_cell_angle_gamma   90.00000000
_symmetry_Int_Tables_number   1
_chemical_formula_structural   H4C(N3O)2
_chemical_formula_sum   'H16 C4 N24 O8'
_cell_volume   606.11425832
_cell_formula_units_Z   4
loop_
 _symmetry_equiv_pos_site_id
 _symmetry_equiv_pos_as_xyz
  1  'x, y, z'
loop_
 _atom_site_type_symbol
 _atom_site_label
 _atom_site_symmetry_multiplicity
 _atom_site_fract_x
 _atom_site_fract_y
 _atom_site_fract_z
 _atom_site_occupancy
  H  H0  1  0.82410100  0.18007500  0.20542500  1
  H  H1  1  0.17589900  0.81992500  0.79457500  1
  H  H2  1  0.32410100  0.81992500  0.29457500  1
  H  H3  1  0.67589900  0.18007500  0.70542500  1
  H  H4  1  0.36873200  0.54971700  0.21610000  1
  H  H5  1  0.63126800  0.45028300  0.78390000  1
  H  H6  1  0.86873200  0.45028300  0.28390000  1
  H  H7  1  0.13126800  0.54971700  0.71610000  1
  H  H8  1  0.36079800  0.55581600  0.40973600  1
  H  H9  1  0.63920200  0.44418400  0.59026400  1
  H  H10  1  0.86079800  0.44418400  0.09026400  1
  H  H11  1  0.13920200  0.55581600  0.90973600  1
  H  H12  1  0.44741600  0.73832800  0.31639300  1
  H  H13  1  0.55258400  0.26167200  0.68360700  1
  H  H14  1  0.94741600  0.26167200  0.18360700  1
  H  H15  1  0.05258400  0.73832800  0.81639300  1
  C  C16  1  0.13310900  0.03367900  0.24188100  1
  C  C17  1  0.86689100  0.96632100  0.75811900  1
  C  C18  1  0.63310900  0.96632100  0.25811900  1
  C  C19  1  0.36689100  0.03367900  0.74188100  1
  N  N20  1  0.58583600  0.15612800  0.15832800  1
  N  N21  1  0.41416400  0.84387200  0.84167200  1
  N  N22  1  0.08583600  0.84387200  0.34167200  1
  N  N23  1  0.91416400  0.15612800  0.65832800  1
  N  N24  1  0.15296400  0.34212900  0.08301500  1
  N  N25  1  0.84703600  0.65787100  0.91698500  1
  N  N26  1  0.65296400  0.65787100  0.41698500  1
  N  N27  1  0.34703600  0.34212900  0.58301500  1
  N  N28  1  0.23123800  0.06176100  0.22898000  1
  N  N29  1  0.76876200  0.93823900  0.77102000  1
  N  N30  1  0.73123800  0.93823900  0.27102000  1
  N  N31  1  0.26876200  0.06176100  0.72898000  1
  N  N32  1  0.37500100  0.66724800  0.30939200  1
  N  N33  1  0.62499900  0.33275200  0.69060800  1
  N  N34  1  0.87500100  0.33275200  0.19060800  1
  N  N35  1  0.12499900  0.66724800  0.80939200  1
  N  N36  1  0.08240700  0.20218400  0.15329300  1
  N  N37  1  0.91759300  0.79781600  0.84670700  1
  N  N38  1  0.58240700  0.79781600  0.34670700  1
  N  N39  1  0.41759300  0.20218400  0.65329300  1
  N  N40  1  0.24255200  0.25725100  0.12765200  1
  N  N41  1  0.75744800  0.74274900  0.87234800  1
  N  N42  1  0.74255200  0.74274900  0.37234800  1
  N  N43  1  0.25744800  0.25725100  0.62765200  1
  O  O44  1  0.49423200  0.17436500  0.16605900  1
  O  O45  1  0.50576800  0.82563500  0.83394100  1
  O  O46  1  0.99423200  0.82563500  0.33394100  1
  O  O47  1  0.00576800  0.17436500  0.66605900  1
  O  O48  1  0.64009800  0.28819500  0.07162000  1
  O  O49  1  0.35990200  0.71180500  0.92838000  1
  O  O50  1  0.14009800  0.71180500  0.42838000  1
  O  O51  1  0.85990200  0.28819500  0.57162000  1
