# generated using pymatgen
data_Na22S10Cl3O40
_symmetry_space_group_name_H-M   'P 1'
_cell_length_a   14.01908083
_cell_length_b   14.01908083
_cell_length_c   14.01908083
_cell_angle_alpha   109.47122063
_cell_angle_beta   109.47122063
_cell_angle_gamma   109.47122063
_symmetry_Int_Tables_number   1
_chemical_formula_structural   Na22S10Cl3O40
_chemical_formula_sum   'Na44 S20 Cl6 O80'
_cell_volume   2120.98075739
_cell_formula_units_Z   2
loop_
 _symmetry_equiv_pos_site_id
 _symmetry_equiv_pos_as_xyz
  1  'x, y, z'
loop_
 _atom_site_type_symbol
 _atom_site_label
 _atom_site_symmetry_multiplicity
 _atom_site_fract_x
 _atom_site_fract_y
 _atom_site_fract_z
 _atom_site_occupancy
  Na  Na0  1  0.79438611  0.54438611  0.75000000  1
  Na  Na1  1  0.70561389  0.95561389  0.25000000  1
  Na  Na2  1  0.54438611  0.75000000  0.79438611  1
  Na  Na3  1  0.29438611  0.25000000  0.04438611  1
  Na  Na4  1  0.95561389  0.25000000  0.70561389  1
  Na  Na5  1  0.20561389  0.75000000  0.45561389  1
  Na  Na6  1  0.75000000  0.79438611  0.54438611  1
  Na  Na7  1  0.04438611  0.29438611  0.25000000  1
  Na  Na8  1  0.25000000  0.70561389  0.95561389  1
  Na  Na9  1  0.45561389  0.20561389  0.75000000  1
  Na  Na10  1  0.25000000  0.04438611  0.29438611  1
  Na  Na11  1  0.75000000  0.45561389  0.20561389  1
  Na  Na12  1  0.74169772  0.47129415  0.46532326  1
  Na  Na13  1  0.75830228  0.72362553  0.22959643  1
  Na  Na14  1  0.49402910  0.02870585  0.27040357  1
  Na  Na15  1  0.47129415  0.46532326  0.74169772  1
  Na  Na16  1  0.24169772  0.96532326  0.97129415  1
  Na  Na17  1  0.00597090  0.77637447  0.03467674  1
  Na  Na18  1  0.72362553  0.22959643  0.75830228  1
  Na  Na19  1  0.25830228  0.72959643  0.22362553  1
  Na  Na20  1  0.02870585  0.27040357  0.49402910  1
  Na  Na21  1  0.99402910  0.77040357  0.52870585  1
  Na  Na22  1  0.77637447  0.03467674  0.00597090  1
  Na  Na23  1  0.50597090  0.53467674  0.27637447  1
  Na  Na24  1  0.46532326  0.74169772  0.47129415  1
  Na  Na25  1  0.97129415  0.24169772  0.96532326  1
  Na  Na26  1  0.27040357  0.49402910  0.02870585  1
  Na  Na27  1  0.52870585  0.99402910  0.77040357  1
  Na  Na28  1  0.03467674  0.00597090  0.77637447  1
  Na  Na29  1  0.27637447  0.50597090  0.53467674  1
  Na  Na30  1  0.22959643  0.75830228  0.72362553  1
  Na  Na31  1  0.22362553  0.25830228  0.72959643  1
  Na  Na32  1  0.96532326  0.97129415  0.24169772  1
  Na  Na33  1  0.72959643  0.22362553  0.25830228  1
  Na  Na34  1  0.53467674  0.27637447  0.50597090  1
  Na  Na35  1  0.77040357  0.52870585  0.99402910  1
  Na  Na36  1  0.84865443  0.84865443  0.84865443  1
  Na  Na37  1  0.65134557  -0.00000000  0.50000000  1
  Na  Na38  1  0.50000000  0.65134557  0.00000000  1
  Na  Na39  1  0.34865443  0.34865443  0.34865443  1
  Na  Na40  1  0.00000000  0.50000000  0.65134557  1
  Na  Na41  1  0.15134557  -0.00000000  0.50000000  1
  Na  Na42  1  -0.00000000  0.50000000  0.15134557  1
  Na  Na43  1  0.50000000  0.15134557  0.00000000  1
  S  S44  1  0.98076497  0.73076497  0.75000000  1
  S  S45  1  0.51923503  0.76923503  0.25000000  1
  S  S46  1  0.73076497  0.75000000  0.98076497  1
  S  S47  1  0.48076497  0.25000000  0.23076497  1
  S  S48  1  0.76923503  0.25000000  0.51923503  1
  S  S49  1  0.01923503  0.75000000  0.26923503  1
  S  S50  1  0.75000000  0.98076497  0.73076497  1
  S  S51  1  0.23076497  0.48076497  0.25000000  1
  S  S52  1  0.25000000  0.51923503  0.76923503  1
  S  S53  1  0.26923503  0.01923503  0.75000000  1
  S  S54  1  0.25000000  0.23076497  0.48076497  1
  S  S55  1  0.75000000  0.26923503  0.01923503  1
  S  S56  1  0.57925204  0.57925204  0.57925204  1
  S  S57  1  0.92074796  -0.00000000  0.50000000  1
  S  S58  1  0.50000000  0.92074796  0.00000000  1
  S  S59  1  0.07925204  0.07925204  0.07925204  1
  S  S60  1  -0.00000000  0.50000000  0.92074796  1
  S  S61  1  0.42074796  -0.00000000  0.50000000  1
  S  S62  1  -0.00000000  0.50000000  0.42074796  1
  S  S63  1  0.50000000  0.42074796  0.00000000  1
  Cl  Cl64  1  0.62500000  0.37500000  0.75000000  1
  Cl  Cl65  1  0.87500000  0.12500000  0.25000000  1
  Cl  Cl66  1  0.37500000  0.75000000  0.62500000  1
  Cl  Cl67  1  0.12500000  0.25000000  0.87500000  1
  Cl  Cl68  1  0.75000000  0.62500000  0.37500000  1
  Cl  Cl69  1  0.25000000  0.87500000  0.12500000  1
  O  O70  1  0.68487600  0.68487600  0.68487600  1
  O  O71  1  0.81512400  0.00000000  0.50000000  1
  O  O72  1  0.50000000  0.81512400  0.00000000  1
  O  O73  1  0.18487600  0.18487600  0.18487600  1
  O  O74  1  -0.00000000  0.50000000  0.81512400  1
  O  O75  1  0.31512400  0.00000000  0.50000000  1
  O  O76  1  -0.00000000  0.50000000  0.31512400  1
  O  O77  1  0.50000000  0.31512400  0.00000000  1
  O  O78  1  0.54362639  0.60624658  0.48260144  1
  O  O79  1  0.95637361  0.93897504  0.56262019  1
  O  O80  1  0.37635485  0.89375342  0.93737981  1
  O  O81  1  0.60624658  0.48260144  0.54362639  1
  O  O82  1  0.04362639  0.98260144  0.10624658  1
  O  O83  1  0.12364515  0.56102496  0.01739856  1
  O  O84  1  0.93897504  0.56262019  0.95637361  1
  O  O85  1  0.45637361  0.06262019  0.43897504  1
  O  O86  1  0.89375342  0.93737981  0.37635485  1
  O  O87  1  0.87635485  0.43737981  0.39375342  1
  O  O88  1  0.56102496  0.01739856  0.12364515  1
  O  O89  1  0.62364515  0.51739856  0.06102496  1
  O  O90  1  0.48260144  0.54362639  0.60624658  1
  O  O91  1  0.10624658  0.04362639  0.98260144  1
  O  O92  1  0.93737981  0.37635485  0.89375342  1
  O  O93  1  0.39375342  0.87635485  0.43737981  1
  O  O94  1  0.01739856  0.12364515  0.56102496  1
  O  O95  1  0.06102496  0.62364515  0.51739856  1
  O  O96  1  0.56262019  0.95637361  0.93897504  1
  O  O97  1  0.43897504  0.45637361  0.06262019  1
  O  O98  1  0.98260144  0.10624658  0.04362639  1
  O  O99  1  0.06262019  0.43897504  0.45637361  1
  O  O100  1  0.51739856  0.06102496  0.62364515  1
  O  O101  1  0.43737981  0.39375342  0.87635485  1
  O  O102  1  0.65804777  0.90599793  0.60447540  1
  O  O103  1  0.84195223  0.94642763  0.74795016  1
  O  O104  1  0.19847747  0.59400207  0.75204984  1
  O  O105  1  0.90599793  0.60447540  0.65804777  1
  O  O106  1  0.15804777  0.10447540  0.40599793  1
  O  O107  1  0.30152253  0.55357237  0.89552460  1
  O  O108  1  0.94642763  0.74795016  0.84195223  1
  O  O109  1  0.34195223  0.24795016  0.44642763  1
  O  O110  1  0.59400207  0.75204984  0.19847747  1
  O  O111  1  0.69847747  0.25204984  0.09400207  1
  O  O112  1  0.55357237  0.89552460  0.30152253  1
  O  O113  1  0.80152253  0.39552460  0.05357237  1
  O  O114  1  0.60447540  0.65804777  0.90599793  1
  O  O115  1  0.40599793  0.15804777  0.10447540  1
  O  O116  1  0.75204984  0.19847747  0.59400207  1
  O  O117  1  0.09400207  0.69847747  0.25204984  1
  O  O118  1  0.89552460  0.30152253  0.55357237  1
  O  O119  1  0.05357237  0.80152253  0.39552460  1
  O  O120  1  0.74795016  0.84195223  0.94642763  1
  O  O121  1  0.44642763  0.34195223  0.24795016  1
  O  O122  1  0.10447540  0.40599793  0.15804777  1
  O  O123  1  0.24795016  0.44642763  0.34195223  1
  O  O124  1  0.39552460  0.05357237  0.80152253  1
  O  O125  1  0.25204984  0.09400207  0.69847747  1
  O  O126  1  0.54002374  0.73574962  0.34215566  1
  O  O127  1  0.95997626  0.80213192  0.69572589  1
  O  O128  1  0.10640603  0.76425038  0.80427411  1
  O  O129  1  0.73574962  0.34215566  0.54002374  1
  O  O130  1  0.04002374  0.84215566  0.23574962  1
  O  O131  1  0.39359397  0.69786808  0.15784434  1
  O  O132  1  0.80213192  0.69572589  0.95997626  1
  O  O133  1  0.45997626  0.19572589  0.30213192  1
  O  O134  1  0.76425038  0.80427411  0.10640603  1
  O  O135  1  0.60640603  0.30427411  0.26425038  1
  O  O136  1  0.69786808  0.15784434  0.39359397  1
  O  O137  1  0.89359397  0.65784434  0.19786808  1
  O  O138  1  0.34215566  0.54002374  0.73574962  1
  O  O139  1  0.23574962  0.04002374  0.84215566  1
  O  O140  1  0.80427411  0.10640603  0.76425038  1
  O  O141  1  0.26425038  0.60640603  0.30427411  1
  O  O142  1  0.15784434  0.39359397  0.69786808  1
  O  O143  1  0.19786808  0.89359397  0.65784434  1
  O  O144  1  0.69572589  0.95997626  0.80213192  1
  O  O145  1  0.30213192  0.45997626  0.19572589  1
  O  O146  1  0.84215566  0.23574962  0.04002374  1
  O  O147  1  0.19572589  0.30213192  0.45997626  1
  O  O148  1  0.65784434  0.19786808  0.89359397  1
  O  O149  1  0.30427411  0.26425038  0.60640603  1
