# generated using pymatgen
data_HI(ClO)4
_symmetry_space_group_name_H-M   'P 1'
_cell_length_a   5.71184400
_cell_length_b   8.62553100
_cell_length_c   10.53283305
_cell_angle_alpha   85.28150030
_cell_angle_beta   90.00000000
_cell_angle_gamma   90.00000000
_symmetry_Int_Tables_number   1
_chemical_formula_structural   HI(ClO)4
_chemical_formula_sum   'H2 I2 Cl8 O8'
_cell_volume   517.16961598
_cell_formula_units_Z   2
loop_
 _symmetry_equiv_pos_site_id
 _symmetry_equiv_pos_as_xyz
  1  'x, y, z'
loop_
 _atom_site_type_symbol
 _atom_site_label
 _atom_site_symmetry_multiplicity
 _atom_site_fract_x
 _atom_site_fract_y
 _atom_site_fract_z
 _atom_site_occupancy
  H  H0  1  0.00000000  0.50000000  0.50000000  1
  H  H1  1  0.50000000  0.50000000  0.00000000  1
  I  I2  1  0.00000000  0.00000000  0.00000000  1
  I  I3  1  0.50000000  0.00000000  0.50000000  1
  Cl  Cl4  1  0.97357600  0.27175500  0.05918700  1
  Cl  Cl5  1  0.02642400  0.72824500  0.94081300  1
  Cl  Cl6  1  0.47357600  0.72824500  0.44081300  1
  Cl  Cl7  1  0.52642400  0.27175500  0.55918700  1
  Cl  Cl8  1  0.16623000  0.07672600  0.35653400  1
  Cl  Cl9  1  0.83377000  0.92327400  0.64346600  1
  Cl  Cl10  1  0.66623000  0.92327400  0.14346600  1
  Cl  Cl11  1  0.33377000  0.07672600  0.85653400  1
  O  O12  1  0.94075300  0.48656000  0.38897900  1
  O  O13  1  0.05924700  0.51344000  0.61102100  1
  O  O14  1  0.44075300  0.51344000  0.11102100  1
  O  O15  1  0.55924700  0.48656000  0.88897900  1
  O  O16  1  0.06595600  0.57096400  0.31077400  1
  O  O17  1  0.93404400  0.42903600  0.68922600  1
  O  O18  1  0.56595600  0.42903600  0.18922600  1
  O  O19  1  0.43404400  0.57096400  0.81077400  1
