# generated using pymatgen
data_Ge19(SbBr)4
_symmetry_space_group_name_H-M   'P 1'
_cell_length_a   10.98573600
_cell_length_b   10.98573600
_cell_length_c   10.98573600
_cell_angle_alpha   90.00000000
_cell_angle_beta   90.00000000
_cell_angle_gamma   90.00000000
_symmetry_Int_Tables_number   1
_chemical_formula_structural   Ge19(SbBr)4
_chemical_formula_sum   'Ge38 Sb8 Br8'
_cell_volume   1325.82887933
_cell_formula_units_Z   2
loop_
 _symmetry_equiv_pos_site_id
 _symmetry_equiv_pos_as_xyz
  1  'x, y, z'
loop_
 _atom_site_type_symbol
 _atom_site_label
 _atom_site_symmetry_multiplicity
 _atom_site_fract_x
 _atom_site_fract_y
 _atom_site_fract_z
 _atom_site_occupancy
  Ge  Ge0  1  0.32317500  0.32317500  0.32317500  1
  Ge  Ge1  1  0.67682500  0.67682500  0.32317500  1
  Ge  Ge2  1  0.67682500  0.32317500  0.67682500  1
  Ge  Ge3  1  0.82317500  0.82317500  0.82317500  1
  Ge  Ge4  1  0.32317500  0.67682500  0.67682500  1
  Ge  Ge5  1  0.17682500  0.17682500  0.82317500  1
  Ge  Ge6  1  0.82317500  0.17682500  0.17682500  1
  Ge  Ge7  1  0.17682500  0.82317500  0.17682500  1
  Ge  Ge8  1  0.99060200  0.11448100  0.31530700  1
  Ge  Ge9  1  0.00939800  0.88551900  0.31530700  1
  Ge  Ge10  1  0.00939800  0.11448100  0.68469300  1
  Ge  Ge11  1  0.31530700  0.99060200  0.11448100  1
  Ge  Ge12  1  0.61448100  0.49060200  0.81530700  1
  Ge  Ge13  1  0.99060200  0.88551900  0.68469300  1
  Ge  Ge14  1  0.31530700  0.00939800  0.88551900  1
  Ge  Ge15  1  0.38551900  0.50939800  0.81530700  1
  Ge  Ge16  1  0.68469300  0.00939800  0.11448100  1
  Ge  Ge17  1  0.61448100  0.50939800  0.18469300  1
  Ge  Ge18  1  0.68469300  0.99060200  0.88551900  1
  Ge  Ge19  1  0.38551900  0.49060200  0.18469300  1
  Ge  Ge20  1  0.11448100  0.31530700  0.99060200  1
  Ge  Ge21  1  0.49060200  0.81530700  0.61448100  1
  Ge  Ge22  1  0.11448100  0.68469300  0.00939800  1
  Ge  Ge23  1  0.50939800  0.18469300  0.61448100  1
  Ge  Ge24  1  0.88551900  0.68469300  0.99060200  1
  Ge  Ge25  1  0.49060200  0.18469300  0.38551900  1
  Ge  Ge26  1  0.88551900  0.31530700  0.00939800  1
  Ge  Ge27  1  0.50939800  0.81530700  0.38551900  1
  Ge  Ge28  1  0.81530700  0.61448100  0.49060200  1
  Ge  Ge29  1  0.81530700  0.38551900  0.50939800  1
  Ge  Ge30  1  0.18469300  0.38551900  0.49060200  1
  Ge  Ge31  1  0.18469300  0.61448100  0.50939800  1
  Ge  Ge32  1  0.25000000  0.50000000  0.00000000  1
  Ge  Ge33  1  0.75000000  0.50000000  0.00000000  1
  Ge  Ge34  1  0.00000000  0.25000000  0.50000000  1
  Ge  Ge35  1  0.00000000  0.75000000  0.50000000  1
  Ge  Ge36  1  0.50000000  0.00000000  0.25000000  1
  Ge  Ge37  1  0.50000000  0.00000000  0.75000000  1
  Sb  Sb38  1  0.18424400  0.18424400  0.18424400  1
  Sb  Sb39  1  0.81575600  0.81575600  0.18424400  1
  Sb  Sb40  1  0.81575600  0.18424400  0.81575600  1
  Sb  Sb41  1  0.68424400  0.68424400  0.68424400  1
  Sb  Sb42  1  0.18424400  0.81575600  0.81575600  1
  Sb  Sb43  1  0.31575600  0.31575600  0.68424400  1
  Sb  Sb44  1  0.68424400  0.31575600  0.31575600  1
  Sb  Sb45  1  0.31575600  0.68424400  0.31575600  1
  Br  Br46  1  0.25000000  0.00000000  0.50000000  1
  Br  Br47  1  0.75000000  0.00000000  0.50000000  1
  Br  Br48  1  0.50000000  0.25000000  0.00000000  1
  Br  Br49  1  0.50000000  0.75000000  0.00000000  1
  Br  Br50  1  0.00000000  0.50000000  0.25000000  1
  Br  Br51  1  0.00000000  0.50000000  0.75000000  1
  Br  Br52  1  0.00000000  0.00000000  0.00000000  1
  Br  Br53  1  0.50000000  0.50000000  0.50000000  1
