# generated using pymatgen
data_H9C2N11O2
_symmetry_space_group_name_H-M   'P 1'
_cell_length_a   4.75808800
_cell_length_b   9.69068900
_cell_length_c   22.03303300
_cell_angle_alpha   90.00000000
_cell_angle_beta   90.00000000
_cell_angle_gamma   90.00000000
_symmetry_Int_Tables_number   1
_chemical_formula_structural   H9C2N11O2
_chemical_formula_sum   'H36 C8 N44 O8'
_cell_volume   1015.92444652
_cell_formula_units_Z   4
loop_
 _symmetry_equiv_pos_site_id
 _symmetry_equiv_pos_as_xyz
  1  'x, y, z'
loop_
 _atom_site_type_symbol
 _atom_site_label
 _atom_site_symmetry_multiplicity
 _atom_site_fract_x
 _atom_site_fract_y
 _atom_site_fract_z
 _atom_site_occupancy
  H  H0  1  0.23897800  0.34982600  0.55188100  1
  H  H1  1  0.26102200  0.65017400  0.05188100  1
  H  H2  1  0.76102200  0.84982600  0.94811900  1
  H  H3  1  0.73897800  0.15017400  0.44811900  1
  H  H4  1  0.34932300  0.07663800  0.26250500  1
  H  H5  1  0.15067700  0.92336200  0.76250500  1
  H  H6  1  0.65067700  0.57663800  0.23749500  1
  H  H7  1  0.84932300  0.42336200  0.73749500  1
  H  H8  1  0.36091700  0.22904700  0.65081200  1
  H  H9  1  0.13908300  0.77095300  0.15081200  1
  H  H10  1  0.63908300  0.72904700  0.84918800  1
  H  H11  1  0.86091700  0.27095300  0.34918800  1
  H  H12  1  0.59440800  0.32945700  0.15346300  1
  H  H13  1  0.90559200  0.67054300  0.65346300  1
  H  H14  1  0.40559200  0.82945700  0.34653700  1
  H  H15  1  0.09440800  0.17054300  0.84653700  1
  H  H16  1  0.99627800  0.76465600  0.04588800  1
  H  H17  1  0.50372200  0.23534400  0.54588800  1
  H  H18  1  0.00372200  0.26465600  0.45411200  1
  H  H19  1  0.49627800  0.73534400  0.95411200  1
  H  H20  1  0.22801200  0.00422100  0.41896600  1
  H  H21  1  0.27198800  0.99577900  0.91896600  1
  H  H22  1  0.77198800  0.50422100  0.08103400  1
  H  H23  1  0.72801200  0.49577900  0.58103400  1
  H  H24  1  0.22280000  0.32377100  0.24828900  1
  H  H25  1  0.27720000  0.67622900  0.74828900  1
  H  H26  1  0.77720000  0.82377100  0.25171100  1
  H  H27  1  0.72280000  0.17622900  0.75171100  1
  H  H28  1  0.33683500  0.43646500  0.13441200  1
  H  H29  1  0.16316500  0.56353500  0.63441200  1
  H  H30  1  0.66316500  0.93646500  0.36558800  1
  H  H31  1  0.83683500  0.06353500  0.86558800  1
  H  H32  1  0.02428300  0.71854200  0.28153900  1
  H  H33  1  0.47571700  0.28145800  0.78153900  1
  H  H34  1  0.97571700  0.21854200  0.21846100  1
  H  H35  1  0.52428300  0.78145800  0.71846100  1
  C  C36  1  0.21083400  0.55835500  0.40604000  1
  C  C37  1  0.28916600  0.44164500  0.90604000  1
  C  C38  1  0.78916600  0.05835500  0.09396000  1
  C  C39  1  0.71083400  0.94164500  0.59396000  1
  C  C40  1  0.14759800  0.11402300  0.34304500  1
  C  C41  1  0.35240200  0.88597700  0.84304500  1
  C  C42  1  0.85240200  0.61402300  0.15695500  1
  C  C43  1  0.64759800  0.38597700  0.65695500  1
  N  N44  1  0.00744300  0.06998700  0.63686100  1
  N  N45  1  0.49255700  0.93001300  0.13686100  1
  N  N46  1  0.99255700  0.56998700  0.86313900  1
  N  N47  1  0.50744300  0.43001300  0.36313900  1
  N  N48  1  0.72495100  0.12404500  0.14594900  1
  N  N49  1  0.77504900  0.87595500  0.64594900  1
  N  N50  1  0.27504900  0.62404500  0.35405100  1
  N  N51  1  0.22495100  0.37595500  0.85405100  1
  N  N52  1  0.28111200  0.01474400  0.37411800  1
  N  N53  1  0.21888800  0.98525600  0.87411800  1
  N  N54  1  0.71888800  0.51474400  0.12588200  1
  N  N55  1  0.78111200  0.48525600  0.62588200  1
  N  N56  1  0.53703400  0.04097400  0.17231000  1
  N  N57  1  0.96296600  0.95902600  0.67231000  1
  N  N58  1  0.46296600  0.54097400  0.32769000  1
  N  N59  1  0.03703400  0.45902600  0.82769000  1
  N  N60  1  0.52583000  0.42998100  0.15627200  1
  N  N61  1  0.97417000  0.57001900  0.65627200  1
  N  N62  1  0.47417000  0.92998100  0.34372800  1
  N  N63  1  0.02583000  0.07001900  0.84372800  1
  N  N64  1  0.07389800  0.25040500  0.25742800  1
  N  N65  1  0.42610200  0.74959500  0.75742800  1
  N  N66  1  0.92610200  0.75040500  0.24257200  1
  N  N67  1  0.57389800  0.24959500  0.74257200  1
  N  N68  1  0.01311200  0.61028200  0.45027800  1
  N  N69  1  0.48688800  0.38971800  0.95027800  1
  N  N70  1  0.98688800  0.11028200  0.04972200  1
  N  N71  1  0.51311200  0.88971800  0.54972200  1
  N  N72  1  0.20391300  0.13677300  0.28478300  1
  N  N73  1  0.29608700  0.86322700  0.78478300  1
  N  N74  1  0.79608700  0.63677300  0.21521700  1
  N  N75  1  0.70391300  0.36322700  0.71521700  1
  N  N76  1  0.34860900  0.43888600  0.41297700  1
  N  N77  1  0.15139100  0.56111400  0.91297700  1
  N  N78  1  0.65139100  0.93888600  0.08702300  1
  N  N79  1  0.84860900  0.06111400  0.58702300  1
  N  N80  1  0.06179800  0.67450500  0.06529900  1
  N  N81  1  0.43820200  0.32549500  0.56529900  1
  N  N82  1  0.93820200  0.17450500  0.43470100  1
  N  N83  1  0.56179800  0.82549500  0.93470100  1
  N  N84  1  0.05103200  0.68854500  0.12845900  1
  N  N85  1  0.44896800  0.31145500  0.62845900  1
  N  N86  1  0.94896800  0.18854500  0.37154100  1
  N  N87  1  0.55103200  0.81145500  0.87154100  1
  O  O88  1  0.02995100  0.03832100  0.00368200  1
  O  O89  1  0.47004900  0.96167900  0.50368200  1
  O  O90  1  0.97004900  0.53832100  0.49631800  1
  O  O91  1  0.52995100  0.46167900  0.99631800  1
  O  O92  1  0.10224000  0.22249400  0.06009500  1
  O  O93  1  0.39776000  0.77750600  0.56009500  1
  O  O94  1  0.89776000  0.72249400  0.43990500  1
  O  O95  1  0.60224000  0.27750600  0.93990500  1
