# generated using pymatgen
data_Fe2As2H2PbO10
_symmetry_space_group_name_H-M   'P 1'
_cell_length_a   5.59739657
_cell_length_b   5.59739657
_cell_length_c   7.73307347
_cell_angle_alpha   70.18668588
_cell_angle_beta   70.18668588
_cell_angle_gamma   68.75536100
_symmetry_Int_Tables_number   1
_chemical_formula_structural   Fe2As2H2PbO10
_chemical_formula_sum   'Fe2 As2 H2 Pb1 O10'
_cell_volume   205.89570376
_cell_formula_units_Z   1
loop_
 _symmetry_equiv_pos_site_id
 _symmetry_equiv_pos_as_xyz
  1  'x, y, z'
loop_
 _atom_site_type_symbol
 _atom_site_label
 _atom_site_symmetry_multiplicity
 _atom_site_fract_x
 _atom_site_fract_y
 _atom_site_fract_z
 _atom_site_occupancy
  Fe  Fe0  1  0.50000000  0.00000000  0.50000000  1
  Fe  Fe1  1  0.00000000  0.50000000  0.50000000  1
  As  As2  1  0.58142900  0.58142900  0.21437600  1
  As  As3  1  0.41857100  0.41857100  0.78562400  1
  H  H4  1  0.79468800  0.79468800  0.73168700  1
  H  H5  1  0.20531200  0.20531200  0.26831300  1
  Pb  Pb6  1  0.00000000  0.00000000  0.00000000  1
  O  O7  1  0.68895000  0.68895000  0.35961100  1
  O  O8  1  0.31105000  0.31105000  0.64038900  1
  O  O9  1  0.82479800  0.82479800  0.59343400  1
  O  O10  1  0.17520200  0.17520200  0.40656600  1
  O  O11  1  0.68842500  0.23951400  0.26728400  1
  O  O12  1  0.31157500  0.76048600  0.73271600  1
  O  O13  1  0.76048600  0.31157500  0.73271600  1
  O  O14  1  0.23951400  0.68842500  0.26728400  1
  O  O15  1  0.27892700  0.27892700  0.01053700  1
  O  O16  1  0.72107300  0.72107300  0.98946300  1
