# generated using pymatgen
data_FeAg(MoO4)2
_symmetry_space_group_name_H-M   'P 1'
_cell_length_a   5.87934100
_cell_length_b   5.02851600
_cell_length_c   10.11356036
_cell_angle_alpha   89.63398881
_cell_angle_beta   90.00000000
_cell_angle_gamma   90.00000000
_symmetry_Int_Tables_number   1
_chemical_formula_structural   FeAg(MoO4)2
_chemical_formula_sum   'Fe2 Ag2 Mo4 O16'
_cell_volume   298.99484138
_cell_formula_units_Z   2
loop_
 _symmetry_equiv_pos_site_id
 _symmetry_equiv_pos_as_xyz
  1  'x, y, z'
loop_
 _atom_site_type_symbol
 _atom_site_label
 _atom_site_symmetry_multiplicity
 _atom_site_fract_x
 _atom_site_fract_y
 _atom_site_fract_z
 _atom_site_occupancy
  Fe  Fe0  1  0.33328900  0.75000000  0.00000000  1
  Fe  Fe1  1  0.66671100  0.25000000  0.00000000  1
  Ag  Ag2  1  0.31705800  0.75000000  0.50000000  1
  Ag  Ag3  1  0.68294200  0.25000000  0.50000000  1
  Mo  Mo4  1  0.17966100  0.24948900  0.76806500  1
  Mo  Mo5  1  0.82033900  0.75051100  0.23193500  1
  Mo  Mo6  1  0.17966100  0.25051100  0.23193500  1
  Mo  Mo7  1  0.82033900  0.74948900  0.76806500  1
  O  O8  1  0.62925200  0.61949100  0.65247700  1
  O  O9  1  0.37074800  0.38050900  0.34752300  1
  O  O10  1  0.62925200  0.88050900  0.34752300  1
  O  O11  1  0.37074800  0.11949100  0.65247700  1
  O  O12  1  0.09506100  0.55947500  0.67435200  1
  O  O13  1  0.90493900  0.44052500  0.32564800  1
  O  O14  1  0.09506100  0.94052500  0.32564800  1
  O  O15  1  0.90493900  0.05947500  0.67435200  1
  O  O16  1  0.12256300  0.92827000  0.87771200  1
  O  O17  1  0.87743700  0.07173000  0.12228800  1
  O  O18  1  0.12256300  0.57173000  0.12228800  1
  O  O19  1  0.87743700  0.42827000  0.87771200  1
  O  O20  1  0.62348600  0.91085500  0.89282800  1
  O  O21  1  0.37651400  0.08914500  0.10717200  1
  O  O22  1  0.62348600  0.58914500  0.10717200  1
  O  O23  1  0.37651400  0.41085500  0.89282800  1
