# generated using pymatgen
data_Ho(AsO)2
_symmetry_space_group_name_H-M   'P 1'
_cell_length_a   10.23448701
_cell_length_b   10.23448701
_cell_length_c   10.23448701
_cell_angle_alpha   115.82456734
_cell_angle_beta   115.82456734
_cell_angle_gamma   97.39827858
_symmetry_Int_Tables_number   1
_chemical_formula_structural   Ho(AsO)2
_chemical_formula_sum   'Ho4 As8 O8'
_cell_volume   798.64640295
_cell_formula_units_Z   4
loop_
 _symmetry_equiv_pos_site_id
 _symmetry_equiv_pos_as_xyz
  1  'x, y, z'
loop_
 _atom_site_type_symbol
 _atom_site_label
 _atom_site_symmetry_multiplicity
 _atom_site_fract_x
 _atom_site_fract_y
 _atom_site_fract_z
 _atom_site_occupancy
  Ho  Ho0  1  0.87500000  0.12500000  0.75000000  1
  Ho  Ho1  1  0.37500000  0.12500000  0.25000000  1
  Ho  Ho2  1  0.87500000  0.62500000  0.75000000  1
  Ho  Ho3  1  0.87500000  0.12500000  0.25000000  1
  As  As4  1  0.77128900  0.38945500  0.38183400  1
  As  As5  1  0.00762000  0.38945500  0.61816600  1
  As  As6  1  0.13945500  0.25762000  0.11816600  1
  As  As7  1  0.74238000  0.86054500  0.88183400  1
  As  As8  1  0.97871100  0.86054500  0.11816600  1
  As  As9  1  0.13945500  0.02128900  0.88183400  1
  As  As10  1  0.61054500  0.99238000  0.38183400  1
  As  As11  1  0.61054500  0.22871100  0.61816600  1
  O  O12  1  0.57468200  0.27627200  0.29841000  1
  O  O13  1  0.97786200  0.27627200  0.70159000  1
  O  O14  1  0.02627200  0.22786200  0.20159000  1
  O  O15  1  0.77213800  0.97372800  0.79841000  1
  O  O16  1  0.17531800  0.97372800  0.20159000  1
  O  O17  1  0.02627200  0.82468200  0.79841000  1
  O  O18  1  0.72372800  0.02213800  0.29841000  1
  O  O19  1  0.72372800  0.42531800  0.70159000  1
