# generated using pymatgen
data_Ge3Pb5O12
_symmetry_space_group_name_H-M   'P 1'
_cell_length_a   10.27961995
_cell_length_b   10.27961995
_cell_length_c   7.27737700
_cell_angle_alpha   90.00000000
_cell_angle_beta   90.00000000
_cell_angle_gamma   119.99999966
_symmetry_Int_Tables_number   1
_chemical_formula_structural   Ge3Pb5O12
_chemical_formula_sum   'Ge6 Pb10 O24'
_cell_volume   665.97760291
_cell_formula_units_Z   2
loop_
 _symmetry_equiv_pos_site_id
 _symmetry_equiv_pos_as_xyz
  1  'x, y, z'
loop_
 _atom_site_type_symbol
 _atom_site_label
 _atom_site_symmetry_multiplicity
 _atom_site_fract_x
 _atom_site_fract_y
 _atom_site_fract_z
 _atom_site_occupancy
  Ge  Ge0  1  0.39367500  0.01797200  0.75000000  1
  Ge  Ge1  1  0.60632500  0.98202800  0.25000000  1
  Ge  Ge2  1  0.98202800  0.37570300  0.75000000  1
  Ge  Ge3  1  0.01797200  0.62429700  0.25000000  1
  Ge  Ge4  1  0.62429700  0.60632500  0.75000000  1
  Ge  Ge5  1  0.37570300  0.39367500  0.25000000  1
  Pb  Pb6  1  0.33333300  0.66666700  0.50662200  1
  Pb  Pb7  1  0.66666700  0.33333300  0.49337800  1
  Pb  Pb8  1  0.66666700  0.33333300  0.00662200  1
  Pb  Pb9  1  0.33333300  0.66666700  0.99337800  1
  Pb  Pb10  1  0.26596300  0.25160100  0.75000000  1
  Pb  Pb11  1  0.73403700  0.74839900  0.25000000  1
  Pb  Pb12  1  0.74839900  0.01436300  0.75000000  1
  Pb  Pb13  1  0.25160100  0.98563700  0.25000000  1
  Pb  Pb14  1  0.98563700  0.73403700  0.75000000  1
  Pb  Pb15  1  0.01436300  0.26596300  0.25000000  1
  O  O16  1  0.34158700  0.09176500  0.56141800  1
  O  O17  1  0.65841300  0.90823500  0.43858200  1
  O  O18  1  0.90823500  0.24982300  0.56141800  1
  O  O19  1  0.65841300  0.90823500  0.06141800  1
  O  O20  1  0.09176500  0.75017700  0.43858200  1
  O  O21  1  0.34158700  0.09176500  0.93858200  1
  O  O22  1  0.75017700  0.65841300  0.56141800  1
  O  O23  1  0.09176500  0.75017700  0.06141800  1
  O  O24  1  0.24982300  0.34158700  0.43858200  1
  O  O25  1  0.90823500  0.24982300  0.93858200  1
  O  O26  1  0.24982300  0.34158700  0.06141800  1
  O  O27  1  0.75017700  0.65841300  0.93858200  1
  O  O28  1  0.59605700  0.11359600  0.75000000  1
  O  O29  1  0.40394300  0.88640400  0.25000000  1
  O  O30  1  0.88640400  0.48246100  0.75000000  1
  O  O31  1  0.11359600  0.51753900  0.25000000  1
  O  O32  1  0.51753900  0.40394300  0.75000000  1
  O  O33  1  0.48246100  0.59605700  0.25000000  1
  O  O34  1  0.17991800  0.49713500  0.75000000  1
  O  O35  1  0.82008200  0.50286500  0.25000000  1
  O  O36  1  0.50286500  0.68278300  0.75000000  1
  O  O37  1  0.49713500  0.31721700  0.25000000  1
  O  O38  1  0.31721700  0.82008200  0.75000000  1
  O  O39  1  0.68278300  0.17991800  0.25000000  1
