# generated using pymatgen
data_FeSi2C4(Cl3O2)2
_symmetry_space_group_name_H-M   'P 1'
_cell_length_a   10.10747100
_cell_length_b   8.52459500
_cell_length_c   11.90182522
_cell_angle_alpha   50.74415768
_cell_angle_beta   90.00000000
_cell_angle_gamma   90.00000000
_symmetry_Int_Tables_number   1
_chemical_formula_structural   FeSi2C4(Cl3O2)2
_chemical_formula_sum   'Fe2 Si4 C8 Cl12 O8'
_cell_volume   794.06281835
_cell_formula_units_Z   2
loop_
 _symmetry_equiv_pos_site_id
 _symmetry_equiv_pos_as_xyz
  1  'x, y, z'
loop_
 _atom_site_type_symbol
 _atom_site_label
 _atom_site_symmetry_multiplicity
 _atom_site_fract_x
 _atom_site_fract_y
 _atom_site_fract_z
 _atom_site_occupancy
  Fe  Fe0  1  0.00000000  0.50000000  0.00000000  1
  Fe  Fe1  1  0.50000000  0.50000000  0.50000000  1
  Si  Si2  1  0.84027200  0.29053600  0.00778500  1
  Si  Si3  1  0.15972800  0.70946400  0.99221500  1
  Si  Si4  1  0.34027200  0.70946400  0.49221500  1
  Si  Si5  1  0.65972800  0.29053600  0.50778500  1
  C  C6  1  0.52250900  0.68377500  0.30328000  1
  C  C7  1  0.47749100  0.31622500  0.69672000  1
  C  C8  1  0.02250900  0.31622500  0.19672000  1
  C  C9  1  0.97749100  0.68377500  0.80328000  1
  C  C10  1  0.87399200  0.62745800  0.02589400  1
  C  C11  1  0.12600800  0.37254200  0.97410600  1
  C  C12  1  0.37399200  0.37254200  0.47410600  1
  C  C13  1  0.62600800  0.62745800  0.52589400  1
  Cl  Cl14  1  0.63284000  0.26014800  0.34939100  1
  Cl  Cl15  1  0.36716000  0.73985200  0.65060900  1
  Cl  Cl16  1  0.13284000  0.73985200  0.15060900  1
  Cl  Cl17  1  0.86716000  0.26014800  0.84939100  1
  Cl  Cl18  1  0.83946900  0.99449400  0.20037300  1
  Cl  Cl19  1  0.16053100  0.00550600  0.79962700  1
  Cl  Cl20  1  0.33946900  0.00550600  0.29962700  1
  Cl  Cl21  1  0.66053100  0.99449400  0.70037300  1
  Cl  Cl22  1  0.35409400  0.61270300  0.02171000  1
  Cl  Cl23  1  0.64590600  0.38729700  0.97829000  1
  Cl  Cl24  1  0.85409400  0.38729700  0.47829000  1
  Cl  Cl25  1  0.14590600  0.61270300  0.52171000  1
  O  O26  1  0.79516600  0.70820300  0.04282600  1
  O  O27  1  0.20483400  0.29179700  0.95717400  1
  O  O28  1  0.29516600  0.29179700  0.45717400  1
  O  O29  1  0.70483400  0.70820300  0.54282600  1
  O  O30  1  0.53615600  0.79818500  0.17951300  1
  O  O31  1  0.46384400  0.20181500  0.82048700  1
  O  O32  1  0.03615600  0.20181500  0.32048700  1
  O  O33  1  0.96384400  0.79818500  0.67951300  1
