# generated using pymatgen
data_Fe3P2(HO)8
_symmetry_space_group_name_H-M   'P 1'
_cell_length_a   8.23051999
_cell_length_b   8.23051999
_cell_length_c   4.89563071
_cell_angle_alpha   80.45971318
_cell_angle_beta   80.45971318
_cell_angle_gamma   103.92209911
_symmetry_Int_Tables_number   1
_chemical_formula_structural   Fe3P2(HO)8
_chemical_formula_sum   'Fe3 P2 H8 O8'
_cell_volume   310.03224920
_cell_formula_units_Z   1
loop_
 _symmetry_equiv_pos_site_id
 _symmetry_equiv_pos_as_xyz
  1  'x, y, z'
loop_
 _atom_site_type_symbol
 _atom_site_label
 _atom_site_symmetry_multiplicity
 _atom_site_fract_x
 _atom_site_fract_y
 _atom_site_fract_z
 _atom_site_occupancy
  Fe  Fe0  1  0.60675000  0.39325000  0.00000000  1
  Fe  Fe1  1  0.39325000  0.60675000  0.00000000  1
  Fe  Fe2  1  0.00000000  0.00000000  0.00000000  1
  P  P3  1  0.68221100  0.68221100  0.34334800  1
  P  P4  1  0.31778900  0.31778900  0.65665200  1
  H  H5  1  0.15185300  0.09288900  0.24857500  1
  H  H6  1  0.84814700  0.90711100  0.75142500  1
  H  H7  1  0.90711100  0.84814700  0.75142500  1
  H  H8  1  0.09288900  0.15185300  0.24857500  1
  H  H9  1  0.73442800  0.20455900  0.06679900  1
  H  H10  1  0.26557200  0.79544100  0.93320100  1
  H  H11  1  0.79544100  0.26557200  0.93320100  1
  H  H12  1  0.20455900  0.73442800  0.06679900  1
  O  O13  1  0.38322900  0.38322900  0.33136300  1
  O  O14  1  0.61677100  0.61677100  0.66863700  1
  O  O15  1  0.84153000  0.84153000  0.30377100  1
  O  O16  1  0.15847000  0.15847000  0.69622900  1
  O  O17  1  0.54583700  0.74498100  0.20270000  1
  O  O18  1  0.45416300  0.25501900  0.79730000  1
  O  O19  1  0.25501900  0.45416300  0.79730000  1
  O  O20  1  0.74498100  0.54583700  0.20270000  1
