# generated using pymatgen
data_Fe2Te4HClO12
_symmetry_space_group_name_H-M   'P 1'
_cell_length_a   5.24844100
_cell_length_b   6.59828504
_cell_length_c   9.11962695
_cell_angle_alpha   75.27730393
_cell_angle_beta   83.22374551
_cell_angle_gamma   72.32106150
_symmetry_Int_Tables_number   1
_chemical_formula_structural   Fe2Te4HClO12
_chemical_formula_sum   'Fe2 Te4 H1 Cl1 O12'
_cell_volume   290.73888843
_cell_formula_units_Z   1
loop_
 _symmetry_equiv_pos_site_id
 _symmetry_equiv_pos_as_xyz
  1  'x, y, z'
loop_
 _atom_site_type_symbol
 _atom_site_label
 _atom_site_symmetry_multiplicity
 _atom_site_fract_x
 _atom_site_fract_y
 _atom_site_fract_z
 _atom_site_occupancy
  Fe  Fe0  1  0.70554100  0.13671300  0.43371800  1
  Fe  Fe1  1  0.29445900  0.86328700  0.56628200  1
  Te  Te2  1  0.15345500  0.34113300  0.69374800  1
  Te  Te3  1  0.84654500  0.65886700  0.30625200  1
  Te  Te4  1  0.28573900  0.12172300  0.17143800  1
  Te  Te5  1  0.71426100  0.87827700  0.82856200  1
  H  H6  1  0.00000000  0.50000000  0.00000000  1
  Cl  Cl7  1  0.00000000  0.00000000  0.00000000  1
  O  O8  1  0.23599900  0.58841400  0.56728100  1
  O  O9  1  0.76400100  0.41158600  0.43271900  1
  O  O10  1  0.04272200  0.41847900  0.13276600  1
  O  O11  1  0.95727800  0.58152100  0.86723400  1
  O  O12  1  0.10326700  0.00960800  0.35597000  1
  O  O13  1  0.89673300  0.99039200  0.64403000  1
  O  O14  1  0.54854500  0.79426700  0.16923400  1
  O  O15  1  0.45145500  0.20573300  0.83076600  1
  O  O16  1  0.54988300  0.21676500  0.23315900  1
  O  O17  1  0.45011700  0.78323500  0.76684100  1
  O  O18  1  0.34845500  0.16657100  0.54880000  1
  O  O19  1  0.65154500  0.83342900  0.45120000  1
