# generated using pymatgen
data_Er2NiRuO6
_symmetry_space_group_name_H-M   'P 1'
_cell_length_a   5.69122900
_cell_length_b   5.27467300
_cell_length_c   9.26269009
_cell_angle_alpha   55.76924214
_cell_angle_beta   90.00000000
_cell_angle_gamma   90.00000000
_symmetry_Int_Tables_number   1
_chemical_formula_structural   Er2NiRuO6
_chemical_formula_sum   'Er4 Ni2 Ru2 O12'
_cell_volume   229.89420412
_cell_formula_units_Z   2
loop_
 _symmetry_equiv_pos_site_id
 _symmetry_equiv_pos_as_xyz
  1  'x, y, z'
loop_
 _atom_site_type_symbol
 _atom_site_label
 _atom_site_symmetry_multiplicity
 _atom_site_fract_x
 _atom_site_fract_y
 _atom_site_fract_z
 _atom_site_occupancy
  Er  Er0  1  0.07705500  0.72127800  0.75336800  1
  Er  Er1  1  0.92294500  0.27872200  0.24663200  1
  Er  Er2  1  0.57705500  0.27872200  0.74663200  1
  Er  Er3  1  0.42294500  0.72127800  0.25336800  1
  Ni  Ni4  1  0.50000000  0.50000000  0.00000000  1
  Ni  Ni5  1  0.00000000  0.50000000  0.50000000  1
  Ru  Ru6  1  0.50000000  0.00000000  0.50000000  1
  Ru  Ru7  1  0.00000000  0.00000000  0.00000000  1
  O  O8  1  0.45035400  0.88200700  0.74680000  1
  O  O9  1  0.54964600  0.11799300  0.25320000  1
  O  O10  1  0.95035400  0.11799300  0.75320000  1
  O  O11  1  0.04964600  0.88200700  0.24680000  1
  O  O12  1  0.80204400  0.74978800  0.56832800  1
  O  O13  1  0.19795600  0.25021200  0.43167200  1
  O  O14  1  0.30204400  0.25021200  0.93167200  1
  O  O15  1  0.69795600  0.74978800  0.06832800  1
  O  O16  1  0.31195500  0.62941700  0.55872800  1
  O  O17  1  0.68804500  0.37058300  0.44127200  1
  O  O18  1  0.81195500  0.37058300  0.94127200  1
  O  O19  1  0.18804500  0.62941700  0.05872800  1
