# generated using pymatgen
data_Er2Fe17C3
_symmetry_space_group_name_H-M   'P 1'
_cell_length_a   8.35400500
_cell_length_b   8.60338031
_cell_length_c   8.60338031
_cell_angle_alpha   120.00000241
_cell_angle_beta   90.00000000
_cell_angle_gamma   90.00000000
_symmetry_Int_Tables_number   1
_chemical_formula_structural   Er2Fe17C3
_chemical_formula_sum   'Er4 Fe34 C6'
_cell_volume   535.50507957
_cell_formula_units_Z   2
loop_
 _symmetry_equiv_pos_site_id
 _symmetry_equiv_pos_as_xyz
  1  'x, y, z'
loop_
 _atom_site_type_symbol
 _atom_site_label
 _atom_site_symmetry_multiplicity
 _atom_site_fract_x
 _atom_site_fract_y
 _atom_site_fract_z
 _atom_site_occupancy
  Er  Er0  1  0.75000000  0.66666700  0.33333300  1
  Er  Er1  1  0.25000000  0.33333300  0.66666700  1
  Er  Er2  1  0.75000000  0.00000000  0.00000000  1
  Er  Er3  1  0.25000000  0.00000000  0.00000000  1
  Fe  Fe4  1  0.75000000  0.62143100  0.67382200  1
  Fe  Fe5  1  0.25000000  0.37856900  0.32617800  1
  Fe  Fe6  1  0.75000000  0.05239100  0.37856900  1
  Fe  Fe7  1  0.25000000  0.94760900  0.32617800  1
  Fe  Fe8  1  0.25000000  0.94760900  0.62143100  1
  Fe  Fe9  1  0.75000000  0.05239100  0.67382200  1
  Fe  Fe10  1  0.75000000  0.32617800  0.94760900  1
  Fe  Fe11  1  0.25000000  0.67382200  0.62143100  1
  Fe  Fe12  1  0.25000000  0.67382200  0.05239100  1
  Fe  Fe13  1  0.75000000  0.32617800  0.37856900  1
  Fe  Fe14  1  0.25000000  0.37856900  0.05239100  1
  Fe  Fe15  1  0.75000000  0.62143100  0.94760900  1
  Fe  Fe16  1  0.39301400  0.66666700  0.33333300  1
  Fe  Fe17  1  0.60698600  0.33333300  0.66666700  1
  Fe  Fe18  1  0.89301400  0.33333300  0.66666700  1
  Fe  Fe19  1  0.10698600  0.66666700  0.33333300  1
  Fe  Fe20  1  0.97986100  0.83183700  0.16816300  1
  Fe  Fe21  1  0.02013900  0.16816300  0.83183700  1
  Fe  Fe22  1  0.97986100  0.33632600  0.16816300  1
  Fe  Fe23  1  0.47986100  0.16816300  0.83183700  1
  Fe  Fe24  1  0.02013900  0.66367400  0.83183700  1
  Fe  Fe25  1  0.52013900  0.83183700  0.16816300  1
  Fe  Fe26  1  0.97986100  0.83183700  0.66367400  1
  Fe  Fe27  1  0.47986100  0.66367400  0.83183700  1
  Fe  Fe28  1  0.02013900  0.16816300  0.33632600  1
  Fe  Fe29  1  0.52013900  0.33632600  0.16816300  1
  Fe  Fe30  1  0.47986100  0.16816300  0.33632600  1
  Fe  Fe31  1  0.52013900  0.83183700  0.66367400  1
  Fe  Fe32  1  0.00000000  0.50000000  0.50000000  1
  Fe  Fe33  1  0.00000000  0.00000000  0.50000000  1
  Fe  Fe34  1  0.50000000  0.50000000  0.50000000  1
  Fe  Fe35  1  0.00000000  0.50000000  0.00000000  1
  Fe  Fe36  1  0.50000000  0.00000000  0.50000000  1
  Fe  Fe37  1  0.50000000  0.50000000  0.00000000  1
  C  C38  1  0.75000000  0.83454200  0.16545800  1
  C  C39  1  0.25000000  0.16545800  0.83454200  1
  C  C40  1  0.75000000  0.33091700  0.16545800  1
  C  C41  1  0.25000000  0.66908300  0.83454200  1
  C  C42  1  0.75000000  0.83454200  0.66908300  1
  C  C43  1  0.25000000  0.16545800  0.33091700  1
