# generated using pymatgen
data_La15Ge9P
_symmetry_space_group_name_H-M   'P 1'
_cell_length_a   15.74362681
_cell_length_b   15.74362681
_cell_length_c   6.97809900
_cell_angle_alpha   90.00000000
_cell_angle_beta   90.00000000
_cell_angle_gamma   120.00000341
_symmetry_Int_Tables_number   1
_chemical_formula_structural   La15Ge9P
_chemical_formula_sum   'La30 Ge18 P2'
_cell_volume   1497.88101615
_cell_formula_units_Z   2
loop_
 _symmetry_equiv_pos_site_id
 _symmetry_equiv_pos_as_xyz
  1  'x, y, z'
loop_
 _atom_site_type_symbol
 _atom_site_label
 _atom_site_symmetry_multiplicity
 _atom_site_fract_x
 _atom_site_fract_y
 _atom_site_fract_z
 _atom_site_occupancy
  La  La0  1  0.58147500  0.41852500  0.25574500  1
  La  La1  1  0.58147500  0.16294900  0.25574500  1
  La  La2  1  0.41852500  0.58147500  0.75574500  1
  La  La3  1  0.83705100  0.41852500  0.25574500  1
  La  La4  1  0.41852500  0.83705100  0.75574500  1
  La  La5  1  0.16294900  0.58147500  0.75574500  1
  La  La6  1  0.34103300  0.01705500  0.00558000  1
  La  La7  1  0.98294500  0.32397800  0.00558000  1
  La  La8  1  0.65896700  0.98294500  0.50558000  1
  La  La9  1  0.98294500  0.65896700  0.00558000  1
  La  La10  1  0.67602200  0.65896700  0.00558000  1
  La  La11  1  0.01705500  0.67602200  0.50558000  1
  La  La12  1  0.67602200  0.01705500  0.00558000  1
  La  La13  1  0.01705500  0.34103300  0.50558000  1
  La  La14  1  0.32397800  0.34103300  0.50558000  1
  La  La15  1  0.32397800  0.98294500  0.50558000  1
  La  La16  1  0.34103300  0.32397800  0.00558000  1
  La  La17  1  0.65896700  0.67602200  0.50558000  1
  La  La18  1  0.91776300  0.08223700  0.28050700  1
  La  La19  1  0.91776300  0.83552600  0.28050700  1
  La  La20  1  0.08223700  0.91776300  0.78050700  1
  La  La21  1  0.16447400  0.08223700  0.28050700  1
  La  La22  1  0.08223700  0.16447400  0.78050700  1
  La  La23  1  0.83552600  0.91776300  0.78050700  1
  La  La24  1  0.24883700  0.75116300  0.22873500  1
  La  La25  1  0.24883700  0.49767500  0.22873500  1
  La  La26  1  0.75116300  0.24883700  0.72873500  1
  La  La27  1  0.50232500  0.75116300  0.22873500  1
  La  La28  1  0.75116300  0.50232500  0.72873500  1
  La  La29  1  0.49767500  0.24883700  0.72873500  1
  Ge  Ge30  1  0.80086300  0.19913700  0.28937100  1
  Ge  Ge31  1  0.80086300  0.60172600  0.28937100  1
  Ge  Ge32  1  0.19913700  0.80086300  0.78937100  1
  Ge  Ge33  1  0.39827400  0.19913700  0.28937100  1
  Ge  Ge34  1  0.19913700  0.39827400  0.78937100  1
  Ge  Ge35  1  0.60172600  0.80086300  0.78937100  1
  Ge  Ge36  1  0.13019600  0.86980400  0.22826500  1
  Ge  Ge37  1  0.13019600  0.26039200  0.22826500  1
  Ge  Ge38  1  0.86980400  0.13019600  0.72826500  1
  Ge  Ge39  1  0.73960800  0.86980400  0.22826500  1
  Ge  Ge40  1  0.86980400  0.73960800  0.72826500  1
  Ge  Ge41  1  0.26039200  0.13019600  0.72826500  1
  Ge  Ge42  1  0.46587600  0.53412400  0.24307600  1
  Ge  Ge43  1  0.46587600  0.93175300  0.24307600  1
  Ge  Ge44  1  0.53412400  0.46587600  0.74307600  1
  Ge  Ge45  1  0.06824700  0.53412400  0.24307600  1
  Ge  Ge46  1  0.53412400  0.06824700  0.74307600  1
  Ge  Ge47  1  0.93175300  0.46587600  0.74307600  1
  P  P48  1  0.33333300  0.66666700  0.99370300  1
  P  P49  1  0.66666700  0.33333300  0.49370300  1
