# generated using pymatgen
data_Eu2NiPtO6
_symmetry_space_group_name_H-M   'P 1'
_cell_length_a   5.78455200
_cell_length_b   5.50338900
_cell_length_c   9.51791455
_cell_angle_alpha   55.07903133
_cell_angle_beta   90.00000000
_cell_angle_gamma   90.00000000
_symmetry_Int_Tables_number   1
_chemical_formula_structural   Eu2NiPtO6
_chemical_formula_sum   'Eu4 Ni2 Pt2 O12'
_cell_volume   248.44204988
_cell_formula_units_Z   2
loop_
 _symmetry_equiv_pos_site_id
 _symmetry_equiv_pos_as_xyz
  1  'x, y, z'
loop_
 _atom_site_type_symbol
 _atom_site_label
 _atom_site_symmetry_multiplicity
 _atom_site_fract_x
 _atom_site_fract_y
 _atom_site_fract_z
 _atom_site_occupancy
  Eu  Eu0  1  0.06254200  0.72902400  0.75342300  1
  Eu  Eu1  1  0.93745800  0.27097600  0.24657700  1
  Eu  Eu2  1  0.56254200  0.27097600  0.74657700  1
  Eu  Eu3  1  0.43745800  0.72902400  0.25342300  1
  Ni  Ni4  1  0.50000000  0.50000000  0.00000000  1
  Ni  Ni5  1  0.00000000  0.50000000  0.50000000  1
  Pt  Pt6  1  0.50000000  0.00000000  0.50000000  1
  Pt  Pt7  1  0.00000000  0.00000000  0.00000000  1
  O  O8  1  0.46048600  0.85589800  0.74822000  1
  O  O9  1  0.53951400  0.14410200  0.25178000  1
  O  O10  1  0.96048600  0.14410200  0.75178000  1
  O  O11  1  0.03951400  0.85589800  0.24822000  1
  O  O12  1  0.79397700  0.75215000  0.55654600  1
  O  O13  1  0.20602300  0.24785000  0.44345400  1
  O  O14  1  0.29397700  0.24785000  0.94345400  1
  O  O15  1  0.70602300  0.75215000  0.05654600  1
  O  O16  1  0.30443600  0.64912600  0.54767500  1
  O  O17  1  0.69556400  0.35087400  0.45232500  1
  O  O18  1  0.80443600  0.35087400  0.95232500  1
  O  O19  1  0.19556400  0.64912600  0.04767500  1
