# generated using pymatgen
data_CuH2(NF2)2
_symmetry_space_group_name_H-M   'P 1'
_cell_length_a   7.08646516
_cell_length_b   7.08646516
_cell_length_c   5.83620500
_cell_angle_alpha   90.00000000
_cell_angle_beta   90.00000000
_cell_angle_gamma   131.24233041
_symmetry_Int_Tables_number   1
_chemical_formula_structural   CuH2(NF2)2
_chemical_formula_sum   'Cu2 H4 N4 F8'
_cell_volume   220.37693721
_cell_formula_units_Z   2
loop_
 _symmetry_equiv_pos_site_id
 _symmetry_equiv_pos_as_xyz
  1  'x, y, z'
loop_
 _atom_site_type_symbol
 _atom_site_label
 _atom_site_symmetry_multiplicity
 _atom_site_fract_x
 _atom_site_fract_y
 _atom_site_fract_z
 _atom_site_occupancy
  Cu  Cu0  1  0.50000000  0.50000000  0.50000000  1
  Cu  Cu1  1  0.00000000  0.00000000  0.00000000  1
  H  H2  1  0.22975000  0.77025000  0.50000000  1
  H  H3  1  0.77025000  0.22975000  0.50000000  1
  H  H4  1  0.27025000  0.72975000  0.00000000  1
  H  H5  1  0.72975000  0.27025000  0.00000000  1
  N  N6  1  0.14664800  0.85335200  0.50000000  1
  N  N7  1  0.85335200  0.14664800  0.50000000  1
  N  N8  1  0.35335200  0.64664800  0.00000000  1
  N  N9  1  0.64664800  0.35335200  0.00000000  1
  F  F10  1  0.35852400  0.64147600  0.50000000  1
  F  F11  1  0.64147600  0.35852400  0.50000000  1
  F  F12  1  0.14147600  0.85852400  0.00000000  1
  F  F13  1  0.85852400  0.14147600  0.00000000  1
  F  F14  1  0.71685300  0.71685300  0.71715300  1
  F  F15  1  0.28314700  0.28314700  0.28284700  1
  F  F16  1  0.78314700  0.78314700  0.21715300  1
  F  F17  1  0.21685300  0.21685300  0.78284700  1
