# generated using pymatgen
data_EuMgGa
_symmetry_space_group_name_H-M   'P 1'
_cell_length_a   4.94968300
_cell_length_b   7.85221400
_cell_length_c   7.89799700
_cell_angle_alpha   90.00000000
_cell_angle_beta   90.00000000
_cell_angle_gamma   90.00000000
_symmetry_Int_Tables_number   1
_chemical_formula_structural   EuMgGa
_chemical_formula_sum   'Eu4 Mg4 Ga4'
_cell_volume   306.96331563
_cell_formula_units_Z   4
loop_
 _symmetry_equiv_pos_site_id
 _symmetry_equiv_pos_as_xyz
  1  'x, y, z'
loop_
 _atom_site_type_symbol
 _atom_site_label
 _atom_site_symmetry_multiplicity
 _atom_site_fract_x
 _atom_site_fract_y
 _atom_site_fract_z
 _atom_site_occupancy
  Eu  Eu0  1  0.75000000  0.02037700  0.29078100  1
  Eu  Eu1  1  0.25000000  0.97962300  0.70921900  1
  Eu  Eu2  1  0.25000000  0.47962300  0.79078100  1
  Eu  Eu3  1  0.75000000  0.52037700  0.20921900  1
  Mg  Mg4  1  0.75000000  0.69085300  0.60467800  1
  Mg  Mg5  1  0.25000000  0.30914700  0.39532200  1
  Mg  Mg6  1  0.25000000  0.80914700  0.10467800  1
  Mg  Mg7  1  0.75000000  0.19085300  0.89532200  1
  Ga  Ga8  1  0.75000000  0.81497900  0.93266800  1
  Ga  Ga9  1  0.25000000  0.18502100  0.06733200  1
  Ga  Ga10  1  0.25000000  0.68502100  0.43266800  1
  Ga  Ga11  1  0.75000000  0.31497900  0.56733200  1
