# generated using pymatgen
data_Cu2AgH(SeO5)2
_symmetry_space_group_name_H-M   'P 1'
_cell_length_a   5.40829071
_cell_length_b   5.40829071
_cell_length_c   8.24791217
_cell_angle_alpha   66.32041790
_cell_angle_beta   66.32041790
_cell_angle_gamma   69.88767403
_symmetry_Int_Tables_number   1
_chemical_formula_structural   Cu2AgH(SeO5)2
_chemical_formula_sum   'Cu2 Ag1 H1 Se2 O10'
_cell_volume   197.48330660
_cell_formula_units_Z   1
loop_
 _symmetry_equiv_pos_site_id
 _symmetry_equiv_pos_as_xyz
  1  'x, y, z'
loop_
 _atom_site_type_symbol
 _atom_site_label
 _atom_site_symmetry_multiplicity
 _atom_site_fract_x
 _atom_site_fract_y
 _atom_site_fract_z
 _atom_site_occupancy
  Cu  Cu0  1  0.50000000  0.00000000  0.50000000  1
  Cu  Cu1  1  0.00000000  0.50000000  0.50000000  1
  Ag  Ag2  1  0.00000000  0.00000000  0.00000000  1
  H  H3  1  0.00000000  0.00000000  0.50000000  1
  Se  Se4  1  0.58015100  0.58015100  0.20574200  1
  Se  Se5  1  0.41984900  0.41984900  0.79425800  1
  O  O6  1  0.84536600  0.84536600  0.54535600  1
  O  O7  1  0.15463400  0.15463400  0.45464400  1
  O  O8  1  0.68040700  0.22535000  0.25808500  1
  O  O9  1  0.31959300  0.77465000  0.74191500  1
  O  O10  1  0.77465000  0.31959300  0.74191500  1
  O  O11  1  0.22535000  0.68040700  0.25808500  1
  O  O12  1  0.67981600  0.67981600  0.33148800  1
  O  O13  1  0.32018400  0.32018400  0.66851200  1
  O  O14  1  0.28268000  0.28268000  0.01964600  1
  O  O15  1  0.71732000  0.71732000  0.98035400  1
