# generated using pymatgen
data_ErMg(BO2)5
_symmetry_space_group_name_H-M   'P 1'
_cell_length_a   7.64218300
_cell_length_b   8.61007800
_cell_length_c   12.28161916
_cell_angle_alpha   49.36560230
_cell_angle_beta   90.00000000
_cell_angle_gamma   90.00000000
_symmetry_Int_Tables_number   1
_chemical_formula_structural   ErMg(BO2)5
_chemical_formula_sum   'Er4 Mg4 B20 O40'
_cell_volume   613.27254857
_cell_formula_units_Z   4
loop_
 _symmetry_equiv_pos_site_id
 _symmetry_equiv_pos_as_xyz
  1  'x, y, z'
loop_
 _atom_site_type_symbol
 _atom_site_label
 _atom_site_symmetry_multiplicity
 _atom_site_fract_x
 _atom_site_fract_y
 _atom_site_fract_z
 _atom_site_occupancy
  Er  Er0  1  0.19331900  0.94637600  0.24174900  1
  Er  Er1  1  0.80668100  0.05362400  0.75825100  1
  Er  Er2  1  0.69331900  0.05362400  0.25825100  1
  Er  Er3  1  0.30668100  0.94637600  0.74174900  1
  Mg  Mg4  1  0.90863600  0.52880600  0.37143900  1
  Mg  Mg5  1  0.09136400  0.47119400  0.62856100  1
  Mg  Mg6  1  0.40863600  0.47119400  0.12856100  1
  Mg  Mg7  1  0.59136400  0.52880600  0.87143900  1
  B  B8  1  0.82630300  0.91256200  0.10390400  1
  B  B9  1  0.17369700  0.08743800  0.89609600  1
  B  B10  1  0.32630300  0.08743800  0.39609600  1
  B  B11  1  0.67369700  0.91256200  0.60390400  1
  B  B12  1  0.57528300  0.65984300  0.25874700  1
  B  B13  1  0.42471700  0.34015700  0.74125300  1
  B  B14  1  0.07528300  0.34015700  0.24125300  1
  B  B15  1  0.92471700  0.65984300  0.75874700  1
  B  B16  1  0.81135700  0.47645600  0.08868200  1
  B  B17  1  0.18864300  0.52354400  0.91131800  1
  B  B18  1  0.31135700  0.52354400  0.41131800  1
  B  B19  1  0.68864300  0.47645600  0.58868200  1
  B  B20  1  0.46794500  0.72178800  0.55583200  1
  B  B21  1  0.53205500  0.27821200  0.44416800  1
  B  B22  1  0.96794500  0.27821200  0.94416800  1
  B  B23  1  0.03205500  0.72178800  0.05583200  1
  B  B24  1  0.59746400  0.84479300  0.99439200  1
  B  B25  1  0.40253600  0.15520700  0.00560800  1
  B  B26  1  0.09746400  0.15520700  0.50560800  1
  B  B27  1  0.90253600  0.84479300  0.49439200  1
  O  O28  1  0.91317500  0.31010400  0.19347200  1
  O  O29  1  0.08682500  0.68989600  0.80652800  1
  O  O30  1  0.41317500  0.68989600  0.30652800  1
  O  O31  1  0.58682500  0.31010400  0.69347200  1
  O  O32  1  0.87233900  0.67255100  0.01078000  1
  O  O33  1  0.12766100  0.32744900  0.98922000  1
  O  O34  1  0.37233900  0.32744900  0.48922000  1
  O  O35  1  0.62766100  0.67255100  0.51078000  1
  O  O36  1  0.38944300  0.90561900  0.41890100  1
  O  O37  1  0.61055700  0.09438100  0.58109900  1
  O  O38  1  0.88944300  0.09438100  0.08109900  1
  O  O39  1  0.11055700  0.90561900  0.91890100  1
  O  O40  1  0.70932900  0.80559900  0.23102200  1
  O  O41  1  0.29067100  0.19440100  0.76897800  1
  O  O42  1  0.20932900  0.19440100  0.26897800  1
  O  O43  1  0.79067100  0.80559900  0.73102200  1
  O  O44  1  0.64972000  0.42124600  0.07507000  1
  O  O45  1  0.35028000  0.57875400  0.92493000  1
  O  O46  1  0.14972000  0.57875400  0.42493000  1
  O  O47  1  0.85028000  0.42124600  0.57507000  1
  O  O48  1  0.77126200  0.97217200  0.47837100  1
  O  O49  1  0.22873800  0.02782800  0.52162900  1
  O  O50  1  0.27126200  0.02782800  0.02162900  1
  O  O51  1  0.72873800  0.97217200  0.97837100  1
  O  O52  1  0.65002900  0.45408900  0.36519600  1
  O  O53  1  0.34997100  0.54591100  0.63480400  1
  O  O54  1  0.15002900  0.54591100  0.13480400  1
  O  O55  1  0.84997100  0.45408900  0.86519600  1
  O  O56  1  0.52846900  0.68986000  0.12708400  1
  O  O57  1  0.47153100  0.31014000  0.87291600  1
  O  O58  1  0.02846900  0.31014000  0.37291600  1
  O  O59  1  0.97153100  0.68986000  0.62708400  1
  O  O60  1  0.95184400  0.88284600  0.37320000  1
  O  O61  1  0.04815600  0.11715400  0.62680000  1
  O  O62  1  0.45184400  0.11715400  0.12680000  1
  O  O63  1  0.54815600  0.88284600  0.87320000  1
  O  O64  1  0.97193800  0.76666100  0.14878800  1
  O  O65  1  0.02806200  0.23333900  0.85121200  1
  O  O66  1  0.47193800  0.23333900  0.35121200  1
  O  O67  1  0.52806200  0.76666100  0.64878800  1
