# generated using pymatgen
data_In3Ni7
_symmetry_space_group_name_H-M   'P 1'
_cell_length_a   6.54707200
_cell_length_b   8.94152497
_cell_length_c   9.81127025
_cell_angle_alpha   106.83305604
_cell_angle_beta   96.98001918
_cell_angle_gamma   90.28802039
_symmetry_Int_Tables_number   1
_chemical_formula_structural   In3Ni7
_chemical_formula_sum   'In12 Ni28'
_cell_volume   545.18628894
_cell_formula_units_Z   4
loop_
 _symmetry_equiv_pos_site_id
 _symmetry_equiv_pos_as_xyz
  1  'x, y, z'
loop_
 _atom_site_type_symbol
 _atom_site_label
 _atom_site_symmetry_multiplicity
 _atom_site_fract_x
 _atom_site_fract_y
 _atom_site_fract_z
 _atom_site_occupancy
  In  In0  1  0.32431200  0.83686800  0.39551600  1
  In  In1  1  0.67568800  0.16313200  0.60448400  1
  In  In2  1  0.06454300  0.71222700  0.01483800  1
  In  In3  1  0.93545700  0.28777300  0.98516200  1
  In  In4  1  0.78961200  0.52854600  0.55445900  1
  In  In5  1  0.21038800  0.47145400  0.44554100  1
  In  In6  1  0.47296300  0.36493600  0.12441100  1
  In  In7  1  0.52703700  0.63506400  0.87558900  1
  In  In8  1  0.62010400  0.99677400  0.86586000  1
  In  In9  1  0.37989600  0.00322600  0.13414000  1
  In  In10  1  0.84744400  0.73274800  0.31356000  1
  In  In11  1  0.15255600  0.26725200  0.68644000  1
  Ni  Ni12  1  0.85969200  0.76403300  0.78399100  1
  Ni  Ni13  1  0.14030800  0.23596700  0.21600900  1
  Ni  Ni14  1  0.02785700  0.98344700  0.25033100  1
  Ni  Ni15  1  0.97214300  0.01655300  0.74966900  1
  Ni  Ni16  1  0.75759400  0.54208900  0.06244300  1
  Ni  Ni17  1  0.24240600  0.45791100  0.93755700  1
  Ni  Ni18  1  0.52414400  0.58560800  0.36366200  1
  Ni  Ni19  1  0.47585600  0.41439200  0.63633800  1
  Ni  Ni20  1  0.44388600  0.71099600  0.63615300  1
  Ni  Ni21  1  0.55611400  0.28900400  0.36384700  1
  Ni  Ni22  1  0.84563700  0.42313100  0.27361700  1
  Ni  Ni23  1  0.15436300  0.57686900  0.72638300  1
  Ni  Ni24  1  0.66893900  0.00171500  0.33736800  1
  Ni  Ni25  1  0.33106100  0.99828500  0.66263200  1
  Ni  Ni26  1  0.72603200  0.85418100  0.08142400  1
  Ni  Ni27  1  0.27396800  0.14581900  0.91857600  1
  Ni  Ni28  1  0.00000000  0.00000000  0.50000000  1
  Ni  Ni29  1  0.14896600  0.54432200  0.20050800  1
  Ni  Ni30  1  0.85103400  0.45567800  0.79949200  1
  Ni  Ni31  1  0.92860700  0.23388100  0.41640600  1
  Ni  Ni32  1  0.07139300  0.76611900  0.58359400  1
  Ni  Ni33  1  0.45304300  0.69936900  0.15136800  1
  Ni  Ni34  1  0.54695700  0.30063100  0.84863200  1
  Ni  Ni35  1  0.75775800  0.14385800  0.16447100  1
  Ni  Ni36  1  0.24224200  0.85614200  0.83552900  1
  Ni  Ni37  1  0.00000000  0.00000000  0.00000000  1
  Ni  Ni38  1  0.70115400  0.85564800  0.56261100  1
  Ni  Ni39  1  0.29884600  0.14435200  0.43738900  1
