# generated using pymatgen
data_Cu(HCl)2
_symmetry_space_group_name_H-M   'P 1'
_cell_length_a   3.97752400
_cell_length_b   6.61972400
_cell_length_c   6.71310300
_cell_angle_alpha   90.00000000
_cell_angle_beta   90.00000000
_cell_angle_gamma   90.00000000
_symmetry_Int_Tables_number   1
_chemical_formula_structural   Cu(HCl)2
_chemical_formula_sum   'Cu2 H4 Cl4'
_cell_volume   176.75674770
_cell_formula_units_Z   2
loop_
 _symmetry_equiv_pos_site_id
 _symmetry_equiv_pos_as_xyz
  1  'x, y, z'
loop_
 _atom_site_type_symbol
 _atom_site_label
 _atom_site_symmetry_multiplicity
 _atom_site_fract_x
 _atom_site_fract_y
 _atom_site_fract_z
 _atom_site_occupancy
  Cu  Cu0  1  0.00000000  0.00000000  0.00000000  1
  Cu  Cu1  1  0.00000000  0.50000000  0.50000000  1
  H  H2  1  0.00000000  0.00000000  0.23747900  1
  H  H3  1  0.00000000  0.00000000  0.76252100  1
  H  H4  1  0.00000000  0.50000000  0.26252100  1
  H  H5  1  0.00000000  0.50000000  0.73747900  1
  Cl  Cl6  1  0.19047800  0.29277100  0.00000000  1
  Cl  Cl7  1  0.80952200  0.70722900  0.00000000  1
  Cl  Cl8  1  0.80952200  0.79277100  0.50000000  1
  Cl  Cl9  1  0.19047800  0.20722900  0.50000000  1
