# generated using pymatgen
data_Dy4Al2O9
_symmetry_space_group_name_H-M   'P 1'
_cell_length_a   10.59166300
_cell_length_b   7.44961400
_cell_length_c   11.19275803
_cell_angle_alpha   71.34431820
_cell_angle_beta   90.00000000
_cell_angle_gamma   90.00000000
_symmetry_Int_Tables_number   1
_chemical_formula_structural   Dy4Al2O9
_chemical_formula_sum   'Dy16 Al8 O36'
_cell_volume   836.74861320
_cell_formula_units_Z   4
loop_
 _symmetry_equiv_pos_site_id
 _symmetry_equiv_pos_as_xyz
  1  'x, y, z'
loop_
 _atom_site_type_symbol
 _atom_site_label
 _atom_site_symmetry_multiplicity
 _atom_site_fract_x
 _atom_site_fract_y
 _atom_site_fract_z
 _atom_site_occupancy
  Dy  Dy0  1  0.59217600  0.47739500  0.30659000  1
  Dy  Dy1  1  0.40782400  0.52260500  0.69341000  1
  Dy  Dy2  1  0.09217600  0.52260500  0.19341000  1
  Dy  Dy3  1  0.90782400  0.47739500  0.80659000  1
  Dy  Dy4  1  0.60618200  0.97684200  0.28460500  1
  Dy  Dy5  1  0.39381800  0.02315800  0.71539500  1
  Dy  Dy6  1  0.10618200  0.02315800  0.21539500  1
  Dy  Dy7  1  0.89381800  0.97684200  0.78460500  1
  Dy  Dy8  1  0.37596500  0.83673400  0.06584700  1
  Dy  Dy9  1  0.62403500  0.16326600  0.93415300  1
  Dy  Dy10  1  0.87596500  0.16326600  0.43415300  1
  Dy  Dy11  1  0.12403500  0.83673400  0.56584700  1
  Dy  Dy12  1  0.87832800  0.66347000  0.41259000  1
  Dy  Dy13  1  0.12167200  0.33653000  0.58741000  1
  Dy  Dy14  1  0.37832800  0.33653000  0.08741000  1
  Dy  Dy15  1  0.62167200  0.66347000  0.91259000  1
  Al  Al16  1  0.81689100  0.84623300  0.11444900  1
  Al  Al17  1  0.18310900  0.15376700  0.88555100  1
  Al  Al18  1  0.31689100  0.15376700  0.38555100  1
  Al  Al19  1  0.68310900  0.84623300  0.61444900  1
  Al  Al20  1  0.81431600  0.28245800  0.12833200  1
  Al  Al21  1  0.18568400  0.71754200  0.87166800  1
  Al  Al22  1  0.31431600  0.71754200  0.37166800  1
  Al  Al23  1  0.68568400  0.28245800  0.62833200  1
  O  O24  1  0.73361400  0.42894800  0.47954500  1
  O  O25  1  0.26638600  0.57105200  0.52045500  1
  O  O26  1  0.23361400  0.57105200  0.02045500  1
  O  O27  1  0.76638600  0.42894800  0.97954500  1
  O  O28  1  0.72904800  0.86052400  0.46089600  1
  O  O29  1  0.27095200  0.13947600  0.53910400  1
  O  O30  1  0.22904800  0.13947600  0.03910400  1
  O  O31  1  0.77095200  0.86052400  0.96089600  1
  O  O32  1  0.97428500  0.80117400  0.16764900  1
  O  O33  1  0.02571500  0.19882600  0.83235100  1
  O  O34  1  0.47428500  0.19882600  0.33235100  1
  O  O35  1  0.52571500  0.80117400  0.66764900  1
  O  O36  1  0.50565600  0.57694500  0.10619600  1
  O  O37  1  0.49434400  0.42305500  0.89380400  1
  O  O38  1  0.00565600  0.42305500  0.39380400  1
  O  O39  1  0.99434400  0.57694500  0.60619600  1
  O  O40  1  0.72983000  0.71226100  0.24732500  1
  O  O41  1  0.27017000  0.28773900  0.75267500  1
  O  O42  1  0.22983000  0.28773900  0.25267500  1
  O  O43  1  0.77017000  0.71226100  0.74732500  1
  O  O44  1  0.73187800  0.26729300  0.26954100  1
  O  O45  1  0.26812200  0.73270700  0.73045900  1
  O  O46  1  0.23187800  0.73270700  0.23045900  1
  O  O47  1  0.76812200  0.26729300  0.76954100  1
  O  O48  1  0.25460900  0.93262300  0.38537800  1
  O  O49  1  0.74539100  0.06737700  0.61462200  1
  O  O50  1  0.75460900  0.06737700  0.11462200  1
  O  O51  1  0.24539100  0.93262300  0.88537800  1
  O  O52  1  0.47577400  0.71591600  0.33886200  1
  O  O53  1  0.52422600  0.28408400  0.66113800  1
  O  O54  1  0.97577400  0.28408400  0.16113800  1
  O  O55  1  0.02422600  0.71591600  0.83886200  1
  O  O56  1  0.99085400  0.93406800  0.39454500  1
  O  O57  1  0.00914600  0.06593200  0.60545500  1
  O  O58  1  0.49085400  0.06593200  0.10545500  1
  O  O59  1  0.50914600  0.93406800  0.89454500  1
