# generated using pymatgen
data_DyHg2
_symmetry_space_group_name_H-M   'P 1'
_cell_length_a   5.35566753
_cell_length_b   5.35566753
_cell_length_c   3.44708400
_cell_angle_alpha   90.00000000
_cell_angle_beta   90.00000000
_cell_angle_gamma   119.99999420
_symmetry_Int_Tables_number   1
_chemical_formula_structural   DyHg2
_chemical_formula_sum   'Dy1 Hg2'
_cell_volume   85.62680544
_cell_formula_units_Z   1
loop_
 _symmetry_equiv_pos_site_id
 _symmetry_equiv_pos_as_xyz
  1  'x, y, z'
loop_
 _atom_site_type_symbol
 _atom_site_label
 _atom_site_symmetry_multiplicity
 _atom_site_fract_x
 _atom_site_fract_y
 _atom_site_fract_z
 _atom_site_occupancy
  Dy  Dy0  1  0.00000000  0.00000000  0.00000000  1
  Hg  Hg1  1  0.33333300  0.66666700  0.92051200  1
  Hg  Hg2  1  0.66666700  0.33333300  0.07948800  1
