# generated using pymatgen
data_Dy2Fe17C3
_symmetry_space_group_name_H-M   'P 1'
_cell_length_a   8.64808808
_cell_length_b   8.64808808
_cell_length_c   8.34779600
_cell_angle_alpha   90.00000000
_cell_angle_beta   90.00000000
_cell_angle_gamma   120.00000065
_symmetry_Int_Tables_number   1
_chemical_formula_structural   Dy2Fe17C3
_chemical_formula_sum   'Dy4 Fe34 C6'
_cell_volume   540.68293819
_cell_formula_units_Z   2
loop_
 _symmetry_equiv_pos_site_id
 _symmetry_equiv_pos_as_xyz
  1  'x, y, z'
loop_
 _atom_site_type_symbol
 _atom_site_label
 _atom_site_symmetry_multiplicity
 _atom_site_fract_x
 _atom_site_fract_y
 _atom_site_fract_z
 _atom_site_occupancy
  Dy  Dy0  1  0.33333300  0.66666700  0.25000000  1
  Dy  Dy1  1  0.66666700  0.33333300  0.75000000  1
  Dy  Dy2  1  0.00000000  0.00000000  0.25000000  1
  Dy  Dy3  1  0.00000000  0.00000000  0.75000000  1
  Fe  Fe4  1  0.37837800  0.05226600  0.25000000  1
  Fe  Fe5  1  0.62162200  0.94773400  0.75000000  1
  Fe  Fe6  1  0.94773400  0.32611200  0.25000000  1
  Fe  Fe7  1  0.05226600  0.37837800  0.75000000  1
  Fe  Fe8  1  0.05226600  0.67388800  0.75000000  1
  Fe  Fe9  1  0.94773400  0.62162200  0.25000000  1
  Fe  Fe10  1  0.67388800  0.62162200  0.25000000  1
  Fe  Fe11  1  0.32611200  0.94773400  0.75000000  1
  Fe  Fe12  1  0.32611200  0.37837800  0.75000000  1
  Fe  Fe13  1  0.67388800  0.05226600  0.25000000  1
  Fe  Fe14  1  0.62162200  0.67388800  0.75000000  1
  Fe  Fe15  1  0.37837800  0.32611200  0.25000000  1
  Fe  Fe16  1  0.33333300  0.66666700  0.60765200  1
  Fe  Fe17  1  0.66666700  0.33333300  0.39234800  1
  Fe  Fe18  1  0.66666700  0.33333300  0.10765200  1
  Fe  Fe19  1  0.33333300  0.66666700  0.89234800  1
  Fe  Fe20  1  0.16832300  0.33664600  0.01974900  1
  Fe  Fe21  1  0.83167700  0.66335400  0.98025100  1
  Fe  Fe22  1  0.66335400  0.83167700  0.01974900  1
  Fe  Fe23  1  0.83167700  0.66335400  0.51974900  1
  Fe  Fe24  1  0.33664600  0.16832300  0.98025100  1
  Fe  Fe25  1  0.16832300  0.33664600  0.48025100  1
  Fe  Fe26  1  0.16832300  0.83167700  0.01974900  1
  Fe  Fe27  1  0.33664600  0.16832300  0.51974900  1
  Fe  Fe28  1  0.83167700  0.16832300  0.98025100  1
  Fe  Fe29  1  0.66335400  0.83167700  0.48025100  1
  Fe  Fe30  1  0.83167700  0.16832300  0.51974900  1
  Fe  Fe31  1  0.16832300  0.83167700  0.48025100  1
  Fe  Fe32  1  0.50000000  0.00000000  0.00000000  1
  Fe  Fe33  1  0.00000000  0.50000000  0.00000000  1
  Fe  Fe34  1  0.50000000  0.00000000  0.50000000  1
  Fe  Fe35  1  0.50000000  0.50000000  0.00000000  1
  Fe  Fe36  1  0.00000000  0.50000000  0.50000000  1
  Fe  Fe37  1  0.50000000  0.50000000  0.50000000  1
  C  C38  1  0.16565900  0.33131800  0.25000000  1
  C  C39  1  0.83434100  0.66868200  0.75000000  1
  C  C40  1  0.66868200  0.83434100  0.25000000  1
  C  C41  1  0.33131800  0.16565900  0.75000000  1
  C  C42  1  0.16565900  0.83434100  0.25000000  1
  C  C43  1  0.83434100  0.16565900  0.75000000  1
