# generated using pymatgen
data_CsSm(MoO4)2
_symmetry_space_group_name_H-M   'P 1'
_cell_length_a   5.14959000
_cell_length_b   8.30996800
_cell_length_c   9.68001700
_cell_angle_alpha   90.00000000
_cell_angle_beta   90.00000000
_cell_angle_gamma   90.00000000
_symmetry_Int_Tables_number   1
_chemical_formula_structural   CsSm(MoO4)2
_chemical_formula_sum   'Cs2 Sm2 Mo4 O16'
_cell_volume   414.23627161
_cell_formula_units_Z   2
loop_
 _symmetry_equiv_pos_site_id
 _symmetry_equiv_pos_as_xyz
  1  'x, y, z'
loop_
 _atom_site_type_symbol
 _atom_site_label
 _atom_site_symmetry_multiplicity
 _atom_site_fract_x
 _atom_site_fract_y
 _atom_site_fract_z
 _atom_site_occupancy
  Cs  Cs0  1  0.00000000  0.25000000  0.50000000  1
  Cs  Cs1  1  0.00000000  0.75000000  0.50000000  1
  Sm  Sm2  1  0.00000000  0.25000000  0.00000000  1
  Sm  Sm3  1  0.00000000  0.75000000  0.00000000  1
  Mo  Mo4  1  0.52068600  0.00000000  0.19743100  1
  Mo  Mo5  1  0.47931400  0.00000000  0.80256900  1
  Mo  Mo6  1  0.47931400  0.50000000  0.19743100  1
  Mo  Mo7  1  0.52068600  0.50000000  0.80256900  1
  O  O8  1  0.25188800  0.00000000  0.06804000  1
  O  O9  1  0.74811200  0.00000000  0.93196000  1
  O  O10  1  0.74811200  0.50000000  0.06804000  1
  O  O11  1  0.25188800  0.50000000  0.93196000  1
  O  O12  1  0.26394000  0.32825800  0.18856600  1
  O  O13  1  0.73606000  0.67174200  0.81143400  1
  O  O14  1  0.73606000  0.32825800  0.81143400  1
  O  O15  1  0.73606000  0.17174200  0.18856600  1
  O  O16  1  0.26394000  0.67174200  0.18856600  1
  O  O17  1  0.26394000  0.82825800  0.81143400  1
  O  O18  1  0.26394000  0.17174200  0.81143400  1
  O  O19  1  0.73606000  0.82825800  0.18856600  1
  O  O20  1  0.38002000  0.00000000  0.36245000  1
  O  O21  1  0.61998000  0.00000000  0.63755000  1
  O  O22  1  0.61998000  0.50000000  0.36245000  1
  O  O23  1  0.38002000  0.50000000  0.63755000  1
