# generated using pymatgen
data_Er2Sn3(PbS4)3
_symmetry_space_group_name_H-M   'P 1'
_cell_length_a   3.94472500
_cell_length_b   11.63060500
_cell_length_c   20.34515800
_cell_angle_alpha   90.00000000
_cell_angle_beta   90.00000000
_cell_angle_gamma   90.00000000
_symmetry_Int_Tables_number   1
_chemical_formula_structural   Er2Sn3(PbS4)3
_chemical_formula_sum   'Er4 Sn6 Pb6 S24'
_cell_volume   933.42645586
_cell_formula_units_Z   2
loop_
 _symmetry_equiv_pos_site_id
 _symmetry_equiv_pos_as_xyz
  1  'x, y, z'
loop_
 _atom_site_type_symbol
 _atom_site_label
 _atom_site_symmetry_multiplicity
 _atom_site_fract_x
 _atom_site_fract_y
 _atom_site_fract_z
 _atom_site_occupancy
  Er  Er0  1  0.50000000  0.64975400  0.41175800  1
  Er  Er1  1  0.50000000  0.14975400  0.58824200  1
  Er  Er2  1  0.50000000  0.82494600  0.89508700  1
  Er  Er3  1  0.50000000  0.32494600  0.10491300  1
  Sn  Sn4  1  0.00000000  0.00085800  0.75055500  1
  Sn  Sn5  1  0.00000000  0.50085800  0.24944500  1
  Sn  Sn6  1  0.00000000  0.51899300  0.91194400  1
  Sn  Sn7  1  0.00000000  0.01899300  0.08805600  1
  Sn  Sn8  1  0.00000000  0.99372600  0.42459600  1
  Sn  Sn9  1  0.00000000  0.49372600  0.57540400  1
  Pb  Pb10  1  0.50000000  0.40377000  0.74219400  1
  Pb  Pb11  1  0.50000000  0.90377000  0.25780600  1
  Pb  Pb12  1  0.50000000  0.19720000  0.91401000  1
  Pb  Pb13  1  0.50000000  0.69720000  0.08599000  1
  Pb  Pb14  1  0.50000000  0.77087500  0.62237800  1
  Pb  Pb15  1  0.50000000  0.27087500  0.37762200  1
  S  S16  1  0.00000000  0.98918800  0.87641000  1
  S  S17  1  0.00000000  0.48918800  0.12359000  1
  S  S18  1  0.00000000  0.98746200  0.62589500  1
  S  S19  1  0.00000000  0.48746200  0.37410500  1
  S  S20  1  0.00000000  0.68285900  0.50940100  1
  S  S21  1  0.00000000  0.18285900  0.49059900  1
  S  S22  1  0.50000000  0.64579600  0.25766700  1
  S  S23  1  0.50000000  0.14579600  0.74233300  1
  S  S24  1  0.50000000  0.84921000  0.75789200  1
  S  S25  1  0.50000000  0.34921000  0.24210800  1
  S  S26  1  0.50000000  0.60167600  0.84158100  1
  S  S27  1  0.50000000  0.10167600  0.15841900  1
  S  S28  1  0.50000000  0.43986900  0.98381400  1
  S  S29  1  0.50000000  0.93986900  0.01618600  1
  S  S30  1  0.50000000  0.93614300  0.49047400  1
  S  S31  1  0.50000000  0.43614300  0.50952600  1
  S  S32  1  0.00000000  0.33653600  0.84267000  1
  S  S33  1  0.00000000  0.83653600  0.15733000  1
  S  S34  1  0.00000000  0.71523500  0.96847500  1
  S  S35  1  0.00000000  0.21523500  0.03152500  1
  S  S36  1  0.00000000  0.80306200  0.35927900  1
  S  S37  1  0.00000000  0.30306200  0.64072100  1
  S  S38  1  0.00000000  0.60214100  0.67861400  1
  S  S39  1  0.00000000  0.10214100  0.32138600  1
