# generated using pymatgen
data_CsMgAs(H3O2)2
_symmetry_space_group_name_H-M   'P 1'
_cell_length_a   7.27595342
_cell_length_b   7.27595342
_cell_length_c   7.27595342
_cell_angle_alpha   60.00000000
_cell_angle_beta   60.00000000
_cell_angle_gamma   60.00000000
_symmetry_Int_Tables_number   1
_chemical_formula_structural   CsMgAs(H3O2)2
_chemical_formula_sum   'Cs1 Mg1 As1 H6 O4'
_cell_volume   272.36715328
_cell_formula_units_Z   1
loop_
 _symmetry_equiv_pos_site_id
 _symmetry_equiv_pos_as_xyz
  1  'x, y, z'
loop_
 _atom_site_type_symbol
 _atom_site_label
 _atom_site_symmetry_multiplicity
 _atom_site_fract_x
 _atom_site_fract_y
 _atom_site_fract_z
 _atom_site_occupancy
  Cs  Cs0  1  0.00000000  0.00000000  0.00000000  1
  Mg  Mg1  1  0.50000000  0.50000000  0.50000000  1
  As  As2  1  0.25000000  0.25000000  0.25000000  1
  H  H3  1  0.69593800  0.30406200  0.30406200  1
  H  H4  1  0.30406200  0.69593800  0.69593800  1
  H  H5  1  0.30406200  0.69593800  0.30406200  1
  H  H6  1  0.69593800  0.30406200  0.69593800  1
  H  H7  1  0.30406200  0.30406200  0.69593800  1
  H  H8  1  0.69593800  0.69593800  0.30406200  1
  O  O9  1  0.15348100  0.15348100  0.15348100  1
  O  O10  1  0.15348100  0.15348100  0.53955800  1
  O  O11  1  0.15348100  0.53955800  0.15348100  1
  O  O12  1  0.53955800  0.15348100  0.15348100  1
