# generated using pymatgen
data_Er4Ni
_symmetry_space_group_name_H-M   'P 1'
_cell_length_a   7.43290991
_cell_length_b   7.43290991
_cell_length_c   7.43290991
_cell_angle_alpha   60.00000000
_cell_angle_beta   60.00000000
_cell_angle_gamma   60.00000000
_symmetry_Int_Tables_number   1
_chemical_formula_structural   Er4Ni
_chemical_formula_sum   'Er8 Ni2'
_cell_volume   290.37659534
_cell_formula_units_Z   2
loop_
 _symmetry_equiv_pos_site_id
 _symmetry_equiv_pos_as_xyz
  1  'x, y, z'
loop_
 _atom_site_type_symbol
 _atom_site_label
 _atom_site_symmetry_multiplicity
 _atom_site_fract_x
 _atom_site_fract_y
 _atom_site_fract_z
 _atom_site_occupancy
  Er  Er0  1  0.38744900  0.38744900  0.38744900  1
  Er  Er1  1  0.38744900  0.38744900  0.83765400  1
  Er  Er2  1  0.38744900  0.83765400  0.38744900  1
  Er  Er3  1  0.86255100  0.86255100  0.41234600  1
  Er  Er4  1  0.86255100  0.86255100  0.86255100  1
  Er  Er5  1  0.83765400  0.38744900  0.38744900  1
  Er  Er6  1  0.86255100  0.41234600  0.86255100  1
  Er  Er7  1  0.41234600  0.86255100  0.86255100  1
  Ni  Ni8  1  0.00000000  0.00000000  0.00000000  1
  Ni  Ni9  1  0.25000000  0.25000000  0.25000000  1
