# generated using pymatgen
data_CsNd(MoO4)2
_symmetry_space_group_name_H-M   'P 1'
_cell_length_a   7.75623006
_cell_length_b   7.75623006
_cell_length_c   8.05267915
_cell_angle_alpha   61.59405211
_cell_angle_beta   61.59405211
_cell_angle_gamma   88.40785346
_symmetry_Int_Tables_number   1
_chemical_formula_structural   CsNd(MoO4)2
_chemical_formula_sum   'Cs2 Nd2 Mo4 O16'
_cell_volume   362.26190423
_cell_formula_units_Z   2
loop_
 _symmetry_equiv_pos_site_id
 _symmetry_equiv_pos_as_xyz
  1  'x, y, z'
loop_
 _atom_site_type_symbol
 _atom_site_label
 _atom_site_symmetry_multiplicity
 _atom_site_fract_x
 _atom_site_fract_y
 _atom_site_fract_z
 _atom_site_occupancy
  Cs  Cs0  1  0.19604200  0.80395800  0.75000000  1
  Cs  Cs1  1  0.80395800  0.19604200  0.25000000  1
  Nd  Nd2  1  0.77020500  0.22979500  0.75000000  1
  Nd  Nd3  1  0.22979500  0.77020500  0.25000000  1
  Mo  Mo4  1  0.69155900  0.69046700  0.76617000  1
  Mo  Mo5  1  0.30844100  0.30953300  0.23383000  1
  Mo  Mo6  1  0.30953300  0.30844100  0.73383000  1
  Mo  Mo7  1  0.69046700  0.69155900  0.26617000  1
  O  O8  1  0.61361900  0.75679100  0.57393100  1
  O  O9  1  0.38638100  0.24320900  0.42606900  1
  O  O10  1  0.24320900  0.38638100  0.92606900  1
  O  O11  1  0.75679100  0.61361900  0.07393100  1
  O  O12  1  0.38395000  0.07497100  0.87060600  1
  O  O13  1  0.61605000  0.92502900  0.12939400  1
  O  O14  1  0.92502900  0.61605000  0.62939400  1
  O  O15  1  0.07497100  0.38395000  0.37060600  1
  O  O16  1  0.58172900  0.37148900  0.96956400  1
  O  O17  1  0.41827100  0.62851100  0.03043600  1
  O  O18  1  0.62851100  0.41827100  0.53043600  1
  O  O19  1  0.37148900  0.58172900  0.46956400  1
  O  O20  1  0.78393300  0.93837500  0.70332800  1
  O  O21  1  0.21606700  0.06162500  0.29667200  1
  O  O22  1  0.06162500  0.21606700  0.79667200  1
  O  O23  1  0.93837500  0.78393300  0.20332800  1
