# generated using pymatgen
data_CsTm(WO4)2
_symmetry_space_group_name_H-M   'P 1'
_cell_length_a   7.63682268
_cell_length_b   7.63682268
_cell_length_c   7.53943402
_cell_angle_alpha   62.58830046
_cell_angle_beta   62.58830046
_cell_angle_gamma   88.48954715
_symmetry_Int_Tables_number   1
_chemical_formula_structural   CsTm(WO4)2
_chemical_formula_sum   'Cs2 Tm2 W4 O16'
_cell_volume   336.76492859
_cell_formula_units_Z   2
loop_
 _symmetry_equiv_pos_site_id
 _symmetry_equiv_pos_as_xyz
  1  'x, y, z'
loop_
 _atom_site_type_symbol
 _atom_site_label
 _atom_site_symmetry_multiplicity
 _atom_site_fract_x
 _atom_site_fract_y
 _atom_site_fract_z
 _atom_site_occupancy
  Cs  Cs0  1  0.19764900  0.80235100  0.75000000  1
  Cs  Cs1  1  0.80235100  0.19764900  0.25000000  1
  Tm  Tm2  1  0.77737700  0.22262300  0.75000000  1
  Tm  Tm3  1  0.22262300  0.77737700  0.25000000  1
  W  W4  1  0.69943500  0.68738700  0.78390500  1
  W  W5  1  0.30056500  0.31261300  0.21609500  1
  W  W6  1  0.31261300  0.30056500  0.71609500  1
  W  W7  1  0.68738700  0.69943500  0.28390500  1
  O  O8  1  0.62037100  0.75001200  0.56462800  1
  O  O9  1  0.37962900  0.24998800  0.43537200  1
  O  O10  1  0.24998800  0.37962900  0.93537200  1
  O  O11  1  0.75001200  0.62037100  0.06462800  1
  O  O12  1  0.36787300  0.05791500  0.87958500  1
  O  O13  1  0.63212700  0.94208500  0.12041500  1
  O  O14  1  0.94208500  0.63212700  0.62041500  1
  O  O15  1  0.05791500  0.36787300  0.37958500  1
  O  O16  1  0.59256900  0.37179500  0.96142100  1
  O  O17  1  0.40743100  0.62820500  0.03857900  1
  O  O18  1  0.62820500  0.40743100  0.53857900  1
  O  O19  1  0.37179500  0.59256900  0.46142100  1
  O  O20  1  0.77841900  0.95174600  0.70256300  1
  O  O21  1  0.22158100  0.04825400  0.29743700  1
  O  O22  1  0.04825400  0.22158100  0.79743700  1
  O  O23  1  0.95174600  0.77841900  0.20256300  1
