# generated using pymatgen
data_Dy2Mn17C3
_symmetry_space_group_name_H-M   'P 1'
_cell_length_a   8.32382500
_cell_length_b   8.54717862
_cell_length_c   8.54717862
_cell_angle_alpha   120.00000484
_cell_angle_beta   90.00000000
_cell_angle_gamma   90.00000000
_symmetry_Int_Tables_number   1
_chemical_formula_structural   Dy2Mn17C3
_chemical_formula_sum   'Dy4 Mn34 C6'
_cell_volume   526.62213815
_cell_formula_units_Z   2
loop_
 _symmetry_equiv_pos_site_id
 _symmetry_equiv_pos_as_xyz
  1  'x, y, z'
loop_
 _atom_site_type_symbol
 _atom_site_label
 _atom_site_symmetry_multiplicity
 _atom_site_fract_x
 _atom_site_fract_y
 _atom_site_fract_z
 _atom_site_occupancy
  Dy  Dy0  1  0.75000000  0.66666700  0.33333300  1
  Dy  Dy1  1  0.25000000  0.33333300  0.66666700  1
  Dy  Dy2  1  0.75000000  0.00000000  0.00000000  1
  Dy  Dy3  1  0.25000000  0.00000000  0.00000000  1
  Mn  Mn4  1  0.75000000  0.61439300  0.67222700  1
  Mn  Mn5  1  0.25000000  0.38560700  0.32777300  1
  Mn  Mn6  1  0.75000000  0.05783400  0.38560700  1
  Mn  Mn7  1  0.25000000  0.94216600  0.32777300  1
  Mn  Mn8  1  0.25000000  0.94216600  0.61439300  1
  Mn  Mn9  1  0.75000000  0.05783400  0.67222700  1
  Mn  Mn10  1  0.75000000  0.32777300  0.94216600  1
  Mn  Mn11  1  0.25000000  0.67222700  0.61439300  1
  Mn  Mn12  1  0.25000000  0.67222700  0.05783400  1
  Mn  Mn13  1  0.75000000  0.32777300  0.38560700  1
  Mn  Mn14  1  0.25000000  0.38560700  0.05783400  1
  Mn  Mn15  1  0.75000000  0.61439300  0.94216600  1
  Mn  Mn16  1  0.38894900  0.66666700  0.33333300  1
  Mn  Mn17  1  0.61105100  0.33333300  0.66666700  1
  Mn  Mn18  1  0.88894900  0.33333300  0.66666700  1
  Mn  Mn19  1  0.11105100  0.66666700  0.33333300  1
  Mn  Mn20  1  0.97652000  0.82739700  0.17260300  1
  Mn  Mn21  1  0.02348000  0.17260300  0.82739700  1
  Mn  Mn22  1  0.97652000  0.34520700  0.17260300  1
  Mn  Mn23  1  0.47652000  0.17260300  0.82739700  1
  Mn  Mn24  1  0.02348000  0.65479300  0.82739700  1
  Mn  Mn25  1  0.52348000  0.82739700  0.17260300  1
  Mn  Mn26  1  0.97652000  0.82739700  0.65479300  1
  Mn  Mn27  1  0.47652000  0.65479300  0.82739700  1
  Mn  Mn28  1  0.02348000  0.17260300  0.34520700  1
  Mn  Mn29  1  0.52348000  0.34520700  0.17260300  1
  Mn  Mn30  1  0.47652000  0.17260300  0.34520700  1
  Mn  Mn31  1  0.52348000  0.82739700  0.65479300  1
  Mn  Mn32  1  0.00000000  0.50000000  0.50000000  1
  Mn  Mn33  1  0.00000000  0.00000000  0.50000000  1
  Mn  Mn34  1  0.50000000  0.50000000  0.50000000  1
  Mn  Mn35  1  0.00000000  0.50000000  0.00000000  1
  Mn  Mn36  1  0.50000000  0.00000000  0.50000000  1
  Mn  Mn37  1  0.50000000  0.50000000  0.00000000  1
  C  C38  1  0.75000000  0.83612700  0.16387300  1
  C  C39  1  0.25000000  0.16387300  0.83612700  1
  C  C40  1  0.75000000  0.32774600  0.16387300  1
  C  C41  1  0.25000000  0.67225400  0.83612700  1
  C  C42  1  0.75000000  0.83612700  0.67225400  1
  C  C43  1  0.25000000  0.16387300  0.32774600  1
