# generated using pymatgen
data_DyTlS2O9
_symmetry_space_group_name_H-M   'P 1'
_cell_length_a   8.52455600
_cell_length_b   10.48700602
_cell_length_c   10.17714607
_cell_angle_alpha   119.83337270
_cell_angle_beta   90.00000000
_cell_angle_gamma   90.00000000
_symmetry_Int_Tables_number   1
_chemical_formula_structural   DyTlS2O9
_chemical_formula_sum   'Dy4 Tl4 S8 O36'
_cell_volume   789.23562391
_cell_formula_units_Z   4
loop_
 _symmetry_equiv_pos_site_id
 _symmetry_equiv_pos_as_xyz
  1  'x, y, z'
loop_
 _atom_site_type_symbol
 _atom_site_label
 _atom_site_symmetry_multiplicity
 _atom_site_fract_x
 _atom_site_fract_y
 _atom_site_fract_z
 _atom_site_occupancy
  Dy  Dy0  1  0.36253500  0.96299400  0.71686400  1
  Dy  Dy1  1  0.63746500  0.03700600  0.28313600  1
  Dy  Dy2  1  0.86253500  0.53700600  0.78313600  1
  Dy  Dy3  1  0.13746500  0.46299400  0.21686400  1
  Tl  Tl4  1  0.33274300  0.68742700  0.96532200  1
  Tl  Tl5  1  0.66725700  0.31257300  0.03467800  1
  Tl  Tl6  1  0.83274300  0.81257300  0.53467800  1
  Tl  Tl7  1  0.16725700  0.18742700  0.46532200  1
  S  S8  1  0.12959900  0.31631100  0.87319900  1
  S  S9  1  0.87040100  0.68368900  0.12680100  1
  S  S10  1  0.62959900  0.18368900  0.62680100  1
  S  S11  1  0.37040100  0.81631100  0.37319900  1
  S  S12  1  0.19896300  0.60336600  0.59861800  1
  S  S13  1  0.80103700  0.39663400  0.40138200  1
  S  S14  1  0.69896300  0.89663400  0.90138200  1
  S  S15  1  0.30103700  0.10336600  0.09861800  1
  O  O16  1  0.78442500  0.03811100  0.96826400  1
  O  O17  1  0.21557500  0.96188900  0.03173600  1
  O  O18  1  0.28442500  0.46188900  0.53173600  1
  O  O19  1  0.71557500  0.53811100  0.46826400  1
  O  O20  1  0.20387400  0.17508200  0.76232200  1
  O  O21  1  0.79612600  0.82491800  0.23767800  1
  O  O22  1  0.70387400  0.32491800  0.73767800  1
  O  O23  1  0.29612600  0.67508200  0.26232200  1
  O  O24  1  0.30975700  0.72982500  0.67595300  1
  O  O25  1  0.69024300  0.27017500  0.32404700  1
  O  O26  1  0.80975700  0.77017500  0.82404700  1
  O  O27  1  0.19024300  0.22982500  0.17595300  1
  O  O28  1  0.38530700  0.11630200  0.97696200  1
  O  O29  1  0.61469300  0.88369800  0.02303800  1
  O  O30  1  0.88530700  0.38369800  0.52303800  1
  O  O31  1  0.11469300  0.61630200  0.47696200  1
  O  O32  1  0.09423800  0.94437400  0.76854600  1
  O  O33  1  0.90576200  0.05562600  0.23145400  1
  O  O34  1  0.59423800  0.55562600  0.73145400  1
  O  O35  1  0.40576200  0.44437400  0.26854600  1
  O  O36  1  0.25025800  0.42041000  0.98197600  1
  O  O37  1  0.74974200  0.57959000  0.01802400  1
  O  O38  1  0.75025800  0.07959000  0.51802400  1
  O  O39  1  0.24974200  0.92041000  0.48197600  1
  O  O40  1  0.01136300  0.29872400  0.97096600  1
  O  O41  1  0.98863700  0.70127600  0.02903400  1
  O  O42  1  0.51136300  0.20127600  0.52903400  1
  O  O43  1  0.48863700  0.79872400  0.47096600  1
  O  O44  1  0.05717800  0.38046400  0.78624600  1
  O  O45  1  0.94282200  0.61953600  0.21375400  1
  O  O46  1  0.55717800  0.11953600  0.71375400  1
  O  O47  1  0.44282200  0.88046400  0.28624600  1
  O  O48  1  0.58730400  0.88486600  0.78405100  1
  O  O49  1  0.41269600  0.11513400  0.21594900  1
  O  O50  1  0.08730400  0.61513400  0.71594900  1
  O  O51  1  0.91269600  0.38486600  0.28405100  1
