# generated using pymatgen
data_H30Ru2Pt(NCl)10
_symmetry_space_group_name_H-M   'P 1'
_cell_length_a   7.32796101
_cell_length_b   7.32796101
_cell_length_c   13.40568137
_cell_angle_alpha   82.62130266
_cell_angle_beta   82.62130266
_cell_angle_gamma   70.11970416
_symmetry_Int_Tables_number   1
_chemical_formula_structural   H30Ru2Pt(NCl)10
_chemical_formula_sum   'H30 Ru2 Pt1 N10 Cl10'
_cell_volume   668.58707689
_cell_formula_units_Z   1
loop_
 _symmetry_equiv_pos_site_id
 _symmetry_equiv_pos_as_xyz
  1  'x, y, z'
loop_
 _atom_site_type_symbol
 _atom_site_label
 _atom_site_symmetry_multiplicity
 _atom_site_fract_x
 _atom_site_fract_y
 _atom_site_fract_z
 _atom_site_occupancy
  H  H0  1  0.45266600  0.02981500  0.75560500  1
  H  H1  1  0.54733400  0.97018500  0.24439500  1
  H  H2  1  0.97018500  0.54733400  0.24439500  1
  H  H3  1  0.02981500  0.45266600  0.75560500  1
  H  H4  1  0.38543600  0.95097900  0.60738000  1
  H  H5  1  0.61456400  0.04902100  0.39262000  1
  H  H6  1  0.04902100  0.61456400  0.39262000  1
  H  H7  1  0.95097900  0.38543600  0.60738000  1
  H  H8  1  0.59521100  0.40077400  0.83609200  1
  H  H9  1  0.40478900  0.59922600  0.16390800  1
  H  H10  1  0.59922600  0.40478900  0.16390800  1
  H  H11  1  0.40077400  0.59521100  0.83609200  1
  H  H12  1  0.47799300  0.88223100  0.86041500  1
  H  H13  1  0.52200700  0.11776900  0.13958500  1
  H  H14  1  0.11776900  0.52200700  0.13958500  1
  H  H15  1  0.88223100  0.47799300  0.86041500  1
  H  H16  1  0.65742600  0.95947000  0.81014600  1
  H  H17  1  0.34257400  0.04053000  0.18985400  1
  H  H18  1  0.04053000  0.34257400  0.18985400  1
  H  H19  1  0.95947000  0.65742600  0.81014600  1
  H  H20  1  0.32180200  0.75299800  0.62774700  1
  H  H21  1  0.67819800  0.24700200  0.37225300  1
  H  H22  1  0.24700200  0.67819800  0.37225300  1
  H  H23  1  0.75299800  0.32180200  0.62774700  1
  H  H24  1  0.45015200  0.45015200  0.74308500  1
  H  H25  1  0.54984800  0.54984800  0.25691500  1
  H  H26  1  0.48329700  0.77294600  0.53309700  1
  H  H27  1  0.51670300  0.22705400  0.46690300  1
  H  H28  1  0.22705400  0.51670300  0.46690300  1
  H  H29  1  0.77294600  0.48329700  0.53309700  1
  Ru  Ru30  1  0.67486200  0.67486200  0.70035700  1
  Ru  Ru31  1  0.32513800  0.32513800  0.29964400  1
  Pt  Pt32  1  0.00000000  0.00000000  0.00000000  1
  N  N33  1  0.54962100  0.91197300  0.79249000  1
  N  N34  1  0.45037900  0.08802700  0.20751000  1
  N  N35  1  0.08802700  0.45037900  0.20751000  1
  N  N36  1  0.91197300  0.54962100  0.79249000  1
  N  N37  1  0.51221200  0.51221200  0.78931700  1
  N  N38  1  0.48778800  0.48778800  0.21068300  1
  N  N39  1  0.43810700  0.80189600  0.60736900  1
  N  N40  1  0.56189300  0.19810400  0.39263100  1
  N  N41  1  0.19810400  0.56189300  0.39263100  1
  N  N42  1  0.80189600  0.43810700  0.60736900  1
  Cl  Cl43  1  0.99878200  0.99878200  0.82436100  1
  Cl  Cl44  1  0.00121800  0.00121800  0.17563900  1
  Cl  Cl45  1  0.14837300  0.14837300  0.39974800  1
  Cl  Cl46  1  0.85162700  0.85162700  0.60025200  1
  Cl  Cl47  1  0.19847000  0.19847000  0.97466400  1
  Cl  Cl48  1  0.80153000  0.80153000  0.02533600  1
  Cl  Cl49  1  0.27747900  0.72252100  0.00000000  1
  Cl  Cl50  1  0.72252100  0.27747900  0.00000000  1
  Cl  Cl51  1  0.33052500  0.33052500  0.62904100  1
  Cl  Cl52  1  0.66947500  0.66947500  0.37095900  1
