# generated using pymatgen
data_Hg3RhF6
_symmetry_space_group_name_H-M   'P 1'
_cell_length_a   5.49019948
_cell_length_b   8.34477800
_cell_length_c   13.04368751
_cell_angle_alpha   79.96265799
_cell_angle_beta   86.78722054
_cell_angle_gamma   103.01544782
_symmetry_Int_Tables_number   1
_chemical_formula_structural   Hg3RhF6
_chemical_formula_sum   'Hg3 Rh1 F6'
_cell_volume   570.49065288
_cell_formula_units_Z   1
loop_
 _symmetry_equiv_pos_site_id
 _symmetry_equiv_pos_as_xyz
  1  'x, y, z'
loop_
 _atom_site_type_symbol
 _atom_site_label
 _atom_site_symmetry_multiplicity
 _atom_site_fract_x
 _atom_site_fract_y
 _atom_site_fract_z
 _atom_site_occupancy
  Hg  Hg0  1  0.00000000  0.00000000  0.50000000  1
  Hg  Hg1  1  0.50000000  0.50000000  0.00000000  1
  Hg  Hg2  1  0.00000000  0.50000000  0.00000000  1
  Rh  Rh3  1  0.00000000  0.00000000  0.00000000  1
  F  F4  1  0.92666700  0.20105900  0.92742200  1
  F  F5  1  0.07333300  0.79894100  0.07257800  1
  F  F6  1  0.94140900  0.95667400  0.65301700  1
  F  F7  1  0.05859100  0.04332600  0.34698300  1
  F  F8  1  0.70852700  0.86572000  0.95906700  1
  F  F9  1  0.29147300  0.13428000  0.04093300  1
