# generated using pymatgen
data_FeH12C4(N9O2)2
_symmetry_space_group_name_H-M   'P 1'
_cell_length_a   7.47290421
_cell_length_b   7.77749280
_cell_length_c   14.87641500
_cell_angle_alpha   90.00000000
_cell_angle_beta   90.00000000
_cell_angle_gamma   109.11855818
_symmetry_Int_Tables_number   1
_chemical_formula_structural   FeH12C4(N9O2)2
_chemical_formula_sum   'Fe2 H24 C8 N36 O8'
_cell_volume   816.93388702
_cell_formula_units_Z   2
loop_
 _symmetry_equiv_pos_site_id
 _symmetry_equiv_pos_as_xyz
  1  'x, y, z'
loop_
 _atom_site_type_symbol
 _atom_site_label
 _atom_site_symmetry_multiplicity
 _atom_site_fract_x
 _atom_site_fract_y
 _atom_site_fract_z
 _atom_site_occupancy
  Fe  Fe0  1  0.00000000  0.50000000  0.00000000  1
  Fe  Fe1  1  0.50000000  0.50000000  0.50000000  1
  H  H2  1  0.37182100  0.16880900  0.18302600  1
  H  H3  1  0.62817900  0.83119100  0.81697400  1
  H  H4  1  0.12817900  0.83119100  0.68302600  1
  H  H5  1  0.87182100  0.16880900  0.31697400  1
  H  H6  1  0.17997200  0.51486300  0.40293500  1
  H  H7  1  0.82002800  0.48513700  0.59706500  1
  H  H8  1  0.32002800  0.48513700  0.90293500  1
  H  H9  1  0.67997200  0.51486300  0.09706500  1
  H  H10  1  0.22013600  0.67383700  0.47449900  1
  H  H11  1  0.77986400  0.32616300  0.52550100  1
  H  H12  1  0.27986400  0.32616300  0.97449900  1
  H  H13  1  0.72013600  0.67383700  0.02550100  1
  H  H14  1  0.09452600  0.23773100  0.70703800  1
  H  H15  1  0.90547400  0.76226900  0.29296200  1
  H  H16  1  0.40547400  0.76226900  0.20703800  1
  H  H17  1  0.59452600  0.23773100  0.79296200  1
  H  H18  1  0.06087200  0.82237500  0.21507800  1
  H  H19  1  0.93912800  0.17762500  0.78492200  1
  H  H20  1  0.43912800  0.17762500  0.71507800  1
  H  H21  1  0.56087200  0.82237500  0.28492200  1
  H  H22  1  0.19239200  0.99684600  0.33345700  1
  H  H23  1  0.80760800  0.00315400  0.66654300  1
  H  H24  1  0.30760800  0.00315400  0.83345700  1
  H  H25  1  0.69239200  0.99684600  0.16654300  1
  C  C26  1  0.28428100  0.07834300  0.46312500  1
  C  C27  1  0.71571900  0.92165700  0.53687500  1
  C  C28  1  0.21571900  0.92165700  0.96312500  1
  C  C29  1  0.78428100  0.07834300  0.03687500  1
  C  C30  1  0.41141000  0.24531200  0.32785300  1
  C  C31  1  0.58859000  0.75468800  0.67214700  1
  C  C32  1  0.08859000  0.75468800  0.82785300  1
  C  C33  1  0.91141000  0.24531200  0.17214700  1
  N  N34  1  0.29176900  0.08461900  0.00306200  1
  N  N35  1  0.70823100  0.91538100  0.99693800  1
  N  N36  1  0.20823100  0.91538100  0.50306200  1
  N  N37  1  0.79176900  0.08461900  0.49693800  1
  N  N38  1  0.35003500  0.21283700  0.52373400  1
  N  N39  1  0.64996500  0.78716300  0.47626600  1
  N  N40  1  0.14996500  0.78716300  0.02373400  1
  N  N41  1  0.85003500  0.21283700  0.97626600  1
  N  N42  1  0.02824600  0.40051500  0.13585700  1
  N  N43  1  0.97175400  0.59948500  0.86414300  1
  N  N44  1  0.47175400  0.59948500  0.63585700  1
  N  N45  1  0.52824600  0.40051500  0.36414300  1
  N  N46  1  0.29015600  0.10075700  0.37092800  1
  N  N47  1  0.70984400  0.89924300  0.62907200  1
  N  N48  1  0.20984400  0.89924300  0.87092800  1
  N  N49  1  0.79015600  0.10075700  0.12907200  1
  N  N50  1  0.43814100  0.25652400  0.23764300  1
  N  N51  1  0.56185900  0.74347600  0.76235700  1
  N  N52  1  0.06185900  0.74347600  0.73764300  1
  N  N53  1  0.93814100  0.25652400  0.26235700  1
  N  N54  1  0.31345000  0.12943900  0.60418300  1
  N  N55  1  0.68655000  0.87056100  0.39581700  1
  N  N56  1  0.18655000  0.87056100  0.10418300  1
  N  N57  1  0.81345000  0.12943900  0.89581700  1
  N  N58  1  0.07310500  0.41769500  0.28082400  1
  N  N59  1  0.92689500  0.58230500  0.71917600  1
  N  N60  1  0.42689500  0.58230500  0.78082400  1
  N  N61  1  0.57310500  0.41769500  0.21917600  1
  N  N62  1  0.27151300  0.04506600  0.09158100  1
  N  N63  1  0.72848700  0.95493400  0.90841900  1
  N  N64  1  0.22848700  0.95493400  0.59158100  1
  N  N65  1  0.77151300  0.04506600  0.40841900  1
  N  N66  1  0.12715600  0.50156100  0.20542400  1
  N  N67  1  0.87284400  0.49843900  0.79457600  1
  N  N68  1  0.37284400  0.49843900  0.70542400  1
  N  N69  1  0.62715600  0.50156100  0.29457600  1
  O  O70  1  0.23982300  0.55585300  0.46158300  1
  O  O71  1  0.76017700  0.44414700  0.53841700  1
  O  O72  1  0.26017700  0.44414700  0.96158300  1
  O  O73  1  0.73982300  0.55585300  0.03841700  1
  O  O74  1  0.01568900  0.86140300  0.27171000  1
  O  O75  1  0.98431100  0.13859700  0.72829000  1
  O  O76  1  0.48431100  0.13859700  0.77171000  1
  O  O77  1  0.51568900  0.86140300  0.22829000  1
