# generated using pymatgen
data_Fe5(GeO4)3
_symmetry_space_group_name_H-M   'P 1'
_cell_length_a   10.80075113
_cell_length_b   10.80075113
_cell_length_c   10.80075113
_cell_angle_alpha   142.48755938
_cell_angle_beta   142.48755938
_cell_angle_gamma   54.09505385
_symmetry_Int_Tables_number   1
_chemical_formula_structural   Fe5(GeO4)3
_chemical_formula_sum   'Fe10 Ge6 O24'
_cell_volume   464.08245194
_cell_formula_units_Z   2
loop_
 _symmetry_equiv_pos_site_id
 _symmetry_equiv_pos_as_xyz
  1  'x, y, z'
loop_
 _atom_site_type_symbol
 _atom_site_label
 _atom_site_symmetry_multiplicity
 _atom_site_fract_x
 _atom_site_fract_y
 _atom_site_fract_z
 _atom_site_occupancy
  Fe  Fe0  1  0.11657100  0.12500000  0.49157100  1
  Fe  Fe1  1  0.63342900  0.62500000  0.50842900  1
  Fe  Fe2  1  0.87500000  0.36657100  0.99157100  1
  Fe  Fe3  1  0.37500000  0.88342900  0.00842900  1
  Fe  Fe4  1  0.97846000  0.47846000  0.50000000  1
  Fe  Fe5  1  0.52154000  0.02154000  0.50000000  1
  Fe  Fe6  1  0.77154000  0.77154000  0.00000000  1
  Fe  Fe7  1  0.22846000  0.22846000  0.00000000  1
  Fe  Fe8  1  0.25000000  0.75000000  0.50000000  1
  Fe  Fe9  1  0.50000000  0.50000000  0.00000000  1
  Ge  Ge10  1  0.53356500  0.12500000  0.90856500  1
  Ge  Ge11  1  0.21643500  0.62500000  0.09143500  1
  Ge  Ge12  1  0.87500000  0.78356500  0.40856500  1
  Ge  Ge13  1  0.37500000  0.46643500  0.59143500  1
  Ge  Ge14  1  0.75000000  0.25000000  0.50000000  1
  Ge  Ge15  1  0.00000000  0.00000000  0.00000000  1
  O  O16  1  0.17977600  0.38212500  0.26326000  1
  O  O17  1  0.11886500  0.91651500  0.73674000  1
  O  O18  1  0.61787500  0.88113500  0.79765100  1
  O  O19  1  0.57022400  0.33348500  0.70234900  1
  O  O20  1  0.08348500  0.82022400  0.20234900  1
  O  O21  1  0.63113500  0.86787500  0.29765100  1
  O  O22  1  0.13212500  0.42977600  0.76326000  1
  O  O23  1  0.66651500  0.36886500  0.23674000  1
  O  O24  1  0.85632800  0.08469200  0.34674700  1
  O  O25  1  0.73794600  0.50958100  0.65325300  1
  O  O26  1  0.91530800  0.26205400  0.77163500  1
  O  O27  1  0.89367200  0.74041900  0.72836500  1
  O  O28  1  0.49041900  0.14367200  0.22836500  1
  O  O29  1  0.01205400  0.16530800  0.27163500  1
  O  O30  1  0.83469200  0.10632800  0.84674700  1
  O  O31  1  0.25958100  0.98794600  0.15325300  1
  O  O32  1  0.28964400  0.07876400  0.75810900  1
  O  O33  1  0.32065400  0.53153400  0.24189100  1
  O  O34  1  0.92123600  0.67934600  0.21088000  1
  O  O35  1  0.46035600  0.71846600  0.28912000  1
  O  O36  1  0.46846600  0.71035600  0.78912000  1
  O  O37  1  0.42934600  0.17123600  0.71088000  1
  O  O38  1  0.82876400  0.53964400  0.25810900  1
  O  O39  1  0.28153400  0.57065400  0.74189100  1
