# generated using pymatgen
data_CsEu(MoO4)2
_symmetry_space_group_name_H-M   'P 1'
_cell_length_a   7.75212754
_cell_length_b   7.75212754
_cell_length_c   7.92330727
_cell_angle_alpha   62.08413618
_cell_angle_beta   62.08413618
_cell_angle_gamma   88.98400132
_symmetry_Int_Tables_number   1
_chemical_formula_structural   CsEu(MoO4)2
_chemical_formula_sum   'Cs2 Eu2 Mo4 O16'
_cell_volume   359.20013600
_cell_formula_units_Z   2
loop_
 _symmetry_equiv_pos_site_id
 _symmetry_equiv_pos_as_xyz
  1  'x, y, z'
loop_
 _atom_site_type_symbol
 _atom_site_label
 _atom_site_symmetry_multiplicity
 _atom_site_fract_x
 _atom_site_fract_y
 _atom_site_fract_z
 _atom_site_occupancy
  Cs  Cs0  1  0.19819600  0.80180400  0.75000000  1
  Cs  Cs1  1  0.80180400  0.19819600  0.25000000  1
  Eu  Eu2  1  0.76901400  0.23098600  0.75000000  1
  Eu  Eu3  1  0.23098600  0.76901400  0.25000000  1
  Mo  Mo4  1  0.69345400  0.69409900  0.76431300  1
  Mo  Mo5  1  0.30654600  0.30590100  0.23568700  1
  Mo  Mo6  1  0.30590100  0.30654600  0.73568700  1
  Mo  Mo7  1  0.69409900  0.69345400  0.26431300  1
  O  O8  1  0.61844000  0.75987700  0.56513500  1
  O  O9  1  0.38156000  0.24012300  0.43486500  1
  O  O10  1  0.24012300  0.38156000  0.93486500  1
  O  O11  1  0.75987700  0.61844000  0.06513500  1
  O  O12  1  0.38309400  0.07531600  0.86814400  1
  O  O13  1  0.61690600  0.92468400  0.13185600  1
  O  O14  1  0.92468400  0.61690600  0.63185600  1
  O  O15  1  0.07531600  0.38309400  0.36814400  1
  O  O16  1  0.57944700  0.37083100  0.97338400  1
  O  O17  1  0.42055300  0.62916900  0.02661600  1
  O  O18  1  0.62916900  0.42055300  0.52661600  1
  O  O19  1  0.37083100  0.57944700  0.47338400  1
  O  O20  1  0.79057000  0.94347200  0.69456600  1
  O  O21  1  0.20943000  0.05652800  0.30543400  1
  O  O22  1  0.05652800  0.20943000  0.80543400  1
  O  O23  1  0.94347200  0.79057000  0.19456600  1
