# generated using pymatgen
data_CuHg3As2Cl3
_symmetry_space_group_name_H-M   'P 1'
_cell_length_a   13.47838858
_cell_length_b   13.47838858
_cell_length_c   15.17102552
_cell_angle_alpha   58.13878275
_cell_angle_beta   58.13878275
_cell_angle_gamma   40.14200194
_symmetry_Int_Tables_number   1
_chemical_formula_structural   CuHg3As2Cl3
_chemical_formula_sum   'Cu6 Hg18 As12 Cl18'
_cell_volume   1469.66183805
_cell_formula_units_Z   6
loop_
 _symmetry_equiv_pos_site_id
 _symmetry_equiv_pos_as_xyz
  1  'x, y, z'
loop_
 _atom_site_type_symbol
 _atom_site_label
 _atom_site_symmetry_multiplicity
 _atom_site_fract_x
 _atom_site_fract_y
 _atom_site_fract_z
 _atom_site_occupancy
  Cu  Cu0  1  0.38970800  0.94999200  0.72704400  1
  Cu  Cu1  1  0.61029200  0.05000800  0.27295600  1
  Cu  Cu2  1  0.05000800  0.61029200  0.77295600  1
  Cu  Cu3  1  0.94999200  0.38970800  0.22704400  1
  Cu  Cu4  1  0.66974100  0.33025900  0.75000000  1
  Cu  Cu5  1  0.33025900  0.66974100  0.25000000  1
  Hg  Hg6  1  0.66748000  0.66198600  0.00323200  1
  Hg  Hg7  1  0.33252000  0.33801400  0.99676800  1
  Hg  Hg8  1  0.33801400  0.33252000  0.49676800  1
  Hg  Hg9  1  0.66198600  0.66748000  0.50323200  1
  Hg  Hg10  1  0.00000000  0.00000000  0.50000000  1
  Hg  Hg11  1  0.00000000  0.00000000  0.00000000  1
  Hg  Hg12  1  0.20324800  0.79675200  0.75000000  1
  Hg  Hg13  1  0.79675200  0.20324800  0.25000000  1
  Hg  Hg14  1  0.82667200  0.83399000  0.50252200  1
  Hg  Hg15  1  0.17332800  0.16601000  0.49747800  1
  Hg  Hg16  1  0.16601000  0.17332800  0.99747800  1
  Hg  Hg17  1  0.83399000  0.82667200  0.00252200  1
  Hg  Hg18  1  0.54118400  0.12196600  0.74938900  1
  Hg  Hg19  1  0.45881600  0.87803400  0.25061100  1
  Hg  Hg20  1  0.87803400  0.45881600  0.75061100  1
  Hg  Hg21  1  0.12196600  0.54118400  0.24938900  1
  Hg  Hg22  1  0.50000000  0.50000000  0.50000000  1
  Hg  Hg23  1  0.50000000  0.50000000  0.00000000  1
  As  As24  1  0.54310500  0.25605100  0.55243900  1
  As  As25  1  0.45689500  0.74394900  0.44756100  1
  As  As26  1  0.74394900  0.45689500  0.94756100  1
  As  As27  1  0.25605100  0.54310500  0.05243900  1
  As  As28  1  0.41047000  0.12851800  0.94586000  1
  As  As29  1  0.58953000  0.87148200  0.05414000  1
  As  As30  1  0.87148200  0.58953000  0.55414000  1
  As  As31  1  0.12851800  0.41047000  0.44586000  1
  As  As32  1  0.19989700  0.93301000  0.55253300  1
  As  As33  1  0.80010300  0.06699000  0.44746700  1
  As  As34  1  0.06699000  0.80010300  0.94746700  1
  As  As35  1  0.93301000  0.19989700  0.05253300  1
  Cl  Cl36  1  0.59279400  0.86260800  0.75477900  1
  Cl  Cl37  1  0.40720600  0.13739200  0.24522100  1
  Cl  Cl38  1  0.13739200  0.40720600  0.74522100  1
  Cl  Cl39  1  0.86260800  0.59279400  0.25477900  1
  Cl  Cl40  1  0.49827000  0.65629000  0.75042100  1
  Cl  Cl41  1  0.50173000  0.34371000  0.24957900  1
  Cl  Cl42  1  0.34371000  0.50173000  0.74957900  1
  Cl  Cl43  1  0.65629000  0.49827000  0.25042100  1
  Cl  Cl44  1  0.50000000  0.00000000  0.50000000  1
  Cl  Cl45  1  0.00000000  0.50000000  0.00000000  1
  Cl  Cl46  1  0.67669900  0.21504100  0.91514000  1
  Cl  Cl47  1  0.32330100  0.78495900  0.08486000  1
  Cl  Cl48  1  0.78495900  0.32330100  0.58486000  1
  Cl  Cl49  1  0.21504100  0.67669900  0.41514000  1
  Cl  Cl50  1  0.89504200  0.86261200  0.75417400  1
  Cl  Cl51  1  0.10495800  0.13738800  0.24582600  1
  Cl  Cl52  1  0.13738800  0.10495800  0.74582600  1
  Cl  Cl53  1  0.86261200  0.89504200  0.25417400  1
