# generated using pymatgen
data_FePO6
_symmetry_space_group_name_H-M   'P 1'
_cell_length_a   9.60257300
_cell_length_b   9.60327600
_cell_length_c   10.62237700
_cell_angle_alpha   90.00000000
_cell_angle_beta   90.00000000
_cell_angle_gamma   90.00000000
_symmetry_Int_Tables_number   1
_chemical_formula_structural   FePO6
_chemical_formula_sum   'Fe8 P8 O48'
_cell_volume   979.55480458
_cell_formula_units_Z   8
loop_
 _symmetry_equiv_pos_site_id
 _symmetry_equiv_pos_as_xyz
  1  'x, y, z'
loop_
 _atom_site_type_symbol
 _atom_site_label
 _atom_site_symmetry_multiplicity
 _atom_site_fract_x
 _atom_site_fract_y
 _atom_site_fract_z
 _atom_site_occupancy
  Fe  Fe0  1  0.80112600  0.58463500  0.11426000  1
  Fe  Fe1  1  0.19887400  0.41536500  0.88574000  1
  Fe  Fe2  1  0.19887400  0.91536500  0.61426000  1
  Fe  Fe3  1  0.30112600  0.41536500  0.38574000  1
  Fe  Fe4  1  0.80112600  0.08463500  0.38574000  1
  Fe  Fe5  1  0.69887400  0.58463500  0.61426000  1
  Fe  Fe6  1  0.69887400  0.08463500  0.88574000  1
  Fe  Fe7  1  0.30112600  0.91536500  0.11426000  1
  P  P8  1  0.65849200  0.91051800  0.14605700  1
  P  P9  1  0.34150800  0.08948200  0.85394300  1
  P  P10  1  0.34150800  0.58948200  0.64605700  1
  P  P11  1  0.15849200  0.08948200  0.35394300  1
  P  P12  1  0.65849200  0.41051800  0.35394300  1
  P  P13  1  0.84150800  0.91051800  0.64605700  1
  P  P14  1  0.84150800  0.41051800  0.85394300  1
  P  P15  1  0.15849200  0.58948200  0.14605700  1
  O  O16  1  0.99807300  0.59027300  0.13479000  1
  O  O17  1  0.00192700  0.40972700  0.86521000  1
  O  O18  1  0.00192700  0.90972700  0.63479000  1
  O  O19  1  0.49807300  0.40972700  0.36521000  1
  O  O20  1  0.99807300  0.09027300  0.36521000  1
  O  O21  1  0.50192700  0.59027300  0.63479000  1
  O  O22  1  0.50192700  0.09027300  0.86521000  1
  O  O23  1  0.49807300  0.90972700  0.13479000  1
  O  O24  1  0.71548700  0.76273800  0.12010900  1
  O  O25  1  0.28451300  0.23726200  0.87989100  1
  O  O26  1  0.28451300  0.73726200  0.62010900  1
  O  O27  1  0.21548700  0.23726200  0.37989100  1
  O  O28  1  0.71548700  0.26273800  0.37989100  1
  O  O29  1  0.78451300  0.76273800  0.62010900  1
  O  O30  1  0.78451300  0.26273800  0.87989100  1
  O  O31  1  0.21548700  0.73726200  0.12010900  1
  O  O32  1  0.71984200  0.51556700  0.44970700  1
  O  O33  1  0.28015800  0.48443300  0.55029300  1
  O  O34  1  0.28015800  0.98443300  0.94970700  1
  O  O35  1  0.21984200  0.48443300  0.05029300  1
  O  O36  1  0.71984200  0.01556700  0.05029300  1
  O  O37  1  0.78015800  0.51556700  0.94970700  1
  O  O38  1  0.78015800  0.01556700  0.55029300  1
  O  O39  1  0.21984200  0.98443300  0.44970700  1
  O  O40  1  0.96997400  0.88965400  0.16586900  1
  O  O41  1  0.03002600  0.11034600  0.83413100  1
  O  O42  1  0.03002600  0.61034600  0.66586900  1
  O  O43  1  0.46997400  0.11034600  0.33413100  1
  O  O44  1  0.96997400  0.38965400  0.33413100  1
  O  O45  1  0.53002600  0.88965400  0.66586900  1
  O  O46  1  0.53002600  0.38965400  0.83413100  1
  O  O47  1  0.46997400  0.61034600  0.16586900  1
  O  O48  1  0.96438000  0.82990400  0.26835400  1
  O  O49  1  0.03562000  0.17009600  0.73164600  1
  O  O50  1  0.03562000  0.67009600  0.76835400  1
  O  O51  1  0.46438000  0.17009600  0.23164600  1
  O  O52  1  0.96438000  0.32990400  0.23164600  1
  O  O53  1  0.53562000  0.82990400  0.76835400  1
  O  O54  1  0.53562000  0.32990400  0.73164600  1
  O  O55  1  0.46438000  0.67009600  0.26835400  1
  O  O56  1  0.70337200  0.95808500  0.27942100  1
  O  O57  1  0.29662800  0.04191500  0.72057900  1
  O  O58  1  0.29662800  0.54191500  0.77942100  1
  O  O59  1  0.20337200  0.04191500  0.22057900  1
  O  O60  1  0.70337200  0.45808500  0.22057900  1
  O  O61  1  0.79662800  0.95808500  0.77942100  1
  O  O62  1  0.79662800  0.45808500  0.72057900  1
  O  O63  1  0.20337200  0.54191500  0.27942100  1
