# generated using pymatgen
data_FeS2(NO7)2
_symmetry_space_group_name_H-M   'P 1'
_cell_length_a   12.44940600
_cell_length_b   6.23248300
_cell_length_c   9.75202267
_cell_angle_alpha   67.38601575
_cell_angle_beta   90.00000000
_cell_angle_gamma   90.00000000
_symmetry_Int_Tables_number   1
_chemical_formula_structural   FeS2(NO7)2
_chemical_formula_sum   'Fe2 S4 N4 O28'
_cell_volume   698.49113558
_cell_formula_units_Z   2
loop_
 _symmetry_equiv_pos_site_id
 _symmetry_equiv_pos_as_xyz
  1  'x, y, z'
loop_
 _atom_site_type_symbol
 _atom_site_label
 _atom_site_symmetry_multiplicity
 _atom_site_fract_x
 _atom_site_fract_y
 _atom_site_fract_z
 _atom_site_occupancy
  Fe  Fe0  1  0.50000000  0.50000000  0.50000000  1
  Fe  Fe1  1  0.00000000  0.50000000  0.00000000  1
  S  S2  1  0.39415700  0.70830700  0.92355500  1
  S  S3  1  0.60584300  0.29169300  0.07644500  1
  S  S4  1  0.89415700  0.29169300  0.57644500  1
  S  S5  1  0.10584300  0.70830700  0.42355500  1
  N  N6  1  0.71353100  0.89464700  0.79825900  1
  N  N7  1  0.28646900  0.10535300  0.20174100  1
  N  N8  1  0.21353100  0.10535300  0.70174100  1
  N  N9  1  0.78646900  0.89464700  0.29825900  1
  O  O10  1  0.09897700  0.42232500  0.89221400  1
  O  O11  1  0.90102300  0.57767500  0.10778600  1
  O  O12  1  0.59897700  0.57767500  0.60778600  1
  O  O13  1  0.40102300  0.42232500  0.39221400  1
  O  O14  1  0.39545200  0.37340700  0.63591800  1
  O  O15  1  0.60454800  0.62659300  0.36408200  1
  O  O16  1  0.89545200  0.62659300  0.86408200  1
  O  O17  1  0.10454800  0.37340700  0.13591800  1
  O  O18  1  0.33861300  0.50261500  0.92953600  1
  O  O19  1  0.66138700  0.49738500  0.07046400  1
  O  O20  1  0.83861300  0.49738500  0.57046400  1
  O  O21  1  0.16138700  0.50261500  0.42953600  1
  O  O22  1  0.44352600  0.85961000  0.78777700  1
  O  O23  1  0.55647400  0.14039000  0.21222300  1
  O  O24  1  0.94352600  0.14039000  0.71222300  1
  O  O25  1  0.05647400  0.85961000  0.28777700  1
  O  O26  1  0.09820600  0.75925600  0.55513900  1
  O  O27  1  0.90179400  0.24074400  0.44486100  1
  O  O28  1  0.59820600  0.24074400  0.94486100  1
  O  O29  1  0.40179400  0.75925600  0.05513900  1
  O  O30  1  0.21087000  0.02935600  0.82746700  1
  O  O31  1  0.78913000  0.97064400  0.17253300  1
  O  O32  1  0.71087000  0.97064400  0.67253300  1
  O  O33  1  0.28913000  0.02935600  0.32746700  1
  O  O34  1  0.44087700  0.75325400  0.51609500  1
  O  O35  1  0.55912300  0.24674600  0.48390500  1
  O  O36  1  0.94087700  0.24674600  0.98390500  1
  O  O37  1  0.05912300  0.75325400  0.01609500  1
