# generated using pymatgen
data_Na16Zn11Sn16
_symmetry_space_group_name_H-M   'P 1'
_cell_length_a   16.14366376
_cell_length_b   18.90480685
_cell_length_c   18.90480685
_cell_angle_alpha   60.98474935
_cell_angle_beta   64.72442231
_cell_angle_gamma   64.72442231
_symmetry_Int_Tables_number   1
_chemical_formula_structural   Na16Zn11Sn16
_chemical_formula_sum   'Na64 Zn44 Sn64'
_cell_volume   4382.53073553
_cell_formula_units_Z   4
loop_
 _symmetry_equiv_pos_site_id
 _symmetry_equiv_pos_as_xyz
  1  'x, y, z'
loop_
 _atom_site_type_symbol
 _atom_site_label
 _atom_site_symmetry_multiplicity
 _atom_site_fract_x
 _atom_site_fract_y
 _atom_site_fract_z
 _atom_site_occupancy
  Na  Na0  1  0.44022300  0.03703891  0.73738266  1
  Na  Na1  1  0.55977700  0.96296109  0.26261734  1
  Na  Na2  1  0.55977700  0.26261734  0.96296109  1
  Na  Na3  1  0.78535543  0.23738266  0.53703891  1
  Na  Na4  1  0.44022300  0.73738266  0.03703891  1
  Na  Na5  1  0.21464457  0.76261734  0.46296109  1
  Na  Na6  1  0.21464457  0.46296109  0.76261734  1
  Na  Na7  1  0.78535543  0.53703891  0.23738266  1
  Na  Na8  1  0.74329709  0.55888103  0.55888103  1
  Na  Na9  1  0.25670291  0.44111897  0.44111897  1
  Na  Na10  1  0.13894085  0.05888103  0.05888103  1
  Na  Na11  1  0.86105915  0.94111897  0.94111897  1
  Na  Na12  1  0.14575326  0.86991290  0.86991290  1
  Na  Na13  1  0.85424674  0.13008710  0.13008710  1
  Na  Na14  1  0.11442094  0.36991290  0.36991290  1
  Na  Na15  1  0.88557906  0.63008710  0.63008710  1
  Na  Na16  1  0.15771395  0.24041551  0.60159239  1
  Na  Na17  1  0.84228605  0.75958449  0.39840761  1
  Na  Na18  1  0.84228605  0.39840761  0.75958449  1
  Na  Na19  1  0.00027815  0.10159239  0.74041551  1
  Na  Na20  1  0.15771395  0.60159239  0.24041551  1
  Na  Na21  1  0.99972185  0.89840761  0.25958449  1
  Na  Na22  1  0.99972185  0.25958449  0.89840761  1
  Na  Na23  1  0.00027815  0.74041551  0.10159239  1
  Na  Na24  1  0.33674312  0.76703450  0.57630341  1
  Na  Na25  1  0.66325688  0.23296550  0.42369659  1
  Na  Na26  1  0.66325688  0.42369659  0.23296550  1
  Na  Na27  1  0.31991897  0.07630341  0.26703450  1
  Na  Na28  1  0.33674312  0.57630341  0.76703450  1
  Na  Na29  1  0.68008103  0.92369659  0.73296550  1
  Na  Na30  1  0.68008103  0.73296550  0.92369659  1
  Na  Na31  1  0.31991897  0.26703450  0.07630341  1
  Na  Na32  1  0.58537730  0.76060900  0.44630495  1
  Na  Na33  1  0.41462270  0.23939100  0.55369505  1
  Na  Na34  1  0.41462270  0.55369505  0.23939100  1
  Na  Na35  1  0.20770875  0.94630495  0.26060900  1
  Na  Na36  1  0.58537730  0.44630495  0.76060900  1
  Na  Na37  1  0.79229125  0.05369505  0.73939100  1
  Na  Na38  1  0.79229125  0.73939100  0.05369505  1
  Na  Na39  1  0.20770875  0.26060900  0.94630495  1
  Na  Na40  1  0.21441851  0.94279066  0.63812418  1
  Na  Na41  1  0.78558149  0.05720934  0.36187582  1
  Na  Na42  1  0.78558149  0.36187582  0.05720934  1
  Na  Na43  1  0.20466665  0.13812418  0.44279066  1
  Na  Na44  1  0.21441851  0.63812418  0.94279066  1
  Na  Na45  1  0.79533335  0.86187582  0.55720934  1
  Na  Na46  1  0.79533335  0.55720934  0.86187582  1
  Na  Na47  1  0.20466665  0.44279066  0.13812418  1
  Na  Na48  1  0.39455652  0.25000000  0.75000000  1
  Na  Na49  1  0.60544348  0.75000000  0.25000000  1
  Na  Na50  1  0.60544348  0.25000000  0.75000000  1
  Na  Na51  1  0.39455652  0.75000000  0.25000000  1
  Na  Na52  1  0.30192242  0.92127698  0.92127698  1
  Na  Na53  1  0.69807758  0.07872302  0.07872302  1
  Na  Na54  1  0.85552362  0.42127698  0.42127698  1
  Na  Na55  1  0.14447638  0.57872302  0.57872302  1
  Na  Na56  1  0.39343903  0.05117752  0.55714625  1
  Na  Na57  1  0.60656097  0.94882248  0.44285375  1
  Na  Na58  1  0.60656097  0.44285375  0.94882248  1
  Na  Na59  1  0.99823721  0.05714625  0.55117752  1
  Na  Na60  1  0.39343903  0.55714625  0.05117752  1
  Na  Na61  1  0.00176279  0.94285375  0.44882248  1
  Na  Na62  1  0.00176279  0.44882248  0.94285375  1
  Na  Na63  1  0.99823721  0.55117752  0.05714625  1
  Zn  Zn64  1  0.37400974  0.89591361  0.74107971  1
  Zn  Zn65  1  0.62599026  0.10408639  0.25892029  1
  Zn  Zn66  1  0.62599026  0.25892029  0.10408639  1
  Zn  Zn67  1  0.98899694  0.24107971  0.39591361  1
  Zn  Zn68  1  0.37400974  0.74107971  0.89591361  1
  Zn  Zn69  1  0.01100306  0.75892029  0.60408639  1
  Zn  Zn70  1  0.01100306  0.60408639  0.75892029  1
  Zn  Zn71  1  0.98899694  0.39591361  0.24107971  1
  Zn  Zn72  1  0.49766929  0.91755580  0.91755580  1
  Zn  Zn73  1  0.50233071  0.08244420  0.08244420  1
  Zn  Zn74  1  0.66721911  0.41755580  0.41755580  1
  Zn  Zn75  1  0.33278089  0.58244420  0.58244420  1
  Zn  Zn76  1  0.67448820  0.74193170  0.74193170  1
  Zn  Zn77  1  0.32551180  0.25806830  0.25806830  1
  Zn  Zn78  1  0.84164840  0.24193170  0.24193170  1
  Zn  Zn79  1  0.15835160  0.75806830  0.75806830  1
  Zn  Zn80  1  0.50931827  0.67087252  0.67087252  1
  Zn  Zn81  1  0.49068173  0.32912748  0.32912748  1
  Zn  Zn82  1  0.14893670  0.17087252  0.17087252  1
  Zn  Zn83  1  0.85106330  0.82912748  0.82912748  1
  Zn  Zn84  1  0.55576087  0.89273869  0.64822472  1
  Zn  Zn85  1  0.44423913  0.10726131  0.35177528  1
  Zn  Zn86  1  0.44423913  0.35177528  0.10726131  1
  Zn  Zn87  1  0.90327572  0.14822472  0.39273869  1
  Zn  Zn88  1  0.55576087  0.64822472  0.89273869  1
  Zn  Zn89  1  0.09672428  0.85177528  0.60726131  1
  Zn  Zn90  1  0.09672428  0.60726131  0.85177528  1
  Zn  Zn91  1  0.90327572  0.39273869  0.14822472  1
  Zn  Zn92  1  0.45487219  0.84842436  0.60620991  1
  Zn  Zn93  1  0.54512781  0.15157564  0.39379009  1
  Zn  Zn94  1  0.54512781  0.39379009  0.15157564  1
  Zn  Zn95  1  0.09049354  0.10620991  0.34842436  1
  Zn  Zn96  1  0.45487219  0.60620991  0.84842436  1
  Zn  Zn97  1  0.90950646  0.89379009  0.65157564  1
  Zn  Zn98  1  0.90950646  0.65157564  0.89379009  1
  Zn  Zn99  1  0.09049354  0.34842436  0.10620991  1
  Zn  Zn100  1  0.35843587  0.06369783  0.92234154  1
  Zn  Zn101  1  0.64156413  0.93630217  0.07765846  1
  Zn  Zn102  1  0.64156413  0.07765846  0.93630217  1
  Zn  Zn103  1  0.65552477  0.42234154  0.56369783  1
  Zn  Zn104  1  0.35843587  0.92234154  0.06369783  1
  Zn  Zn105  1  0.34447523  0.57765846  0.43630217  1
  Zn  Zn106  1  0.34447523  0.43630217  0.57765846  1
  Zn  Zn107  1  0.65552477  0.56369783  0.42234154  1
  Sn  Sn108  1  0.10290974  0.05595692  0.89736143  1
  Sn  Sn109  1  0.89709026  0.94404308  0.10263857  1
  Sn  Sn110  1  0.89709026  0.10263857  0.94404308  1
  Sn  Sn111  1  0.94377192  0.39736143  0.55595692  1
  Sn  Sn112  1  0.10290974  0.89736143  0.05595692  1
  Sn  Sn113  1  0.05622808  0.60263857  0.44404308  1
  Sn  Sn114  1  0.05622808  0.44404308  0.60263857  1
  Sn  Sn115  1  0.94377192  0.55595692  0.39736143  1
  Sn  Sn116  1  0.39212542  0.95472141  0.45515122  1
  Sn  Sn117  1  0.60787458  0.04527859  0.54484878  1
  Sn  Sn118  1  0.60787458  0.54484878  0.04527859  1
  Sn  Sn119  1  0.19800195  0.95515122  0.45472141  1
  Sn  Sn120  1  0.39212542  0.45515122  0.95472141  1
  Sn  Sn121  1  0.80199805  0.04484878  0.54527859  1
  Sn  Sn122  1  0.80199805  0.54527859  0.04484878  1
  Sn  Sn123  1  0.19800195  0.45472141  0.95515122  1
  Sn  Sn124  1  0.38843597  0.86156403  0.36156403  1
  Sn  Sn125  1  0.61156403  0.13843597  0.63843597  1
  Sn  Sn126  1  0.61156403  0.63843597  0.13843597  1
  Sn  Sn127  1  0.38843597  0.36156403  0.86156403  1
  Sn  Sn128  1  0.45137298  0.67365862  0.43285707  1
  Sn  Sn129  1  0.54862702  0.32634138  0.56714293  1
  Sn  Sn130  1  0.54862702  0.56714293  0.32634138  1
  Sn  Sn131  1  0.44211134  0.93285707  0.17365862  1
  Sn  Sn132  1  0.45137298  0.43285707  0.67365862  1
  Sn  Sn133  1  0.55788866  0.06714293  0.82634138  1
  Sn  Sn134  1  0.55788866  0.82634138  0.06714293  1
  Sn  Sn135  1  0.44211134  0.17365862  0.93285707  1
  Sn  Sn136  1  0.50996313  0.82949595  0.82949595  1
  Sn  Sn137  1  0.49003687  0.17050405  0.17050405  1
  Sn  Sn138  1  0.83104496  0.32949595  0.32949595  1
  Sn  Sn139  1  0.16895504  0.67050405  0.67050405  1
  Sn  Sn140  1  0.52238731  0.58275483  0.58275483  1
  Sn  Sn141  1  0.47761269  0.41724517  0.41724517  1
  Sn  Sn142  1  0.31210303  0.08275483  0.08275483  1
  Sn  Sn143  1  0.68789697  0.91724517  0.91724517  1
  Sn  Sn144  1  0.33648110  0.75589609  0.75589609  1
  Sn  Sn145  1  0.66351890  0.24410391  0.24410391  1
  Sn  Sn146  1  0.15172672  0.25589609  0.25589609  1
  Sn  Sn147  1  0.84827328  0.74410391  0.74410391  1
  Sn  Sn148  1  0.23547911  0.15747374  0.81554844  1
  Sn  Sn149  1  0.76452089  0.84252626  0.18445156  1
  Sn  Sn150  1  0.76452089  0.18445156  0.84252626  1
  Sn  Sn151  1  0.79149872  0.31554844  0.65747374  1
  Sn  Sn152  1  0.23547911  0.81554844  0.15747374  1
  Sn  Sn153  1  0.20850128  0.68445156  0.34252626  1
  Sn  Sn154  1  0.20850128  0.34252626  0.68445156  1
  Sn  Sn155  1  0.79149872  0.65747374  0.31554844  1
  Sn  Sn156  1  0.23297156  0.05003582  0.73056261  1
  Sn  Sn157  1  0.76702844  0.94996418  0.26943739  1
  Sn  Sn158  1  0.76702844  0.26943739  0.94996418  1
  Sn  Sn159  1  0.98643001  0.23056261  0.55003582  1
  Sn  Sn160  1  0.23297156  0.73056261  0.05003582  1
  Sn  Sn161  1  0.01356999  0.76943739  0.44996418  1
  Sn  Sn162  1  0.01356999  0.44996418  0.76943739  1
  Sn  Sn163  1  0.98643001  0.55003582  0.23056261  1
  Sn  Sn164  1  0.65663057  0.75216656  0.59013557  1
  Sn  Sn165  1  0.34336943  0.24783344  0.40986443  1
  Sn  Sn166  1  0.34336943  0.40986443  0.24783344  1
  Sn  Sn167  1  0.00106730  0.09013557  0.25216656  1
  Sn  Sn168  1  0.65663057  0.59013557  0.75216656  1
  Sn  Sn169  1  0.99893270  0.90986443  0.74783344  1
  Sn  Sn170  1  0.99893270  0.74783344  0.90986443  1
  Sn  Sn171  1  0.00106730  0.25216656  0.09013557  1
