# generated using pymatgen
data_EuTlS2O9
_symmetry_space_group_name_H-M   'P 1'
_cell_length_a   8.86357700
_cell_length_b   10.43460800
_cell_length_c   10.55169697
_cell_angle_alpha   60.62238318
_cell_angle_beta   90.00000000
_cell_angle_gamma   90.00000000
_symmetry_Int_Tables_number   1
_chemical_formula_structural   EuTlS2O9
_chemical_formula_sum   'Eu4 Tl4 S8 O36'
_cell_volume   850.40886362
_cell_formula_units_Z   4
loop_
 _symmetry_equiv_pos_site_id
 _symmetry_equiv_pos_as_xyz
  1  'x, y, z'
loop_
 _atom_site_type_symbol
 _atom_site_label
 _atom_site_symmetry_multiplicity
 _atom_site_fract_x
 _atom_site_fract_y
 _atom_site_fract_z
 _atom_site_occupancy
  Eu  Eu0  1  0.36731900  0.75583800  0.96086100  1
  Eu  Eu1  1  0.63268100  0.24416200  0.03913900  1
  Eu  Eu2  1  0.86731900  0.24416200  0.53913900  1
  Eu  Eu3  1  0.13268100  0.75583800  0.46086100  1
  Tl  Tl4  1  0.32102400  0.28289500  0.69176800  1
  Tl  Tl5  1  0.67897600  0.71710500  0.30823200  1
  Tl  Tl6  1  0.82102300  0.71710500  0.80823200  1
  Tl  Tl7  1  0.17897600  0.28289500  0.19176800  1
  S  S8  1  0.13207500  0.55465400  0.31775600  1
  S  S9  1  0.86792500  0.44534600  0.68224400  1
  S  S10  1  0.63207500  0.44534600  0.18224400  1
  S  S11  1  0.36792500  0.55465400  0.81775600  1
  S  S12  1  0.19929100  0.99667400  0.60235300  1
  S  S13  1  0.80070900  0.00332600  0.39764700  1
  S  S14  1  0.69929100  0.00332600  0.89764700  1
  S  S15  1  0.30070900  0.99667400  0.10235300  1
  O  O16  1  0.77730900  0.92594900  0.03901500  1
  O  O17  1  0.22269100  0.07405100  0.96098500  1
  O  O18  1  0.27730900  0.07405100  0.46098500  1
  O  O19  1  0.72269100  0.92594900  0.53901500  1
  O  O20  1  0.20322300  0.58670800  0.17808700  1
  O  O21  1  0.79677700  0.41329200  0.82191300  1
  O  O22  1  0.70322300  0.41329200  0.32191300  1
  O  O23  1  0.29677700  0.58670800  0.67808700  1
  O  O24  1  0.30990600  0.95124800  0.72286300  1
  O  O25  1  0.69009400  0.04875200  0.27713700  1
  O  O26  1  0.80990600  0.04875200  0.77713700  1
  O  O27  1  0.19009400  0.95124800  0.22286300  1
  O  O28  1  0.37966200  0.86380800  0.11731100  1
  O  O29  1  0.62033800  0.13619200  0.88268900  1
  O  O30  1  0.87966200  0.13619200  0.38268900  1
  O  O31  1  0.12033800  0.86380800  0.61731100  1
  O  O32  1  0.08805400  0.82207300  0.94779000  1
  O  O33  1  0.91194600  0.17792700  0.05221000  1
  O  O34  1  0.58805400  0.17792700  0.55221000  1
  O  O35  1  0.41194600  0.82207300  0.44779000  1
  O  O36  1  0.24674600  0.55559600  0.42159200  1
  O  O37  1  0.75325400  0.44440400  0.57840800  1
  O  O38  1  0.74674600  0.44440400  0.07840800  1
  O  O39  1  0.25325400  0.55559600  0.92159200  1
  O  O40  1  0.01846200  0.66785700  0.29886900  1
  O  O41  1  0.98153800  0.33214300  0.70113100  1
  O  O42  1  0.51846200  0.33214300  0.20113100  1
  O  O43  1  0.48153800  0.66785700  0.79886900  1
  O  O44  1  0.06082000  0.40704200  0.37998700  1
  O  O45  1  0.93918000  0.59295800  0.62001300  1
  O  O46  1  0.56082000  0.59295800  0.12001300  1
  O  O47  1  0.43918000  0.40704200  0.87998700  1
  O  O48  1  0.58840600  0.90493900  0.88272100  1
  O  O49  1  0.41159400  0.09506100  0.11727900  1
  O  O50  1  0.08840600  0.09506100  0.61727900  1
  O  O51  1  0.91159400  0.90493900  0.38272100  1
