# generated using pymatgen
data_Eu4PdO7
_symmetry_space_group_name_H-M   'P 1'
_cell_length_a   6.89690219
_cell_length_b   7.21165481
_cell_length_c   7.97473053
_cell_angle_alpha   70.50084226
_cell_angle_beta   72.16660194
_cell_angle_gamma   83.85722308
_symmetry_Int_Tables_number   1
_chemical_formula_structural   Eu4PdO7
_chemical_formula_sum   'Eu8 Pd2 O14'
_cell_volume   355.92809644
_cell_formula_units_Z   2
loop_
 _symmetry_equiv_pos_site_id
 _symmetry_equiv_pos_as_xyz
  1  'x, y, z'
loop_
 _atom_site_type_symbol
 _atom_site_label
 _atom_site_symmetry_multiplicity
 _atom_site_fract_x
 _atom_site_fract_y
 _atom_site_fract_z
 _atom_site_occupancy
  Eu  Eu0  1  0.78425800  0.38299400  0.20925500  1
  Eu  Eu1  1  0.21574200  0.61700600  0.79074500  1
  Eu  Eu2  1  0.35729900  0.14772500  0.13951700  1
  Eu  Eu3  1  0.64270100  0.85227500  0.86048300  1
  Eu  Eu4  1  0.20732800  0.60522300  0.27838300  1
  Eu  Eu5  1  0.79267200  0.39477700  0.72161700  1
  Eu  Eu6  1  0.33938700  0.16886300  0.61955300  1
  Eu  Eu7  1  0.66061300  0.83113700  0.38044700  1
  Pd  Pd8  1  0.00000000  0.00000000  0.00000000  1
  Pd  Pd9  1  0.00000000  0.00000000  0.50000000  1
  O  O10  1  0.70612800  0.07941200  0.51176500  1
  O  O11  1  0.29387200  0.92058800  0.48823500  1
  O  O12  1  0.14380000  0.41769500  0.10086400  1
  O  O13  1  0.85620000  0.58230500  0.89913600  1
  O  O14  1  0.52629300  0.75596400  0.17733400  1
  O  O15  1  0.47370700  0.24403600  0.82266600  1
  O  O16  1  0.43265300  0.33282200  0.30360700  1
  O  O17  1  0.56734700  0.66717800  0.69639300  1
  O  O18  1  0.05144400  0.93332600  0.25642800  1
  O  O19  1  0.94855600  0.06667400  0.74357200  1
  O  O20  1  0.73283400  0.13477100  0.08309600  1
  O  O21  1  0.26716600  0.86522900  0.91690400  1
  O  O22  1  0.15500000  0.46076100  0.60134600  1
  O  O23  1  0.84500000  0.53923900  0.39865400  1
