# generated using pymatgen
data_HRuN6Cl3O
_symmetry_space_group_name_H-M   'P 1'
_cell_length_a   8.26726600
_cell_length_b   11.21645700
_cell_length_c   12.17995800
_cell_angle_alpha   90.00000000
_cell_angle_beta   90.00000000
_cell_angle_gamma   90.00000000
_symmetry_Int_Tables_number   1
_chemical_formula_structural   HRuN6Cl3O
_chemical_formula_sum   'H4 Ru4 N24 Cl12 O4'
_cell_volume   1129.44060657
_cell_formula_units_Z   4
loop_
 _symmetry_equiv_pos_site_id
 _symmetry_equiv_pos_as_xyz
  1  'x, y, z'
loop_
 _atom_site_type_symbol
 _atom_site_label
 _atom_site_symmetry_multiplicity
 _atom_site_fract_x
 _atom_site_fract_y
 _atom_site_fract_z
 _atom_site_occupancy
  H  H0  1  0.63605600  0.11792500  0.45955500  1
  H  H1  1  0.13605600  0.88207500  0.54044500  1
  H  H2  1  0.63605600  0.61792500  0.04044500  1
  H  H3  1  0.13605600  0.38207500  0.95955500  1
  Ru  Ru4  1  0.06051200  0.22973900  0.10003900  1
  Ru  Ru5  1  0.56051200  0.77026100  0.89996100  1
  Ru  Ru6  1  0.06051200  0.72973900  0.39996100  1
  Ru  Ru7  1  0.56051200  0.27026100  0.60003900  1
  N  N8  1  0.16857300  0.29778200  0.98642800  1
  N  N9  1  0.66857300  0.70221800  0.01357200  1
  N  N10  1  0.16857300  0.79778200  0.51357200  1
  N  N11  1  0.66857300  0.20221800  0.48642800  1
  N  N12  1  0.30168300  0.43388200  0.67735600  1
  N  N13  1  0.80168300  0.56611800  0.32264400  1
  N  N14  1  0.30168300  0.93388200  0.82264400  1
  N  N15  1  0.80168300  0.06611800  0.17735600  1
  N  N16  1  0.92750000  0.32027900  0.16703200  1
  N  N17  1  0.42750000  0.67972100  0.83296800  1
  N  N18  1  0.92750000  0.82027900  0.33296800  1
  N  N19  1  0.42750000  0.17972100  0.66703200  1
  N  N20  1  0.40514200  0.40056500  0.55854500  1
  N  N21  1  0.90514200  0.59943500  0.44145500  1
  N  N22  1  0.40514200  0.90056500  0.94145500  1
  N  N23  1  0.90514200  0.09943500  0.05854500  1
  N  N24  1  0.20214600  0.16123400  0.60183200  1
  N  N25  1  0.70214600  0.83876600  0.39816800  1
  N  N26  1  0.20214600  0.66123400  0.89816800  1
  N  N27  1  0.70214600  0.33876600  0.10183200  1
  N  N28  1  0.20651500  0.15208600  0.18820300  1
  N  N29  1  0.70651500  0.84791400  0.81179700  1
  N  N30  1  0.20651500  0.65208600  0.31179700  1
  N  N31  1  0.70651500  0.34791400  0.68820300  1
  Cl  Cl32  1  0.99396700  0.46242900  0.45681300  1
  Cl  Cl33  1  0.49396700  0.53757100  0.54318700  1
  Cl  Cl34  1  0.99396700  0.96242900  0.04318700  1
  Cl  Cl35  1  0.49396700  0.03757100  0.95681300  1
  Cl  Cl36  1  0.18352000  0.11491200  0.31941000  1
  Cl  Cl37  1  0.68352000  0.88508800  0.68059000  1
  Cl  Cl38  1  0.18352000  0.61491200  0.18059000  1
  Cl  Cl39  1  0.68352000  0.38508800  0.81941000  1
  Cl  Cl40  1  0.56794600  0.33995200  0.19867600  1
  Cl  Cl41  1  0.06794600  0.66004800  0.80132400  1
  Cl  Cl42  1  0.56794600  0.83995200  0.30132400  1
  Cl  Cl43  1  0.06794600  0.16004800  0.69867600  1
  O  O44  1  0.66314100  0.08387200  0.16775900  1
  O  O45  1  0.16314100  0.91612800  0.83224100  1
  O  O46  1  0.66314100  0.58387200  0.33224100  1
  O  O47  1  0.16314100  0.41612800  0.66775900  1
