# generated using pymatgen
data_CuH8C2(N2O3)2
_symmetry_space_group_name_H-M   'P 1'
_cell_length_a   7.24808500
_cell_length_b   8.41564624
_cell_length_c   16.46944204
_cell_angle_alpha   84.94144556
_cell_angle_beta   77.28823966
_cell_angle_gamma   64.49235934
_symmetry_Int_Tables_number   1
_chemical_formula_structural   CuH8C2(N2O3)2
_chemical_formula_sum   'Cu4 H32 C8 N16 O24'
_cell_volume   884.42428622
_cell_formula_units_Z   4
loop_
 _symmetry_equiv_pos_site_id
 _symmetry_equiv_pos_as_xyz
  1  'x, y, z'
loop_
 _atom_site_type_symbol
 _atom_site_label
 _atom_site_symmetry_multiplicity
 _atom_site_fract_x
 _atom_site_fract_y
 _atom_site_fract_z
 _atom_site_occupancy
  Cu  Cu0  1  0.90202200  0.90179400  0.10742000  1
  Cu  Cu1  1  0.09797800  0.09820600  0.89258000  1
  Cu  Cu2  1  0.91123600  0.59820600  0.39258000  1
  Cu  Cu3  1  0.08876400  0.40179400  0.60742000  1
  H  H4  1  0.52970100  0.28354500  0.50511500  1
  H  H5  1  0.47029900  0.71645500  0.49488500  1
  H  H6  1  0.31836000  0.21645500  0.99488500  1
  H  H7  1  0.68164000  0.78354500  0.00511500  1
  H  H8  1  0.65396700  0.31276600  0.23284900  1
  H  H9  1  0.34603300  0.68723400  0.76715100  1
  H  H10  1  0.19958200  0.18723400  0.26715100  1
  H  H11  1  0.80041800  0.81276600  0.73284900  1
  H  H12  1  0.65843900  0.25976300  0.33019900  1
  H  H13  1  0.34156100  0.74023700  0.66980100  1
  H  H14  1  0.24840100  0.24023700  0.16980100  1
  H  H15  1  0.75159900  0.75976300  0.83019900  1
  H  H16  1  0.38266100  0.51667000  0.31445500  1
  H  H17  1  0.61733900  0.48333000  0.68554500  1
  H  H18  1  0.21378600  0.98333000  0.18554500  1
  H  H19  1  0.78621400  0.01667000  0.81445500  1
  H  H20  1  0.53361700  0.03471500  0.21202800  1
  H  H21  1  0.46638300  0.96528500  0.78797200  1
  H  H22  1  0.78036000  0.46528500  0.28797200  1
  H  H23  1  0.21964000  0.53471500  0.71202800  1
  H  H24  1  0.48164300  0.70858800  0.40058700  1
  H  H25  1  0.51835700  0.29141200  0.59941300  1
  H  H26  1  0.59081800  0.79141200  0.09941300  1
  H  H27  1  0.40918200  0.20858800  0.90058700  1
  H  H28  1  0.26417900  0.77844300  0.18511100  1
  H  H29  1  0.73582100  0.22155700  0.81488900  1
  H  H30  1  0.22773200  0.72155700  0.31488900  1
  H  H31  1  0.77226800  0.27844300  0.68511100  1
  H  H32  1  0.71917500  0.93076700  0.26678700  1
  H  H33  1  0.28082500  0.06923300  0.73321300  1
  H  H34  1  0.91672900  0.56923300  0.23321300  1
  H  H35  1  0.08327100  0.43076700  0.76678700  1
  C  C36  1  0.75628500  0.96938100  0.42139000  1
  C  C37  1  0.24371500  0.03061900  0.57861000  1
  C  C38  1  0.14705500  0.53061900  0.07861000  1
  C  C39  1  0.85294500  0.46938100  0.92139000  1
  C  C40  1  0.19659700  0.62304400  0.00125400  1
  C  C41  1  0.80340300  0.37695600  0.99874600  1
  C  C42  1  0.82089500  0.87695600  0.49874600  1
  C  C43  1  0.17910500  0.12304400  0.50125400  1
  N  N44  1  0.70105800  0.29500500  0.11923400  1
  N  N45  1  0.29894200  0.70499500  0.88076600  1
  N  N46  1  0.11529700  0.20499500  0.38076600  1
  N  N47  1  0.88470300  0.79500500  0.61923400  1
  N  N48  1  0.10904400  0.79984000  0.00268000  1
  N  N49  1  0.89095600  0.20016000  0.99732000  1
  N  N50  1  0.91156400  0.70016000  0.49732000  1
  N  N51  1  0.08843600  0.29984000  0.50268000  1
  N  N52  1  0.68480800  0.43838900  0.07403200  1
  N  N53  1  0.31519200  0.56161100  0.92596800  1
  N  N54  1  0.19723000  0.06161100  0.42596800  1
  N  N55  1  0.80277000  0.93838900  0.57403200  1
  N  N56  1  0.82491900  0.15169800  0.07304700  1
  N  N57  1  0.17508100  0.84830200  0.92695300  1
  N  N58  1  0.04966400  0.34830200  0.42695300  1
  N  N59  1  0.95033600  0.65169800  0.57304700  1
  O  O60  1  0.67187100  0.13392300  0.41770800  1
  O  O61  1  0.32812900  0.86607700  0.58229200  1
  O  O62  1  0.22350200  0.36607700  0.08229200  1
  O  O63  1  0.77649800  0.63392300  0.91770800  1
  O  O64  1  0.79600500  0.86314300  0.36136500  1
  O  O65  1  0.20399500  0.13685700  0.63863500  1
  O  O66  1  0.02051300  0.63685700  0.13863500  1
  O  O67  1  0.97948700  0.36314300  0.86136500  1
  O  O68  1  0.15752800  0.89656500  0.17979900  1
  O  O69  1  0.84247200  0.10343500  0.82020100  1
  O  O70  1  0.23389100  0.60343500  0.32020100  1
  O  O71  1  0.76610900  0.39656500  0.67979900  1
  O  O72  1  0.63574000  0.35790300  0.28927500  1
  O  O73  1  0.36426000  0.64209700  0.71072500  1
  O  O74  1  0.28291800  0.14209700  0.21072500  1
  O  O75  1  0.71708200  0.85790300  0.78927500  1
  O  O76  1  0.55582900  0.64572200  0.44428800  1
  O  O77  1  0.44417100  0.35427800  0.55571200  1
  O  O78  1  0.64583900  0.85427800  0.05571200  1
  O  O79  1  0.35416100  0.14572200  0.94428800  1
  O  O80  1  0.68446300  0.95198300  0.21051300  1
  O  O81  1  0.31553700  0.04801700  0.78948700  1
  O  O82  1  0.84695900  0.54801700  0.28948700  1
  O  O83  1  0.15304100  0.45198300  0.71051300  1
