# generated using pymatgen
data_In2H5(SeO4)3
_symmetry_space_group_name_H-M   'P 1'
_cell_length_a   6.10644000
_cell_length_b   11.38253930
_cell_length_c   11.72762239
_cell_angle_alpha   91.30467331
_cell_angle_beta   91.91819696
_cell_angle_gamma   105.37808841
_symmetry_Int_Tables_number   1
_chemical_formula_structural   In2H5(SeO4)3
_chemical_formula_sum   'In4 H10 Se6 O24'
_cell_volume   785.10044888
_cell_formula_units_Z   2
loop_
 _symmetry_equiv_pos_site_id
 _symmetry_equiv_pos_as_xyz
  1  'x, y, z'
loop_
 _atom_site_type_symbol
 _atom_site_label
 _atom_site_symmetry_multiplicity
 _atom_site_fract_x
 _atom_site_fract_y
 _atom_site_fract_z
 _atom_site_occupancy
  In  In0  1  0.00000000  0.00000000  0.50000000  1
  In  In1  1  0.70763100  0.39586900  0.26611000  1
  In  In2  1  0.29236900  0.60413100  0.73389000  1
  In  In3  1  0.00000000  0.00000000  0.00000000  1
  H  H4  1  0.22332800  0.58666600  0.09127100  1
  H  H5  1  0.77667200  0.41333400  0.90872900  1
  H  H6  1  0.29611300  0.54980600  0.39588400  1
  H  H7  1  0.70388700  0.45019400  0.60411600  1
  H  H8  1  0.39574300  0.99696900  0.16231800  1
  H  H9  1  0.60425700  0.00303100  0.83768200  1
  H  H10  1  0.85773600  0.09977700  0.54535900  1
  H  H11  1  0.14226400  0.90022300  0.45464100  1
  H  H12  1  0.93337700  0.51421100  0.23874300  1
  H  H13  1  0.06662300  0.48578900  0.76125700  1
  Se  Se14  1  0.73672000  0.10321600  0.23955700  1
  Se  Se15  1  0.26328000  0.89678400  0.76044300  1
  Se  Se16  1  0.41373100  0.31133500  0.51311400  1
  Se  Se17  1  0.58626900  0.68866500  0.48688600  1
  Se  Se18  1  0.45958200  0.30005800  0.99227400  1
  Se  Se19  1  0.54041800  0.69994200  0.00772600  1
  O  O20  1  0.77730300  0.64538500  0.41564900  1
  O  O21  1  0.22269700  0.35461500  0.58435100  1
  O  O22  1  0.77921300  0.23038500  0.32356400  1
  O  O23  1  0.22078700  0.76961500  0.67643600  1
  O  O24  1  0.80707600  0.13695700  0.10754300  1
  O  O25  1  0.19292400  0.86304300  0.89245700  1
  O  O26  1  0.43522300  0.03901000  0.23760700  1
  O  O27  1  0.56477700  0.96099000  0.76239300  1
  O  O28  1  0.86171800  0.00675100  0.29784600  1
  O  O29  1  0.13828200  0.99324900  0.70215400  1
  O  O30  1  0.37075400  0.15468500  0.95328000  1
  O  O31  1  0.62924600  0.84531500  0.04672000  1
  O  O32  1  0.45408600  0.39196800  0.38924200  1
  O  O33  1  0.54591400  0.60803200  0.61075800  1
  O  O34  1  0.67226600  0.60831700  0.06744400  1
  O  O35  1  0.32773400  0.39168300  0.93255600  1
  O  O36  1  0.38176300  0.16528600  0.48925300  1
  O  O37  1  0.61823700  0.83471400  0.51074700  1
  O  O38  1  0.24316000  0.65472000  0.03913600  1
  O  O39  1  0.75684000  0.34528000  0.96086400  1
  O  O40  1  0.68520900  0.36234000  0.58781400  1
  O  O41  1  0.31479100  0.63766000  0.41218600  1
  O  O42  1  0.45946200  0.30943200  0.13706300  1
  O  O43  1  0.54053800  0.69056800  0.86293700  1
