# generated using pymatgen
data_Fe(BO)6
_symmetry_space_group_name_H-M   'P 1'
_cell_length_a   8.16446523
_cell_length_b   4.94038092
_cell_length_c   7.43392004
_cell_angle_alpha   68.23230968
_cell_angle_beta   63.33319608
_cell_angle_gamma   34.27956226
_symmetry_Int_Tables_number   1
_chemical_formula_structural   Fe(BO)6
_chemical_formula_sum   'Fe1 B6 O6'
_cell_volume   150.92159211
_cell_formula_units_Z   1
loop_
 _symmetry_equiv_pos_site_id
 _symmetry_equiv_pos_as_xyz
  1  'x, y, z'
loop_
 _atom_site_type_symbol
 _atom_site_label
 _atom_site_symmetry_multiplicity
 _atom_site_fract_x
 _atom_site_fract_y
 _atom_site_fract_z
 _atom_site_occupancy
  Fe  Fe0  1  0.00000000  0.00000000  0.00000000  1
  B  B1  1  0.57557800  0.00000000  0.77078700  1
  B  B2  1  0.42442200  0.00000000  0.22921300  1
  B  B3  1  0.65539000  0.33516800  0.89858000  1
  B  B4  1  0.34461000  0.66483200  0.10142000  1
  B  B5  1  0.99055800  0.66483200  0.89858000  1
  B  B6  1  0.00944200  0.33516800  0.10142000  1
  O  O7  1  0.28446600  0.44000500  0.76600700  1
  O  O8  1  0.71553400  0.55999500  0.23399300  1
  O  O9  1  0.74504100  0.00000000  0.78846600  1
  O  O10  1  0.27552900  0.44000500  0.23399300  1
  O  O11  1  0.25495900  0.00000000  0.21153400  1
  O  O12  1  0.72447100  0.55999500  0.76600700  1
