# generated using pymatgen
data_CuH6S2(NO4)2
_symmetry_space_group_name_H-M   'P 1'
_cell_length_a   6.46598793
_cell_length_b   7.71842135
_cell_length_c   12.86827000
_cell_angle_alpha   90.00000000
_cell_angle_beta   90.00000000
_cell_angle_gamma   117.12965846
_symmetry_Int_Tables_number   1
_chemical_formula_structural   CuH6S2(NO4)2
_chemical_formula_sum   'Cu2 H12 S4 N4 O16'
_cell_volume   571.56057043
_cell_formula_units_Z   2
loop_
 _symmetry_equiv_pos_site_id
 _symmetry_equiv_pos_as_xyz
  1  'x, y, z'
loop_
 _atom_site_type_symbol
 _atom_site_label
 _atom_site_symmetry_multiplicity
 _atom_site_fract_x
 _atom_site_fract_y
 _atom_site_fract_z
 _atom_site_occupancy
  Cu  Cu0  1  0.50000000  0.00000000  0.00000000  1
  Cu  Cu1  1  0.50000000  0.50000000  0.50000000  1
  H  H2  1  0.34262100  0.99808300  0.90325500  1
  H  H3  1  0.65737900  0.00191700  0.09674500  1
  H  H4  1  0.65737900  0.50191700  0.40325500  1
  H  H5  1  0.34262100  0.49808300  0.59674500  1
  H  H6  1  0.73289600  0.03392100  0.95443400  1
  H  H7  1  0.26710400  0.96607900  0.04556600  1
  H  H8  1  0.26710400  0.46607900  0.45443400  1
  H  H9  1  0.73289600  0.53392100  0.54556600  1
  H  H10  1  0.47732600  0.52459900  0.62359400  1
  H  H11  1  0.52267400  0.47540100  0.37640600  1
  H  H12  1  0.52267400  0.97540100  0.12359400  1
  H  H13  1  0.47732600  0.02459900  0.87640600  1
  S  S14  1  0.79253300  0.57958700  0.86755800  1
  S  S15  1  0.20746700  0.42041300  0.13244200  1
  S  S16  1  0.20746700  0.92041300  0.36755800  1
  S  S17  1  0.79253300  0.07958700  0.63244200  1
  N  N18  1  0.75021900  0.55722400  0.14556700  1
  N  N19  1  0.24978100  0.44277600  0.85443300  1
  N  N20  1  0.24978100  0.94277600  0.64556700  1
  N  N21  1  0.75021900  0.05722400  0.35443300  1
  O  O22  1  0.67892200  0.89853300  0.57457100  1
  O  O23  1  0.32107800  0.10146700  0.42542900  1
  O  O24  1  0.32107800  0.60146700  0.07457100  1
  O  O25  1  0.67892200  0.39853300  0.92542900  1
  O  O26  1  0.88298400  0.57670100  0.76491600  1
  O  O27  1  0.11701600  0.42329900  0.23508400  1
  O  O28  1  0.11701600  0.92329900  0.26491600  1
  O  O29  1  0.88298400  0.07670100  0.73508400  1
  O  O30  1  0.88513100  0.76113500  0.92455400  1
  O  O31  1  0.11486900  0.23886500  0.07544600  1
  O  O32  1  0.11486900  0.73886500  0.42455400  1
  O  O33  1  0.88513100  0.26113500  0.57544600  1
  O  O34  1  0.41574200  0.56130100  0.81225500  1
  O  O35  1  0.58425800  0.43869900  0.18774500  1
  O  O36  1  0.58425800  0.93869900  0.31225500  1
  O  O37  1  0.41574200  0.06130100  0.68774500  1
