# generated using pymatgen
data_CuAsHO4
_symmetry_space_group_name_H-M   'P 1'
_cell_length_a   6.38817564
_cell_length_b   7.26728880
_cell_length_c   17.02410850
_cell_angle_alpha   92.42518894
_cell_angle_beta   83.12762337
_cell_angle_gamma   82.90169122
_symmetry_Int_Tables_number   1
_chemical_formula_structural   CuAsHO4
_chemical_formula_sum   'Cu8 As8 H8 O32'
_cell_volume   777.33806093
_cell_formula_units_Z   8
loop_
 _symmetry_equiv_pos_site_id
 _symmetry_equiv_pos_as_xyz
  1  'x, y, z'
loop_
 _atom_site_type_symbol
 _atom_site_label
 _atom_site_symmetry_multiplicity
 _atom_site_fract_x
 _atom_site_fract_y
 _atom_site_fract_z
 _atom_site_occupancy
  Cu  Cu0  1  0.41486100  0.40119100  0.93270600  1
  Cu  Cu1  1  0.58513900  0.59880900  0.06729400  1
  Cu  Cu2  1  0.35519400  0.35562700  0.53560200  1
  Cu  Cu3  1  0.64480600  0.64437300  0.46439800  1
  Cu  Cu4  1  0.87935700  0.84666900  0.96350100  1
  Cu  Cu5  1  0.12064300  0.15333100  0.03649900  1
  Cu  Cu6  1  0.87525000  0.91541300  0.56842700  1
  Cu  Cu7  1  0.12475000  0.08458700  0.43157300  1
  As  As8  1  0.14499600  0.65694600  0.41852100  1
  As  As9  1  0.85500400  0.34305400  0.58147900  1
  As  As10  1  0.08150900  0.55355000  0.11484100  1
  As  As11  1  0.91849100  0.44645000  0.88515900  1
  As  As12  1  0.34573200  0.97721300  0.61687900  1
  As  As13  1  0.65426800  0.02278700  0.38312100  1
  As  As14  1  0.41057100  0.82242000  0.91827300  1
  As  As15  1  0.58942900  0.17758000  0.08172700  1
  H  H16  1  0.77423200  0.60464400  0.66213100  1
  H  H17  1  0.22576800  0.39535600  0.33786900  1
  H  H18  1  0.39302900  0.06037900  0.83594200  1
  H  H19  1  0.60697100  0.93962100  0.16405800  1
  H  H20  1  0.23974200  0.78426500  0.71391300  1
  H  H21  1  0.76025800  0.21573500  0.28608700  1
  H  H22  1  0.89291300  0.21614800  0.79113400  1
  H  H23  1  0.10708700  0.78385200  0.20886600  1
  O  O24  1  0.58891300  0.84454500  0.59131200  1
  O  O25  1  0.41108700  0.15545500  0.40868800  1
  O  O26  1  0.40702800  0.61705000  0.86722700  1
  O  O27  1  0.59297200  0.38295000  0.13277300  1
  O  O28  1  0.07744700  0.30952800  0.50985200  1
  O  O29  1  0.92255300  0.69047200  0.49014800  1
  O  O30  1  0.18327600  0.90924400  0.54986300  1
  O  O31  1  0.81672400  0.09075600  0.45013700  1
  O  O32  1  0.17766300  0.85001700  0.36794200  1
  O  O33  1  0.82233700  0.14998300  0.63205800  1
  O  O34  1  0.11249100  0.64854400  0.20918200  1
  O  O35  1  0.88750900  0.35145600  0.79081800  1
  O  O36  1  0.15830200  0.93317800  0.95909300  1
  O  O37  1  0.84169800  0.06682200  0.04090700  1
  O  O38  1  0.36898200  0.55844500  0.46017200  1
  O  O39  1  0.63101800  0.44155500  0.53982800  1
  O  O40  1  0.92629800  0.67702400  0.87127700  1
  O  O41  1  0.07370200  0.32297600  0.12872300  1
  O  O42  1  0.09070500  0.47474200  0.35505600  1
  O  O43  1  0.90929500  0.52525800  0.64494400  1
  O  O44  1  0.14078300  0.32786900  0.91652900  1
  O  O45  1  0.85921700  0.67213100  0.08347100  1
  O  O46  1  0.58381300  0.80848900  0.99012500  1
  O  O47  1  0.41618700  0.19151100  0.00987500  1
  O  O48  1  0.70847000  0.39826400  0.95146600  1
  O  O49  1  0.29153000  0.60173600  0.04853400  1
  O  O50  1  0.23978800  0.91907000  0.71285000  1
  O  O51  1  0.76021200  0.08093000  0.28715000  1
  O  O52  1  0.51408900  0.98028500  0.85201600  1
  O  O53  1  0.48591100  0.01971500  0.14798400  1
  O  O54  1  0.65127500  0.78889800  0.37250300  1
  O  O55  1  0.34872500  0.21110200  0.62749700  1
