# generated using pymatgen
data_GdH18C4N6Cl3O8
_symmetry_space_group_name_H-M   'P 1'
_cell_length_a   7.95574913
_cell_length_b   7.95574913
_cell_length_c   17.40223307
_cell_angle_alpha   95.36685799
_cell_angle_beta   95.36685799
_cell_angle_gamma   121.44432968
_symmetry_Int_Tables_number   1
_chemical_formula_structural   GdH18C4N6Cl3O8
_chemical_formula_sum   'Gd2 H36 C8 N12 Cl6 O16'
_cell_volume   922.35771351
_cell_formula_units_Z   2
loop_
 _symmetry_equiv_pos_site_id
 _symmetry_equiv_pos_as_xyz
  1  'x, y, z'
loop_
 _atom_site_type_symbol
 _atom_site_label
 _atom_site_symmetry_multiplicity
 _atom_site_fract_x
 _atom_site_fract_y
 _atom_site_fract_z
 _atom_site_occupancy
  Gd  Gd0  1  0.10793300  0.89206700  0.75000000  1
  Gd  Gd1  1  0.89206700  0.10793300  0.25000000  1
  H  H2  1  0.46572000  0.12553100  0.88986900  1
  H  H3  1  0.53428000  0.87446900  0.11013100  1
  H  H4  1  0.87446900  0.53428000  0.61013100  1
  H  H5  1  0.12553100  0.46572000  0.38986900  1
  H  H6  1  0.48989800  0.99337200  0.68523000  1
  H  H7  1  0.51010200  0.00662800  0.31477000  1
  H  H8  1  0.00662800  0.51010200  0.81477000  1
  H  H9  1  0.99337200  0.48989800  0.18523000  1
  H  H10  1  0.67830500  0.87737700  0.93214600  1
  H  H11  1  0.32169500  0.12262300  0.06785400  1
  H  H12  1  0.12262300  0.32169500  0.56785400  1
  H  H13  1  0.87737700  0.67830500  0.43214600  1
  H  H14  1  0.65673000  0.87543000  0.53765000  1
  H  H15  1  0.34327000  0.12457000  0.46235000  1
  H  H16  1  0.12457000  0.34327000  0.96235000  1
  H  H17  1  0.87543000  0.65673000  0.03765000  1
  H  H18  1  0.55504800  0.11742600  0.81247300  1
  H  H19  1  0.44495200  0.88257400  0.18752700  1
  H  H20  1  0.88257400  0.44495200  0.68752700  1
  H  H21  1  0.11742600  0.55504800  0.31247300  1
  H  H22  1  0.46175900  0.42597400  0.81083700  1
  H  H23  1  0.53824100  0.57402600  0.18916300  1
  H  H24  1  0.57402600  0.53824100  0.68916300  1
  H  H25  1  0.42597400  0.46175900  0.31083700  1
  H  H26  1  0.46712200  0.56303300  0.89818400  1
  H  H27  1  0.53287800  0.43696700  0.10181600  1
  H  H28  1  0.43696700  0.53287800  0.60181600  1
  H  H29  1  0.56303300  0.46712200  0.39818400  1
  H  H30  1  0.78935000  0.12084900  0.52131200  1
  H  H31  1  0.21065000  0.87915100  0.47868800  1
  H  H32  1  0.87915100  0.21065000  0.97868800  1
  H  H33  1  0.12084900  0.78935000  0.02131200  1
  H  H34  1  0.31829200  0.79964600  0.62477500  1
  H  H35  1  0.68170800  0.20035400  0.37522500  1
  H  H36  1  0.20035400  0.68170800  0.87522500  1
  H  H37  1  0.79964600  0.31829200  0.12477500  1
  C  C38  1  0.69563800  0.71650700  0.83738800  1
  C  C39  1  0.30436200  0.28349300  0.16261200  1
  C  C40  1  0.28349300  0.30436200  0.66261200  1
  C  C41  1  0.71650700  0.69563800  0.33738800  1
  C  C42  1  0.94088900  0.04199200  0.59861500  1
  C  C43  1  0.05911100  0.95800800  0.40138500  1
  C  C44  1  0.95800800  0.05911100  0.90138500  1
  C  C45  1  0.04199200  0.94088900  0.09861500  1
  N  N46  1  0.77043700  0.88651600  0.89300900  1
  N  N47  1  0.22956300  0.11348400  0.10699100  1
  N  N48  1  0.11348400  0.22956300  0.60699100  1
  N  N49  1  0.88651600  0.77043700  0.39300900  1
  N  N50  1  0.79128400  0.00725300  0.54358800  1
  N  N51  1  0.20871600  0.99274700  0.45641200  1
  N  N52  1  0.99274700  0.20871600  0.95641200  1
  N  N53  1  0.00725300  0.79128400  0.04358800  1
  N  N54  1  0.53325800  0.55438000  0.85155100  1
  N  N55  1  0.46674200  0.44562000  0.14844900  1
  N  N56  1  0.44562000  0.46674200  0.64844900  1
  N  N57  1  0.55438000  0.53325800  0.35155100  1
  Cl  Cl58  1  0.78644100  0.21355900  0.75000000  1
  Cl  Cl59  1  0.21355900  0.78644100  0.25000000  1
  Cl  Cl60  1  0.37055900  0.70754900  0.98505000  1
  Cl  Cl61  1  0.62944100  0.29245100  0.01495000  1
  Cl  Cl62  1  0.29245100  0.62944100  0.51495000  1
  Cl  Cl63  1  0.70754900  0.37055900  0.48505000  1
  O  O64  1  0.28407200  0.22621600  0.72247700  1
  O  O65  1  0.71592800  0.77378400  0.27752300  1
  O  O66  1  0.77378400  0.71592800  0.77752300  1
  O  O67  1  0.22621600  0.28407200  0.22247700  1
  O  O68  1  0.09032100  0.07288500  0.86338300  1
  O  O69  1  0.90967900  0.92711500  0.13661700  1
  O  O70  1  0.92711500  0.90967900  0.63661700  1
  O  O71  1  0.07288500  0.09032100  0.36338300  1
  O  O72  1  0.42941400  0.05691400  0.83529400  1
  O  O73  1  0.57058600  0.94308600  0.16470600  1
  O  O74  1  0.94308600  0.57058600  0.66470600  1
  O  O75  1  0.05691400  0.42941400  0.33529400  1
  O  O76  1  0.34353900  0.89750100  0.67093300  1
  O  O77  1  0.65646100  0.10249900  0.32906700  1
  O  O78  1  0.10249900  0.65646100  0.82906700  1
  O  O79  1  0.89750100  0.34353900  0.17093300  1
