# generated using pymatgen
data_CsNaMo(HO2)2
_symmetry_space_group_name_H-M   'P 1'
_cell_length_a   6.83258100
_cell_length_b   7.94321100
_cell_length_c   13.66822300
_cell_angle_alpha   90.00000000
_cell_angle_beta   90.00000000
_cell_angle_gamma   90.00000000
_symmetry_Int_Tables_number   1
_chemical_formula_structural   CsNaMo(HO2)2
_chemical_formula_sum   'Cs4 Na4 Mo4 H8 O16'
_cell_volume   741.81044459
_cell_formula_units_Z   4
loop_
 _symmetry_equiv_pos_site_id
 _symmetry_equiv_pos_as_xyz
  1  'x, y, z'
loop_
 _atom_site_type_symbol
 _atom_site_label
 _atom_site_symmetry_multiplicity
 _atom_site_fract_x
 _atom_site_fract_y
 _atom_site_fract_z
 _atom_site_occupancy
  Cs  Cs0  1  0.56337100  0.33533600  0.14479000  1
  Cs  Cs1  1  0.93662900  0.66466400  0.64479000  1
  Cs  Cs2  1  0.43662900  0.83533600  0.35521000  1
  Cs  Cs3  1  0.06337100  0.16466400  0.85521000  1
  Na  Na4  1  0.13649200  0.22926600  0.50368300  1
  Na  Na5  1  0.36350800  0.77073400  0.00368300  1
  Na  Na6  1  0.86350800  0.72926600  0.99631700  1
  Na  Na7  1  0.63649200  0.27073400  0.49631700  1
  Mo  Mo8  1  0.05929400  0.07815300  0.13773700  1
  Mo  Mo9  1  0.44070600  0.92184700  0.63773700  1
  Mo  Mo10  1  0.94070600  0.57815300  0.36226300  1
  Mo  Mo11  1  0.55929400  0.42184700  0.86226300  1
  H  H12  1  0.36184100  0.29695300  0.35783800  1
  H  H13  1  0.13815900  0.70304700  0.85783800  1
  H  H14  1  0.63815900  0.79695300  0.14216200  1
  H  H15  1  0.86184100  0.20304700  0.64216200  1
  H  H16  1  0.11753100  0.55813500  0.09422800  1
  H  H17  1  0.38246900  0.44186500  0.59422800  1
  H  H18  1  0.88246900  0.05813500  0.40577200  1
  H  H19  1  0.61753100  0.94186500  0.90577200  1
  O  O20  1  0.04699400  0.27284000  0.07244900  1
  O  O21  1  0.45300600  0.72716000  0.57244900  1
  O  O22  1  0.95300600  0.77284000  0.42755100  1
  O  O23  1  0.54699400  0.22716000  0.92755100  1
  O  O24  1  0.40624500  0.08993800  0.54582800  1
  O  O25  1  0.09375500  0.91006200  0.04582800  1
  O  O26  1  0.59375500  0.58993800  0.95417200  1
  O  O27  1  0.90624500  0.41006200  0.45417200  1
  O  O28  1  0.16685500  0.54747700  0.29933200  1
  O  O29  1  0.33314500  0.45252300  0.79933200  1
  O  O30  1  0.83314500  0.04747700  0.20066800  1
  O  O31  1  0.66685500  0.95252300  0.70066800  1
  O  O32  1  0.26391700  0.08360400  0.21966800  1
  O  O33  1  0.23608300  0.91639600  0.71966800  1
  O  O34  1  0.73608300  0.58360400  0.28033200  1
  O  O35  1  0.76391700  0.41639600  0.78033200  1
