# generated using pymatgen
data_K2Re3TeC3(SN)3
_symmetry_space_group_name_H-M   'P 1'
_cell_length_a   15.35969314
_cell_length_b   15.35969314
_cell_length_c   15.35969314
_cell_angle_alpha   109.47122063
_cell_angle_beta   109.47122063
_cell_angle_gamma   109.47122063
_symmetry_Int_Tables_number   1
_chemical_formula_structural   K2Re3TeC3(SN)3
_chemical_formula_sum   'K16 Re24 Te8 C24 S24 N24'
_cell_volume   2789.49589977
_cell_formula_units_Z   8
loop_
 _symmetry_equiv_pos_site_id
 _symmetry_equiv_pos_as_xyz
  1  'x, y, z'
loop_
 _atom_site_type_symbol
 _atom_site_label
 _atom_site_symmetry_multiplicity
 _atom_site_fract_x
 _atom_site_fract_y
 _atom_site_fract_z
 _atom_site_occupancy
  K  K0  1  0.00000000  0.00000000  -0.00000000  1
  K  K1  1  0.50000000  0.00000000  0.50000000  1
  K  K2  1  0.50000000  0.50000000  -0.00000000  1
  K  K3  1  0.00000000  0.50000000  0.50000000  1
  K  K4  1  0.55682482  0.30682482  0.75000000  1
  K  K5  1  0.44317518  0.69317518  0.25000000  1
  K  K6  1  0.94317518  0.19317518  0.25000000  1
  K  K7  1  0.30682482  0.75000000  0.55682482  1
  K  K8  1  0.05682482  0.80682482  0.75000000  1
  K  K9  1  0.69317518  0.25000000  0.44317518  1
  K  K10  1  0.19317518  0.25000000  0.94317518  1
  K  K11  1  0.80682482  0.75000000  0.05682482  1
  K  K12  1  0.75000000  0.55682482  0.30682482  1
  K  K13  1  0.25000000  0.44317518  0.69317518  1
  K  K14  1  0.25000000  0.94317518  0.19317518  1
  K  K15  1  0.75000000  0.05682482  0.80682482  1
  Re  Re16  1  0.64060996  0.53979797  0.52988003  1
  Re  Re17  1  0.35939004  0.46020203  0.47011997  1
  Re  Re18  1  0.85939004  0.88927007  0.39918801  1
  Re  Re19  1  0.49008206  0.96020203  0.10081199  1
  Re  Re20  1  0.53979797  0.52988003  0.64060996  1
  Re  Re21  1  0.14060996  0.11072993  0.60081199  1
  Re  Re22  1  0.50991794  0.03979797  0.89918801  1
  Re  Re23  1  0.46020203  0.47011997  0.35939004  1
  Re  Re24  1  0.00991794  0.61072993  0.97011997  1
  Re  Re25  1  0.88927007  0.39918801  0.85939004  1
  Re  Re26  1  0.99008206  0.38927007  0.02988003  1
  Re  Re27  1  0.11072993  0.60081199  0.14060996  1
  Re  Re28  1  0.96020203  0.10081199  0.49008206  1
  Re  Re29  1  0.03979797  0.89918801  0.50991794  1
  Re  Re30  1  0.61072993  0.97011997  0.00991794  1
  Re  Re31  1  0.38927007  0.02988003  0.99008206  1
  Re  Re32  1  0.52988003  0.64060996  0.53979797  1
  Re  Re33  1  0.47011997  0.35939004  0.46020203  1
  Re  Re34  1  0.10081199  0.49008206  0.96020203  1
  Re  Re35  1  0.89918801  0.50991794  0.03979797  1
  Re  Re36  1  0.97011997  0.00991794  0.61072993  1
  Re  Re37  1  0.02988003  0.99008206  0.38927007  1
  Re  Re38  1  0.39918801  0.85939004  0.88927007  1
  Re  Re39  1  0.60081199  0.14060996  0.11072993  1
  Te  Te40  1  0.71725511  0.71725511  0.71725511  1
  Te  Te41  1  0.28274489  0.28274489  0.28274489  1
  Te  Te42  1  0.78274489  -0.00000000  0.50000000  1
  Te  Te43  1  0.50000000  0.78274489  -0.00000000  1
  Te  Te44  1  0.21725511  0.00000000  0.50000000  1
  Te  Te45  1  0.50000000  0.21725511  -0.00000000  1
  Te  Te46  1  0.00000000  0.50000000  0.78274489  1
  Te  Te47  1  -0.00000000  0.50000000  0.21725511  1
  C  C48  1  0.79523850  0.57650435  0.56095465  1
  C  C49  1  0.20476150  0.42349565  0.43904535  1
  C  C50  1  0.70476150  0.76571614  0.28126585  1
  C  C51  1  0.48445030  0.92349565  0.21873415  1
  C  C52  1  0.57650435  0.56095465  0.79523850  1
  C  C53  1  0.29523850  0.23428386  0.71873415  1
  C  C54  1  0.51554970  0.07650435  0.78126585  1
  C  C55  1  0.42349565  0.43904535  0.20476150  1
  C  C56  1  0.01554970  0.73428386  0.93904535  1
  C  C57  1  0.76571614  0.28126585  0.70476150  1
  C  C58  1  0.98445030  0.26571614  0.06095465  1
  C  C59  1  0.23428386  0.71873415  0.29523850  1
  C  C60  1  0.92349565  0.21873415  0.48445030  1
  C  C61  1  0.07650435  0.78126585  0.51554970  1
  C  C62  1  0.73428386  0.93904535  0.01554970  1
  C  C63  1  0.26571614  0.06095465  0.98445030  1
  C  C64  1  0.56095465  0.79523850  0.57650435  1
  C  C65  1  0.43904535  0.20476150  0.42349565  1
  C  C66  1  0.21873415  0.48445030  0.92349565  1
  C  C67  1  0.78126585  0.51554970  0.07650435  1
  C  C68  1  0.93904535  0.01554970  0.73428386  1
  C  C69  1  0.06095465  0.98445030  0.26571614  1
  C  C70  1  0.28126585  0.70476150  0.76571614  1
  C  C71  1  0.71873415  0.29523850  0.23428386  1
  S  S72  1  0.61895458  0.63752984  0.43604065  1
  S  S73  1  0.38104542  0.36247016  0.56395935  1
  S  S74  1  0.88104542  0.81708608  0.51857527  1
  S  S75  1  0.29851081  0.86247016  0.98142473  1
  S  S76  1  0.63752984  0.43604065  0.61895458  1
  S  S77  1  0.11895458  0.18291392  0.48142473  1
  S  S78  1  0.70148919  0.13752984  0.01857527  1
  S  S79  1  0.36247016  0.56395935  0.38104542  1
  S  S80  1  0.20148919  0.68291392  0.06395935  1
  S  S81  1  0.81708608  0.51857527  0.88104542  1
  S  S82  1  0.79851081  0.31708608  0.93604065  1
  S  S83  1  0.18291392  0.48142473  0.11895458  1
  S  S84  1  0.86247016  0.98142473  0.29851081  1
  S  S85  1  0.13752984  0.01857527  0.70148919  1
  S  S86  1  0.68291392  0.06395935  0.20148919  1
  S  S87  1  0.31708608  0.93604065  0.79851081  1
  S  S88  1  0.43604065  0.61895458  0.63752984  1
  S  S89  1  0.56395935  0.38104542  0.36247016  1
  S  S90  1  0.98142473  0.29851081  0.86247016  1
  S  S91  1  0.01857527  0.70148919  0.13752984  1
  S  S92  1  0.06395935  0.20148919  0.68291392  1
  S  S93  1  0.93604065  0.79851081  0.31708608  1
  S  S94  1  0.51857527  0.88104542  0.81708608  1
  S  S95  1  0.48142473  0.11895458  0.18291392  1
  N  N96  1  0.88196659  0.59470476  0.57834233  1
  N  N97  1  0.11803341  0.40529524  0.42165767  1
  N  N98  1  0.61803341  0.69637575  0.21273817  1
  N  N99  1  0.48363758  0.90529524  0.28726183  1
  N  N100  1  0.59470476  0.57834233  0.88196659  1
  N  N101  1  0.38196659  0.30362425  0.78726183  1
  N  N102  1  0.51636242  0.09470476  0.71273817  1
  N  N103  1  0.40529524  0.42165767  0.11803341  1
  N  N104  1  0.01636242  0.80362425  0.92165767  1
  N  N105  1  0.69637575  0.21273817  0.61803341  1
  N  N106  1  0.98363758  0.19637575  0.07834233  1
  N  N107  1  0.30362425  0.78726183  0.38196659  1
  N  N108  1  0.90529524  0.28726183  0.48363758  1
  N  N109  1  0.09470476  0.71273817  0.51636242  1
  N  N110  1  0.80362425  0.92165767  0.01636242  1
  N  N111  1  0.19637575  0.07834233  0.98363758  1
  N  N112  1  0.57834233  0.88196659  0.59470476  1
  N  N113  1  0.42165767  0.11803341  0.40529524  1
  N  N114  1  0.28726183  0.48363758  0.90529524  1
  N  N115  1  0.71273817  0.51636242  0.09470476  1
  N  N116  1  0.92165767  0.01636242  0.80362425  1
  N  N117  1  0.07834233  0.98363758  0.19637575  1
  N  N118  1  0.21273817  0.61803341  0.69637575  1
  N  N119  1  0.78726183  0.38196659  0.30362425  1
