# generated using pymatgen
data_KY3O6
_symmetry_space_group_name_H-M   'P 1'
_cell_length_a   10.70130309
_cell_length_b   9.40261070
_cell_length_c   45.32863881
_cell_angle_alpha   90.00000000
_cell_angle_beta   90.00000000
_cell_angle_gamma   124.68471890
_symmetry_Int_Tables_number   1
_chemical_formula_structural   KY3O6
_chemical_formula_sum   'K1 Y3 O6'
_cell_volume   3750.47168810
_cell_formula_units_Z   1
loop_
 _symmetry_equiv_pos_site_id
 _symmetry_equiv_pos_as_xyz
  1  'x, y, z'
loop_
 _atom_site_type_symbol
 _atom_site_label
 _atom_site_symmetry_multiplicity
 _atom_site_fract_x
 _atom_site_fract_y
 _atom_site_fract_z
 _atom_site_occupancy
  K  K0  1  -0.00000000  0.00000000  -0.00000000  1
  Y  Y1  1  -0.00000000  0.00000000  0.50000000  1
  Y  Y2  1  0.50000000  0.50000000  -0.00000000  1
  Y  Y3  1  -0.00000000  0.50000000  -0.00000000  1
  O  O4  1  -0.00000000  0.00000000  0.76950782  1
  O  O5  1  -0.00000000  0.00000000  0.23049218  1
  O  O6  1  0.70442273  0.71889864  0.00000000  1
  O  O7  1  0.29557727  0.28110136  0.00000000  1
  O  O8  1  0.98552409  0.28110136  -0.00000000  1
  O  O9  1  0.01447591  0.71889864  0.00000000  1
