data_image0
_chemical_formula_structural       CuO2Y
_chemical_formula_sum              "Cu1 O2 Y1"
_cell_length_a       3.52866
_cell_length_b       3.52866
_cell_length_c       6.03965
_cell_angle_alpha    106.985
_cell_angle_beta     73.0148
_cell_angle_gamma    120

_space_group_name_H-M_alt    "P 1"
_space_group_IT_number       1

loop_
  _space_group_symop_operation_xyz
  'x, y, z'

loop_
  _atom_site_type_symbol
  _atom_site_label
  _atom_site_symmetry_multiplicity
  _atom_site_fract_x
  _atom_site_fract_y
  _atom_site_fract_z
  _atom_site_occupancy
  Cu  Cu1       1.0  0.00000  0.00000  0.00000  1.0000
  O   O1        1.0  0.89400  0.10600  0.31800  1.0000
  O   O2        1.0  0.10600  0.89400  0.68200  1.0000
  Y   Y1        1.0  0.50000  0.50000  0.50000  1.0000
