# generated using pymatgen
data_Eu3VGeO9
_symmetry_space_group_name_H-M   'P 1'
_cell_length_a   7.04824623
_cell_length_b   9.40377298
_cell_length_c   12.56997500
_cell_angle_alpha   90.00000000
_cell_angle_beta   90.00000000
_cell_angle_gamma   107.59776586
_symmetry_Int_Tables_number   1
_chemical_formula_structural   Eu3VGeO9
_chemical_formula_sum   'Eu12 V4 Ge4 O36'
_cell_volume   794.15042293
_cell_formula_units_Z   4
loop_
 _symmetry_equiv_pos_site_id
 _symmetry_equiv_pos_as_xyz
  1  'x, y, z'
loop_
 _atom_site_type_symbol
 _atom_site_label
 _atom_site_symmetry_multiplicity
 _atom_site_fract_x
 _atom_site_fract_y
 _atom_site_fract_z
 _atom_site_occupancy
  Eu  Eu0  1  0.67360200  0.62664200  0.36757500  1
  Eu  Eu1  1  0.32639800  0.37335800  0.63242500  1
  Eu  Eu2  1  0.82639800  0.87335800  0.86757500  1
  Eu  Eu3  1  0.17360200  0.12664200  0.13242500  1
  Eu  Eu4  1  0.23770300  0.84878900  0.36645800  1
  Eu  Eu5  1  0.76229700  0.15121100  0.63354200  1
  Eu  Eu6  1  0.26229700  0.65121100  0.86645800  1
  Eu  Eu7  1  0.73770300  0.34878900  0.13354200  1
  Eu  Eu8  1  0.50564000  0.87673000  0.10870600  1
  Eu  Eu9  1  0.49436000  0.12327000  0.89129400  1
  Eu  Eu10  1  0.99436000  0.62327000  0.60870600  1
  Eu  Eu11  1  0.00564000  0.37673000  0.39129400  1
  V  V12  1  0.19722600  0.97788100  0.66424700  1
  V  V13  1  0.80277400  0.02211900  0.33575300  1
  V  V14  1  0.30277400  0.52211900  0.16424700  1
  V  V15  1  0.69722600  0.47788100  0.83575300  1
  Ge  Ge16  1  0.95546800  0.76264800  0.10154000  1
  Ge  Ge17  1  0.04453200  0.23735200  0.89846000  1
  Ge  Ge18  1  0.54453200  0.73735200  0.60154000  1
  Ge  Ge19  1  0.45546800  0.26264800  0.39846000  1
  O  O20  1  0.90132900  0.87303000  0.33953200  1
  O  O21  1  0.09867100  0.12697000  0.66046800  1
  O  O22  1  0.59867100  0.62697000  0.83953200  1
  O  O23  1  0.40132900  0.37303000  0.16046800  1
  O  O24  1  0.65787600  0.59135800  0.57463900  1
  O  O25  1  0.34212400  0.40864200  0.42536100  1
  O  O26  1  0.84212400  0.90864200  0.07463900  1
  O  O27  1  0.15787600  0.09135800  0.92536100  1
  O  O28  1  0.16664200  0.87744600  0.54620400  1
  O  O29  1  0.83335800  0.12255400  0.45379600  1
  O  O30  1  0.33335800  0.62255400  0.04620400  1
  O  O31  1  0.66664200  0.37744600  0.95379600  1
  O  O32  1  0.79334400  0.61755400  0.17506800  1
  O  O33  1  0.20665600  0.38244600  0.82493200  1
  O  O34  1  0.70665600  0.88244600  0.67506800  1
  O  O35  1  0.29334400  0.11755400  0.32493200  1
  O  O36  1  0.08065600  0.83822300  0.75435300  1
  O  O37  1  0.91934400  0.16177700  0.24564700  1
  O  O38  1  0.41934400  0.66177700  0.25435300  1
  O  O39  1  0.58065600  0.33822300  0.74564700  1
  O  O40  1  0.99678100  0.61707100  0.42302700  1
  O  O41  1  0.00321900  0.38292900  0.57697300  1
  O  O42  1  0.50321900  0.88292900  0.92302700  1
  O  O43  1  0.49678100  0.11707100  0.07697300  1
  O  O44  1  0.18023900  0.86626200  0.16888600  1
  O  O45  1  0.81976100  0.13373800  0.83111400  1
  O  O46  1  0.31976100  0.63373800  0.66888600  1
  O  O47  1  0.68023900  0.36626200  0.33111400  1
  O  O48  1  0.56091200  0.95934200  0.28845900  1
  O  O49  1  0.43908800  0.04065800  0.71154100  1
  O  O50  1  0.93908800  0.54065800  0.78845900  1
  O  O51  1  0.06091200  0.45934200  0.21154100  1
  O  O52  1  0.49226900  0.77596600  0.46905500  1
  O  O53  1  0.50773100  0.22403400  0.53094500  1
  O  O54  1  0.00773100  0.72403400  0.96905500  1
  O  O55  1  0.99226900  0.27596600  0.03094500  1
