# generated using pymatgen
data_CuAgAs2H3O8
_symmetry_space_group_name_H-M   'P 1'
_cell_length_a   7.87073200
_cell_length_b   9.39603500
_cell_length_c   9.86840164
_cell_angle_alpha   75.89617339
_cell_angle_beta   90.00000000
_cell_angle_gamma   90.00000000
_symmetry_Int_Tables_number   1
_chemical_formula_structural   CuAgAs2H3O8
_chemical_formula_sum   'Cu4 Ag4 As8 H12 O32'
_cell_volume   707.80513504
_cell_formula_units_Z   4
loop_
 _symmetry_equiv_pos_site_id
 _symmetry_equiv_pos_as_xyz
  1  'x, y, z'
loop_
 _atom_site_type_symbol
 _atom_site_label
 _atom_site_symmetry_multiplicity
 _atom_site_fract_x
 _atom_site_fract_y
 _atom_site_fract_z
 _atom_site_occupancy
  Cu  Cu0  1  0.81785000  0.90575400  0.50452300  1
  Cu  Cu1  1  0.18215000  0.09424600  0.49547700  1
  Cu  Cu2  1  0.31785000  0.09424600  0.99547700  1
  Cu  Cu3  1  0.68215000  0.90575400  0.00452300  1
  Ag  Ag4  1  0.23317100  0.73278600  0.50802000  1
  Ag  Ag5  1  0.76682900  0.26721400  0.49198000  1
  Ag  Ag6  1  0.73317100  0.26721400  0.99198000  1
  Ag  Ag7  1  0.26682900  0.73278600  0.00802000  1
  As  As8  1  0.49340200  0.97061100  0.70356300  1
  As  As9  1  0.50659800  0.02938900  0.29643700  1
  As  As10  1  0.99340200  0.02938900  0.79643700  1
  As  As11  1  0.00659800  0.97061100  0.20356300  1
  As  As12  1  0.31387000  0.43133500  0.82559200  1
  As  As13  1  0.68613000  0.56866500  0.17440800  1
  As  As14  1  0.81387000  0.56866500  0.67440800  1
  As  As15  1  0.18613000  0.43133500  0.32559200  1
  H  H16  1  0.05750800  0.43453500  0.65469500  1
  H  H17  1  0.94249200  0.56546500  0.34530500  1
  H  H18  1  0.55750800  0.56546500  0.84530500  1
  H  H19  1  0.44249200  0.43453500  0.15469500  1
  H  H20  1  0.99422900  0.79370500  0.76633800  1
  H  H21  1  0.00577100  0.20629500  0.23366200  1
  H  H22  1  0.49422900  0.20629500  0.73366200  1
  H  H23  1  0.50577100  0.79370500  0.26633800  1
  H  H24  1  0.33775000  0.43391500  0.52350500  1
  H  H25  1  0.66225000  0.56608500  0.47649500  1
  H  H26  1  0.83775000  0.56608500  0.97649500  1
  H  H27  1  0.16225000  0.43391500  0.02350500  1
  O  O28  1  0.02403300  0.83536500  0.84803700  1
  O  O29  1  0.97596700  0.16463500  0.15196300  1
  O  O30  1  0.52403300  0.16463500  0.65196300  1
  O  O31  1  0.47596700  0.83536500  0.34803700  1
  O  O32  1  0.93732300  0.72381200  0.62309000  1
  O  O33  1  0.06267700  0.27618800  0.37691000  1
  O  O34  1  0.43732300  0.27618800  0.87691000  1
  O  O35  1  0.56267700  0.72381200  0.12309000  1
  O  O36  1  0.66350700  0.87909400  0.66134100  1
  O  O37  1  0.33649300  0.12090600  0.33865900  1
  O  O38  1  0.16350700  0.12090600  0.83865900  1
  O  O39  1  0.83649300  0.87909400  0.16134100  1
  O  O40  1  0.42700500  0.58223700  0.85142600  1
  O  O41  1  0.57299500  0.41776300  0.14857400  1
  O  O42  1  0.92700500  0.41776300  0.64857400  1
  O  O43  1  0.07299500  0.58223700  0.35142600  1
  O  O44  1  0.12993300  0.43015900  0.92463800  1
  O  O45  1  0.87006700  0.56984100  0.07536200  1
  O  O46  1  0.62993300  0.56984100  0.57536200  1
  O  O47  1  0.37006700  0.43015900  0.42463800  1
  O  O48  1  0.47707700  0.92398400  0.88394700  1
  O  O49  1  0.52292300  0.07601600  0.11605300  1
  O  O50  1  0.97707700  0.07601600  0.61605300  1
  O  O51  1  0.02292300  0.92398400  0.38394700  1
  O  O52  1  0.24348600  0.46694100  0.65757100  1
  O  O53  1  0.75651400  0.53305900  0.34242900  1
  O  O54  1  0.74348600  0.53305900  0.84242900  1
  O  O55  1  0.25651400  0.46694100  0.15757100  1
  O  O56  1  0.30950500  0.93594100  0.62217500  1
  O  O57  1  0.69049500  0.06405900  0.37782500  1
  O  O58  1  0.80950500  0.06405900  0.87782500  1
  O  O59  1  0.19049500  0.93594100  0.12217500  1
