# generated using pymatgen
data_K2Ni3S2
_symmetry_space_group_name_H-M   'P 1'
_cell_length_a   11.96817000
_cell_length_b   7.92268325
_cell_length_c   12.34897864
_cell_angle_alpha   68.53028722
_cell_angle_beta   61.01495138
_cell_angle_gamma   40.94750138
_symmetry_Int_Tables_number   1
_chemical_formula_structural   K2Ni3S2
_chemical_formula_sum   'K8 Ni12 S8'
_cell_volume   671.27096810
_cell_formula_units_Z   4
loop_
 _symmetry_equiv_pos_site_id
 _symmetry_equiv_pos_as_xyz
  1  'x, y, z'
loop_
 _atom_site_type_symbol
 _atom_site_label
 _atom_site_symmetry_multiplicity
 _atom_site_fract_x
 _atom_site_fract_y
 _atom_site_fract_z
 _atom_site_occupancy
  K  K0  1  0.51878400  0.25641500  0.06509100  1
  K  K1  1  0.41612500  0.74358500  0.06509100  1
  K  K2  1  0.22480000  0.25641500  0.93490900  1
  K  K3  1  0.23121500  0.24358500  0.43490900  1
  K  K4  1  0.84029000  0.74358500  0.93490900  1
  K  K5  1  0.33387500  0.75641500  0.43490900  1
  K  K6  1  0.52520000  0.24358500  0.56509100  1
  K  K7  1  0.90971000  0.75641500  0.56509100  1
  Ni  Ni8  1  0.66194700  0.27871500  0.74418100  1
  Ni  Ni9  1  0.59387200  0.72128500  0.74418100  1
  Ni  Ni10  1  0.05933800  0.27871500  0.25581900  1
  Ni  Ni11  1  0.08805300  0.22128500  0.75581900  1
  Ni  Ni12  1  0.68484300  0.72128500  0.25581900  1
  Ni  Ni13  1  0.15612800  0.77871500  0.75581900  1
  Ni  Ni14  1  0.69066200  0.22128500  0.24418100  1
  Ni  Ni15  1  0.06515700  0.77871500  0.24418100  1
  Ni  Ni16  1  0.87500000  0.25000000  0.25000000  1
  Ni  Ni17  1  0.87500000  0.75000000  0.25000000  1
  Ni  Ni18  1  0.87500000  0.25000000  0.75000000  1
  Ni  Ni19  1  0.37500000  0.75000000  0.75000000  1
  S  S20  1  0.65660100  0.55231600  0.18237100  1
  S  S21  1  0.16102800  0.44768400  0.18237100  1
  S  S22  1  0.79108300  0.55231600  0.81762900  1
  S  S23  1  0.09339900  0.94768400  0.31762900  1
  S  S24  1  0.39128800  0.44768400  0.81762900  1
  S  S25  1  0.58897200  0.05231600  0.31762900  1
  S  S26  1  0.95891700  0.94768400  0.68237100  1
  S  S27  1  0.35871200  0.05231600  0.68237100  1
