# generated using pymatgen
data_Dy(AsO)2
_symmetry_space_group_name_H-M   'P 1'
_cell_length_a   10.30786434
_cell_length_b   10.30786434
_cell_length_c   10.30786434
_cell_angle_alpha   116.14322196
_cell_angle_beta   116.14322196
_cell_angle_gamma   96.82094966
_symmetry_Int_Tables_number   1
_chemical_formula_structural   Dy(AsO)2
_chemical_formula_sum   'Dy4 As8 O8'
_cell_volume   813.34745522
_cell_formula_units_Z   4
loop_
 _symmetry_equiv_pos_site_id
 _symmetry_equiv_pos_as_xyz
  1  'x, y, z'
loop_
 _atom_site_type_symbol
 _atom_site_label
 _atom_site_symmetry_multiplicity
 _atom_site_fract_x
 _atom_site_fract_y
 _atom_site_fract_z
 _atom_site_occupancy
  Dy  Dy0  1  0.87500000  0.12500000  0.75000000  1
  Dy  Dy1  1  0.37500000  0.12500000  0.25000000  1
  Dy  Dy2  1  0.87500000  0.62500000  0.75000000  1
  Dy  Dy3  1  0.87500000  0.12500000  0.25000000  1
  As  As4  1  0.77009500  0.38816100  0.38193300  1
  As  As5  1  0.00622800  0.38816100  0.61806700  1
  As  As6  1  0.13816100  0.25622800  0.11806700  1
  As  As7  1  0.74377200  0.86183900  0.88193300  1
  As  As8  1  0.97990500  0.86183900  0.11806700  1
  As  As9  1  0.13816100  0.02009500  0.88193300  1
  As  As10  1  0.61183900  0.99377200  0.38193300  1
  As  As11  1  0.61183900  0.22990500  0.61806700  1
  O  O12  1  0.57854000  0.27419100  0.30434900  1
  O  O13  1  0.96984200  0.27419100  0.69565100  1
  O  O14  1  0.02419100  0.21984200  0.19565100  1
  O  O15  1  0.78015800  0.97580900  0.80434900  1
  O  O16  1  0.17146000  0.97580900  0.19565100  1
  O  O17  1  0.02419100  0.82854000  0.80434900  1
  O  O18  1  0.72580900  0.03015800  0.30434900  1
  O  O19  1  0.72580900  0.42146000  0.69565100  1
