# generated using pymatgen
data_CuH8C2(N2O3)2
_symmetry_space_group_name_H-M   'P 1'
_cell_length_a   7.34011800
_cell_length_b   8.61816068
_cell_length_c   16.47964055
_cell_angle_alpha   84.10301067
_cell_angle_beta   77.13217982
_cell_angle_gamma   64.79541025
_symmetry_Int_Tables_number   1
_chemical_formula_structural   CuH8C2(N2O3)2
_chemical_formula_sum   'Cu4 H32 C8 N16 O24'
_cell_volume   919.49879400
_cell_formula_units_Z   4
loop_
 _symmetry_equiv_pos_site_id
 _symmetry_equiv_pos_as_xyz
  1  'x, y, z'
loop_
 _atom_site_type_symbol
 _atom_site_label
 _atom_site_symmetry_multiplicity
 _atom_site_fract_x
 _atom_site_fract_y
 _atom_site_fract_z
 _atom_site_occupancy
  Cu  Cu0  1  0.91239500  0.90139700  0.11034700  1
  Cu  Cu1  1  0.08760500  0.09860300  0.88965300  1
  Cu  Cu2  1  0.92413900  0.59860300  0.38965300  1
  Cu  Cu3  1  0.07586100  0.40139700  0.61034700  1
  H  H4  1  0.25877700  0.78044300  0.18005400  1
  H  H5  1  0.74122300  0.21955700  0.81994600  1
  H  H6  1  0.21927400  0.71955700  0.31994600  1
  H  H7  1  0.78072600  0.28044300  0.68005400  1
  H  H8  1  0.54209100  0.02092600  0.20781000  1
  H  H9  1  0.45790900  0.97907400  0.79219000  1
  H  H10  1  0.77082700  0.47907400  0.29219000  1
  H  H11  1  0.22917300  0.52092600  0.70781000  1
  H  H12  1  0.55348700  0.26498200  0.51166500  1
  H  H13  1  0.44651300  0.73501800  0.48833500  1
  H  H14  1  0.33013300  0.23501800  0.98833500  1
  H  H15  1  0.66986700  0.76498200  0.01166500  1
  H  H16  1  0.59200500  0.54195400  0.48281200  1
  H  H17  1  0.40799500  0.45804600  0.51718800  1
  H  H18  1  0.61677100  0.95804600  0.01718800  1
  H  H19  1  0.38322900  0.04195400  0.98281200  1
  H  H20  1  0.64167800  0.26245700  0.32941500  1
  H  H21  1  0.35832200  0.73754300  0.67058500  1
  H  H22  1  0.23354900  0.23754300  0.17058500  1
  H  H23  1  0.76645100  0.76245700  0.82941500  1
  H  H24  1  0.36601000  0.52162500  0.31392500  1
  H  H25  1  0.63399000  0.47837500  0.68607500  1
  H  H26  1  0.20156000  0.97837500  0.18607500  1
  H  H27  1  0.79844000  0.02162500  0.81392500  1
  H  H28  1  0.71533300  0.92535300  0.26671600  1
  H  H29  1  0.28466700  0.07464700  0.73328400  1
  H  H30  1  0.90740200  0.57464700  0.23328400  1
  H  H31  1  0.09259800  0.42535300  0.76671600  1
  H  H32  1  0.64463200  0.31713800  0.23420300  1
  H  H33  1  0.35536800  0.68286200  0.76579700  1
  H  H34  1  0.19597300  0.18286200  0.26579700  1
  H  H35  1  0.80402700  0.81713800  0.73420300  1
  C  C36  1  0.75086200  0.95964600  0.42101500  1
  C  C37  1  0.24913800  0.04035400  0.57898500  1
  C  C38  1  0.13152300  0.54035400  0.07898500  1
  C  C39  1  0.86847700  0.45964600  0.92101500  1
  C  C40  1  0.18580200  0.63239500  0.00258800  1
  C  C41  1  0.81419800  0.36760500  0.99741200  1
  C  C42  1  0.82078500  0.86760500  0.49741200  1
  C  C43  1  0.17921500  0.13239500  0.50258800  1
  N  N44  1  0.69379200  0.42511700  0.07166000  1
  N  N45  1  0.30620800  0.57488300  0.92834000  1
  N  N46  1  0.19056900  0.07488300  0.42834000  1
  N  N47  1  0.80943100  0.92511700  0.57166000  1
  N  N48  1  0.10058700  0.80432400  0.00396100  1
  N  N49  1  0.89941300  0.19567600  0.99603900  1
  N  N50  1  0.90887200  0.69567600  0.49603900  1
  N  N51  1  0.09112800  0.30432400  0.50396100  1
  N  N52  1  0.82985000  0.14608500  0.07129600  1
  N  N53  1  0.17015000  0.85391500  0.92870400  1
  N  N54  1  0.04723100  0.35391500  0.42870400  1
  N  N55  1  0.95276900  0.64608500  0.57129600  1
  N  N56  1  0.70638500  0.28483100  0.11688000  1
  N  N57  1  0.29361500  0.71516900  0.88312000  1
  N  N58  1  0.10809700  0.21516900  0.38312000  1
  N  N59  1  0.89190300  0.78483100  0.61688000  1
  O  O60  1  0.62017300  0.36174600  0.29058200  1
  O  O61  1  0.37982700  0.63825400  0.70941800  1
  O  O62  1  0.27250100  0.13825400  0.20941800  1
  O  O63  1  0.72749900  0.86174600  0.79058200  1
  O  O64  1  0.78884400  0.85654200  0.36165200  1
  O  O65  1  0.21115600  0.14345800  0.63834800  1
  O  O66  1  0.00703800  0.64345800  0.13834800  1
  O  O67  1  0.99296200  0.35654200  0.86165200  1
  O  O68  1  0.52018200  0.63920900  0.44865400  1
  O  O69  1  0.47981800  0.36079100  0.55134600  1
  O  O70  1  0.60804600  0.86079100  0.05134600  1
  O  O71  1  0.39195400  0.13920900  0.94865400  1
  O  O72  1  0.14411700  0.89299900  0.18499000  1
  O  O73  1  0.85588300  0.10700100  0.81501000  1
  O  O74  1  0.22210600  0.60700100  0.31501000  1
  O  O75  1  0.77789400  0.39299900  0.68499000  1
  O  O76  1  0.69053300  0.96877400  0.21002600  1
  O  O77  1  0.30946700  0.03122600  0.78997400  1
  O  O78  1  0.86933200  0.53122600  0.28997400  1
  O  O79  1  0.13066800  0.46877400  0.71002600  1
  O  O80  1  0.66374000  0.11964600  0.41777500  1
  O  O81  1  0.33626000  0.88035400  0.58222500  1
  O  O82  1  0.20116200  0.38035400  0.08222500  1
  O  O83  1  0.79883800  0.61964600  0.91777500  1
