# generated using pymatgen
data_Dy11Ge18
_symmetry_space_group_name_H-M   'P 1'
_cell_length_a   32.65854119
_cell_length_b   32.03213918
_cell_length_c   7.53831229
_cell_angle_alpha   88.06534553
_cell_angle_beta   78.59692720
_cell_angle_gamma   13.33772727
_symmetry_Int_Tables_number   1
_chemical_formula_structural   Dy11Ge18
_chemical_formula_sum   'Dy22 Ge36'
_cell_volume   1271.05012317
_cell_formula_units_Z   2
loop_
 _symmetry_equiv_pos_site_id
 _symmetry_equiv_pos_as_xyz
  1  'x, y, z'
loop_
 _atom_site_type_symbol
 _atom_site_label
 _atom_site_symmetry_multiplicity
 _atom_site_fract_x
 _atom_site_fract_y
 _atom_site_fract_z
 _atom_site_occupancy
  Dy  Dy0  1  0.08954900  0.09249900  0.92452600  1
  Dy  Dy1  1  0.89342600  0.92452600  0.09249900  1
  Dy  Dy2  1  0.15750100  0.16045100  0.35657400  1
  Dy  Dy3  1  0.32547400  0.35657400  0.16045100  1
  Dy  Dy4  1  0.64137600  0.63217600  0.35561100  1
  Dy  Dy5  1  0.37083700  0.35561100  0.63217600  1
  Dy  Dy6  1  0.61782400  0.60862400  0.87916300  1
  Dy  Dy7  1  0.89438900  0.87916300  0.60862400  1
  Dy  Dy8  1  0.51700200  0.57229900  0.47682600  1
  Dy  Dy9  1  0.43387400  0.47682600  0.57229900  1
  Dy  Dy10  1  0.67770100  0.73299800  0.81612600  1
  Dy  Dy11  1  0.77317400  0.81612600  0.73299800  1
  Dy  Dy12  1  0.15710300  0.20608600  0.84037500  1
  Dy  Dy13  1  0.79643600  0.84037500  0.20608600  1
  Dy  Dy14  1  0.04391400  0.09289700  0.45356400  1
  Dy  Dy15  1  0.40962500  0.45356400  0.09289700  1
  Dy  Dy16  1  0.01833100  0.98166900  0.98166900  1
  Dy  Dy17  1  0.26833100  0.23166900  0.23166900  1
  Dy  Dy18  1  0.72668800  0.72543600  0.28582200  1
  Dy  Dy19  1  0.26205400  0.28582200  0.72543600  1
  Dy  Dy20  1  0.52456400  0.52331200  0.98794600  1
  Dy  Dy21  1  0.96417800  0.98794600  0.52331200  1
  Ge  Ge22  1  0.63692500  0.54490200  0.46946600  1
  Ge  Ge23  1  0.34870700  0.46946600  0.54490200  1
  Ge  Ge24  1  0.70509800  0.61307500  0.90129300  1
  Ge  Ge25  1  0.78053400  0.90129300  0.61307500  1
  Ge  Ge26  1  0.39057700  0.24436000  0.77178800  1
  Ge  Ge27  1  0.59327500  0.77178800  0.24436000  1
  Ge  Ge28  1  0.00564000  0.85942300  0.65672500  1
  Ge  Ge29  1  0.47821200  0.65672500  0.85942300  1
  Ge  Ge30  1  0.25954300  0.95862500  0.44229700  1
  Ge  Ge31  1  0.33953400  0.44229700  0.95862500  1
  Ge  Ge32  1  0.29137500  0.99045700  0.91046600  1
  Ge  Ge33  1  0.80770300  0.91046600  0.99045700  1
  Ge  Ge34  1  0.11845200  0.28900800  0.22145000  1
  Ge  Ge35  1  0.37109100  0.22145000  0.28900800  1
  Ge  Ge36  1  0.96099200  0.13154800  0.87890900  1
  Ge  Ge37  1  0.02855000  0.87890900  0.13154800  1
  Ge  Ge38  1  0.28290900  0.17445100  0.83866200  1
  Ge  Ge39  1  0.70397900  0.83866200  0.17445100  1
  Ge  Ge40  1  0.07554900  0.96709100  0.54602100  1
  Ge  Ge41  1  0.41133800  0.54602100  0.96709100  1
  Ge  Ge42  1  0.71028200  0.64429900  0.49130500  1
  Ge  Ge43  1  0.15411400  0.49130500  0.64429900  1
  Ge  Ge44  1  0.60570100  0.53971800  0.09588600  1
  Ge  Ge45  1  0.75869500  0.09588600  0.53971800  1
  Ge  Ge46  1  0.02242200  0.20635400  0.31680100  1
  Ge  Ge47  1  0.45442300  0.31680100  0.20635400  1
  Ge  Ge48  1  0.04364600  0.22757800  0.79557700  1
  Ge  Ge49  1  0.93319900  0.79557700  0.22757800  1
  Ge  Ge50  1  0.07274400  0.00887800  0.12918300  1
  Ge  Ge51  1  0.78919500  0.12918300  0.00887800  1
  Ge  Ge52  1  0.24112200  0.17725600  0.46080500  1
  Ge  Ge53  1  0.12081700  0.46080500  0.17725600  1
  Ge  Ge54  1  0.62789200  0.37808600  0.55676100  1
  Ge  Ge55  1  0.43726200  0.55676100  0.37808600  1
  Ge  Ge56  1  0.87191400  0.62210800  0.81273800  1
  Ge  Ge57  1  0.69323900  0.81273800  0.62210800  1
