# generated using pymatgen
data_FeN2F5
_symmetry_space_group_name_H-M   'P 1'
_cell_length_a   7.08222800
_cell_length_b   9.22043600
_cell_length_c   15.61083200
_cell_angle_alpha   90.00000000
_cell_angle_beta   90.00000000
_cell_angle_gamma   90.00000000
_symmetry_Int_Tables_number   1
_chemical_formula_structural   FeN2F5
_chemical_formula_sum   'Fe8 N16 F40'
_cell_volume   1019.40653110
_cell_formula_units_Z   8
loop_
 _symmetry_equiv_pos_site_id
 _symmetry_equiv_pos_as_xyz
  1  'x, y, z'
loop_
 _atom_site_type_symbol
 _atom_site_label
 _atom_site_symmetry_multiplicity
 _atom_site_fract_x
 _atom_site_fract_y
 _atom_site_fract_z
 _atom_site_occupancy
  Fe  Fe0  1  0.15539600  0.93153800  0.09405400  1
  Fe  Fe1  1  0.84460400  0.06846200  0.90594600  1
  Fe  Fe2  1  0.34460400  0.43153800  0.40594600  1
  Fe  Fe3  1  0.84460400  0.56846200  0.09405400  1
  Fe  Fe4  1  0.65539600  0.56846200  0.59405400  1
  Fe  Fe5  1  0.15539600  0.43153800  0.90594600  1
  Fe  Fe6  1  0.65539600  0.06846200  0.40594600  1
  Fe  Fe7  1  0.34460400  0.93153800  0.59405400  1
  N  N8  1  0.34108600  0.56389600  0.15630200  1
  N  N9  1  0.65891400  0.43610400  0.84369800  1
  N  N10  1  0.15891400  0.06389600  0.34369800  1
  N  N11  1  0.65891400  0.93610400  0.15630200  1
  N  N12  1  0.84108600  0.93610400  0.65630200  1
  N  N13  1  0.34108600  0.06389600  0.84369800  1
  N  N14  1  0.84108600  0.43610400  0.34369800  1
  N  N15  1  0.15891400  0.56389600  0.65630200  1
  N  N16  1  0.00000000  0.75000000  0.39507500  1
  N  N17  1  0.00000000  0.25000000  0.60492500  1
  N  N18  1  0.50000000  0.25000000  0.10492500  1
  N  N19  1  0.50000000  0.75000000  0.89507500  1
  N  N20  1  0.00000000  0.75000000  0.87086900  1
  N  N21  1  0.00000000  0.25000000  0.12913100  1
  N  N22  1  0.50000000  0.25000000  0.62913100  1
  N  N23  1  0.50000000  0.75000000  0.37086900  1
  F  F24  1  0.13625900  0.84409900  0.55363400  1
  F  F25  1  0.86374100  0.15590100  0.44636600  1
  F  F26  1  0.36374100  0.34409900  0.94636600  1
  F  F27  1  0.86374100  0.65590100  0.55363400  1
  F  F28  1  0.63625900  0.65590100  0.05363400  1
  F  F29  1  0.13625900  0.34409900  0.44636600  1
  F  F30  1  0.63625900  0.15590100  0.94636600  1
  F  F31  1  0.36374100  0.84409900  0.05363400  1
  F  F32  1  0.19106600  0.62577300  0.39908900  1
  F  F33  1  0.80893400  0.37422700  0.60091100  1
  F  F34  1  0.30893400  0.12577300  0.10091100  1
  F  F35  1  0.80893400  0.87422700  0.39908900  1
  F  F36  1  0.69106600  0.87422700  0.89908900  1
  F  F37  1  0.19106600  0.12577300  0.60091100  1
  F  F38  1  0.69106600  0.37422700  0.10091100  1
  F  F39  1  0.30893400  0.62577300  0.89908900  1
  F  F40  1  0.31637000  0.68112400  0.20124100  1
  F  F41  1  0.68363000  0.31887600  0.79875900  1
  F  F42  1  0.18363000  0.18112400  0.29875900  1
  F  F43  1  0.68363000  0.81887600  0.20124100  1
  F  F44  1  0.81637000  0.81887600  0.70124100  1
  F  F45  1  0.31637000  0.18112400  0.79875900  1
  F  F46  1  0.81637000  0.31887600  0.29875900  1
  F  F47  1  0.18363000  0.68112400  0.70124100  1
  F  F48  1  0.00000000  0.50000000  0.00000000  1
  F  F49  1  0.50000000  0.00000000  0.50000000  1
  F  F50  1  0.00000000  0.00000000  0.00000000  1
  F  F51  1  0.50000000  0.50000000  0.50000000  1
  F  F52  1  0.91116500  0.54785600  0.20683300  1
  F  F53  1  0.08883500  0.45214400  0.79316700  1
  F  F54  1  0.58883500  0.04785600  0.29316700  1
  F  F55  1  0.08883500  0.95214400  0.20683300  1
  F  F56  1  0.41116500  0.95214400  0.70683300  1
  F  F57  1  0.91116500  0.04785600  0.79316700  1
  F  F58  1  0.41116500  0.45214400  0.29316700  1
  F  F59  1  0.58883500  0.54785600  0.70683300  1
  F  F60  1  0.00000000  0.75000000  0.08836100  1
  F  F61  1  0.00000000  0.25000000  0.91163900  1
  F  F62  1  0.50000000  0.25000000  0.41163900  1
  F  F63  1  0.50000000  0.75000000  0.58836100  1
