# generated using pymatgen
data_GdSbO4
_symmetry_space_group_name_H-M   'P 1'
_cell_length_a   5.38705479
_cell_length_b   7.46104011
_cell_length_c   8.14903748
_cell_angle_alpha   85.68387705
_cell_angle_beta   91.49173058
_cell_angle_gamma   96.35832317
_symmetry_Int_Tables_number   1
_chemical_formula_structural   GdSbO4
_chemical_formula_sum   'Gd4 Sb4 O16'
_cell_volume   324.54483378
_cell_formula_units_Z   4
loop_
 _symmetry_equiv_pos_site_id
 _symmetry_equiv_pos_as_xyz
  1  'x, y, z'
loop_
 _atom_site_type_symbol
 _atom_site_label
 _atom_site_symmetry_multiplicity
 _atom_site_fract_x
 _atom_site_fract_y
 _atom_site_fract_z
 _atom_site_occupancy
  Gd  Gd0  1  0.23261900  0.13309400  0.63687700  1
  Gd  Gd1  1  0.76739200  0.86688500  0.36310000  1
  Gd  Gd2  1  0.23370900  0.16934700  0.10572800  1
  Gd  Gd3  1  0.76627700  0.83063300  0.89429400  1
  Sb  Sb4  1  0.21857800  0.62962800  0.21719300  1
  Sb  Sb5  1  0.78143500  0.37034700  0.78279100  1
  Sb  Sb6  1  0.75833000  0.33041200  0.33388700  1
  Sb  Sb7  1  0.24169600  0.66962300  0.66609500  1
  O  O8  1  0.08793200  0.41858400  0.62979000  1
  O  O9  1  0.91202300  0.58144900  0.37022000  1
  O  O10  1  0.62647500  0.27978700  0.56499200  1
  O  O11  1  0.37357400  0.72019400  0.43506100  1
  O  O12  1  0.97587000  0.40605000  0.13025400  1
  O  O13  1  0.02411900  0.59392300  0.86971500  1
  O  O14  1  0.42757700  0.41694300  0.24526800  1
  O  O15  1  0.57242200  0.58305100  0.75471100  1
  O  O16  1  0.04304800  0.85469100  0.14386500  1
  O  O17  1  0.95693500  0.14533600  0.85613400  1
  O  O18  1  0.57241000  0.10733300  0.25689100  1
  O  O19  1  0.42749100  0.89265700  0.74315600  1
  O  O20  1  0.48438700  0.23651300  0.88554000  1
  O  O21  1  0.51570600  0.76349700  0.11445400  1
  O  O22  1  0.01821100  0.15415800  0.38443200  1
  O  O23  1  0.98178500  0.84586600  0.61555200  1
