# generated using pymatgen
data_K2Te(MoO5)3
_symmetry_space_group_name_H-M   'P 1'
_cell_length_a   9.68883600
_cell_length_b   10.35753900
_cell_length_c   16.72981435
_cell_angle_alpha   69.20458139
_cell_angle_beta   90.00000000
_cell_angle_gamma   90.00000000
_symmetry_Int_Tables_number   1
_chemical_formula_structural   K2Te(MoO5)3
_chemical_formula_sum   'K8 Te4 Mo12 O60'
_cell_volume   1569.50652602
_cell_formula_units_Z   4
loop_
 _symmetry_equiv_pos_site_id
 _symmetry_equiv_pos_as_xyz
  1  'x, y, z'
loop_
 _atom_site_type_symbol
 _atom_site_label
 _atom_site_symmetry_multiplicity
 _atom_site_fract_x
 _atom_site_fract_y
 _atom_site_fract_z
 _atom_site_occupancy
  K  K0  1  0.36698400  0.58374500  0.60095300  1
  K  K1  1  0.63301600  0.41625500  0.39904700  1
  K  K2  1  0.86698400  0.41625500  0.89904700  1
  K  K3  1  0.13301600  0.58374500  0.10095300  1
  K  K4  1  0.13787800  0.23568700  0.74225400  1
  K  K5  1  0.86212200  0.76431300  0.25774600  1
  K  K6  1  0.63787800  0.76431300  0.75774600  1
  K  K7  1  0.36212200  0.23568700  0.24225400  1
  Te  Te8  1  0.35597300  0.93718700  0.93668800  1
  Te  Te9  1  0.64402700  0.06281300  0.06331200  1
  Te  Te10  1  0.85597300  0.06281300  0.56331200  1
  Te  Te11  1  0.14402700  0.93718700  0.43668800  1
  Mo  Mo12  1  0.75500600  0.75133100  0.50866500  1
  Mo  Mo13  1  0.24499400  0.24866900  0.49133500  1
  Mo  Mo14  1  0.25500600  0.24866900  0.99133500  1
  Mo  Mo15  1  0.74499400  0.75133100  0.00866500  1
  Mo  Mo16  1  0.00166300  0.68739800  0.66100200  1
  Mo  Mo17  1  0.99833700  0.31260200  0.33899800  1
  Mo  Mo18  1  0.50166300  0.31260200  0.83899800  1
  Mo  Mo19  1  0.49833700  0.68739800  0.16100200  1
  Mo  Mo20  1  0.25170200  0.91904400  0.65824800  1
  Mo  Mo21  1  0.74829800  0.08095600  0.34175200  1
  Mo  Mo22  1  0.75170200  0.08095600  0.84175200  1
  Mo  Mo23  1  0.24829800  0.91904400  0.15824800  1
  O  O24  1  0.02533800  0.10326100  0.60018500  1
  O  O25  1  0.97466200  0.89673900  0.39981500  1
  O  O26  1  0.52533800  0.89673900  0.89981500  1
  O  O27  1  0.47466200  0.10326100  0.10018500  1
  O  O28  1  0.21883000  0.63127600  0.89974800  1
  O  O29  1  0.78117000  0.36872400  0.10025200  1
  O  O30  1  0.71883000  0.36872400  0.60025200  1
  O  O31  1  0.28117000  0.63127600  0.39974800  1
  O  O32  1  0.09317200  0.81072700  0.70914400  1
  O  O33  1  0.90682800  0.18927300  0.29085600  1
  O  O34  1  0.59317200  0.18927300  0.79085600  1
  O  O35  1  0.40682800  0.81072700  0.20914400  1
  O  O36  1  0.12314000  0.31054900  0.91691900  1
  O  O37  1  0.87686000  0.68945100  0.08308100  1
  O  O38  1  0.62314000  0.68945100  0.58308100  1
  O  O39  1  0.37686000  0.31054900  0.41691900  1
  O  O40  1  0.86469200  0.87098800  0.58458100  1
  O  O41  1  0.13530800  0.12901200  0.41541900  1
  O  O42  1  0.36469200  0.12901200  0.91541900  1
  O  O43  1  0.63530800  0.87098800  0.08458100  1
  O  O44  1  0.80224800  0.93746200  0.94680500  1
  O  O45  1  0.19775200  0.06253800  0.05319500  1
  O  O46  1  0.30224800  0.06253800  0.55319500  1
  O  O47  1  0.69775200  0.93746200  0.44680500  1
  O  O48  1  0.12185900  0.55378300  0.68224800  1
  O  O49  1  0.87814100  0.44621700  0.31775200  1
  O  O50  1  0.62185900  0.44621700  0.81775200  1
  O  O51  1  0.37814100  0.55378300  0.18224800  1
  O  O52  1  0.28334600  0.00539400  0.72805600  1
  O  O53  1  0.71665400  0.99460600  0.27194400  1
  O  O54  1  0.78334600  0.99460600  0.77194400  1
  O  O55  1  0.21665400  0.00539400  0.22805600  1
  O  O56  1  0.37902000  0.37405600  0.75822100  1
  O  O57  1  0.62098000  0.62594400  0.24177900  1
  O  O58  1  0.87902000  0.62594400  0.74177900  1
  O  O59  1  0.12098000  0.37405600  0.25822100  1
  O  O60  1  0.38385200  0.79699500  0.67734400  1
  O  O61  1  0.61614800  0.20300500  0.32265600  1
  O  O62  1  0.88385200  0.20300500  0.82265600  1
  O  O63  1  0.11614800  0.79699500  0.17734400  1
  O  O64  1  0.27169300  0.32717300  0.56691500  1
  O  O65  1  0.72830700  0.67282700  0.43308500  1
  O  O66  1  0.77169300  0.67282700  0.93308500  1
  O  O67  1  0.22830700  0.32717300  0.06691500  1
  O  O68  1  0.18753400  0.91005700  0.89904400  1
  O  O69  1  0.81246600  0.08994300  0.10095600  1
  O  O70  1  0.68753400  0.08994300  0.60095600  1
  O  O71  1  0.31246600  0.91005700  0.39904400  1
  O  O72  1  0.34181800  0.66381800  0.89413200  1
  O  O73  1  0.65818200  0.33618200  0.10586800  1
  O  O74  1  0.84181800  0.33618200  0.60586800  1
  O  O75  1  0.15818200  0.66381800  0.39413200  1
  O  O76  1  0.14819300  0.83787600  0.55615500  1
  O  O77  1  0.85180700  0.16212400  0.44384500  1
  O  O78  1  0.64819300  0.16212400  0.94384500  1
  O  O79  1  0.35180700  0.83787600  0.05615500  1
  O  O80  1  0.91324300  0.64954100  0.56629900  1
  O  O81  1  0.08675700  0.35045900  0.43370100  1
  O  O82  1  0.41324300  0.35045900  0.93370100  1
  O  O83  1  0.58675700  0.64954100  0.06629900  1
