# generated using pymatgen
data_Er3TlS6
_symmetry_space_group_name_H-M   'P 1'
_cell_length_a   12.87627469
_cell_length_b   10.27596157
_cell_length_c   60.24855853
_cell_angle_alpha   90.00000000
_cell_angle_beta   90.00000000
_cell_angle_gamma   128.79414130
_symmetry_Int_Tables_number   1
_chemical_formula_structural   Er3TlS6
_chemical_formula_sum   'Er3 Tl1 S6'
_cell_volume   6213.27963174
_cell_formula_units_Z   1
loop_
 _symmetry_equiv_pos_site_id
 _symmetry_equiv_pos_as_xyz
  1  'x, y, z'
loop_
 _atom_site_type_symbol
 _atom_site_label
 _atom_site_symmetry_multiplicity
 _atom_site_fract_x
 _atom_site_fract_y
 _atom_site_fract_z
 _atom_site_occupancy
  Er  Er0  1  0.00000000  0.00000000  0.50000000  1
  Er  Er1  1  0.50000000  0.50000000  0.00000000  1
  Er  Er2  1  0.00000000  0.50000000  0.00000000  1
  Tl  Tl3  1  0.00000000  0.00000000  0.00000000  1
  S  S4  1  0.00000000  0.00000000  0.76394644  1
  S  S5  1  0.00000000  0.00000000  0.23605356  1
  S  S6  1  0.72640911  0.75157138  -0.00000000  1
  S  S7  1  0.27359089  0.24842862  0.00000000  1
  S  S8  1  0.97483773  0.24842862  -0.00000000  1
  S  S9  1  0.02516227  0.75157138  0.00000000  1
