# generated using pymatgen
data_CuSn3F6
_symmetry_space_group_name_H-M   'P 1'
_cell_length_a   11.03586000
_cell_length_b   11.51366701
_cell_length_c   21.27758989
_cell_angle_alpha   97.96625098
_cell_angle_beta   88.89468430
_cell_angle_gamma   117.75209436
_symmetry_Int_Tables_number   1
_chemical_formula_structural   CuSn3F6
_chemical_formula_sum   'Cu1 Sn3 F6'
_cell_volume   2366.35738273
_cell_formula_units_Z   1
loop_
 _symmetry_equiv_pos_site_id
 _symmetry_equiv_pos_as_xyz
  1  'x, y, z'
loop_
 _atom_site_type_symbol
 _atom_site_label
 _atom_site_symmetry_multiplicity
 _atom_site_fract_x
 _atom_site_fract_y
 _atom_site_fract_z
 _atom_site_occupancy
  Cu  Cu0  1  0.00000000  0.00000000  0.00000000  1
  Sn  Sn1  1  0.00000000  0.00000000  0.50000000  1
  Sn  Sn2  1  0.50000000  0.50000000  0.00000000  1
  Sn  Sn3  1  0.50000000  0.00000000  0.00000000  1
  F  F4  1  0.39864800  0.00532100  0.08231100  1
  F  F5  1  0.60135200  0.99467900  0.91768900  1
  F  F6  1  0.92202400  0.92681200  0.40722700  1
  F  F7  1  0.07797600  0.07318800  0.59277300  1
  F  F8  1  0.70871600  0.61864500  0.99557100  1
  F  F9  1  0.29128400  0.38135500  0.00442900  1
