# generated using pymatgen
data_Co(IO5)2
_symmetry_space_group_name_H-M   'P 1'
_cell_length_a   6.32216900
_cell_length_b   7.66617201
_cell_length_c   8.14418282
_cell_angle_alpha   97.97443376
_cell_angle_beta   90.00000000
_cell_angle_gamma   90.00000000
_symmetry_Int_Tables_number   1
_chemical_formula_structural   Co(IO5)2
_chemical_formula_sum   'Co2 I4 O20'
_cell_volume   390.90582453
_cell_formula_units_Z   2
loop_
 _symmetry_equiv_pos_site_id
 _symmetry_equiv_pos_as_xyz
  1  'x, y, z'
loop_
 _atom_site_type_symbol
 _atom_site_label
 _atom_site_symmetry_multiplicity
 _atom_site_fract_x
 _atom_site_fract_y
 _atom_site_fract_z
 _atom_site_occupancy
  Co  Co0  1  0.00000000  0.00000000  0.00000000  1
  Co  Co1  1  0.50000000  0.00000000  0.50000000  1
  I  I2  1  0.30770300  0.65902600  0.96115100  1
  I  I3  1  0.69229700  0.34097400  0.03884900  1
  I  I4  1  0.80770300  0.34097400  0.53884900  1
  I  I5  1  0.19229700  0.65902600  0.46115100  1
  O  O6  1  0.58437100  0.92117100  0.68360500  1
  O  O7  1  0.41562900  0.07882900  0.31639500  1
  O  O8  1  0.08437100  0.07882900  0.81639500  1
  O  O9  1  0.91562900  0.92117100  0.18360500  1
  O  O10  1  0.88066800  0.35085200  0.75838700  1
  O  O11  1  0.11933200  0.64914800  0.24161300  1
  O  O12  1  0.38066800  0.64914800  0.74161300  1
  O  O13  1  0.61933200  0.35085200  0.25838700  1
  O  O14  1  0.91168700  0.78724500  0.91863200  1
  O  O15  1  0.08831300  0.21275500  0.08136800  1
  O  O16  1  0.41168700  0.21275500  0.58136800  1
  O  O17  1  0.58831300  0.78724500  0.41863200  1
  O  O18  1  0.21916100  0.90661100  0.51722900  1
  O  O19  1  0.78083900  0.09338900  0.48277100  1
  O  O20  1  0.71916100  0.09338900  0.98277100  1
  O  O21  1  0.28083900  0.90661100  0.01722900  1
  O  O22  1  0.93230100  0.66654400  0.56042800  1
  O  O23  1  0.06769900  0.33345600  0.43957200  1
  O  O24  1  0.43230100  0.33345600  0.93957200  1
  O  O25  1  0.56769900  0.66654400  0.06042800  1
