# generated using pymatgen
data_Cs3Tl2Br9
_symmetry_space_group_name_H-M   'P 1'
_cell_length_a   8.04157951
_cell_length_b   8.04157951
_cell_length_c   9.84161200
_cell_angle_alpha   90.00000000
_cell_angle_beta   90.00000000
_cell_angle_gamma   119.99999596
_symmetry_Int_Tables_number   1
_chemical_formula_structural   Cs3Tl2Br9
_chemical_formula_sum   'Cs3 Tl2 Br9'
_cell_volume   551.16243375
_cell_formula_units_Z   1
loop_
 _symmetry_equiv_pos_site_id
 _symmetry_equiv_pos_as_xyz
  1  'x, y, z'
loop_
 _atom_site_type_symbol
 _atom_site_label
 _atom_site_symmetry_multiplicity
 _atom_site_fract_x
 _atom_site_fract_y
 _atom_site_fract_z
 _atom_site_occupancy
  Cs  Cs0  1  0.33333300  0.66666700  0.66384300  1
  Cs  Cs1  1  0.66666700  0.33333300  0.33615700  1
  Cs  Cs2  1  0.00000000  0.00000000  0.00000000  1
  Tl  Tl3  1  0.33333300  0.66666700  0.18841800  1
  Tl  Tl4  1  0.66666700  0.33333300  0.81158200  1
  Br  Br5  1  0.50000000  0.00000000  0.00000000  1
  Br  Br6  1  0.00000000  0.50000000  0.00000000  1
  Br  Br7  1  0.50000000  0.50000000  0.00000000  1
  Br  Br8  1  0.16607600  0.83392400  0.32582800  1
  Br  Br9  1  0.83392400  0.16607600  0.67417200  1
  Br  Br10  1  0.16607600  0.33215200  0.32582800  1
  Br  Br11  1  0.83392400  0.66784800  0.67417200  1
  Br  Br12  1  0.66784800  0.83392400  0.32582800  1
  Br  Br13  1  0.33215200  0.16607600  0.67417200  1
