# generated using pymatgen
data_Cs2Cu3C3N7
_symmetry_space_group_name_H-M   'P 1'
_cell_length_a   8.03344200
_cell_length_b   8.71413927
_cell_length_c   9.84896901
_cell_angle_alpha   97.32058424
_cell_angle_beta   114.06869325
_cell_angle_gamma   90.00000000
_symmetry_Int_Tables_number   1
_chemical_formula_structural   Cs2Cu3C3N7
_chemical_formula_sum   'Cs4 Cu6 C6 N14'
_cell_volume   623.36748689
_cell_formula_units_Z   2
loop_
 _symmetry_equiv_pos_site_id
 _symmetry_equiv_pos_as_xyz
  1  'x, y, z'
loop_
 _atom_site_type_symbol
 _atom_site_label
 _atom_site_symmetry_multiplicity
 _atom_site_fract_x
 _atom_site_fract_y
 _atom_site_fract_z
 _atom_site_occupancy
  Cs  Cs0  1  0.57031600  0.41657100  0.77223100  1
  Cs  Cs1  1  0.42968400  0.58342900  0.22776900  1
  Cs  Cs2  1  0.79808600  0.08342900  0.22776900  1
  Cs  Cs3  1  0.20191400  0.91657100  0.77223100  1
  Cu  Cu4  1  0.07271200  0.25000000  0.00000000  1
  Cu  Cu5  1  0.92728800  0.75000000  0.00000000  1
  Cu  Cu6  1  0.36180600  0.11604700  0.39157900  1
  Cu  Cu7  1  0.63819400  0.88395300  0.60842100  1
  Cu  Cu8  1  0.97022800  0.38395300  0.60842100  1
  Cu  Cu9  1  0.02977200  0.61604700  0.39157900  1
  C  C10  1  0.30597400  0.25000000  0.00000000  1
  C  C11  1  0.69402600  0.75000000  0.00000000  1
  C  C12  1  0.57852200  0.23268800  0.44583600  1
  C  C13  1  0.42147800  0.76731200  0.55416400  1
  C  C14  1  0.13268600  0.26731200  0.55416400  1
  C  C15  1  0.86731400  0.73268800  0.44583600  1
  N  N16  1  0.71723400  0.30982700  0.49319300  1
  N  N17  1  0.28276600  0.69017300  0.50680700  1
  N  N18  1  0.22404100  0.19017300  0.50680700  1
  N  N19  1  0.77595900  0.80982700  0.49319300  1
  N  N20  1  0.45306600  0.25000000  0.00000000  1
  N  N21  1  0.54693400  0.75000000  0.00000000  1
  N  N22  1  0.87923800  0.12391700  0.85782600  1
  N  N23  1  0.12076200  0.87608300  0.14217400  1
  N  N24  1  0.02141200  0.37608300  0.14217400  1
  N  N25  1  0.97858800  0.62391700  0.85782600  1
  N  N26  1  0.77889600  0.02901500  0.76672200  1
  N  N27  1  0.22110400  0.97098500  0.23327800  1
  N  N28  1  0.01217500  0.47098500  0.23327800  1
  N  N29  1  0.98782500  0.52901500  0.76672200  1
