# generated using pymatgen
data_Cr2FeNO10
_symmetry_space_group_name_H-M   'P 1'
_cell_length_a   6.02989078
_cell_length_b   6.02989078
_cell_length_c   7.60175796
_cell_angle_alpha   68.88179678
_cell_angle_beta   68.88179678
_cell_angle_gamma   54.74004262
_symmetry_Int_Tables_number   1
_chemical_formula_structural   Cr2FeNO10
_chemical_formula_sum   'Cr2 Fe1 N1 O10'
_cell_volume   206.28048233
_cell_formula_units_Z   1
loop_
 _symmetry_equiv_pos_site_id
 _symmetry_equiv_pos_as_xyz
  1  'x, y, z'
loop_
 _atom_site_type_symbol
 _atom_site_label
 _atom_site_symmetry_multiplicity
 _atom_site_fract_x
 _atom_site_fract_y
 _atom_site_fract_z
 _atom_site_occupancy
  Cr  Cr0  1  0.39329000  0.39329000  0.28421400  1
  Cr  Cr1  1  0.60671000  0.60671000  0.71578600  1
  Fe  Fe2  1  0.00000000  0.00000000  0.00000000  1
  N  N3  1  0.00000000  0.00000000  0.50000000  1
  O  O4  1  0.81644300  0.81644300  0.07703200  1
  O  O5  1  0.18355700  0.18355700  0.92296800  1
  O  O6  1  0.74385400  0.23110400  0.18663200  1
  O  O7  1  0.25614600  0.76889600  0.81336800  1
  O  O8  1  0.76889600  0.25614600  0.81336800  1
  O  O9  1  0.23110400  0.74385400  0.18663200  1
  O  O10  1  0.64238500  0.64238500  0.48667500  1
  O  O11  1  0.35761500  0.35761500  0.51332500  1
  O  O12  1  0.25161200  0.25161200  0.25470200  1
  O  O13  1  0.74838800  0.74838800  0.74529800  1
