# generated using pymatgen
data_Cs2Mn2Be3F12
_symmetry_space_group_name_H-M   'P 1'
_cell_length_a   10.53404700
_cell_length_b   10.53404700
_cell_length_c   10.53404700
_cell_angle_alpha   90.00000000
_cell_angle_beta   90.00000000
_cell_angle_gamma   90.00000000
_symmetry_Int_Tables_number   1
_chemical_formula_structural   Cs2Mn2Be3F12
_chemical_formula_sum   'Cs8 Mn8 Be12 F48'
_cell_volume   1168.92259946
_cell_formula_units_Z   4
loop_
 _symmetry_equiv_pos_site_id
 _symmetry_equiv_pos_as_xyz
  1  'x, y, z'
loop_
 _atom_site_type_symbol
 _atom_site_label
 _atom_site_symmetry_multiplicity
 _atom_site_fract_x
 _atom_site_fract_y
 _atom_site_fract_z
 _atom_site_occupancy
  Cs  Cs0  1  0.04830900  0.04830900  0.04830900  1
  Cs  Cs1  1  0.45169100  0.95169100  0.54830900  1
  Cs  Cs2  1  0.95169100  0.54830900  0.45169100  1
  Cs  Cs3  1  0.54830900  0.45169100  0.95169100  1
  Cs  Cs4  1  0.81592500  0.81592500  0.81592500  1
  Cs  Cs5  1  0.68407500  0.18407500  0.31592500  1
  Cs  Cs6  1  0.18407500  0.31592500  0.68407500  1
  Cs  Cs7  1  0.31592500  0.68407500  0.18407500  1
  Mn  Mn8  1  0.33514000  0.33514000  0.33514000  1
  Mn  Mn9  1  0.16486000  0.66486000  0.83514000  1
  Mn  Mn10  1  0.66486000  0.83514000  0.16486000  1
  Mn  Mn11  1  0.83514000  0.16486000  0.66486000  1
  Mn  Mn12  1  0.59858300  0.59858300  0.59858300  1
  Mn  Mn13  1  0.90141700  0.40141700  0.09858300  1
  Mn  Mn14  1  0.40141700  0.09858300  0.90141700  1
  Mn  Mn15  1  0.09858300  0.90141700  0.40141700  1
  Be  Be16  1  0.01971400  0.21511200  0.37567100  1
  Be  Be17  1  0.48028600  0.78488800  0.87567100  1
  Be  Be18  1  0.98028600  0.71511200  0.12432900  1
  Be  Be19  1  0.37567100  0.01971400  0.21511200  1
  Be  Be20  1  0.51971400  0.28488800  0.62432900  1
  Be  Be21  1  0.87567100  0.48028600  0.78488800  1
  Be  Be22  1  0.12432900  0.98028600  0.71511200  1
  Be  Be23  1  0.62432900  0.51971400  0.28488800  1
  Be  Be24  1  0.21511200  0.37567100  0.01971400  1
  Be  Be25  1  0.71511200  0.12432900  0.98028600  1
  Be  Be26  1  0.28488800  0.62432900  0.51971400  1
  Be  Be27  1  0.78488800  0.87567100  0.48028600  1
  F  F28  1  0.01470400  0.07299600  0.33312300  1
  F  F29  1  0.48529600  0.92700400  0.83312300  1
  F  F30  1  0.98529600  0.57299600  0.16687700  1
  F  F31  1  0.33312300  0.01470400  0.07299600  1
  F  F32  1  0.51470400  0.42700400  0.66687700  1
  F  F33  1  0.83312300  0.48529600  0.92700400  1
  F  F34  1  0.16687700  0.98529600  0.57299600  1
  F  F35  1  0.66687700  0.51470400  0.42700400  1
  F  F36  1  0.07299600  0.33312300  0.01470400  1
  F  F37  1  0.57299600  0.16687700  0.98529600  1
  F  F38  1  0.42700400  0.66687700  0.51470400  1
  F  F39  1  0.92700400  0.83312300  0.48529600  1
  F  F40  1  0.26767700  0.49920500  0.43979300  1
  F  F41  1  0.23232300  0.50079500  0.93979300  1
  F  F42  1  0.73232300  0.99920500  0.06020700  1
  F  F43  1  0.43979300  0.26767700  0.49920500  1
  F  F44  1  0.76767700  0.00079500  0.56020700  1
  F  F45  1  0.93979300  0.23232300  0.50079500  1
  F  F46  1  0.06020700  0.73232300  0.99920500  1
  F  F47  1  0.56020700  0.76767700  0.00079500  1
  F  F48  1  0.49920500  0.43979300  0.26767700  1
  F  F49  1  0.99920500  0.06020700  0.73232300  1
  F  F50  1  0.00079500  0.56020700  0.76767700  1
  F  F51  1  0.50079500  0.93979300  0.23232300  1
  F  F52  1  0.04421800  0.80167100  0.22877800  1
  F  F53  1  0.45578200  0.19832900  0.72877800  1
  F  F54  1  0.95578200  0.30167100  0.27122200  1
  F  F55  1  0.22877800  0.04421800  0.80167100  1
  F  F56  1  0.54421800  0.69832900  0.77122200  1
  F  F57  1  0.72877800  0.45578200  0.19832900  1
  F  F58  1  0.27122200  0.95578200  0.30167100  1
  F  F59  1  0.77122200  0.54421800  0.69832900  1
  F  F60  1  0.80167100  0.22877800  0.04421800  1
  F  F61  1  0.30167100  0.27122200  0.95578200  1
  F  F62  1  0.69832900  0.77122200  0.54421800  1
  F  F63  1  0.19832900  0.72877800  0.45578200  1
  F  F64  1  0.15899900  0.25834400  0.39913000  1
  F  F65  1  0.34100100  0.74165600  0.89913000  1
  F  F66  1  0.84100100  0.75834400  0.10087000  1
  F  F67  1  0.39913000  0.15899900  0.25834400  1
  F  F68  1  0.65899900  0.24165600  0.60087000  1
  F  F69  1  0.89913000  0.34100100  0.74165600  1
  F  F70  1  0.10087000  0.84100100  0.75834400  1
  F  F71  1  0.60087000  0.65899900  0.24165600  1
  F  F72  1  0.25834400  0.39913000  0.15899900  1
  F  F73  1  0.75834400  0.10087000  0.84100100  1
  F  F74  1  0.24165600  0.60087000  0.65899900  1
  F  F75  1  0.74165600  0.89913000  0.34100100  1
