# generated using pymatgen
data_Co(PO2)2
_symmetry_space_group_name_H-M   'P 1'
_cell_length_a   7.59831700
_cell_length_b   5.43572300
_cell_length_c   6.56352070
_cell_angle_alpha   89.69878971
_cell_angle_beta   90.00000000
_cell_angle_gamma   90.00000000
_symmetry_Int_Tables_number   1
_chemical_formula_structural   Co(PO2)2
_chemical_formula_sum   'Co2 P4 O8'
_cell_volume   271.08505995
_cell_formula_units_Z   2
loop_
 _symmetry_equiv_pos_site_id
 _symmetry_equiv_pos_as_xyz
  1  'x, y, z'
loop_
 _atom_site_type_symbol
 _atom_site_label
 _atom_site_symmetry_multiplicity
 _atom_site_fract_x
 _atom_site_fract_y
 _atom_site_fract_z
 _atom_site_occupancy
  Co  Co0  1  0.00000000  0.00000000  0.50000000  1
  Co  Co1  1  0.00000000  0.00000000  0.00000000  1
  P  P2  1  0.37165500  0.00000000  0.75000000  1
  P  P3  1  0.62834500  0.00000000  0.25000000  1
  P  P4  1  0.85057400  0.50000000  0.75000000  1
  P  P5  1  0.14942600  0.50000000  0.25000000  1
  O  O6  1  0.96714000  0.73056500  0.76478700  1
  O  O7  1  0.03286000  0.26943500  0.23521300  1
  O  O8  1  0.96714000  0.26943500  0.73521300  1
  O  O9  1  0.03286000  0.73056500  0.26478700  1
  O  O10  1  0.74027200  0.99694100  0.05545900  1
  O  O11  1  0.25972800  0.00305900  0.94454100  1
  O  O12  1  0.74027200  0.00305900  0.44454100  1
  O  O13  1  0.25972800  0.99694100  0.55545900  1
