# generated using pymatgen
data_Cs2YbCl5
_symmetry_space_group_name_H-M   'P 1'
_cell_length_a   7.30530100
_cell_length_b   9.93933300
_cell_length_c   15.53897800
_cell_angle_alpha   90.00000000
_cell_angle_beta   90.00000000
_cell_angle_gamma   90.00000000
_symmetry_Int_Tables_number   1
_chemical_formula_structural   Cs2YbCl5
_chemical_formula_sum   'Cs8 Yb4 Cl20'
_cell_volume   1128.28238475
_cell_formula_units_Z   4
loop_
 _symmetry_equiv_pos_site_id
 _symmetry_equiv_pos_as_xyz
  1  'x, y, z'
loop_
 _atom_site_type_symbol
 _atom_site_label
 _atom_site_symmetry_multiplicity
 _atom_site_fract_x
 _atom_site_fract_y
 _atom_site_fract_z
 _atom_site_occupancy
  Cs  Cs0  1  0.25000000  0.66534100  0.91615500  1
  Cs  Cs1  1  0.75000000  0.33465900  0.08384500  1
  Cs  Cs2  1  0.75000000  0.83465900  0.41615500  1
  Cs  Cs3  1  0.25000000  0.16534100  0.58384500  1
  Cs  Cs4  1  0.25000000  0.97481100  0.21096400  1
  Cs  Cs5  1  0.75000000  0.02518900  0.78903600  1
  Cs  Cs6  1  0.75000000  0.52518900  0.71096400  1
  Cs  Cs7  1  0.25000000  0.47481100  0.28903600  1
  Yb  Yb8  1  0.25000000  0.67511800  0.56249900  1
  Yb  Yb9  1  0.75000000  0.32488200  0.43750100  1
  Yb  Yb10  1  0.75000000  0.82488200  0.06249900  1
  Yb  Yb11  1  0.25000000  0.17511800  0.93750100  1
  Cl  Cl12  1  0.25000000  0.50703700  0.69980600  1
  Cl  Cl13  1  0.75000000  0.49296300  0.30019400  1
  Cl  Cl14  1  0.75000000  0.99296300  0.19980600  1
  Cl  Cl15  1  0.25000000  0.00703700  0.80019400  1
  Cl  Cl16  1  0.51121100  0.83982600  0.62460700  1
  Cl  Cl17  1  0.48878900  0.16017400  0.37539300  1
  Cl  Cl18  1  0.48878900  0.66017400  0.12460700  1
  Cl  Cl19  1  0.01121100  0.16017400  0.37539300  1
  Cl  Cl20  1  0.51121100  0.33982600  0.87539300  1
  Cl  Cl21  1  0.98878900  0.83982600  0.62460700  1
  Cl  Cl22  1  0.98878900  0.33982600  0.87539300  1
  Cl  Cl23  1  0.01121100  0.66017400  0.12460700  1
  Cl  Cl24  1  0.25000000  0.78321200  0.40537000  1
  Cl  Cl25  1  0.75000000  0.21678800  0.59463000  1
  Cl  Cl26  1  0.75000000  0.71678800  0.90537000  1
  Cl  Cl27  1  0.25000000  0.28321200  0.09463000  1
  Cl  Cl28  1  0.00000000  0.50000000  0.50000000  1
  Cl  Cl29  1  0.00000000  0.00000000  0.00000000  1
  Cl  Cl30  1  0.50000000  0.50000000  0.50000000  1
  Cl  Cl31  1  0.50000000  0.00000000  0.00000000  1
