# generated using pymatgen
data_Cs2U(N2O7)2
_symmetry_space_group_name_H-M   'P 1'
_cell_length_a   6.83434807
_cell_length_b   8.24372100
_cell_length_c   13.33053015
_cell_angle_alpha   90.00000000
_cell_angle_beta   103.77964590
_cell_angle_gamma   90.00000000
_symmetry_Int_Tables_number   1
_chemical_formula_structural   Cs2U(N2O7)2
_chemical_formula_sum   'Cs4 U2 N8 O28'
_cell_volume   729.43223326
_cell_formula_units_Z   2
loop_
 _symmetry_equiv_pos_site_id
 _symmetry_equiv_pos_as_xyz
  1  'x, y, z'
loop_
 _atom_site_type_symbol
 _atom_site_label
 _atom_site_symmetry_multiplicity
 _atom_site_fract_x
 _atom_site_fract_y
 _atom_site_fract_z
 _atom_site_occupancy
  Cs  Cs0  1  0.15866000  0.98230100  0.34146500  1
  Cs  Cs1  1  0.84134000  0.01769900  0.65853500  1
  Cs  Cs2  1  0.34134000  0.48230100  0.15853500  1
  Cs  Cs3  1  0.65866000  0.51769900  0.84146500  1
  U  U4  1  0.50000000  0.00000000  0.00000000  1
  U  U5  1  0.00000000  0.50000000  0.50000000  1
  N  N6  1  0.86844800  0.27103000  0.11000300  1
  N  N7  1  0.13155200  0.72897000  0.88999700  1
  N  N8  1  0.63155200  0.77103000  0.38999700  1
  N  N9  1  0.36844800  0.22897000  0.61000300  1
  N  N10  1  0.79904900  0.76414400  0.12518500  1
  N  N11  1  0.20095100  0.23585600  0.87481500  1
  N  N12  1  0.70095100  0.26414400  0.37481500  1
  N  N13  1  0.29904900  0.73585600  0.62518500  1
  O  O14  1  0.81973900  0.72449800  0.40267600  1
  O  O15  1  0.18026100  0.27550200  0.59732400  1
  O  O16  1  0.68026100  0.22449800  0.09732400  1
  O  O17  1  0.31973900  0.77550200  0.90267600  1
  O  O18  1  0.15706800  0.49632300  0.40907300  1
  O  O19  1  0.84293200  0.50367700  0.59092700  1
  O  O20  1  0.34293200  0.99632300  0.09092700  1
  O  O21  1  0.65706800  0.00367700  0.90907300  1
  O  O22  1  0.92407400  0.66932500  0.17414300  1
  O  O23  1  0.07592600  0.33067500  0.82585700  1
  O  O24  1  0.57592600  0.16932500  0.32585700  1
  O  O25  1  0.42407400  0.83067500  0.67414300  1
  O  O26  1  0.81457100  0.91884000  0.13660100  1
  O  O27  1  0.18542900  0.08116000  0.86339900  1
  O  O28  1  0.68542900  0.41884000  0.36339900  1
  O  O29  1  0.31457100  0.58116000  0.63660100  1
  O  O30  1  0.63971000  0.71701900  0.05807900  1
  O  O31  1  0.36029000  0.28298100  0.94192100  1
  O  O32  1  0.86029000  0.21701900  0.44192100  1
  O  O33  1  0.13971000  0.78298100  0.55807900  1
  O  O34  1  0.97730300  0.26997000  0.19964500  1
  O  O35  1  0.02269700  0.73003000  0.80035500  1
  O  O36  1  0.52269700  0.76997000  0.30035500  1
  O  O37  1  0.47730300  0.23003000  0.69964500  1
  O  O38  1  0.92884400  0.31731600  0.03354600  1
  O  O39  1  0.07115600  0.68268400  0.96645400  1
  O  O40  1  0.57115600  0.81731600  0.46645400  1
  O  O41  1  0.42884400  0.18268400  0.53354600  1
