# generated using pymatgen
data_CrH12(CF)8
_symmetry_space_group_name_H-M   'P 1'
_cell_length_a   7.08507135
_cell_length_b   7.08507135
_cell_length_c   7.08507135
_cell_angle_alpha   60.00000000
_cell_angle_beta   60.00000000
_cell_angle_gamma   60.00000000
_symmetry_Int_Tables_number   1
_chemical_formula_structural   CrH12(CF)8
_chemical_formula_sum   'Cr1 H12 C8 F8'
_cell_volume   251.48824343
_cell_formula_units_Z   1
loop_
 _symmetry_equiv_pos_site_id
 _symmetry_equiv_pos_as_xyz
  1  'x, y, z'
loop_
 _atom_site_type_symbol
 _atom_site_label
 _atom_site_symmetry_multiplicity
 _atom_site_fract_x
 _atom_site_fract_y
 _atom_site_fract_z
 _atom_site_occupancy
  Cr  Cr0  1  0.00000000  0.00000000  0.00000000  1
  H  H1  1  0.26319300  0.00000000  0.00000000  1
  H  H2  1  0.73680700  0.00000000  0.00000000  1
  H  H3  1  0.00000000  0.26319300  0.73680700  1
  H  H4  1  0.00000000  0.73680700  0.26319300  1
  H  H5  1  0.00000000  0.26319300  0.00000000  1
  H  H6  1  0.73680700  0.00000000  0.26319300  1
  H  H7  1  0.00000000  0.73680700  0.00000000  1
  H  H8  1  0.26319300  0.00000000  0.73680700  1
  H  H9  1  0.00000000  0.00000000  0.26319300  1
  H  H10  1  0.00000000  0.00000000  0.73680700  1
  H  H11  1  0.73680700  0.26319300  0.00000000  1
  H  H12  1  0.26319300  0.73680700  0.00000000  1
  C  C13  1  0.25000000  0.25000000  0.25000000  1
  C  C14  1  0.75000000  0.75000000  0.75000000  1
  C  C15  1  0.80123100  0.19876900  0.19876900  1
  C  C16  1  0.19876900  0.80123100  0.80123100  1
  C  C17  1  0.19876900  0.80123100  0.19876900  1
  C  C18  1  0.80123100  0.19876900  0.80123100  1
  C  C19  1  0.19876900  0.19876900  0.80123100  1
  C  C20  1  0.80123100  0.80123100  0.19876900  1
  F  F21  1  0.32727800  0.32727800  0.32727800  1
  F  F22  1  0.67272200  0.67272200  0.67272200  1
  F  F23  1  0.32727800  0.32727800  0.01816600  1
  F  F24  1  0.32727800  0.01816600  0.32727800  1
  F  F25  1  0.67272200  0.67272200  0.98183400  1
  F  F26  1  0.67272200  0.98183400  0.67272200  1
  F  F27  1  0.01816600  0.32727800  0.32727800  1
  F  F28  1  0.98183400  0.67272200  0.67272200  1
