# generated using pymatgen
data_Cs2B12HF12
_symmetry_space_group_name_H-M   'P 1'
_cell_length_a   9.99268100
_cell_length_b   10.53789900
_cell_length_c   15.39426500
_cell_angle_alpha   90.00000000
_cell_angle_beta   90.00000000
_cell_angle_gamma   90.00000000
_symmetry_Int_Tables_number   1
_chemical_formula_structural   Cs2B12HF12
_chemical_formula_sum   'Cs8 B48 H4 F48'
_cell_volume   1621.04478582
_cell_formula_units_Z   4
loop_
 _symmetry_equiv_pos_site_id
 _symmetry_equiv_pos_as_xyz
  1  'x, y, z'
loop_
 _atom_site_type_symbol
 _atom_site_label
 _atom_site_symmetry_multiplicity
 _atom_site_fract_x
 _atom_site_fract_y
 _atom_site_fract_z
 _atom_site_occupancy
  Cs  Cs0  1  0.04253600  0.50469400  0.11493600  1
  Cs  Cs1  1  0.45746400  0.49530600  0.61493600  1
  Cs  Cs2  1  0.95746400  0.00469400  0.38506400  1
  Cs  Cs3  1  0.54253600  0.99530600  0.88506400  1
  Cs  Cs4  1  0.41776700  0.31283600  0.28931600  1
  Cs  Cs5  1  0.08223300  0.68716400  0.78931600  1
  Cs  Cs6  1  0.58223300  0.81283600  0.21068400  1
  Cs  Cs7  1  0.91776700  0.18716400  0.71068400  1
  B  B8  1  0.47317100  0.13017400  0.51964900  1
  B  B9  1  0.02682900  0.86982600  0.01964900  1
  B  B10  1  0.52682900  0.63017400  0.98035100  1
  B  B11  1  0.97317100  0.36982600  0.48035100  1
  B  B12  1  0.07239700  0.51069600  0.46090100  1
  B  B13  1  0.42760300  0.48930400  0.96090100  1
  B  B14  1  0.92760300  0.01069600  0.03909900  1
  B  B15  1  0.57239700  0.98930400  0.53909900  1
  B  B16  1  0.15241800  0.00818900  0.15984900  1
  B  B17  1  0.34758200  0.99181100  0.65984900  1
  B  B18  1  0.84758200  0.50818900  0.34015100  1
  B  B19  1  0.65241800  0.49181100  0.84015100  1
  B  B20  1  0.03402400  0.14623900  0.01615200  1
  B  B21  1  0.46597600  0.85376100  0.51615200  1
  B  B22  1  0.96597600  0.64623900  0.48384800  1
  B  B23  1  0.53402400  0.35376100  0.98384800  1
  B  B24  1  0.17173700  0.14361500  0.09093700  1
  B  B25  1  0.32826300  0.85638500  0.59093700  1
  B  B26  1  0.82826300  0.64361500  0.40906300  1
  B  B27  1  0.67173700  0.35638500  0.90906300  1
  B  B28  1  0.49766400  0.07418000  0.62817200  1
  B  B29  1  0.00233600  0.92582000  0.12817200  1
  B  B30  1  0.50233600  0.57418000  0.87182800  1
  B  B31  1  0.99766400  0.42582000  0.37182800  1
  B  B32  1  0.69454900  0.41180800  0.01817800  1
  B  B33  1  0.80545100  0.58819200  0.51817800  1
  B  B34  1  0.30545100  0.91180800  0.48182200  1
  B  B35  1  0.19454900  0.08819200  0.98182200  1
  B  B36  1  0.26870200  0.00300100  0.07116300  1
  B  B37  1  0.23129800  0.99699900  0.57116300  1
  B  B38  1  0.73129800  0.50300100  0.42883700  1
  B  B39  1  0.76870200  0.49699900  0.92883700  1
  B  B40  1  0.00719300  0.09623700  0.12617400  1
  B  B41  1  0.49280700  0.90376300  0.62617400  1
  B  B42  1  0.99280700  0.59623700  0.37382600  1
  B  B43  1  0.50719300  0.40376300  0.87382600  1
  B  B44  1  0.31064400  0.08132200  0.48447700  1
  B  B45  1  0.18935600  0.91867800  0.98447700  1
  B  B46  1  0.68935600  0.58132200  0.01552300  1
  B  B47  1  0.81064400  0.41867800  0.51552300  1
  B  B48  1  0.54416700  0.49411600  0.04889400  1
  B  B49  1  0.95583300  0.50588400  0.54889400  1
  B  B50  1  0.45583300  0.99411600  0.45110600  1
  B  B51  1  0.04416700  0.00588400  0.95110600  1
  B  B52  1  0.33600400  0.13170300  0.59472800  1
  B  B53  1  0.16399600  0.86829700  0.09472800  1
  B  B54  1  0.66399600  0.63170300  0.90527200  1
  B  B55  1  0.83600400  0.36829700  0.40527200  1
  H  H56  1  0.63110200  0.13173700  0.19189300  1
  H  H57  1  0.86889800  0.86826300  0.69189300  1
  H  H58  1  0.36889800  0.63173700  0.30810700  1
  H  H59  1  0.13110200  0.36826300  0.80810700  1
  F  F60  1  0.24211300  0.15447600  0.42291900  1
  F  F61  1  0.25788700  0.84552400  0.92291900  1
  F  F62  1  0.75788700  0.65447600  0.07708100  1
  F  F63  1  0.74211300  0.34552400  0.57708100  1
  F  F64  1  0.21095600  0.51147000  0.47338100  1
  F  F65  1  0.28904400  0.48853000  0.97338100  1
  F  F66  1  0.78904400  0.01147000  0.02661900  1
  F  F67  1  0.71095600  0.98853000  0.52661900  1
  F  F68  1  0.07688500  0.36273000  0.31007600  1
  F  F69  1  0.42311500  0.63727000  0.81007600  1
  F  F70  1  0.92311500  0.86273000  0.18992400  1
  F  F71  1  0.57688500  0.13727000  0.68992400  1
  F  F72  1  0.09290200  0.00294700  0.58562300  1
  F  F73  1  0.40709800  0.99705300  0.08562300  1
  F  F74  1  0.90709800  0.50294700  0.91437700  1
  F  F75  1  0.59290200  0.49705300  0.41437700  1
  F  F76  1  0.02261900  0.25534900  0.51312000  1
  F  F77  1  0.47738100  0.74465100  0.01312000  1
  F  F78  1  0.97738100  0.75534900  0.98688000  1
  F  F79  1  0.52261900  0.24465100  0.48688000  1
  F  F80  1  0.22850900  0.25669500  0.12280000  1
  F  F81  1  0.27149100  0.74330500  0.62280000  1
  F  F82  1  0.77149100  0.75669500  0.37720000  1
  F  F83  1  0.72850900  0.24330500  0.87720000  1
  F  F84  1  0.76843700  0.34776100  0.08075500  1
  F  F85  1  0.73156300  0.65223900  0.58075500  1
  F  F86  1  0.23156300  0.84776100  0.41924500  1
  F  F87  1  0.26843700  0.15223900  0.91924500  1
  F  F88  1  0.50215100  0.49783300  0.13622700  1
  F  F89  1  0.99784900  0.50216700  0.63622700  1
  F  F90  1  0.49784900  0.99783300  0.36377300  1
  F  F91  1  0.00215100  0.00216700  0.86377300  1
  F  F92  1  0.28379900  0.24581600  0.62653600  1
  F  F93  1  0.21620100  0.75418400  0.12653600  1
  F  F94  1  0.71620100  0.74581600  0.87346400  1
  F  F95  1  0.78379900  0.25418400  0.37346400  1
  F  F96  1  0.49018100  0.23854900  0.01745800  1
  F  F97  1  0.00981900  0.76145100  0.51745800  1
  F  F98  1  0.50981900  0.73854900  0.48254200  1
  F  F99  1  0.99018100  0.26145100  0.98254200  1
  F  F100  1  0.06451000  0.66602100  0.31247400  1
  F  F101  1  0.43549000  0.33397900  0.81247400  1
  F  F102  1  0.93549000  0.16602100  0.18752600  1
  F  F103  1  0.56451000  0.83397900  0.68752600  1
  F  F104  1  0.19621900  0.01172200  0.24604700  1
  F  F105  1  0.30378100  0.98827800  0.74604700  1
  F  F106  1  0.80378100  0.51172200  0.25395300  1
  F  F107  1  0.69621900  0.48827800  0.75395300  1
