# generated using pymatgen
data_Fe2(SO7)3
_symmetry_space_group_name_H-M   'P 1'
_cell_length_a   10.79020866
_cell_length_b   10.79020866
_cell_length_c   17.18034300
_cell_angle_alpha   90.00000000
_cell_angle_beta   90.00000000
_cell_angle_gamma   120.00000403
_symmetry_Int_Tables_number   1
_chemical_formula_structural   Fe2(SO7)3
_chemical_formula_sum   'Fe8 S12 O84'
_cell_volume   1732.29611034
_cell_formula_units_Z   4
loop_
 _symmetry_equiv_pos_site_id
 _symmetry_equiv_pos_as_xyz
  1  'x, y, z'
loop_
 _atom_site_type_symbol
 _atom_site_label
 _atom_site_symmetry_multiplicity
 _atom_site_fract_x
 _atom_site_fract_y
 _atom_site_fract_z
 _atom_site_occupancy
  Fe  Fe0  1  0.00000000  0.00000000  0.50000000  1
  Fe  Fe1  1  0.00000000  0.00000000  0.00000000  1
  Fe  Fe2  1  0.33333300  0.66666700  0.75000000  1
  Fe  Fe3  1  0.66666700  0.33333300  0.25000000  1
  Fe  Fe4  1  0.66666700  0.33333300  0.50074500  1
  Fe  Fe5  1  0.33333300  0.66666700  0.49925500  1
  Fe  Fe6  1  0.66666700  0.33333300  0.99925500  1
  Fe  Fe7  1  0.33333300  0.66666700  0.00074500  1
  S  S8  1  0.24229300  0.41032900  0.62050300  1
  S  S9  1  0.75770700  0.58967100  0.37949700  1
  S  S10  1  0.58967100  0.83196300  0.62050300  1
  S  S11  1  0.24229300  0.83196300  0.87949700  1
  S  S12  1  0.41032900  0.16803700  0.37949700  1
  S  S13  1  0.75770700  0.16803700  0.12050300  1
  S  S14  1  0.16803700  0.75770700  0.62050300  1
  S  S15  1  0.58967100  0.75770700  0.87949700  1
  S  S16  1  0.83196300  0.24229300  0.37949700  1
  S  S17  1  0.41032900  0.24229300  0.12050300  1
  S  S18  1  0.16803700  0.41032900  0.87949700  1
  S  S19  1  0.83196300  0.58967100  0.12050300  1
  O  O20  1  0.33165400  0.50981900  0.68484900  1
  O  O21  1  0.66834600  0.49018100  0.31515100  1
  O  O22  1  0.49018100  0.82183500  0.68484900  1
  O  O23  1  0.33165400  0.82183500  0.81515100  1
  O  O24  1  0.50981900  0.17816500  0.31515100  1
  O  O25  1  0.66834600  0.17816500  0.18484900  1
  O  O26  1  0.17816500  0.66834600  0.68484900  1
  O  O27  1  0.49018100  0.66834600  0.81515100  1
  O  O28  1  0.82183500  0.33165400  0.31515100  1
  O  O29  1  0.50981900  0.33165400  0.18484900  1
  O  O30  1  0.17816500  0.50981900  0.81515100  1
  O  O31  1  0.82183500  0.49018100  0.18484900  1
  O  O32  1  0.58102900  0.20202700  0.57512400  1
  O  O33  1  0.41897100  0.79797300  0.42487600  1
  O  O34  1  0.79797300  0.37900200  0.57512400  1
  O  O35  1  0.58102900  0.37900200  0.92487600  1
  O  O36  1  0.20202700  0.62099800  0.42487600  1
  O  O37  1  0.41897100  0.62099800  0.07512400  1
  O  O38  1  0.62099800  0.41897100  0.57512400  1
  O  O39  1  0.79797300  0.41897100  0.92487600  1
  O  O40  1  0.37900200  0.58102900  0.42487600  1
  O  O41  1  0.20202700  0.58102900  0.07512400  1
  O  O42  1  0.62099800  0.20202700  0.92487600  1
  O  O43  1  0.37900200  0.79797300  0.07512400  1
  O  O44  1  0.21260100  0.49701100  0.56070500  1
  O  O45  1  0.78739900  0.50298900  0.43929500  1
  O  O46  1  0.50298900  0.71559000  0.56070500  1
  O  O47  1  0.21260100  0.71559000  0.93929500  1
  O  O48  1  0.49701100  0.28441000  0.43929500  1
  O  O49  1  0.78739900  0.28441000  0.06070500  1
  O  O50  1  0.28441000  0.78739900  0.56070500  1
  O  O51  1  0.50298900  0.78739900  0.93929500  1
  O  O52  1  0.71559000  0.21260100  0.43929500  1
  O  O53  1  0.49701100  0.21260100  0.06070500  1
  O  O54  1  0.28441000  0.49701100  0.93929500  1
  O  O55  1  0.71559000  0.50298900  0.06070500  1
  O  O56  1  0.70209300  0.19470100  0.76380800  1
  O  O57  1  0.29790700  0.80529900  0.23619200  1
  O  O58  1  0.80529900  0.50739200  0.76380800  1
  O  O59  1  0.70209300  0.50739200  0.73619200  1
  O  O60  1  0.19470100  0.49260800  0.23619200  1
  O  O61  1  0.29790700  0.49260800  0.26380800  1
  O  O62  1  0.49260800  0.29790700  0.76380800  1
  O  O63  1  0.80529900  0.29790700  0.73619200  1
  O  O64  1  0.50739200  0.70209300  0.23619200  1
  O  O65  1  0.19470100  0.70209300  0.26380800  1
  O  O66  1  0.49260800  0.19470100  0.73619200  1
  O  O67  1  0.50739200  0.80529900  0.26380800  1
  O  O68  1  0.93292500  0.10842000  0.54717300  1
  O  O69  1  0.06707500  0.89158000  0.45282700  1
  O  O70  1  0.89158000  0.82450500  0.54717300  1
  O  O71  1  0.93292500  0.82450500  0.95282700  1
  O  O72  1  0.10842000  0.17549500  0.45282700  1
  O  O73  1  0.06707500  0.17549500  0.04717300  1
  O  O74  1  0.17549500  0.06707500  0.54717300  1
  O  O75  1  0.89158000  0.06707500  0.95282700  1
  O  O76  1  0.82450500  0.93292500  0.45282700  1
  O  O77  1  0.10842000  0.93292500  0.04717300  1
  O  O78  1  0.17549500  0.10842000  0.95282700  1
  O  O79  1  0.82450500  0.89158000  0.04717300  1
  O  O80  1  0.10320900  0.30162400  0.65105900  1
  O  O81  1  0.89679100  0.69837600  0.34894100  1
  O  O82  1  0.69837600  0.80158500  0.65105900  1
  O  O83  1  0.10320900  0.80158500  0.84894100  1
  O  O84  1  0.30162400  0.19841500  0.34894100  1
  O  O85  1  0.89679100  0.19841500  0.15105900  1
  O  O86  1  0.19841500  0.89679100  0.65105900  1
  O  O87  1  0.69837600  0.89679100  0.84894100  1
  O  O88  1  0.80158500  0.10320900  0.34894100  1
  O  O89  1  0.30162400  0.10320900  0.15105900  1
  O  O90  1  0.19841500  0.30162400  0.84894100  1
  O  O91  1  0.80158500  0.69837600  0.15105900  1
  O  O92  1  0.32218600  0.34676400  0.58644500  1
  O  O93  1  0.67781400  0.65323600  0.41355500  1
  O  O94  1  0.65323600  0.97542200  0.58644500  1
  O  O95  1  0.32218600  0.97542200  0.91355500  1
  O  O96  1  0.34676400  0.02457800  0.41355500  1
  O  O97  1  0.67781400  0.02457800  0.08644500  1
  O  O98  1  0.02457800  0.67781400  0.58644500  1
  O  O99  1  0.65323600  0.67781400  0.91355500  1
  O  O100  1  0.97542200  0.32218600  0.41355500  1
  O  O101  1  0.34676400  0.32218600  0.08644500  1
  O  O102  1  0.02457800  0.34676400  0.91355500  1
  O  O103  1  0.97542200  0.65323600  0.08644500  1
