# generated using pymatgen
data_Rb
_symmetry_space_group_name_H-M   'P 1'
_cell_length_a   15.13855621
_cell_length_b   13.27598982
_cell_length_c   8.04883490
_cell_angle_alpha   86.81879286
_cell_angle_beta   61.11772603
_cell_angle_gamma   32.06348110
_symmetry_Int_Tables_number   1
_chemical_formula_structural   Rb
_chemical_formula_sum   Rb4
_cell_volume   487.61372497
_cell_formula_units_Z   4
loop_
 _symmetry_equiv_pos_site_id
 _symmetry_equiv_pos_as_xyz
  1  'x, y, z'
loop_
 _atom_site_type_symbol
 _atom_site_label
 _atom_site_symmetry_multiplicity
 _atom_site_fract_x
 _atom_site_fract_y
 _atom_site_fract_z
 _atom_site_occupancy
  Rb  Rb0  1  0.91699700  0.91699700  0.58300300  1
  Rb  Rb1  1  0.33300300  0.33300300  0.66699700  1
  Rb  Rb2  1  0.58300300  0.58300300  0.91699700  1
  Rb  Rb3  1  0.66699700  0.66699700  0.33300300  1
