# generated using pymatgen
data_Ce5GeSb2
_symmetry_space_group_name_H-M   'P 1'
_cell_length_a   7.99668800
_cell_length_b   9.43252900
_cell_length_c   12.12153900
_cell_angle_alpha   90.00000000
_cell_angle_beta   90.00000000
_cell_angle_gamma   90.00000000
_symmetry_Int_Tables_number   1
_chemical_formula_structural   Ce5GeSb2
_chemical_formula_sum   'Ce20 Ge4 Sb8'
_cell_volume   914.31546176
_cell_formula_units_Z   4
loop_
 _symmetry_equiv_pos_site_id
 _symmetry_equiv_pos_as_xyz
  1  'x, y, z'
loop_
 _atom_site_type_symbol
 _atom_site_label
 _atom_site_symmetry_multiplicity
 _atom_site_fract_x
 _atom_site_fract_y
 _atom_site_fract_z
 _atom_site_occupancy
  Ce  Ce0  1  0.33516600  0.75000000  0.72225800  1
  Ce  Ce1  1  0.66483400  0.25000000  0.27774200  1
  Ce  Ce2  1  0.83516600  0.25000000  0.77774200  1
  Ce  Ce3  1  0.16483400  0.75000000  0.22225800  1
  Ce  Ce4  1  0.01376500  0.75000000  0.50377900  1
  Ce  Ce5  1  0.98623500  0.25000000  0.49622100  1
  Ce  Ce6  1  0.51376500  0.25000000  0.99622100  1
  Ce  Ce7  1  0.48623500  0.75000000  0.00377900  1
  Ce  Ce8  1  0.85359500  0.75000000  0.78702100  1
  Ce  Ce9  1  0.14640500  0.25000000  0.21297900  1
  Ce  Ce10  1  0.35359500  0.25000000  0.71297900  1
  Ce  Ce11  1  0.64640500  0.75000000  0.28702100  1
  Ce  Ce12  1  0.70236200  0.55042000  0.55559400  1
  Ce  Ce13  1  0.29763800  0.44958000  0.44440600  1
  Ce  Ce14  1  0.20236200  0.44958000  0.94440600  1
  Ce  Ce15  1  0.29763800  0.05042000  0.44440600  1
  Ce  Ce16  1  0.79763800  0.55042000  0.05559400  1
  Ce  Ce17  1  0.70236200  0.94958000  0.55559400  1
  Ce  Ce18  1  0.79763800  0.94958000  0.05559400  1
  Ce  Ce19  1  0.20236200  0.05042000  0.94440600  1
  Ge  Ge20  1  0.09369700  0.75000000  0.97484500  1
  Ge  Ge21  1  0.90630300  0.25000000  0.02515500  1
  Ge  Ge22  1  0.59369700  0.25000000  0.52515500  1
  Ge  Ge23  1  0.40630300  0.75000000  0.47484500  1
  Sb  Sb24  1  0.57426800  0.50622200  0.82166900  1
  Sb  Sb25  1  0.42573200  0.49377800  0.17833100  1
  Sb  Sb26  1  0.07426800  0.49377800  0.67833100  1
  Sb  Sb27  1  0.42573200  0.00622200  0.17833100  1
  Sb  Sb28  1  0.92573200  0.50622200  0.32166900  1
  Sb  Sb29  1  0.57426800  0.99377800  0.82166900  1
  Sb  Sb30  1  0.92573200  0.99377800  0.32166900  1
  Sb  Sb31  1  0.07426800  0.00622200  0.67833100  1
