# generated using pymatgen
data_Cr5Cu(GeO6)2
_symmetry_space_group_name_H-M   'P 1'
_cell_length_a   9.61180683
_cell_length_b   9.61180683
_cell_length_c   6.05028800
_cell_angle_alpha   90.00000000
_cell_angle_beta   90.00000000
_cell_angle_gamma   127.79372469
_symmetry_Int_Tables_number   1
_chemical_formula_structural   Cr5Cu(GeO6)2
_chemical_formula_sum   'Cr10 Cu2 Ge4 O24'
_cell_volume   441.70804273
_cell_formula_units_Z   2
loop_
 _symmetry_equiv_pos_site_id
 _symmetry_equiv_pos_as_xyz
  1  'x, y, z'
loop_
 _atom_site_type_symbol
 _atom_site_label
 _atom_site_symmetry_multiplicity
 _atom_site_fract_x
 _atom_site_fract_y
 _atom_site_fract_z
 _atom_site_occupancy
  Cr  Cr0  1  0.67224400  0.32775600  0.50000000  1
  Cr  Cr1  1  0.32775600  0.67224400  0.50000000  1
  Cr  Cr2  1  0.32775600  0.67224400  0.00000000  1
  Cr  Cr3  1  0.67224400  0.32775600  0.00000000  1
  Cr  Cr4  1  0.16138100  0.33495800  0.75000000  1
  Cr  Cr5  1  0.83861900  0.66504200  0.25000000  1
  Cr  Cr6  1  0.33495800  0.16138100  0.75000000  1
  Cr  Cr7  1  0.66504200  0.83861900  0.25000000  1
  Cr  Cr8  1  0.00000000  0.00000000  0.50000000  1
  Cr  Cr9  1  0.00000000  0.00000000  0.00000000  1
  Cu  Cu10  1  0.62279800  0.62279800  0.75000000  1
  Cu  Cu11  1  0.37720200  0.37720200  0.25000000  1
  Ge  Ge12  1  0.02396500  0.68926800  0.75000000  1
  Ge  Ge13  1  0.97603500  0.31073200  0.25000000  1
  Ge  Ge14  1  0.68926800  0.02396500  0.75000000  1
  Ge  Ge15  1  0.31073200  0.97603500  0.25000000  1
  O  O16  1  0.90467100  0.57804800  0.50763500  1
  O  O17  1  0.09532900  0.42195200  0.49236500  1
  O  O18  1  0.09532900  0.42195200  0.00763500  1
  O  O19  1  0.57804800  0.90467100  0.99236500  1
  O  O20  1  0.90467100  0.57804800  0.99236500  1
  O  O21  1  0.42195200  0.09532900  0.00763500  1
  O  O22  1  0.42195200  0.09532900  0.49236500  1
  O  O23  1  0.57804800  0.90467100  0.50763500  1
  O  O24  1  0.38326700  0.57622400  0.75000000  1
  O  O25  1  0.61673300  0.42377600  0.25000000  1
  O  O26  1  0.57622400  0.38326700  0.75000000  1
  O  O27  1  0.42377600  0.61673300  0.25000000  1
  O  O28  1  0.23276000  0.73583800  0.75000000  1
  O  O29  1  0.76724000  0.26416200  0.25000000  1
  O  O30  1  0.73583700  0.23276000  0.75000000  1
  O  O31  1  0.26416200  0.76724000  0.25000000  1
  O  O32  1  0.91430700  0.07818900  0.75000000  1
  O  O33  1  0.08569300  0.92181100  0.25000000  1
  O  O34  1  0.07818900  0.91430700  0.75000000  1
  O  O35  1  0.92181100  0.08569300  0.25000000  1
  O  O36  1  0.23183100  0.23183100  0.53131600  1
  O  O37  1  0.76816900  0.76816900  0.46868400  1
  O  O38  1  0.76816900  0.76816900  0.03131600  1
  O  O39  1  0.23183100  0.23183100  0.96868400  1
