# generated using pymatgen
data_Ce3Sb4Pt7
_symmetry_space_group_name_H-M   'P 1'
_cell_length_a   4.36724200
_cell_length_b   8.54997349
_cell_length_c   8.61185707
_cell_angle_alpha   73.67192394
_cell_angle_beta   75.31172816
_cell_angle_gamma   75.20299745
_symmetry_Int_Tables_number   1
_chemical_formula_structural   Ce3Sb4Pt7
_chemical_formula_sum   'Ce3 Sb4 Pt7'
_cell_volume   292.58079395
_cell_formula_units_Z   1
loop_
 _symmetry_equiv_pos_site_id
 _symmetry_equiv_pos_as_xyz
  1  'x, y, z'
loop_
 _atom_site_type_symbol
 _atom_site_label
 _atom_site_symmetry_multiplicity
 _atom_site_fract_x
 _atom_site_fract_y
 _atom_site_fract_z
 _atom_site_occupancy
  Ce  Ce0  1  0.82875500  0.68427100  0.65821800  1
  Ce  Ce1  1  0.17124500  0.31572900  0.34178200  1
  Ce  Ce2  1  0.50000000  0.00000000  0.00000000  1
  Sb  Sb3  1  0.63547700  0.59511400  0.13393200  1
  Sb  Sb4  1  0.36452300  0.40488600  0.86606800  1
  Sb  Sb5  1  0.82578000  0.03452300  0.31391700  1
  Sb  Sb6  1  0.17422000  0.96547700  0.68608300  1
  Pt  Pt7  1  0.82547000  0.28743500  0.06162400  1
  Pt  Pt8  1  0.17453000  0.71256500  0.93837600  1
  Pt  Pt9  1  0.01085100  0.68418700  0.29411200  1
  Pt  Pt10  1  0.98914900  0.31581300  0.70588800  1
  Pt  Pt11  1  0.62534200  0.14784300  0.60147300  1
  Pt  Pt12  1  0.37465800  0.85215700  0.39852700  1
  Pt  Pt13  1  0.50000000  0.50000000  0.50000000  1
