# generated using pymatgen
data_Co4(MoO4)3
_symmetry_space_group_name_H-M   'P 1'
_cell_length_a   5.16543800
_cell_length_b   10.57219700
_cell_length_c   17.93876200
_cell_angle_alpha   90.00000000
_cell_angle_beta   90.00000000
_cell_angle_gamma   90.00000000
_symmetry_Int_Tables_number   1
_chemical_formula_structural   Co4(MoO4)3
_chemical_formula_sum   'Co16 Mo12 O48'
_cell_volume   979.63629739
_cell_formula_units_Z   4
loop_
 _symmetry_equiv_pos_site_id
 _symmetry_equiv_pos_as_xyz
  1  'x, y, z'
loop_
 _atom_site_type_symbol
 _atom_site_label
 _atom_site_symmetry_multiplicity
 _atom_site_fract_x
 _atom_site_fract_y
 _atom_site_fract_z
 _atom_site_occupancy
  Co  Co0  1  0.10152100  0.25000000  0.24970400  1
  Co  Co1  1  0.89847900  0.75000000  0.75029600  1
  Co  Co2  1  0.39847900  0.75000000  0.74970400  1
  Co  Co3  1  0.60152100  0.25000000  0.25029600  1
  Co  Co4  1  0.24548100  0.25000000  0.69743200  1
  Co  Co5  1  0.75451900  0.75000000  0.30256800  1
  Co  Co6  1  0.25451900  0.75000000  0.19743200  1
  Co  Co7  1  0.74548100  0.25000000  0.80256800  1
  Co  Co8  1  0.25415800  0.07439000  0.52544000  1
  Co  Co9  1  0.74584200  0.92561000  0.47456000  1
  Co  Co10  1  0.24584200  0.92561000  0.02544000  1
  Co  Co11  1  0.74584200  0.57439000  0.47456000  1
  Co  Co12  1  0.75415800  0.07439000  0.97456000  1
  Co  Co13  1  0.25415800  0.42561000  0.52544000  1
  Co  Co14  1  0.75415800  0.42561000  0.97456000  1
  Co  Co15  1  0.24584200  0.57439000  0.02544000  1
  Mo  Mo16  1  0.29495900  0.25000000  0.05783400  1
  Mo  Mo17  1  0.70504100  0.75000000  0.94216600  1
  Mo  Mo18  1  0.20504100  0.75000000  0.55783400  1
  Mo  Mo19  1  0.79495900  0.25000000  0.44216600  1
  Mo  Mo20  1  0.28191900  0.52955500  0.34392600  1
  Mo  Mo21  1  0.71808100  0.47044500  0.65607400  1
  Mo  Mo22  1  0.21808100  0.47044500  0.84392600  1
  Mo  Mo23  1  0.71808100  0.02955500  0.65607400  1
  Mo  Mo24  1  0.78191900  0.52955500  0.15607400  1
  Mo  Mo25  1  0.28191900  0.97044500  0.34392600  1
  Mo  Mo26  1  0.78191900  0.97044500  0.15607400  1
  Mo  Mo27  1  0.21808100  0.02955500  0.84392600  1
  O  O28  1  0.34997300  0.11580800  0.29522300  1
  O  O29  1  0.65002700  0.88419200  0.70477700  1
  O  O30  1  0.15002700  0.88419200  0.79522300  1
  O  O31  1  0.65002700  0.61580800  0.70477700  1
  O  O32  1  0.84997300  0.11580800  0.20477700  1
  O  O33  1  0.34997300  0.38419200  0.29522300  1
  O  O34  1  0.84997300  0.38419200  0.20477700  1
  O  O35  1  0.15002700  0.61580800  0.79522300  1
  O  O36  1  0.08047300  0.10815700  0.03730200  1
  O  O37  1  0.91952700  0.89184300  0.96269800  1
  O  O38  1  0.41952700  0.89184300  0.53730200  1
  O  O39  1  0.91952700  0.60815700  0.96269800  1
  O  O40  1  0.58047300  0.10815700  0.46269800  1
  O  O41  1  0.08047300  0.39184300  0.03730200  1
  O  O42  1  0.58047300  0.39184300  0.46269800  1
  O  O43  1  0.41952700  0.60815700  0.53730200  1
  O  O44  1  0.06554400  0.25000000  0.51319500  1
  O  O45  1  0.93445600  0.75000000  0.48680500  1
  O  O46  1  0.43445600  0.75000000  0.01319500  1
  O  O47  1  0.56554400  0.25000000  0.98680500  1
  O  O48  1  0.07377200  0.62866300  0.28345200  1
  O  O49  1  0.92622800  0.37133700  0.71654800  1
  O  O50  1  0.42622800  0.37133700  0.78345200  1
  O  O51  1  0.92622800  0.12866300  0.71654800  1
  O  O52  1  0.57377200  0.62866300  0.21654800  1
  O  O53  1  0.07377200  0.87133700  0.28345200  1
  O  O54  1  0.57377200  0.87133700  0.21654800  1
  O  O55  1  0.42622800  0.12866300  0.78345200  1
  O  O56  1  0.34912400  0.25000000  0.15881500  1
  O  O57  1  0.65087600  0.75000000  0.84118500  1
  O  O58  1  0.15087600  0.75000000  0.65881500  1
  O  O59  1  0.84912400  0.25000000  0.34118500  1
  O  O60  1  0.07794000  0.00882200  0.42514200  1
  O  O61  1  0.92206000  0.99117800  0.57485800  1
  O  O62  1  0.42206000  0.99117800  0.92514200  1
  O  O63  1  0.92206000  0.50882200  0.57485800  1
  O  O64  1  0.57794000  0.00882200  0.07485800  1
  O  O65  1  0.07794000  0.49117800  0.42514200  1
  O  O66  1  0.57794000  0.49117800  0.07485800  1
  O  O67  1  0.42206000  0.50882200  0.92514200  1
  O  O68  1  0.06750600  0.62183900  0.12723600  1
  O  O69  1  0.93249400  0.37816100  0.87276400  1
  O  O70  1  0.43249400  0.37816100  0.62723600  1
  O  O71  1  0.93249400  0.12183900  0.87276400  1
  O  O72  1  0.56750600  0.62183900  0.37276400  1
  O  O73  1  0.06750600  0.87816100  0.12723600  1
  O  O74  1  0.56750600  0.87816100  0.37276400  1
  O  O75  1  0.43249400  0.12183900  0.62723600  1
