# generated using pymatgen
data_Ca8Mo7O20
_symmetry_space_group_name_H-M   'P 1'
_cell_length_a   8.64424505
_cell_length_b   8.64424505
_cell_length_c   8.64424505
_cell_angle_alpha   119.95498453
_cell_angle_beta   119.95498453
_cell_angle_gamma   90.07798678
_symmetry_Int_Tables_number   1
_chemical_formula_structural   Ca8Mo7O20
_chemical_formula_sum   'Ca8 Mo7 O20'
_cell_volume   457.04732671
_cell_formula_units_Z   1
loop_
 _symmetry_equiv_pos_site_id
 _symmetry_equiv_pos_as_xyz
  1  'x, y, z'
loop_
 _atom_site_type_symbol
 _atom_site_label
 _atom_site_symmetry_multiplicity
 _atom_site_fract_x
 _atom_site_fract_y
 _atom_site_fract_z
 _atom_site_occupancy
  Ca  Ca0  1  0.55322600  0.91601100  0.77288500  1
  Ca  Ca1  1  0.44677400  0.08398900  0.22711500  1
  Ca  Ca2  1  0.14312600  0.78034100  0.22711500  1
  Ca  Ca3  1  0.78034100  0.55322600  0.63721500  1
  Ca  Ca4  1  0.85687400  0.21965900  0.77288500  1
  Ca  Ca5  1  0.21965900  0.44677400  0.36278500  1
  Ca  Ca6  1  0.91601100  0.14312600  0.36278500  1
  Ca  Ca7  1  0.08398900  0.85687400  0.63721500  1
  Mo  Mo8  1  0.69376000  0.37581100  0.06957000  1
  Mo  Mo9  1  0.30624000  0.62418900  0.93043000  1
  Mo  Mo10  1  0.62418900  0.69376000  0.31794900  1
  Mo  Mo11  1  0.37581100  0.30624000  0.68205100  1
  Mo  Mo12  1  0.65936900  0.65936900  0.00000000  1
  Mo  Mo13  1  0.34063100  0.34063100  0.00000000  1
  Mo  Mo14  1  0.00000000  0.00000000  0.00000000  1
  O  O15  1  0.55896200  0.17119400  0.73015600  1
  O  O16  1  0.44103800  0.82880600  0.26984400  1
  O  O17  1  0.82880600  0.55896200  0.38776800  1
  O  O18  1  0.17119400  0.44103800  0.61223200  1
  O  O19  1  0.48341500  0.81491700  0.96474800  1
  O  O20  1  0.51658500  0.18508300  0.03525200  1
  O  O21  1  0.85016900  0.51866700  0.03525200  1
  O  O22  1  0.51866700  0.48341500  0.66849800  1
  O  O23  1  0.14983100  0.48133300  0.96474800  1
  O  O24  1  0.48133300  0.51658500  0.33150200  1
  O  O25  1  0.81491700  0.85016900  0.33150200  1
  O  O26  1  0.18508300  0.14983100  0.66849800  1
  O  O27  1  0.25000000  0.75000000  0.50000000  1
  O  O28  1  0.75000000  0.25000000  0.50000000  1
  O  O29  1  0.88537400  0.22158500  0.10695800  1
  O  O30  1  0.11462600  0.77841500  0.89304200  1
  O  O31  1  0.77841500  0.88537400  0.66378900  1
  O  O32  1  0.22158500  0.11462600  0.33621100  1
  O  O33  1  0.82847500  0.82847500  0.00000000  1
  O  O34  1  0.17152500  0.17152500  0.00000000  1
