# generated using pymatgen
data_CdCoF5
_symmetry_space_group_name_H-M   'P 1'
_cell_length_a   5.63636380
_cell_length_b   5.63636380
_cell_length_c   7.91926951
_cell_angle_alpha   69.33789396
_cell_angle_beta   69.33789396
_cell_angle_gamma   72.76149164
_symmetry_Int_Tables_number   1
_chemical_formula_structural   CdCoF5
_chemical_formula_sum   'Cd2 Co2 F10'
_cell_volume   215.97542819
_cell_formula_units_Z   2
loop_
 _symmetry_equiv_pos_site_id
 _symmetry_equiv_pos_as_xyz
  1  'x, y, z'
loop_
 _atom_site_type_symbol
 _atom_site_label
 _atom_site_symmetry_multiplicity
 _atom_site_fract_x
 _atom_site_fract_y
 _atom_site_fract_z
 _atom_site_occupancy
  Cd  Cd0  1  0.00000000  0.00000000  0.50000000  1
  Cd  Cd1  1  0.00000000  0.00000000  0.00000000  1
  Co  Co2  1  0.51518600  0.48481400  0.75000000  1
  Co  Co3  1  0.48481400  0.51518600  0.25000000  1
  F  F4  1  0.66502700  0.77298600  0.15002700  1
  F  F5  1  0.33497300  0.22701400  0.84997300  1
  F  F6  1  0.22701400  0.33497300  0.34997300  1
  F  F7  1  0.77298600  0.66502700  0.65002700  1
  F  F8  1  0.84975800  0.15024200  0.75000000  1
  F  F9  1  0.15024200  0.84975800  0.25000000  1
  F  F10  1  0.33341400  0.69246900  0.56869100  1
  F  F11  1  0.66658600  0.30753100  0.43130900  1
  F  F12  1  0.30753100  0.66658600  0.93130900  1
  F  F13  1  0.69246900  0.33341400  0.06869100  1
