# generated using pymatgen
data_Ce2FeP2O
_symmetry_space_group_name_H-M   'P 1'
_cell_length_a   3.07490700
_cell_length_b   3.07490700
_cell_length_c   14.43883300
_cell_angle_alpha   90.00000000
_cell_angle_beta   90.00000000
_cell_angle_gamma   90.00000000
_symmetry_Int_Tables_number   1
_chemical_formula_structural   Ce2FeP2O
_chemical_formula_sum   'Ce2 Fe1 P2 O1'
_cell_volume   136.51993212
_cell_formula_units_Z   1
loop_
 _symmetry_equiv_pos_site_id
 _symmetry_equiv_pos_as_xyz
  1  'x, y, z'
loop_
 _atom_site_type_symbol
 _atom_site_label
 _atom_site_symmetry_multiplicity
 _atom_site_fract_x
 _atom_site_fract_y
 _atom_site_fract_z
 _atom_site_occupancy
  Ce  Ce0  1  0.50000000  0.50000000  0.14348500  1
  Ce  Ce1  1  0.50000000  0.50000000  0.85651500  1
  Fe  Fe2  1  0.50000000  0.50000000  0.50000000  1
  P  P3  1  0.50000000  0.50000000  0.66353300  1
  P  P4  1  0.50000000  0.50000000  0.33646700  1
  O  O5  1  0.50000000  0.50000000  0.00000000  1
