# generated using pymatgen
data_Cd2Hg2H(SO5)2
_symmetry_space_group_name_H-M   'P 1'
_cell_length_a   6.34639400
_cell_length_b   7.87394200
_cell_length_c   11.70686060
_cell_angle_alpha   62.16182466
_cell_angle_beta   90.00000000
_cell_angle_gamma   90.00000000
_symmetry_Int_Tables_number   1
_chemical_formula_structural   Cd2Hg2H(SO5)2
_chemical_formula_sum   'Cd4 Hg4 H2 S4 O20'
_cell_volume   517.30252257
_cell_formula_units_Z   2
loop_
 _symmetry_equiv_pos_site_id
 _symmetry_equiv_pos_as_xyz
  1  'x, y, z'
loop_
 _atom_site_type_symbol
 _atom_site_label
 _atom_site_symmetry_multiplicity
 _atom_site_fract_x
 _atom_site_fract_y
 _atom_site_fract_z
 _atom_site_occupancy
  Cd  Cd0  1  0.49921900  0.74597100  0.07983900  1
  Cd  Cd1  1  0.50078100  0.25402900  0.92016100  1
  Cd  Cd2  1  0.49921900  0.25402900  0.42016100  1
  Cd  Cd3  1  0.50078100  0.74597100  0.57983900  1
  Hg  Hg4  1  0.28212300  0.00000000  0.25000000  1
  Hg  Hg5  1  0.71787700  0.00000000  0.75000000  1
  Hg  Hg6  1  0.00000000  0.00000000  0.00000000  1
  Hg  Hg7  1  0.00000000  0.00000000  0.50000000  1
  H  H8  1  0.27462500  0.50000000  0.25000000  1
  H  H9  1  0.72537500  0.50000000  0.75000000  1
  S  S10  1  0.78018300  0.66824700  0.35456400  1
  S  S11  1  0.21981700  0.33175300  0.64543600  1
  S  S12  1  0.78018300  0.33175300  0.14543600  1
  S  S13  1  0.21981700  0.66824700  0.85456400  1
  O  O14  1  0.76449400  0.73586900  0.45542700  1
  O  O15  1  0.23550600  0.26413100  0.54457300  1
  O  O16  1  0.76449400  0.26413100  0.04457300  1
  O  O17  1  0.23550600  0.73586900  0.95542700  1
  O  O18  1  0.74910100  0.54364200  0.08244600  1
  O  O19  1  0.25089900  0.45635800  0.91755400  1
  O  O20  1  0.74910100  0.45635800  0.41755400  1
  O  O21  1  0.25089900  0.54364200  0.58244600  1
  O  O22  1  0.98686000  0.72297500  0.29050800  1
  O  O23  1  0.01314000  0.27702500  0.70949200  1
  O  O24  1  0.98686000  0.27702500  0.20949200  1
  O  O25  1  0.01314000  0.72297500  0.79050800  1
  O  O26  1  0.60390500  0.76466200  0.25861200  1
  O  O27  1  0.39609500  0.23533800  0.74138800  1
  O  O28  1  0.60390500  0.23533800  0.24138800  1
  O  O29  1  0.39609500  0.76466200  0.75861200  1
  O  O30  1  0.29784600  0.99480500  0.43077700  1
  O  O31  1  0.70215400  0.00519500  0.56922300  1
  O  O32  1  0.29784600  0.00519500  0.06922300  1
  O  O33  1  0.70215400  0.99480500  0.93077700  1
