# generated using pymatgen
data_CaAl2Si2HO9
_symmetry_space_group_name_H-M   'P 1'
_cell_length_a   5.34945721
_cell_length_b   5.34945721
_cell_length_c   13.03258300
_cell_angle_alpha   90.00000000
_cell_angle_beta   90.00000000
_cell_angle_gamma   113.98130780
_symmetry_Int_Tables_number   1
_chemical_formula_structural   CaAl2Si2HO9
_chemical_formula_sum   'Ca2 Al4 Si4 H2 O18'
_cell_volume   340.75571767
_cell_formula_units_Z   2
loop_
 _symmetry_equiv_pos_site_id
 _symmetry_equiv_pos_as_xyz
  1  'x, y, z'
loop_
 _atom_site_type_symbol
 _atom_site_label
 _atom_site_symmetry_multiplicity
 _atom_site_fract_x
 _atom_site_fract_y
 _atom_site_fract_z
 _atom_site_occupancy
  Ca  Ca0  1  0.67373100  0.32626900  0.75000000  1
  Ca  Ca1  1  0.32626900  0.67373100  0.25000000  1
  Al  Al2  1  0.00000000  0.50000000  0.50000000  1
  Al  Al3  1  0.00000000  0.50000000  0.00000000  1
  Al  Al4  1  0.50000000  0.00000000  0.00000000  1
  Al  Al5  1  0.50000000  0.00000000  0.50000000  1
  Si  Si6  1  0.97918200  0.02081800  0.13098500  1
  Si  Si7  1  0.02081800  0.97918200  0.86901500  1
  Si  Si8  1  0.02081800  0.97918200  0.63098500  1
  Si  Si9  1  0.97918200  0.02081800  0.36901500  1
  H  H10  1  0.33143400  0.66856600  0.75000000  1
  H  H11  1  0.66856600  0.33143400  0.25000000  1
  O  O12  1  0.89063000  0.64634500  0.61632600  1
  O  O13  1  0.10937000  0.35365500  0.38367400  1
  O  O14  1  0.10937000  0.35365500  0.11632600  1
  O  O15  1  0.35365500  0.10937000  0.88367400  1
  O  O16  1  0.89063000  0.64634500  0.88367400  1
  O  O17  1  0.64634500  0.89063000  0.11632600  1
  O  O18  1  0.64634500  0.89063000  0.38367400  1
  O  O19  1  0.35365500  0.10937000  0.61632600  1
  O  O20  1  0.34984000  0.65016000  0.55927200  1
  O  O21  1  0.65016000  0.34984000  0.44072800  1
  O  O22  1  0.65016000  0.34984000  0.05927200  1
  O  O23  1  0.34984000  0.65016000  0.94072800  1
  O  O24  1  0.95213600  0.04786400  0.75000000  1
  O  O25  1  0.04786400  0.95213600  0.25000000  1
  O  O26  1  0.86328300  0.13671700  0.56582600  1
  O  O27  1  0.13671700  0.86328300  0.43417400  1
  O  O28  1  0.13671700  0.86328300  0.06582600  1
  O  O29  1  0.86328300  0.13671700  0.93417400  1
