# generated using pymatgen
data_CdNO5
_symmetry_space_group_name_H-M   'P 1'
_cell_length_a   3.79446400
_cell_length_b   7.60172700
_cell_length_c   14.40570600
_cell_angle_alpha   90.00000000
_cell_angle_beta   90.00000000
_cell_angle_gamma   90.00000000
_symmetry_Int_Tables_number   1
_chemical_formula_structural   CdNO5
_chemical_formula_sum   'Cd4 N4 O20'
_cell_volume   415.52509053
_cell_formula_units_Z   4
loop_
 _symmetry_equiv_pos_site_id
 _symmetry_equiv_pos_as_xyz
  1  'x, y, z'
loop_
 _atom_site_type_symbol
 _atom_site_label
 _atom_site_symmetry_multiplicity
 _atom_site_fract_x
 _atom_site_fract_y
 _atom_site_fract_z
 _atom_site_occupancy
  Cd  Cd0  1  0.29525000  0.50000000  0.75000000  1
  Cd  Cd1  1  0.70475000  0.50000000  0.25000000  1
  Cd  Cd2  1  0.70475000  0.00000000  0.25000000  1
  Cd  Cd3  1  0.29525000  0.00000000  0.75000000  1
  N  N4  1  0.26784200  0.75000000  0.57430400  1
  N  N5  1  0.73215800  0.25000000  0.42569600  1
  N  N6  1  0.73215800  0.75000000  0.07430400  1
  N  N7  1  0.26784200  0.25000000  0.92569600  1
  O  O8  1  0.80249800  0.83851800  0.81481500  1
  O  O9  1  0.19750200  0.16148200  0.18518500  1
  O  O10  1  0.19750200  0.33851800  0.18518500  1
  O  O11  1  0.19750200  0.66148200  0.31481500  1
  O  O12  1  0.80249800  0.66148200  0.81481500  1
  O  O13  1  0.80249800  0.33851800  0.68518500  1
  O  O14  1  0.80249800  0.16148200  0.68518500  1
  O  O15  1  0.19750200  0.83851800  0.31481500  1
  O  O16  1  0.35180700  0.75000000  0.66797300  1
  O  O17  1  0.64819300  0.25000000  0.33202700  1
  O  O18  1  0.64819300  0.75000000  0.16797300  1
  O  O19  1  0.35180700  0.25000000  0.83202700  1
  O  O20  1  0.23722900  0.89541300  0.53824500  1
  O  O21  1  0.76277100  0.10458700  0.46175500  1
  O  O22  1  0.76277100  0.39541300  0.46175500  1
  O  O23  1  0.76277100  0.60458700  0.03824500  1
  O  O24  1  0.23722900  0.60458700  0.53824500  1
  O  O25  1  0.23722900  0.39541300  0.96175500  1
  O  O26  1  0.23722900  0.10458700  0.96175500  1
  O  O27  1  0.76277100  0.89541300  0.03824500  1
