# generated using pymatgen
data_Cs2S5O12
_symmetry_space_group_name_H-M   'P 1'
_cell_length_a   11.56444200
_cell_length_b   11.56444200
_cell_length_c   11.56444200
_cell_angle_alpha   90.00000000
_cell_angle_beta   90.00000000
_cell_angle_gamma   90.00000000
_symmetry_Int_Tables_number   1
_chemical_formula_structural   Cs2S5O12
_chemical_formula_sum   'Cs8 S20 O48'
_cell_volume   1546.58590172
_cell_formula_units_Z   4
loop_
 _symmetry_equiv_pos_site_id
 _symmetry_equiv_pos_as_xyz
  1  'x, y, z'
loop_
 _atom_site_type_symbol
 _atom_site_label
 _atom_site_symmetry_multiplicity
 _atom_site_fract_x
 _atom_site_fract_y
 _atom_site_fract_z
 _atom_site_occupancy
  Cs  Cs0  1  0.05826000  0.05826000  0.05826000  1
  Cs  Cs1  1  0.44174000  0.94174000  0.55826000  1
  Cs  Cs2  1  0.94174000  0.55826000  0.44174000  1
  Cs  Cs3  1  0.55826000  0.44174000  0.94174000  1
  Cs  Cs4  1  0.81251700  0.81251700  0.81251700  1
  Cs  Cs5  1  0.68748300  0.18748300  0.31251700  1
  Cs  Cs6  1  0.18748300  0.31251700  0.68748300  1
  Cs  Cs7  1  0.31251700  0.68748300  0.18748300  1
  S  S8  1  0.32270100  0.32270100  0.32270100  1
  S  S9  1  0.17729900  0.67729900  0.82270100  1
  S  S10  1  0.67729900  0.82270100  0.17729900  1
  S  S11  1  0.82270100  0.17729900  0.67729900  1
  S  S12  1  0.53861900  0.53861900  0.53861900  1
  S  S13  1  0.96138100  0.46138100  0.03861900  1
  S  S14  1  0.46138100  0.03861900  0.96138100  1
  S  S15  1  0.03861900  0.96138100  0.46138100  1
  S  S16  1  0.01677300  0.21664000  0.38394200  1
  S  S17  1  0.48322700  0.78336000  0.88394200  1
  S  S18  1  0.98322700  0.71664000  0.11605800  1
  S  S19  1  0.38394200  0.01677300  0.21664000  1
  S  S20  1  0.51677300  0.28336000  0.61605800  1
  S  S21  1  0.88394200  0.48322700  0.78336000  1
  S  S22  1  0.11605800  0.98322700  0.71664000  1
  S  S23  1  0.61605800  0.51677300  0.28336000  1
  S  S24  1  0.21664000  0.38394200  0.01677300  1
  S  S25  1  0.71664000  0.11605800  0.98322700  1
  S  S26  1  0.28336000  0.61605800  0.51677300  1
  S  S27  1  0.78336000  0.88394200  0.48322700  1
  O  O28  1  0.01163200  0.07466000  0.35928300  1
  O  O29  1  0.48836800  0.92534000  0.85928300  1
  O  O30  1  0.98836800  0.57466000  0.14071700  1
  O  O31  1  0.35928300  0.01163200  0.07466000  1
  O  O32  1  0.51163200  0.42534000  0.64071700  1
  O  O33  1  0.85928300  0.48836800  0.92534000  1
  O  O34  1  0.14071700  0.98836800  0.57466000  1
  O  O35  1  0.64071700  0.51163200  0.42534000  1
  O  O36  1  0.07466000  0.35928300  0.01163200  1
  O  O37  1  0.57466000  0.14071700  0.98836800  1
  O  O38  1  0.42534000  0.64071700  0.51163200  1
  O  O39  1  0.92534000  0.85928300  0.48836800  1
  O  O40  1  0.02252000  0.75926600  0.22796500  1
  O  O41  1  0.47748000  0.24073400  0.72796500  1
  O  O42  1  0.97748000  0.25926600  0.27203500  1
  O  O43  1  0.22796500  0.02252000  0.75926600  1
  O  O44  1  0.52252000  0.74073400  0.77203500  1
  O  O45  1  0.72796500  0.47748000  0.24073400  1
  O  O46  1  0.27203500  0.97748000  0.25926600  1
  O  O47  1  0.77203500  0.52252000  0.74073400  1
  O  O48  1  0.75926600  0.22796500  0.02252000  1
  O  O49  1  0.25926600  0.27203500  0.97748000  1
  O  O50  1  0.74073400  0.77203500  0.52252000  1
  O  O51  1  0.24073400  0.72796500  0.47748000  1
  O  O52  1  0.13785300  0.23970600  0.41403100  1
  O  O53  1  0.36214700  0.76029400  0.91403100  1
  O  O54  1  0.86214700  0.73970600  0.08596900  1
  O  O55  1  0.41403100  0.13785300  0.23970600  1
  O  O56  1  0.63785300  0.26029400  0.58596900  1
  O  O57  1  0.91403100  0.36214700  0.76029400  1
  O  O58  1  0.08596900  0.86214700  0.73970600  1
  O  O59  1  0.58596900  0.63785300  0.26029400  1
  O  O60  1  0.23970600  0.41403100  0.13785300  1
  O  O61  1  0.73970600  0.08596900  0.86214700  1
  O  O62  1  0.26029400  0.58596900  0.63785300  1
  O  O63  1  0.76029400  0.91403100  0.36214700  1
  O  O64  1  0.25662900  0.51984100  0.43904400  1
  O  O65  1  0.24337100  0.48015900  0.93904400  1
  O  O66  1  0.74337100  0.01984100  0.06095600  1
  O  O67  1  0.43904400  0.25662900  0.51984100  1
  O  O68  1  0.75662900  0.98015900  0.56095600  1
  O  O69  1  0.93904400  0.24337100  0.48015900  1
  O  O70  1  0.06095600  0.74337100  0.01984100  1
  O  O71  1  0.56095600  0.75662900  0.98015900  1
  O  O72  1  0.51984100  0.43904400  0.25662900  1
  O  O73  1  0.01984100  0.06095600  0.74337100  1
  O  O74  1  0.98015900  0.56095600  0.75662900  1
  O  O75  1  0.48015900  0.93904400  0.24337100  1
