# generated using pymatgen
data_Cr4Cu11O30
_symmetry_space_group_name_H-M   'P 1'
_cell_length_a   5.50603638
_cell_length_b   10.34834811
_cell_length_c   10.56232753
_cell_angle_alpha   93.44226151
_cell_angle_beta   104.31005272
_cell_angle_gamma   95.73453319
_symmetry_Int_Tables_number   1
_chemical_formula_structural   Cr4Cu11O30
_chemical_formula_sum   'Cr4 Cu11 O30'
_cell_volume   577.98723891
_cell_formula_units_Z   1
loop_
 _symmetry_equiv_pos_site_id
 _symmetry_equiv_pos_as_xyz
  1  'x, y, z'
loop_
 _atom_site_type_symbol
 _atom_site_label
 _atom_site_symmetry_multiplicity
 _atom_site_fract_x
 _atom_site_fract_y
 _atom_site_fract_z
 _atom_site_occupancy
  Cr  Cr0  1  0.30599300  0.18292500  0.55811700  1
  Cr  Cr1  1  0.69400700  0.81707500  0.44188300  1
  Cr  Cr2  1  0.05780200  0.19804900  0.02519600  1
  Cr  Cr3  1  0.94219800  0.80195100  0.97480400  1
  Cu  Cu4  1  0.79549600  0.51330500  0.07785300  1
  Cu  Cu5  1  0.20450400  0.48669500  0.92214700  1
  Cu  Cu6  1  0.37053600  0.51290300  0.21373500  1
  Cu  Cu7  1  0.62946400  0.48709700  0.78626500  1
  Cu  Cu8  1  0.88637500  0.02999800  0.25293100  1
  Cu  Cu9  1  0.11362500  0.97000200  0.74706900  1
  Cu  Cu10  1  0.50000000  0.50000000  0.50000000  1
  Cu  Cu11  1  0.06441500  0.49407100  0.64046800  1
  Cu  Cu12  1  0.93558500  0.50592900  0.35953200  1
  Cu  Cu13  1  0.38535500  0.03025100  0.25279800  1
  Cu  Cu14  1  0.61464500  0.96974900  0.74720200  1
  O  O15  1  0.19804700  0.56885800  0.51085300  1
  O  O16  1  0.80195300  0.43114200  0.48914700  1
  O  O17  1  0.67168700  0.43465000  0.21372200  1
  O  O18  1  0.32831300  0.56535000  0.78627800  1
  O  O19  1  0.35650500  0.07450300  0.68862200  1
  O  O20  1  0.64349500  0.92549700  0.31137800  1
  O  O21  1  0.50103300  0.16282400  0.46897300  1
  O  O22  1  0.49896700  0.83717600  0.53102700  1
  O  O23  1  0.12200500  0.13326600  0.18415200  1
  O  O24  1  0.87799500  0.86673400  0.81584800  1
  O  O25  1  0.06106700  0.57975600  0.22350800  1
  O  O26  1  0.93893300  0.42024400  0.77649200  1
  O  O27  1  0.62407000  0.11852600  0.19262600  1
  O  O28  1  0.37593000  0.88147400  0.80737400  1
  O  O29  1  0.22805600  0.85424000  0.05072700  1
  O  O30  1  0.77194400  0.14576000  0.94927300  1
  O  O31  1  0.09737000  0.36736800  0.03706400  1
  O  O32  1  0.90263000  0.63263200  0.96293600  1
  O  O33  1  0.41906200  0.58769800  0.06750800  1
  O  O34  1  0.58093800  0.41230200  0.93249200  1
  O  O35  1  0.14538100  0.93757400  0.30841200  1
  O  O36  1  0.85461900  0.06242600  0.69158800  1
  O  O37  1  0.02056900  0.15339600  0.46685400  1
  O  O38  1  0.97943100  0.84660400  0.53314600  1
  O  O39  1  0.35244600  0.33626900  0.62680500  1
  O  O40  1  0.64755400  0.66373100  0.37319500  1
  O  O41  1  0.32088900  0.41679900  0.34411000  1
  O  O42  1  0.67911100  0.58320100  0.65589000  1
  O  O43  1  0.23887300  0.14095700  0.94368500  1
  O  O44  1  0.76112700  0.85904300  0.05631500  1
