# generated using pymatgen
data_CaAl2F8
_symmetry_space_group_name_H-M   'P 1'
_cell_length_a   6.50078189
_cell_length_b   6.50078189
_cell_length_c   7.54932560
_cell_angle_alpha   88.91068576
_cell_angle_beta   88.91068576
_cell_angle_gamma   117.64198626
_symmetry_Int_Tables_number   1
_chemical_formula_structural   CaAl2F8
_chemical_formula_sum   'Ca2 Al4 F16'
_cell_volume   282.43161866
_cell_formula_units_Z   2
loop_
 _symmetry_equiv_pos_site_id
 _symmetry_equiv_pos_as_xyz
  1  'x, y, z'
loop_
 _atom_site_type_symbol
 _atom_site_label
 _atom_site_symmetry_multiplicity
 _atom_site_fract_x
 _atom_site_fract_y
 _atom_site_fract_z
 _atom_site_occupancy
  Ca  Ca0  1  0.53478800  0.46521200  0.75000000  1
  Ca  Ca1  1  0.46521200  0.53478800  0.25000000  1
  Al  Al2  1  0.86919300  0.13080700  0.75000000  1
  Al  Al3  1  0.13080700  0.86919300  0.25000000  1
  Al  Al4  1  0.50000000  0.00000000  0.50000000  1
  Al  Al5  1  0.00000000  0.50000000  0.00000000  1
  F  F6  1  0.77848000  0.83602600  0.78886100  1
  F  F7  1  0.22152000  0.16397400  0.21113900  1
  F  F8  1  0.16397400  0.22152000  0.71113900  1
  F  F9  1  0.83602600  0.77848000  0.28886100  1
  F  F10  1  0.54515500  0.06630800  0.74138800  1
  F  F11  1  0.45484500  0.93369200  0.25861200  1
  F  F12  1  0.93369200  0.45484500  0.75861200  1
  F  F13  1  0.06630800  0.54515500  0.24138800  1
  F  F14  1  0.18543500  0.88325400  0.48982200  1
  F  F15  1  0.81456500  0.11674600  0.51017800  1
  F  F16  1  0.11674600  0.81456500  0.01017800  1
  F  F17  1  0.88325400  0.18543500  0.98982200  1
  F  F18  1  0.45959200  0.70272400  0.53050000  1
  F  F19  1  0.54040800  0.29727600  0.46950000  1
  F  F20  1  0.29727600  0.54040800  0.96950000  1
  F  F21  1  0.70272400  0.45959200  0.03050000  1
