# generated using pymatgen
data_Cd5Si2PO12
_symmetry_space_group_name_H-M   'P 1'
_cell_length_a   6.80662800
_cell_length_b   10.34135300
_cell_length_c   15.25773000
_cell_angle_alpha   90.00000000
_cell_angle_beta   90.00000000
_cell_angle_gamma   90.00000000
_symmetry_Int_Tables_number   1
_chemical_formula_structural   Cd5Si2PO12
_chemical_formula_sum   'Cd20 Si8 P4 O48'
_cell_volume   1073.98769175
_cell_formula_units_Z   4
loop_
 _symmetry_equiv_pos_site_id
 _symmetry_equiv_pos_as_xyz
  1  'x, y, z'
loop_
 _atom_site_type_symbol
 _atom_site_label
 _atom_site_symmetry_multiplicity
 _atom_site_fract_x
 _atom_site_fract_y
 _atom_site_fract_z
 _atom_site_occupancy
  Cd  Cd0  1  0.35632500  0.05634600  0.58942700  1
  Cd  Cd1  1  0.64367500  0.94365400  0.41057300  1
  Cd  Cd2  1  0.14367500  0.55634600  0.41057300  1
  Cd  Cd3  1  0.64367500  0.94365400  0.08942700  1
  Cd  Cd4  1  0.85632500  0.44365400  0.58942700  1
  Cd  Cd5  1  0.35632500  0.05634600  0.91057300  1
  Cd  Cd6  1  0.85632500  0.44365400  0.91057300  1
  Cd  Cd7  1  0.14367500  0.55634600  0.08942700  1
  Cd  Cd8  1  0.15812500  0.16287500  0.10784900  1
  Cd  Cd9  1  0.84187500  0.83712500  0.89215100  1
  Cd  Cd10  1  0.34187500  0.66287500  0.89215100  1
  Cd  Cd11  1  0.84187500  0.83712500  0.60784900  1
  Cd  Cd12  1  0.65812500  0.33712500  0.10784900  1
  Cd  Cd13  1  0.15812500  0.16287500  0.39215100  1
  Cd  Cd14  1  0.65812500  0.33712500  0.39215100  1
  Cd  Cd15  1  0.34187500  0.66287500  0.60784900  1
  Cd  Cd16  1  0.05034200  0.21602800  0.75000000  1
  Cd  Cd17  1  0.94965800  0.78397200  0.25000000  1
  Cd  Cd18  1  0.44965800  0.71602800  0.25000000  1
  Cd  Cd19  1  0.55034200  0.28397200  0.75000000  1
  Si  Si20  1  0.35234300  0.36727600  0.57075500  1
  Si  Si21  1  0.64765700  0.63272400  0.42924500  1
  Si  Si22  1  0.14765700  0.86727600  0.42924500  1
  Si  Si23  1  0.64765700  0.63272400  0.07075500  1
  Si  Si24  1  0.85234300  0.13272400  0.57075500  1
  Si  Si25  1  0.35234300  0.36727600  0.92924500  1
  Si  Si26  1  0.85234300  0.13272400  0.92924500  1
  Si  Si27  1  0.14765700  0.86727600  0.07075500  1
  P  P28  1  0.00653600  0.58698000  0.75000000  1
  P  P29  1  0.99346400  0.41302000  0.25000000  1
  P  P30  1  0.49346400  0.08698000  0.25000000  1
  P  P31  1  0.50653600  0.91302000  0.75000000  1
  O  O32  1  0.45369900  0.05944100  0.75000000  1
  O  O33  1  0.54630100  0.94055900  0.25000000  1
  O  O34  1  0.04630100  0.55944100  0.25000000  1
  O  O35  1  0.95369900  0.44055900  0.75000000  1
  O  O36  1  0.40551200  0.27865200  0.01518800  1
  O  O37  1  0.59448800  0.72134800  0.98481200  1
  O  O38  1  0.09448800  0.77865200  0.98481200  1
  O  O39  1  0.59448800  0.72134800  0.51518800  1
  O  O40  1  0.90551200  0.22134800  0.01518800  1
  O  O41  1  0.40551200  0.27865200  0.48481200  1
  O  O42  1  0.90551200  0.22134800  0.48481200  1
  O  O43  1  0.09448800  0.77865200  0.51518800  1
  O  O44  1  0.08310300  0.35639900  0.16459600  1
  O  O45  1  0.91689700  0.64360100  0.83540400  1
  O  O46  1  0.41689700  0.85639900  0.83540400  1
  O  O47  1  0.91689700  0.64360100  0.66459600  1
  O  O48  1  0.58310300  0.14360100  0.16459600  1
  O  O49  1  0.08310300  0.35639900  0.33540400  1
  O  O50  1  0.58310300  0.14360100  0.33540400  1
  O  O51  1  0.41689700  0.85639900  0.66459600  1
  O  O52  1  0.17695900  0.47461300  0.55091600  1
  O  O53  1  0.82304100  0.52538700  0.44908400  1
  O  O54  1  0.32304100  0.97461300  0.44908400  1
  O  O55  1  0.82304100  0.52538700  0.05091600  1
  O  O56  1  0.67695900  0.02538700  0.55091600  1
  O  O57  1  0.17695900  0.47461300  0.94908400  1
  O  O58  1  0.67695900  0.02538700  0.94908400  1
  O  O59  1  0.32304100  0.97461300  0.05091600  1
  O  O60  1  0.03213300  0.04341300  0.61187100  1
  O  O61  1  0.96786700  0.95658700  0.38812900  1
  O  O62  1  0.46786700  0.54341300  0.38812900  1
  O  O63  1  0.96786700  0.95658700  0.11187100  1
  O  O64  1  0.53213300  0.45658700  0.61187100  1
  O  O65  1  0.03213300  0.04341300  0.88812900  1
  O  O66  1  0.53213300  0.45658700  0.88812900  1
  O  O67  1  0.46786700  0.54341300  0.11187100  1
  O  O68  1  0.23373300  0.60970500  0.75000000  1
  O  O69  1  0.76626700  0.39029500  0.25000000  1
  O  O70  1  0.26626700  0.10970500  0.25000000  1
  O  O71  1  0.73373300  0.89029500  0.75000000  1
  O  O72  1  0.29314200  0.26395800  0.65009300  1
  O  O73  1  0.70685800  0.73604200  0.34990700  1
  O  O74  1  0.20685800  0.76395800  0.34990700  1
  O  O75  1  0.70685800  0.73604200  0.15009300  1
  O  O76  1  0.79314200  0.23604200  0.65009300  1
  O  O77  1  0.29314200  0.26395800  0.84990700  1
  O  O78  1  0.79314200  0.23604200  0.84990700  1
  O  O79  1  0.20685800  0.76395800  0.15009300  1
