# generated using pymatgen
data_Co(BrO6)2
_symmetry_space_group_name_H-M   'P 1'
_cell_length_a   9.67207800
_cell_length_b   9.67207800
_cell_length_c   9.67207800
_cell_angle_alpha   90.00000000
_cell_angle_beta   90.00000000
_cell_angle_gamma   90.00000000
_symmetry_Int_Tables_number   1
_chemical_formula_structural   Co(BrO6)2
_chemical_formula_sum   'Co4 Br8 O48'
_cell_volume   904.81412276
_cell_formula_units_Z   4
loop_
 _symmetry_equiv_pos_site_id
 _symmetry_equiv_pos_as_xyz
  1  'x, y, z'
loop_
 _atom_site_type_symbol
 _atom_site_label
 _atom_site_symmetry_multiplicity
 _atom_site_fract_x
 _atom_site_fract_y
 _atom_site_fract_z
 _atom_site_occupancy
  Co  Co0  1  0.00000000  0.00000000  0.00000000  1
  Co  Co1  1  0.50000000  0.00000000  0.50000000  1
  Co  Co2  1  0.00000000  0.50000000  0.50000000  1
  Co  Co3  1  0.50000000  0.50000000  0.00000000  1
  Br  Br4  1  0.26179600  0.26179600  0.26179600  1
  Br  Br5  1  0.73820400  0.73820400  0.73820400  1
  Br  Br6  1  0.23820400  0.73820400  0.76179600  1
  Br  Br7  1  0.73820400  0.76179600  0.23820400  1
  Br  Br8  1  0.76179600  0.26179600  0.23820400  1
  Br  Br9  1  0.26179600  0.23820400  0.76179600  1
  Br  Br10  1  0.76179600  0.23820400  0.73820400  1
  Br  Br11  1  0.23820400  0.76179600  0.26179600  1
  O  O12  1  0.12656500  0.34571200  0.18784900  1
  O  O13  1  0.87343500  0.65428800  0.81215100  1
  O  O14  1  0.37343500  0.65428800  0.68784900  1
  O  O15  1  0.87343500  0.84571200  0.31215100  1
  O  O16  1  0.18784900  0.12656500  0.34571200  1
  O  O17  1  0.62656500  0.34571200  0.31215100  1
  O  O18  1  0.12656500  0.15428800  0.68784900  1
  O  O19  1  0.81215100  0.87343500  0.65428800  1
  O  O20  1  0.62656500  0.15428800  0.81215100  1
  O  O21  1  0.68784900  0.37343500  0.65428800  1
  O  O22  1  0.37343500  0.84571200  0.18784900  1
  O  O23  1  0.31215100  0.62656500  0.34571200  1
  O  O24  1  0.31215100  0.87343500  0.84571200  1
  O  O25  1  0.68784900  0.12656500  0.15428800  1
  O  O26  1  0.81215100  0.62656500  0.15428800  1
  O  O27  1  0.18784900  0.37343500  0.84571200  1
  O  O28  1  0.34571200  0.18784900  0.12656500  1
  O  O29  1  0.65428800  0.81215100  0.87343500  1
  O  O30  1  0.84571200  0.31215100  0.87343500  1
  O  O31  1  0.15428800  0.68784900  0.12656500  1
  O  O32  1  0.15428800  0.81215100  0.62656500  1
  O  O33  1  0.84571200  0.18784900  0.37343500  1
  O  O34  1  0.65428800  0.68784900  0.37343500  1
  O  O35  1  0.34571200  0.31215100  0.62656500  1
  O  O36  1  0.17633400  0.45240700  0.46795600  1
  O  O37  1  0.82366600  0.54759300  0.53204400  1
  O  O38  1  0.32366600  0.54759300  0.96795600  1
  O  O39  1  0.82366600  0.95240700  0.03204400  1
  O  O40  1  0.46795600  0.17633400  0.45240700  1
  O  O41  1  0.67633400  0.45240700  0.03204400  1
  O  O42  1  0.17633400  0.04759300  0.96795600  1
  O  O43  1  0.53204400  0.82366600  0.54759300  1
  O  O44  1  0.67633400  0.04759300  0.53204400  1
  O  O45  1  0.96795600  0.32366600  0.54759300  1
  O  O46  1  0.32366600  0.95240700  0.46795600  1
  O  O47  1  0.03204400  0.67633400  0.45240700  1
  O  O48  1  0.03204400  0.82366600  0.95240700  1
  O  O49  1  0.96795600  0.17633400  0.04759300  1
  O  O50  1  0.53204400  0.67633400  0.04759300  1
  O  O51  1  0.46795600  0.32366600  0.95240700  1
  O  O52  1  0.45240700  0.46795600  0.17633400  1
  O  O53  1  0.54759300  0.53204400  0.82366600  1
  O  O54  1  0.95240700  0.03204400  0.82366600  1
  O  O55  1  0.04759300  0.96795600  0.17633400  1
  O  O56  1  0.04759300  0.53204400  0.67633400  1
  O  O57  1  0.95240700  0.46795600  0.32366600  1
  O  O58  1  0.54759300  0.96795600  0.32366600  1
  O  O59  1  0.45240700  0.03204400  0.67633400  1
