# generated using pymatgen
data_CaZrSi6H2O15
_symmetry_space_group_name_H-M   'P 1'
_cell_length_a   10.05803507
_cell_length_b   10.05803507
_cell_length_c   7.91884337
_cell_angle_alpha   76.71994602
_cell_angle_beta   76.71994602
_cell_angle_gamma   90.45598414
_symmetry_Int_Tables_number   1
_chemical_formula_structural   CaZrSi6H2O15
_chemical_formula_sum   'Ca2 Zr2 Si12 H4 O30'
_cell_volume   757.26960528
_cell_formula_units_Z   2
loop_
 _symmetry_equiv_pos_site_id
 _symmetry_equiv_pos_as_xyz
  1  'x, y, z'
loop_
 _atom_site_type_symbol
 _atom_site_label
 _atom_site_symmetry_multiplicity
 _atom_site_fract_x
 _atom_site_fract_y
 _atom_site_fract_z
 _atom_site_occupancy
  Ca  Ca0  1  0.47077500  0.02148400  0.54864900  1
  Ca  Ca1  1  0.97851600  0.52922500  0.45135100  1
  Zr  Zr2  1  0.72519300  0.77789300  0.49609800  1
  Zr  Zr3  1  0.22210700  0.27480700  0.50390200  1
  Si  Si4  1  0.48852900  0.82390300  0.22712800  1
  Si  Si5  1  0.17609700  0.51147100  0.77287200  1
  Si  Si6  1  0.79745100  0.57774600  0.16320900  1
  Si  Si7  1  0.42225400  0.20254900  0.83679100  1
  Si  Si8  1  0.27322700  0.04672000  0.23049400  1
  Si  Si9  1  0.95328000  0.72677300  0.76950600  1
  Si  Si10  1  0.02449300  0.34801400  0.16154100  1
  Si  Si11  1  0.65198600  0.97550800  0.83845900  1
  Si  Si12  1  0.97028200  0.03801000  0.19608400  1
  Si  Si13  1  0.96199000  0.02971800  0.80391600  1
  Si  Si14  1  0.48548600  0.51869300  0.20236300  1
  Si  Si15  1  0.48130700  0.51451400  0.79763700  1
  H  H16  1  0.18611500  0.69457700  0.31542000  1
  H  H17  1  0.30542300  0.81388500  0.68458000  1
  H  H18  1  0.64900800  0.17114000  0.26675900  1
  H  H19  1  0.82886000  0.35099200  0.73324100  1
  O  O20  1  0.64888900  0.89898200  0.67952200  1
  O  O21  1  0.10101800  0.35111100  0.32047800  1
  O  O22  1  0.59978100  0.87464500  0.03585800  1
  O  O23  1  0.12535500  0.40021900  0.96414200  1
  O  O24  1  0.30726800  0.10585000  0.39206700  1
  O  O25  1  0.89415000  0.69273200  0.60793300  1
  O  O26  1  0.34914100  0.90497000  0.22032900  1
  O  O27  1  0.09503000  0.65085900  0.77967100  1
  O  O28  1  0.44326500  0.66319500  0.25699400  1
  O  O29  1  0.33680500  0.55673500  0.74300600  1
  O  O30  1  0.33865600  0.18777000  0.68891100  1
  O  O31  1  0.81223000  0.66134400  0.31108900  1
  O  O32  1  0.11095700  0.00943300  0.26625100  1
  O  O33  1  0.99056700  0.88904300  0.73374900  1
  O  O34  1  0.55189100  0.85469900  0.38744900  1
  O  O35  1  0.14530100  0.44810900  0.61255100  1
  O  O36  1  0.84149600  0.94807200  0.33431200  1
  O  O37  1  0.05192800  0.15850400  0.66568800  1
  O  O38  1  0.99640800  0.00359200  0.00000000  1
  O  O39  1  0.50012800  0.35234600  0.79574000  1
  O  O40  1  0.64765400  0.49987200  0.20426000  1
  O  O41  1  0.32981500  0.15926100  0.04031700  1
  O  O42  1  0.84073900  0.67018500  0.95968300  1
  O  O43  1  0.94725600  0.20251700  0.17653700  1
  O  O44  1  0.79748300  0.05274400  0.82346300  1
  O  O45  1  0.39016000  0.39480600  0.34287000  1
  O  O46  1  0.60519400  0.60984000  0.65713000  1
  O  O47  1  0.90765300  0.45953600  0.19607700  1
  O  O48  1  0.54046400  0.09234700  0.80392300  1
  O  O49  1  0.46893900  0.53106100  0.00000000  1
