# generated using pymatgen
data_CdH4C4(S2N3)2
_symmetry_space_group_name_H-M   'P 1'
_cell_length_a   8.05628551
_cell_length_b   8.65853707
_cell_length_c   8.65853707
_cell_angle_alpha   78.48433696
_cell_angle_beta   85.45763009
_cell_angle_gamma   85.45763009
_symmetry_Int_Tables_number   1
_chemical_formula_structural   CdH4C4(S2N3)2
_chemical_formula_sum   'Cd2 H8 C8 S8 N12'
_cell_volume   588.72143771
_cell_formula_units_Z   2
loop_
 _symmetry_equiv_pos_site_id
 _symmetry_equiv_pos_as_xyz
  1  'x, y, z'
loop_
 _atom_site_type_symbol
 _atom_site_label
 _atom_site_symmetry_multiplicity
 _atom_site_fract_x
 _atom_site_fract_y
 _atom_site_fract_z
 _atom_site_occupancy
  Cd  Cd0  1  0.25000000  0.58031800  0.41968200  1
  Cd  Cd1  1  0.75000000  0.41968200  0.58031800  1
  H  H2  1  0.61798900  0.98665400  0.87927200  1
  H  H3  1  0.38201100  0.01334600  0.12072800  1
  H  H4  1  0.88201100  0.12072800  0.01334600  1
  H  H5  1  0.11798900  0.87927200  0.98665400  1
  H  H6  1  0.22391500  0.14773600  0.17248900  1
  H  H7  1  0.77608500  0.85226400  0.82751100  1
  H  H8  1  0.27608500  0.82751100  0.85226400  1
  H  H9  1  0.72391500  0.17248900  0.14773600  1
  C  C10  1  0.08134700  0.22840000  0.53589900  1
  C  C11  1  0.91865300  0.77160000  0.46410100  1
  C  C12  1  0.41865300  0.46410100  0.77160000  1
  C  C13  1  0.58134700  0.53589900  0.22840000  1
  C  C14  1  0.11875900  0.01455100  0.76254700  1
  C  C15  1  0.88124100  0.98544900  0.23745300  1
  C  C16  1  0.38124100  0.23745300  0.98544900  1
  C  C17  1  0.61875900  0.76254700  0.01455100  1
  S  S18  1  0.23424400  0.07430500  0.58309400  1
  S  S19  1  0.76575600  0.92569500  0.41690600  1
  S  S20  1  0.26575600  0.41690600  0.92569500  1
  S  S21  1  0.73424400  0.58309400  0.07430500  1
  S  S22  1  0.07895300  0.36187200  0.35894700  1
  S  S23  1  0.92104700  0.63812800  0.64105300  1
  S  S24  1  0.42104700  0.64105300  0.63812800  1
  S  S25  1  0.57895300  0.35894700  0.36187200  1
  N  N26  1  0.16592700  0.88778500  0.87193900  1
  N  N27  1  0.83407300  0.11221500  0.12806100  1
  N  N28  1  0.33407300  0.12806100  0.11221500  1
  N  N29  1  0.66592700  0.87193900  0.88778500  1
  N  N30  1  0.01864900  0.89366600  0.22034900  1
  N  N31  1  0.98135100  0.10633400  0.77965100  1
  N  N32  1  0.48135100  0.77965100  0.10633400  1
  N  N33  1  0.51864900  0.22034900  0.89366600  1
  N  N34  1  0.03743500  0.77499100  0.34945400  1
  N  N35  1  0.96256500  0.22500900  0.65054600  1
  N  N36  1  0.46256500  0.65054600  0.22500900  1
  N  N37  1  0.53743500  0.34945400  0.77499100  1
