# generated using pymatgen
data_Ca2PrGaCu2O7
_symmetry_space_group_name_H-M   'P 1'
_cell_length_a   11.76488873
_cell_length_b   11.76488873
_cell_length_c   11.76488873
_cell_angle_alpha   153.26066622
_cell_angle_beta   152.40776876
_cell_angle_gamma   38.80080984
_symmetry_Int_Tables_number   1
_chemical_formula_structural   Ca2PrGaCu2O7
_chemical_formula_sum   'Ca4 Pr2 Ga2 Cu4 O14'
_cell_volume   338.77830759
_cell_formula_units_Z   2
loop_
 _symmetry_equiv_pos_site_id
 _symmetry_equiv_pos_as_xyz
  1  'x, y, z'
loop_
 _atom_site_type_symbol
 _atom_site_label
 _atom_site_symmetry_multiplicity
 _atom_site_fract_x
 _atom_site_fract_y
 _atom_site_fract_z
 _atom_site_occupancy
  Ca  Ca0  1  0.69720400  0.62093100  0.00919400  1
  Ca  Ca1  1  0.30279600  0.31199100  0.92372800  1
  Ca  Ca2  1  0.11173700  0.12093100  0.92372800  1
  Ca  Ca3  1  0.88826300  0.81199100  0.00919400  1
  Pr  Pr4  1  0.00000000  0.99438700  0.99438700  1
  Pr  Pr5  1  0.50000000  0.49438700  0.99438700  1
  Ga  Ga6  1  0.32286600  0.69533300  0.51820000  1
  Ga  Ga7  1  0.67713400  0.19533300  0.37246700  1
  Cu  Cu8  1  0.57612100  0.07229600  0.48809400  1
  Cu  Cu9  1  0.42387900  0.91197300  0.49617600  1
  Cu  Cu10  1  0.08420200  0.57229600  0.49617600  1
  Cu  Cu11  1  0.91579800  0.41197300  0.48809400  1
  O  O12  1  0.36450000  0.34215700  0.20665700  1
  O  O13  1  0.63550000  0.84215700  0.97765700  1
  O  O14  1  0.74775000  0.21968000  0.60864200  1
  O  O15  1  0.25225000  0.86089200  0.47193000  1
  O  O16  1  0.11103800  0.71968000  0.47193000  1
  O  O17  1  0.88896200  0.36089200  0.60864200  1
  O  O18  1  0.81705800  0.81210800  0.49016200  1
  O  O19  1  0.18294200  0.67310400  0.99505000  1
  O  O20  1  0.82194600  0.31210800  0.99505000  1
  O  O21  1  0.17805400  0.17310400  0.49016200  1
  O  O22  1  0.32484700  0.31780400  0.49618900  1
  O  O23  1  0.67515300  0.17134200  0.99295700  1
  O  O24  1  0.32161500  0.81780400  0.99295700  1
  O  O25  1  0.67838500  0.67134200  0.49618900  1
