# generated using pymatgen
data_C3OF2
_symmetry_space_group_name_H-M   'P 1'
_cell_length_a   5.50430000
_cell_length_b   6.82225200
_cell_length_c   9.28834099
_cell_angle_alpha   73.73091156
_cell_angle_beta   90.00000000
_cell_angle_gamma   90.00000000
_symmetry_Int_Tables_number   1
_chemical_formula_structural   C3OF2
_chemical_formula_sum   'C12 O4 F8'
_cell_volume   334.82632143
_cell_formula_units_Z   4
loop_
 _symmetry_equiv_pos_site_id
 _symmetry_equiv_pos_as_xyz
  1  'x, y, z'
loop_
 _atom_site_type_symbol
 _atom_site_label
 _atom_site_symmetry_multiplicity
 _atom_site_fract_x
 _atom_site_fract_y
 _atom_site_fract_z
 _atom_site_occupancy
  C  C0  1  0.45705200  0.79426700  0.58859300  1
  C  C1  1  0.54294800  0.20573300  0.41140700  1
  C  C2  1  0.95705200  0.20573300  0.91140700  1
  C  C3  1  0.04294800  0.79426700  0.08859300  1
  C  C4  1  0.28835200  0.95983100  0.59819300  1
  C  C5  1  0.71164800  0.04016900  0.40180700  1
  C  C6  1  0.78835200  0.04016900  0.90180700  1
  C  C7  1  0.21164800  0.95983100  0.09819300  1
  C  C8  1  0.84805800  0.83160600  0.99663700  1
  C  C9  1  0.15194200  0.16839400  0.00336300  1
  C  C10  1  0.34805800  0.16839400  0.50336300  1
  C  C11  1  0.65194200  0.83160600  0.49663700  1
  O  O12  1  0.10717100  0.92618200  0.67857300  1
  O  O13  1  0.89282900  0.07381800  0.32142700  1
  O  O14  1  0.60717100  0.07381800  0.82142700  1
  O  O15  1  0.39282900  0.92618200  0.17857300  1
  F  F16  1  0.19442500  0.31527000  0.51427000  1
  F  F17  1  0.80557500  0.68473000  0.48573000  1
  F  F18  1  0.69442500  0.68473000  0.98573000  1
  F  F19  1  0.30557500  0.31527000  0.01427000  1
  F  F20  1  0.40329700  0.60753400  0.67531700  1
  F  F21  1  0.59670300  0.39246600  0.32468300  1
  F  F22  1  0.90329700  0.39246600  0.82468300  1
  F  F23  1  0.09670300  0.60753400  0.17531700  1
