# generated using pymatgen
data_Ca2GaSi2O7
_symmetry_space_group_name_H-M   'P 1'
_cell_length_a   8.02919800
_cell_length_b   8.02919800
_cell_length_c   5.05445700
_cell_angle_alpha   90.00000000
_cell_angle_beta   90.00000000
_cell_angle_gamma   90.00000000
_symmetry_Int_Tables_number   1
_chemical_formula_structural   Ca2GaSi2O7
_chemical_formula_sum   'Ca4 Ga2 Si4 O14'
_cell_volume   325.85083761
_cell_formula_units_Z   2
loop_
 _symmetry_equiv_pos_site_id
 _symmetry_equiv_pos_as_xyz
  1  'x, y, z'
loop_
 _atom_site_type_symbol
 _atom_site_label
 _atom_site_symmetry_multiplicity
 _atom_site_fract_x
 _atom_site_fract_y
 _atom_site_fract_z
 _atom_site_occupancy
  Ca  Ca0  1  0.16623200  0.33376800  0.50553200  1
  Ca  Ca1  1  0.83376800  0.66623200  0.50553200  1
  Ca  Ca2  1  0.66623200  0.16623200  0.49446800  1
  Ca  Ca3  1  0.33376800  0.83376800  0.49446800  1
  Ga  Ga4  1  0.00000000  0.00000000  0.00000000  1
  Ga  Ga5  1  0.50000000  0.50000000  0.00000000  1
  Si  Si6  1  0.63895600  0.86104400  0.93877600  1
  Si  Si7  1  0.36104400  0.13895600  0.93877600  1
  Si  Si8  1  0.13895600  0.63895600  0.06122400  1
  Si  Si9  1  0.86104400  0.36104400  0.06122400  1
  O  O10  1  0.08262600  0.81141600  0.21916900  1
  O  O11  1  0.91737400  0.18858400  0.21916900  1
  O  O12  1  0.18858400  0.08262600  0.78083100  1
  O  O13  1  0.41737400  0.31141600  0.78083100  1
  O  O14  1  0.81141600  0.91737400  0.78083100  1
  O  O15  1  0.58262600  0.68858400  0.78083100  1
  O  O16  1  0.31141600  0.58262600  0.21916900  1
  O  O17  1  0.68858400  0.41737400  0.21916900  1
  O  O18  1  0.00000000  0.50000000  0.18133500  1
  O  O19  1  0.50000000  0.00000000  0.81866500  1
  O  O20  1  0.63923400  0.86076600  0.25734700  1
  O  O21  1  0.36076600  0.13923400  0.25734700  1
  O  O22  1  0.13923400  0.63923400  0.74265300  1
  O  O23  1  0.86076600  0.36076600  0.74265300  1
