# generated using pymatgen
data_Ca3Mn2O12
_symmetry_space_group_name_H-M   'P 1'
_cell_length_a   11.10364426
_cell_length_b   11.10364426
_cell_length_c   11.10364426
_cell_angle_alpha   109.47122063
_cell_angle_beta   109.47122063
_cell_angle_gamma   109.47122063
_symmetry_Int_Tables_number   1
_chemical_formula_structural   Ca3Mn2O12
_chemical_formula_sum   'Ca12 Mn8 O48'
_cell_volume   1053.84011642
_cell_formula_units_Z   4
loop_
 _symmetry_equiv_pos_site_id
 _symmetry_equiv_pos_as_xyz
  1  'x, y, z'
loop_
 _atom_site_type_symbol
 _atom_site_label
 _atom_site_symmetry_multiplicity
 _atom_site_fract_x
 _atom_site_fract_y
 _atom_site_fract_z
 _atom_site_occupancy
  Ca  Ca0  1  0.25000000  0.37500000  0.12500000  1
  Ca  Ca1  1  0.75000000  0.62500000  0.87500000  1
  Ca  Ca2  1  0.75000000  0.12500000  0.37500000  1
  Ca  Ca3  1  0.12500000  0.25000000  0.37500000  1
  Ca  Ca4  1  0.37500000  0.75000000  0.12500000  1
  Ca  Ca5  1  0.25000000  0.87500000  0.62500000  1
  Ca  Ca6  1  0.87500000  0.75000000  0.62500000  1
  Ca  Ca7  1  0.62500000  0.25000000  0.87500000  1
  Ca  Ca8  1  0.37500000  0.12500000  0.25000000  1
  Ca  Ca9  1  0.62500000  0.87500000  0.75000000  1
  Ca  Ca10  1  0.12500000  0.37500000  0.75000000  1
  Ca  Ca11  1  0.87500000  0.62500000  0.25000000  1
  Mn  Mn12  1  0.00000000  0.00000000  0.00000000  1
  Mn  Mn13  1  0.50000000  0.00000000  0.50000000  1
  Mn  Mn14  1  0.00000000  0.50000000  0.50000000  1
  Mn  Mn15  1  0.50000000  0.00000000  0.00000000  1
  Mn  Mn16  1  0.50000000  0.50000000  0.00000000  1
  Mn  Mn17  1  0.50000000  0.50000000  0.50000000  1
  Mn  Mn18  1  0.00000000  0.00000000  0.50000000  1
  Mn  Mn19  1  0.00000000  0.50000000  0.00000000  1
  O  O20  1  0.45619200  0.38195800  0.30744400  1
  O  O21  1  0.54380800  0.61804200  0.69255600  1
  O  O22  1  0.57451400  0.14874800  0.19255600  1
  O  O23  1  0.92548600  0.11804200  0.57423500  1
  O  O24  1  0.30744400  0.45619200  0.38195800  1
  O  O25  1  0.35125200  0.92548600  0.30744400  1
  O  O26  1  0.42548600  0.85125200  0.80744400  1
  O  O27  1  0.07451400  0.88195800  0.42576500  1
  O  O28  1  0.69255600  0.54380800  0.61804200  1
  O  O29  1  0.64874800  0.07451400  0.69255600  1
  O  O30  1  0.04380800  0.35125200  0.92576500  1
  O  O31  1  0.19255600  0.57451400  0.14874800  1
  O  O32  1  0.11804200  0.04380800  0.19255600  1
  O  O33  1  0.95619200  0.64874800  0.07423500  1
  O  O34  1  0.80744400  0.42548600  0.85125200  1
  O  O35  1  0.88195800  0.95619200  0.80744400  1
  O  O36  1  0.57423500  0.92548600  0.11804200  1
  O  O37  1  0.14874800  0.45619200  0.57423500  1
  O  O38  1  0.42576500  0.07451400  0.88195800  1
  O  O39  1  0.85125200  0.54380800  0.42576500  1
  O  O40  1  0.92576500  0.04380800  0.35125200  1
  O  O41  1  0.38195800  0.57451400  0.92576500  1
  O  O42  1  0.07423500  0.95619200  0.64874800  1
  O  O43  1  0.61804200  0.42548600  0.07423500  1
  O  O44  1  0.38195800  0.30744400  0.45619200  1
  O  O45  1  0.57451400  0.92576500  0.38195800  1
  O  O46  1  0.61804200  0.69255600  0.54380800  1
  O  O47  1  0.42548600  0.07423500  0.61804200  1
  O  O48  1  0.11804200  0.57423500  0.92548600  1
  O  O49  1  0.04380800  0.19255600  0.11804200  1
  O  O50  1  0.88195800  0.42576500  0.07451400  1
  O  O51  1  0.95619200  0.80744400  0.88195800  1
  O  O52  1  0.35125200  0.92576500  0.04380800  1
  O  O53  1  0.92548600  0.30744400  0.35125200  1
  O  O54  1  0.64874800  0.07423500  0.95619200  1
  O  O55  1  0.07451400  0.69255600  0.64874800  1
  O  O56  1  0.14874800  0.19255600  0.57451400  1
  O  O57  1  0.45619200  0.57423500  0.14874800  1
  O  O58  1  0.85125200  0.80744400  0.42548600  1
  O  O59  1  0.54380800  0.42576500  0.85125200  1
  O  O60  1  0.30744400  0.35125200  0.92548600  1
  O  O61  1  0.69255600  0.64874800  0.07451400  1
  O  O62  1  0.19255600  0.11804200  0.04380800  1
  O  O63  1  0.80744400  0.88195800  0.95619200  1
  O  O64  1  0.92576500  0.38195800  0.57451400  1
  O  O65  1  0.07423500  0.61804200  0.42548600  1
  O  O66  1  0.57423500  0.14874800  0.45619200  1
  O  O67  1  0.42576500  0.85125200  0.54380800  1
