# generated using pymatgen
data_BeF4
_symmetry_space_group_name_H-M   'P 1'
_cell_length_a   5.94918100
_cell_length_b   7.83904700
_cell_length_c   10.54946200
_cell_angle_alpha   90.00000000
_cell_angle_beta   90.00000000
_cell_angle_gamma   90.00000000
_symmetry_Int_Tables_number   1
_chemical_formula_structural   BeF4
_chemical_formula_sum   'Be4 F16'
_cell_volume   491.98375479
_cell_formula_units_Z   4
loop_
 _symmetry_equiv_pos_site_id
 _symmetry_equiv_pos_as_xyz
  1  'x, y, z'
loop_
 _atom_site_type_symbol
 _atom_site_label
 _atom_site_symmetry_multiplicity
 _atom_site_fract_x
 _atom_site_fract_y
 _atom_site_fract_z
 _atom_site_occupancy
  Be  Be0  1  0.75000000  0.76832300  0.92120800  1
  Be  Be1  1  0.25000000  0.23167700  0.07879200  1
  Be  Be2  1  0.25000000  0.73167700  0.42120800  1
  Be  Be3  1  0.75000000  0.26832300  0.57879200  1
  F  F4  1  0.96948600  0.70433600  0.85915200  1
  F  F5  1  0.03051400  0.29566400  0.14084800  1
  F  F6  1  0.03051400  0.79566400  0.35915200  1
  F  F7  1  0.46948600  0.29566400  0.14084800  1
  F  F8  1  0.96948600  0.20433600  0.64084800  1
  F  F9  1  0.53051400  0.70433600  0.85915200  1
  F  F10  1  0.53051400  0.20433600  0.64084800  1
  F  F11  1  0.46948600  0.79566400  0.35915200  1
  F  F12  1  0.75000000  0.18898300  0.44658700  1
  F  F13  1  0.25000000  0.81101700  0.55341300  1
  F  F14  1  0.25000000  0.31101700  0.94658700  1
  F  F15  1  0.75000000  0.68898300  0.05341300  1
  F  F16  1  0.75000000  0.96252400  0.90712400  1
  F  F17  1  0.25000000  0.03747600  0.09287600  1
  F  F18  1  0.25000000  0.53747600  0.40712400  1
  F  F19  1  0.75000000  0.46252400  0.59287600  1
