# generated using pymatgen
data_C2N2O
_symmetry_space_group_name_H-M   'P 1'
_cell_length_a   9.44067802
_cell_length_b   9.44067802
_cell_length_c   6.16069800
_cell_angle_alpha   90.00000000
_cell_angle_beta   90.00000000
_cell_angle_gamma   120.00000014
_symmetry_Int_Tables_number   1
_chemical_formula_structural   C2N2O
_chemical_formula_sum   'C12 N12 O6'
_cell_volume   475.51795838
_cell_formula_units_Z   6
loop_
 _symmetry_equiv_pos_site_id
 _symmetry_equiv_pos_as_xyz
  1  'x, y, z'
loop_
 _atom_site_type_symbol
 _atom_site_label
 _atom_site_symmetry_multiplicity
 _atom_site_fract_x
 _atom_site_fract_y
 _atom_site_fract_z
 _atom_site_occupancy
  C  C0  1  0.84383800  0.37524100  0.75000000  1
  C  C1  1  0.15616200  0.62475900  0.25000000  1
  C  C2  1  0.53140300  0.15616200  0.75000000  1
  C  C3  1  0.46859700  0.84383800  0.25000000  1
  C  C4  1  0.62475900  0.46859700  0.75000000  1
  C  C5  1  0.37524100  0.53140300  0.25000000  1
  C  C6  1  0.70566500  0.20687900  0.75000000  1
  C  C7  1  0.29433500  0.79312100  0.25000000  1
  C  C8  1  0.50121400  0.29433500  0.75000000  1
  C  C9  1  0.49878600  0.70566500  0.25000000  1
  C  C10  1  0.79312100  0.49878600  0.75000000  1
  C  C11  1  0.20687900  0.50121400  0.25000000  1
  N  N12  1  0.74329100  0.08976300  0.75000000  1
  N  N13  1  0.25670900  0.91023700  0.25000000  1
  N  N14  1  0.34647100  0.25670900  0.75000000  1
  N  N15  1  0.65352900  0.74329100  0.25000000  1
  N  N16  1  0.91023700  0.65352900  0.75000000  1
  N  N17  1  0.08976300  0.34647100  0.25000000  1
  N  N18  1  0.77846700  0.99086800  0.75000000  1
  N  N19  1  0.22153300  0.00913200  0.25000000  1
  N  N20  1  0.21240200  0.22153300  0.75000000  1
  N  N21  1  0.78759800  0.77846700  0.25000000  1
  N  N22  1  0.00913200  0.78759800  0.75000000  1
  N  N23  1  0.99086800  0.21240200  0.25000000  1
  O  O24  1  0.98860700  0.40901100  0.75000000  1
  O  O25  1  0.01139300  0.59098900  0.25000000  1
  O  O26  1  0.42040400  0.01139300  0.75000000  1
  O  O27  1  0.57959600  0.98860700  0.25000000  1
  O  O28  1  0.59098900  0.57959600  0.75000000  1
  O  O29  1  0.40901100  0.42040400  0.25000000  1
