# generated using pymatgen
data_Ca2Al3Si3O13
_symmetry_space_group_name_H-M   'P 1'
_cell_length_a   5.65596300
_cell_length_b   8.91884400
_cell_length_c   10.23512179
_cell_angle_alpha   65.23702003
_cell_angle_beta   90.00000000
_cell_angle_gamma   90.00000000
_symmetry_Int_Tables_number   1
_chemical_formula_structural   Ca2Al3Si3O13
_chemical_formula_sum   'Ca4 Al6 Si6 O26'
_cell_volume   468.83183592
_cell_formula_units_Z   2
loop_
 _symmetry_equiv_pos_site_id
 _symmetry_equiv_pos_as_xyz
  1  'x, y, z'
loop_
 _atom_site_type_symbol
 _atom_site_label
 _atom_site_symmetry_multiplicity
 _atom_site_fract_x
 _atom_site_fract_y
 _atom_site_fract_z
 _atom_site_occupancy
  Ca  Ca0  1  0.25000000  0.61062600  0.14967400  1
  Ca  Ca1  1  0.75000000  0.38937400  0.85032600  1
  Ca  Ca2  1  0.25000000  0.17467800  0.42434600  1
  Ca  Ca3  1  0.75000000  0.82532200  0.57565400  1
  Al  Al4  1  0.00000000  0.00000000  0.00000000  1
  Al  Al5  1  0.50000000  0.00000000  0.00000000  1
  Al  Al6  1  0.25000000  0.94221400  0.76993900  1
  Al  Al7  1  0.75000000  0.05778600  0.23006100  1
  Al  Al8  1  0.00000000  0.50000000  0.50000000  1
  Al  Al9  1  0.50000000  0.50000000  0.50000000  1
  Si  Si10  1  0.25000000  0.59242100  0.73129400  1
  Si  Si11  1  0.75000000  0.40757900  0.26870600  1
  Si  Si12  1  0.25000000  0.86826100  0.31703000  1
  Si  Si13  1  0.75000000  0.13173900  0.68297000  1
  Si  Si14  1  0.25000000  0.29058900  0.05024000  1
  Si  Si15  1  0.75000000  0.70941100  0.94976000  1
  O  O16  1  0.25000000  0.06748500  0.87249700  1
  O  O17  1  0.75000000  0.93251500  0.12750300  1
  O  O18  1  0.25000000  0.33815600  0.18350000  1
  O  O19  1  0.75000000  0.66184400  0.81650000  1
  O  O20  1  0.00507300  0.19180500  0.04410700  1
  O  O21  1  0.99492700  0.80819500  0.95589300  1
  O  O22  1  0.50507300  0.80819500  0.95589300  1
  O  O23  1  0.49492700  0.19180500  0.04410700  1
  O  O24  1  0.25000000  0.78279700  0.70461800  1
  O  O25  1  0.75000000  0.21720300  0.29538200  1
  O  O26  1  0.25000000  0.89530800  0.14497400  1
  O  O27  1  0.75000000  0.10469200  0.85502600  1
  O  O28  1  0.01587100  0.54275800  0.66283000  1
  O  O29  1  0.98412900  0.45724200  0.33717000  1
  O  O30  1  0.51587100  0.45724200  0.33717000  1
  O  O31  1  0.48412900  0.54275800  0.66283000  1
  O  O32  1  0.01478800  0.95528500  0.35225300  1
  O  O33  1  0.98521200  0.04471500  0.64774700  1
  O  O34  1  0.51478800  0.04471500  0.64774700  1
  O  O35  1  0.48521200  0.95528500  0.35225300  1
  O  O36  1  0.25000000  0.35261600  0.55388600  1
  O  O37  1  0.75000000  0.64738400  0.44611400  1
  O  O38  1  0.25000000  0.46860500  0.90422700  1
  O  O39  1  0.75000000  0.53139500  0.09577300  1
  O  O40  1  0.25000000  0.66519700  0.40737300  1
  O  O41  1  0.75000000  0.33480300  0.59262700  1
