# generated using pymatgen
data_C5Cl4
_symmetry_space_group_name_H-M   'P 1'
_cell_length_a   7.77797900
_cell_length_b   9.92924100
_cell_length_c   19.86442853
_cell_angle_alpha   68.15756771
_cell_angle_beta   90.00000000
_cell_angle_gamma   90.00000000
_symmetry_Int_Tables_number   1
_chemical_formula_structural   C5Cl4
_chemical_formula_sum   'C40 Cl32'
_cell_volume   1423.98492252
_cell_formula_units_Z   8
loop_
 _symmetry_equiv_pos_site_id
 _symmetry_equiv_pos_as_xyz
  1  'x, y, z'
loop_
 _atom_site_type_symbol
 _atom_site_label
 _atom_site_symmetry_multiplicity
 _atom_site_fract_x
 _atom_site_fract_y
 _atom_site_fract_z
 _atom_site_occupancy
  C  C0  1  0.88813100  0.74229800  0.34578100  1
  C  C1  1  0.11186900  0.25770200  0.65421900  1
  C  C2  1  0.38813100  0.25770200  0.15421900  1
  C  C3  1  0.61186900  0.74229800  0.84578100  1
  C  C4  1  0.86977300  0.87689000  0.19274100  1
  C  C5  1  0.13022700  0.12311000  0.80725900  1
  C  C6  1  0.36977300  0.12311000  0.30725900  1
  C  C7  1  0.63022700  0.87689000  0.69274100  1
  C  C8  1  0.86478100  0.89216000  0.31399600  1
  C  C9  1  0.13521900  0.10784000  0.68600400  1
  C  C10  1  0.36478100  0.10784000  0.18600400  1
  C  C11  1  0.63521900  0.89216000  0.81399600  1
  C  C12  1  0.35785600  0.81755400  0.37655600  1
  C  C13  1  0.64214400  0.18244600  0.62344400  1
  C  C14  1  0.85785600  0.18244600  0.12344400  1
  C  C15  1  0.14214400  0.81755400  0.87655600  1
  C  C16  1  0.31737300  0.90567700  0.41636200  1
  C  C17  1  0.68262700  0.09432300  0.58363800  1
  C  C18  1  0.81737300  0.09432300  0.08363800  1
  C  C19  1  0.18262700  0.90567700  0.91636200  1
  C  C20  1  0.92576300  0.66107600  0.30225300  1
  C  C21  1  0.07423700  0.33892400  0.69774700  1
  C  C22  1  0.42576300  0.33892400  0.19774700  1
  C  C23  1  0.57423700  0.66107600  0.80225300  1
  C  C24  1  0.82133300  0.94373400  0.11782200  1
  C  C25  1  0.17866700  0.05626600  0.88217800  1
  C  C26  1  0.32133300  0.05626600  0.38217800  1
  C  C27  1  0.67866700  0.94373400  0.61782200  1
  C  C28  1  0.91822200  0.72705300  0.22714900  1
  C  C29  1  0.08177800  0.27294700  0.77285100  1
  C  C30  1  0.41822200  0.27294700  0.27285100  1
  C  C31  1  0.58177800  0.72705300  0.72714900  1
  C  C32  1  0.37855800  0.87893400  0.30148300  1
  C  C33  1  0.62144200  0.12106600  0.69851700  1
  C  C34  1  0.87855800  0.12106600  0.19851700  1
  C  C35  1  0.12144200  0.87893400  0.80148300  1
  C  C36  1  0.87085000  0.96605000  0.23639400  1
  C  C37  1  0.12915000  0.03395000  0.76360600  1
  C  C38  1  0.37085000  0.03395000  0.26360600  1
  C  C39  1  0.62915000  0.96605000  0.73639400  1
  Cl  Cl40  1  0.87696000  0.36656200  0.07813600  1
  Cl  Cl41  1  0.12304000  0.63343800  0.92186400  1
  Cl  Cl42  1  0.37696000  0.63343800  0.42186400  1
  Cl  Cl43  1  0.62304000  0.36656200  0.57813600  1
  Cl  Cl44  1  0.98309100  0.48178700  0.34310400  1
  Cl  Cl45  1  0.01690900  0.51821300  0.65689600  1
  Cl  Cl46  1  0.48309100  0.51821300  0.15689600  1
  Cl  Cl47  1  0.51690900  0.48178700  0.84310400  1
  Cl  Cl48  1  0.74786400  0.84405000  0.06895000  1
  Cl  Cl49  1  0.25213600  0.15595000  0.93105000  1
  Cl  Cl50  1  0.24786400  0.15595000  0.43105000  1
  Cl  Cl51  1  0.75213600  0.84405000  0.56895000  1
  Cl  Cl52  1  0.42621100  0.76081800  0.25897400  1
  Cl  Cl53  1  0.57378900  0.23918200  0.74102600  1
  Cl  Cl54  1  0.92621100  0.23918200  0.24102600  1
  Cl  Cl55  1  0.07378900  0.76081800  0.75897400  1
  Cl  Cl56  1  0.81416300  0.97895700  0.37201800  1
  Cl  Cl57  1  0.18583700  0.02104300  0.62798200  1
  Cl  Cl58  1  0.31416300  0.02104300  0.12798200  1
  Cl  Cl59  1  0.68583700  0.97895700  0.87201800  1
  Cl  Cl60  1  0.98988300  0.62799900  0.17776500  1
  Cl  Cl61  1  0.01011700  0.37200100  0.82223500  1
  Cl  Cl62  1  0.48988300  0.37200100  0.32223500  1
  Cl  Cl63  1  0.51011700  0.62799900  0.67776500  1
  Cl  Cl64  1  0.23488800  0.82554700  0.00640200  1
  Cl  Cl65  1  0.76511200  0.17445300  0.99359800  1
  Cl  Cl66  1  0.73488800  0.17445300  0.49359800  1
  Cl  Cl67  1  0.26511200  0.82554700  0.50640200  1
  Cl  Cl68  1  0.87680400  0.65400200  0.43816100  1
  Cl  Cl69  1  0.12319600  0.34599800  0.56183900  1
  Cl  Cl70  1  0.37680400  0.34599800  0.06183900  1
  Cl  Cl71  1  0.62319600  0.65400200  0.93816100  1
