# generated using pymatgen
data_BaYbCuTe3
_symmetry_space_group_name_H-M   'P 1'
_cell_length_a   7.75071789
_cell_length_b   7.75071789
_cell_length_c   11.65004100
_cell_angle_alpha   90.00000000
_cell_angle_beta   90.00000000
_cell_angle_gamma   146.80564553
_symmetry_Int_Tables_number   1
_chemical_formula_structural   BaYbCuTe3
_chemical_formula_sum   'Ba2 Yb2 Cu2 Te6'
_cell_volume   383.16001691
_cell_formula_units_Z   2
loop_
 _symmetry_equiv_pos_site_id
 _symmetry_equiv_pos_as_xyz
  1  'x, y, z'
loop_
 _atom_site_type_symbol
 _atom_site_label
 _atom_site_symmetry_multiplicity
 _atom_site_fract_x
 _atom_site_fract_y
 _atom_site_fract_z
 _atom_site_occupancy
  Ba  Ba0  1  0.25186200  0.74813800  0.25000000  1
  Ba  Ba1  1  0.74813800  0.25186200  0.75000000  1
  Yb  Yb2  1  0.00000000  0.00000000  0.00000000  1
  Yb  Yb3  1  0.00000000  0.00000000  0.50000000  1
  Cu  Cu4  1  0.53490700  0.46509300  0.25000000  1
  Cu  Cu5  1  0.46509300  0.53490700  0.75000000  1
  Te  Te6  1  0.63971900  0.36028100  0.06478200  1
  Te  Te7  1  0.36028100  0.63971900  0.93521800  1
  Te  Te8  1  0.36028100  0.63971900  0.56478200  1
  Te  Te9  1  0.63971900  0.36028100  0.43521800  1
  Te  Te10  1  0.93511700  0.06488300  0.25000000  1
  Te  Te11  1  0.06488300  0.93511700  0.75000000  1
