# generated using pymatgen
data_Ca(AlH4)2
_symmetry_space_group_name_H-M   'P 1'
_cell_length_a   15.87818065
_cell_length_b   15.87818065
_cell_length_c   5.92339200
_cell_angle_alpha   90.00000000
_cell_angle_beta   90.00000000
_cell_angle_gamma   120.00000272
_symmetry_Int_Tables_number   1
_chemical_formula_structural   Ca(AlH4)2
_chemical_formula_sum   'Ca9 Al18 H72'
_cell_volume   1293.30981015
_cell_formula_units_Z   9
loop_
 _symmetry_equiv_pos_site_id
 _symmetry_equiv_pos_as_xyz
  1  'x, y, z'
loop_
 _atom_site_type_symbol
 _atom_site_label
 _atom_site_symmetry_multiplicity
 _atom_site_fract_x
 _atom_site_fract_y
 _atom_site_fract_z
 _atom_site_occupancy
  Ca  Ca0  1  0.33333300  0.66666700  0.50948500  1
  Ca  Ca1  1  0.66666700  0.33333300  0.49051500  1
  Ca  Ca2  1  0.00000000  0.00000000  0.00000000  1
  Ca  Ca3  1  0.33440100  0.33408600  0.24956000  1
  Ca  Ca4  1  0.66559900  0.66591400  0.75044000  1
  Ca  Ca5  1  0.66591400  0.00031600  0.24956000  1
  Ca  Ca6  1  0.33408600  0.99968400  0.75044000  1
  Ca  Ca7  1  0.99968400  0.66559900  0.24956000  1
  Ca  Ca8  1  0.00031600  0.33440100  0.75044000  1
  Al  Al9  1  0.10013100  0.50083300  0.25372900  1
  Al  Al10  1  0.89986900  0.49916700  0.74627100  1
  Al  Al11  1  0.49916700  0.59929700  0.25372900  1
  Al  Al12  1  0.50083300  0.40070300  0.74627100  1
  Al  Al13  1  0.40070300  0.89986900  0.25372900  1
  Al  Al14  1  0.59929700  0.10013100  0.74627100  1
  Al  Al15  1  0.06656400  0.23651400  0.26220900  1
  Al  Al16  1  0.93343600  0.76348600  0.73779100  1
  Al  Al17  1  0.76348600  0.83005000  0.26220900  1
  Al  Al18  1  0.23651400  0.16995000  0.73779100  1
  Al  Al19  1  0.16995000  0.93343600  0.26220900  1
  Al  Al20  1  0.83005000  0.06656400  0.73779100  1
  Al  Al21  1  0.43255600  0.16603100  0.23401000  1
  Al  Al22  1  0.56744400  0.83396900  0.76599000  1
  Al  Al23  1  0.83396900  0.26652500  0.23401000  1
  Al  Al24  1  0.16603100  0.73347500  0.76599000  1
  Al  Al25  1  0.73347500  0.56744400  0.23401000  1
  Al  Al26  1  0.26652500  0.43255600  0.76599000  1
  H  H27  1  0.05148700  0.12856800  0.21493500  1
  H  H28  1  0.94851300  0.87143200  0.78506500  1
  H  H29  1  0.87143200  0.92291800  0.21493500  1
  H  H30  1  0.12856800  0.07708200  0.78506500  1
  H  H31  1  0.07708200  0.94851300  0.21493500  1
  H  H32  1  0.92291800  0.05148700  0.78506500  1
  H  H33  1  0.01714000  0.53053500  0.27601200  1
  H  H34  1  0.98286000  0.46946500  0.72398800  1
  H  H35  1  0.46946500  0.48660500  0.27601200  1
  H  H36  1  0.53053500  0.51339500  0.72398800  1
  H  H37  1  0.51339500  0.98286000  0.27601200  1
  H  H38  1  0.48660500  0.01714000  0.72398800  1
  H  H39  1  0.43891200  0.11265800  0.00505300  1
  H  H40  1  0.56108800  0.88734200  0.99494700  1
  H  H41  1  0.88734200  0.32625400  0.00505300  1
  H  H42  1  0.11265800  0.67374600  0.99494700  1
  H  H43  1  0.67374600  0.56108800  0.00505300  1
  H  H44  1  0.32625400  0.43891200  0.99494700  1
  H  H45  1  0.09690300  0.45217800  0.01028900  1
  H  H46  1  0.90309700  0.54782200  0.98971100  1
  H  H47  1  0.54782200  0.64472400  0.01028900  1
  H  H48  1  0.45217800  0.35527600  0.98971100  1
  H  H49  1  0.35527600  0.90309700  0.01028900  1
  H  H50  1  0.64472400  0.09690300  0.98971100  1
  H  H51  1  0.54039200  0.26178300  0.26479000  1
  H  H52  1  0.45960800  0.73821700  0.73521000  1
  H  H53  1  0.73821700  0.27861000  0.26479000  1
  H  H54  1  0.26178300  0.72139000  0.73521000  1
  H  H55  1  0.72139000  0.45960800  0.26479000  1
  H  H56  1  0.27861000  0.54039200  0.73521000  1
  H  H57  1  0.18057300  0.31637700  0.24920200  1
  H  H58  1  0.81942700  0.68362300  0.75079800  1
  H  H59  1  0.68362300  0.86419500  0.24920200  1
  H  H60  1  0.31637700  0.13580500  0.75079800  1
  H  H61  1  0.13580500  0.81942700  0.24920200  1
  H  H62  1  0.86419500  0.18057300  0.75079800  1
  H  H63  1  0.00348300  0.25444600  0.07102100  1
  H  H64  1  0.99651700  0.74555400  0.92897900  1
  H  H65  1  0.74555400  0.74903700  0.07102100  1
  H  H66  1  0.25444600  0.25096300  0.92897900  1
  H  H67  1  0.25096300  0.99651700  0.07102100  1
  H  H68  1  0.74903700  0.00348300  0.92897900  1
  H  H69  1  0.09353400  0.42721600  0.45451000  1
  H  H70  1  0.90646600  0.57278400  0.54549000  1
  H  H71  1  0.57278400  0.66631800  0.45451000  1
  H  H72  1  0.42721600  0.33368200  0.54549000  1
  H  H73  1  0.33368200  0.90646600  0.45451000  1
  H  H74  1  0.66631800  0.09353400  0.54549000  1
  H  H75  1  0.41679400  0.09687500  0.45059300  1
  H  H76  1  0.58320600  0.90312500  0.54940700  1
  H  H77  1  0.90312500  0.31991900  0.45059300  1
  H  H78  1  0.09687500  0.68008100  0.54940700  1
  H  H79  1  0.68008100  0.58320600  0.45059300  1
  H  H80  1  0.31991900  0.41679400  0.54940700  1
  H  H81  1  0.01920800  0.23075800  0.50964400  1
  H  H82  1  0.98079200  0.76924200  0.49035600  1
  H  H83  1  0.76924200  0.78845100  0.50964400  1
  H  H84  1  0.23075800  0.21154900  0.49035600  1
  H  H85  1  0.21154900  0.98079200  0.50964400  1
  H  H86  1  0.78845100  0.01920800  0.49035600  1
  H  H87  1  0.20780400  0.59671600  0.28008200  1
  H  H88  1  0.79219600  0.40328400  0.71991800  1
  H  H89  1  0.40328400  0.61108800  0.28008200  1
  H  H90  1  0.59671600  0.38891200  0.71991800  1
  H  H91  1  0.38891200  0.79219600  0.28008200  1
  H  H92  1  0.61108800  0.20780400  0.71991800  1
  H  H93  1  0.35143300  0.19844700  0.22221300  1
  H  H94  1  0.64856700  0.80155300  0.77778700  1
  H  H95  1  0.80155300  0.15298600  0.22221300  1
  H  H96  1  0.19844700  0.84701400  0.77778700  1
  H  H97  1  0.84701400  0.64856700  0.22221300  1
  H  H98  1  0.15298600  0.35143300  0.77778700  1
