# generated using pymatgen
data_Bi12RuO20
_symmetry_space_group_name_H-M   'P 1'
_cell_length_a   8.94770692
_cell_length_b   8.94770692
_cell_length_c   8.94770692
_cell_angle_alpha   109.47122063
_cell_angle_beta   109.47122063
_cell_angle_gamma   109.47122063
_symmetry_Int_Tables_number   1
_chemical_formula_structural   Bi12RuO20
_chemical_formula_sum   'Bi12 Ru1 O20'
_cell_volume   551.45916750
_cell_formula_units_Z   1
loop_
 _symmetry_equiv_pos_site_id
 _symmetry_equiv_pos_as_xyz
  1  'x, y, z'
loop_
 _atom_site_type_symbol
 _atom_site_label
 _atom_site_symmetry_multiplicity
 _atom_site_fract_x
 _atom_site_fract_y
 _atom_site_fract_z
 _atom_site_occupancy
  Bi  Bi0  1  0.49736400  0.33569900  0.19332800  1
  Bi  Bi1  1  0.50263600  0.69596500  0.83833600  1
  Bi  Bi2  1  0.85762900  0.66430100  0.16166400  1
  Bi  Bi3  1  0.33569900  0.19332800  0.49736400  1
  Bi  Bi4  1  0.14237100  0.30403600  0.80667200  1
  Bi  Bi5  1  0.69596500  0.83833600  0.50263600  1
  Bi  Bi6  1  0.66430100  0.16166400  0.85762900  1
  Bi  Bi7  1  0.30403600  0.80667200  0.14237100  1
  Bi  Bi8  1  0.19332800  0.49736400  0.33569900  1
  Bi  Bi9  1  0.16166400  0.85762900  0.66430100  1
  Bi  Bi10  1  0.80667200  0.14237100  0.30403500  1
  Bi  Bi11  1  0.83833600  0.50263600  0.69596500  1
  Ru  Ru12  1  0.00000000  0.00000000  0.00000000  1
  O  O13  1  0.38479100  0.38479100  0.38479100  1
  O  O14  1  0.61520900  0.00000000  0.00000000  1
  O  O15  1  0.00000000  0.61520900  0.00000000  1
  O  O16  1  0.00000000  0.00000000  0.61520900  1
  O  O17  1  0.74001200  0.62132400  0.38156400  1
  O  O18  1  0.25998800  0.64155200  0.88131200  1
  O  O19  1  0.76024000  0.37867600  0.11868800  1
  O  O20  1  0.62132400  0.38156400  0.74001200  1
  O  O21  1  0.23976000  0.35844800  0.61843600  1
  O  O22  1  0.64155200  0.88131200  0.25998800  1
  O  O23  1  0.37867600  0.11868800  0.76024000  1
  O  O24  1  0.35844800  0.61843600  0.23976000  1
  O  O25  1  0.38156400  0.74001200  0.62132400  1
  O  O26  1  0.11868800  0.76024000  0.37867600  1
  O  O27  1  0.61843600  0.23976000  0.35844800  1
  O  O28  1  0.88131200  0.25998800  0.64155200  1
  O  O29  1  0.78746000  0.78746000  0.78746000  1
  O  O30  1  0.21254000  0.00000000  0.00000000  1
  O  O31  1  0.00000000  0.21254000  0.00000000  1
  O  O32  1  0.00000000  0.00000000  0.21254000  1
