# generated using pymatgen
data_Ca2LaBeO5
_symmetry_space_group_name_H-M   'P 1'
_cell_length_a   6.52079200
_cell_length_b   7.28999300
_cell_length_c   9.45916000
_cell_angle_alpha   90.00000000
_cell_angle_beta   90.00000000
_cell_angle_gamma   90.00000000
_symmetry_Int_Tables_number   1
_chemical_formula_structural   Ca2LaBeO5
_chemical_formula_sum   'Ca8 La4 Be4 O20'
_cell_volume   449.65562452
_cell_formula_units_Z   4
loop_
 _symmetry_equiv_pos_site_id
 _symmetry_equiv_pos_as_xyz
  1  'x, y, z'
loop_
 _atom_site_type_symbol
 _atom_site_label
 _atom_site_symmetry_multiplicity
 _atom_site_fract_x
 _atom_site_fract_y
 _atom_site_fract_z
 _atom_site_occupancy
  Ca  Ca0  1  0.57895000  0.52890400  0.82684600  1
  Ca  Ca1  1  0.42105000  0.47109600  0.17315400  1
  Ca  Ca2  1  0.07895000  0.47109600  0.67315400  1
  Ca  Ca3  1  0.42105000  0.02890400  0.17315400  1
  Ca  Ca4  1  0.92105000  0.52890400  0.32684600  1
  Ca  Ca5  1  0.57895000  0.97109600  0.82684600  1
  Ca  Ca6  1  0.92105000  0.97109600  0.32684600  1
  Ca  Ca7  1  0.07895000  0.02890400  0.67315400  1
  La  La8  1  0.10011100  0.75000000  0.97271700  1
  La  La9  1  0.89988900  0.25000000  0.02728300  1
  La  La10  1  0.60011100  0.25000000  0.52728300  1
  La  La11  1  0.39988900  0.75000000  0.47271700  1
  Be  Be12  1  0.81161300  0.75000000  0.60681100  1
  Be  Be13  1  0.18838700  0.25000000  0.39318900  1
  Be  Be14  1  0.31161300  0.25000000  0.89318900  1
  Be  Be15  1  0.68838700  0.75000000  0.10681100  1
  O  O16  1  0.86050300  0.75000000  0.77722000  1
  O  O17  1  0.13949700  0.25000000  0.22278000  1
  O  O18  1  0.36050300  0.25000000  0.72278000  1
  O  O19  1  0.63949700  0.75000000  0.27722000  1
  O  O20  1  0.33242800  0.75000000  0.73017000  1
  O  O21  1  0.66757200  0.25000000  0.26983000  1
  O  O22  1  0.83242800  0.25000000  0.76983000  1
  O  O23  1  0.16757200  0.75000000  0.23017000  1
  O  O24  1  0.68856400  0.56167600  0.57312200  1
  O  O25  1  0.31143600  0.43832400  0.42687800  1
  O  O26  1  0.18856400  0.43832400  0.92687800  1
  O  O27  1  0.31143600  0.06167600  0.42687800  1
  O  O28  1  0.81143600  0.56167600  0.07312200  1
  O  O29  1  0.68856400  0.93832400  0.57312200  1
  O  O30  1  0.81143600  0.93832400  0.07312200  1
  O  O31  1  0.18856400  0.06167600  0.92687800  1
  O  O32  1  0.02283800  0.75000000  0.51306400  1
  O  O33  1  0.97716200  0.25000000  0.48693600  1
  O  O34  1  0.52283800  0.25000000  0.98693600  1
  O  O35  1  0.47716200  0.75000000  0.01306400  1
