# generated using pymatgen
data_Ca2ScReO6
_symmetry_space_group_name_H-M   'P 1'
_cell_length_a   5.64664400
_cell_length_b   5.69479500
_cell_length_c   8.00900600
_cell_angle_alpha   90.00000000
_cell_angle_beta   90.00000000
_cell_angle_gamma   90.00000000
_symmetry_Int_Tables_number   1
_chemical_formula_structural   Ca2ScReO6
_chemical_formula_sum   'Ca4 Sc2 Re2 O12'
_cell_volume   257.54144140
_cell_formula_units_Z   2
loop_
 _symmetry_equiv_pos_site_id
 _symmetry_equiv_pos_as_xyz
  1  'x, y, z'
loop_
 _atom_site_type_symbol
 _atom_site_label
 _atom_site_symmetry_multiplicity
 _atom_site_fract_x
 _atom_site_fract_y
 _atom_site_fract_z
 _atom_site_occupancy
  Ca  Ca0  1  0.00000000  0.46312900  0.25226100  1
  Ca  Ca1  1  0.00000000  0.53687100  0.74773900  1
  Ca  Ca2  1  0.50000000  0.96312900  0.24773900  1
  Ca  Ca3  1  0.50000000  0.03687100  0.75226100  1
  Sc  Sc4  1  0.00000000  0.00000000  0.00000000  1
  Sc  Sc5  1  0.50000000  0.50000000  0.50000000  1
  Re  Re6  1  0.00000000  0.00000000  0.50000000  1
  Re  Re7  1  0.50000000  0.50000000  0.00000000  1
  O  O8  1  0.50000000  0.51315100  0.24388600  1
  O  O9  1  0.50000000  0.48684900  0.75611400  1
  O  O10  1  0.00000000  0.01315100  0.25611400  1
  O  O11  1  0.00000000  0.98684900  0.74388600  1
  O  O12  1  0.24525000  0.24318300  0.49881300  1
  O  O13  1  0.24525000  0.75681700  0.50118700  1
  O  O14  1  0.74525000  0.74318300  0.00118700  1
  O  O15  1  0.74525000  0.25681700  0.99881300  1
  O  O16  1  0.25475000  0.25681700  0.99881300  1
  O  O17  1  0.25475000  0.74318300  0.00118700  1
  O  O18  1  0.75475000  0.75681700  0.50118700  1
  O  O19  1  0.75475000  0.24318300  0.49881300  1
