# generated using pymatgen
data_C2S2NCl3
_symmetry_space_group_name_H-M   'P 1'
_cell_length_a   6.08990700
_cell_length_b   10.43163400
_cell_length_c   11.76393600
_cell_angle_alpha   90.00000000
_cell_angle_beta   90.00000000
_cell_angle_gamma   90.00000000
_symmetry_Int_Tables_number   1
_chemical_formula_structural   C2S2NCl3
_chemical_formula_sum   'C8 S8 N4 Cl12'
_cell_volume   747.33557255
_cell_formula_units_Z   4
loop_
 _symmetry_equiv_pos_site_id
 _symmetry_equiv_pos_as_xyz
  1  'x, y, z'
loop_
 _atom_site_type_symbol
 _atom_site_label
 _atom_site_symmetry_multiplicity
 _atom_site_fract_x
 _atom_site_fract_y
 _atom_site_fract_z
 _atom_site_occupancy
  C  C0  1  0.29698100  0.49347100  0.17465200  1
  C  C1  1  0.20301900  0.50652900  0.67465200  1
  C  C2  1  0.70301900  0.99347100  0.32534800  1
  C  C3  1  0.79698100  0.00652900  0.82534800  1
  C  C4  1  0.16250900  0.57787100  0.11028700  1
  C  C5  1  0.33749100  0.42212900  0.61028700  1
  C  C6  1  0.83749100  0.07787100  0.38971300  1
  C  C7  1  0.66250900  0.92212900  0.88971300  1
  S  S8  1  0.04072900  0.87549500  0.43523300  1
  S  S9  1  0.45927100  0.12450500  0.93523300  1
  S  S10  1  0.95927100  0.37549500  0.06476700  1
  S  S11  1  0.54072900  0.62450500  0.56476700  1
  S  S12  1  0.22085400  0.33683100  0.16959200  1
  S  S13  1  0.27914600  0.66316900  0.66959200  1
  S  S14  1  0.77914600  0.83683100  0.33040800  1
  S  S15  1  0.72085400  0.16316900  0.83040800  1
  N  N16  1  0.00626800  0.02863300  0.44435300  1
  N  N17  1  0.49373200  0.97136700  0.94435300  1
  N  N18  1  0.99373200  0.52863300  0.05564700  1
  N  N19  1  0.50626800  0.47136700  0.55564700  1
  Cl  Cl20  1  0.28333900  0.26136700  0.60120100  1
  Cl  Cl21  1  0.21666100  0.73863300  0.10120100  1
  Cl  Cl22  1  0.71666100  0.76136700  0.89879900  1
  Cl  Cl23  1  0.78333900  0.23863300  0.39879900  1
  Cl  Cl24  1  0.03825700  0.10190300  0.09874200  1
  Cl  Cl25  1  0.46174300  0.89809700  0.59874200  1
  Cl  Cl26  1  0.96174300  0.60190300  0.40125800  1
  Cl  Cl27  1  0.53825700  0.39809700  0.90125800  1
  Cl  Cl28  1  0.47710300  0.03787000  0.25254300  1
  Cl  Cl29  1  0.02289700  0.96213000  0.75254300  1
  Cl  Cl30  1  0.52289700  0.53787000  0.24745700  1
  Cl  Cl31  1  0.97710300  0.46213000  0.74745700  1
