# generated using pymatgen
data_TbSe
_symmetry_space_group_name_H-M   'P 1'
_cell_length_a   4.60567291
_cell_length_b   4.60567291
_cell_length_c   7.26482700
_cell_angle_alpha   90.00000000
_cell_angle_beta   90.00000000
_cell_angle_gamma   120.00001302
_symmetry_Int_Tables_number   1
_chemical_formula_structural   TbSe
_chemical_formula_sum   'Tb2 Se2'
_cell_volume   133.45720770
_cell_formula_units_Z   2
loop_
 _symmetry_equiv_pos_site_id
 _symmetry_equiv_pos_as_xyz
  1  'x, y, z'
loop_
 _atom_site_type_symbol
 _atom_site_label
 _atom_site_symmetry_multiplicity
 _atom_site_fract_x
 _atom_site_fract_y
 _atom_site_fract_z
 _atom_site_occupancy
  Tb  Tb0  1  0.66666700  0.33333300  0.49516000  1
  Tb  Tb1  1  0.33333300  0.66666700  0.99516000  1
  Se  Se2  1  0.66666700  0.33333300  0.87984000  1
  Se  Se3  1  0.33333300  0.66666700  0.37984000  1
