# generated using pymatgen
data_CaB2(HO4)2
_symmetry_space_group_name_H-M   'P 1'
_cell_length_a   6.55415395
_cell_length_b   6.55415395
_cell_length_c   9.18730061
_cell_angle_alpha   64.21253568
_cell_angle_beta   64.21253568
_cell_angle_gamma   50.05118210
_symmetry_Int_Tables_number   1
_chemical_formula_structural   CaB2(HO4)2
_chemical_formula_sum   'Ca2 B4 H4 O16'
_cell_volume   265.40183948
_cell_formula_units_Z   2
loop_
 _symmetry_equiv_pos_site_id
 _symmetry_equiv_pos_as_xyz
  1  'x, y, z'
loop_
 _atom_site_type_symbol
 _atom_site_label
 _atom_site_symmetry_multiplicity
 _atom_site_fract_x
 _atom_site_fract_y
 _atom_site_fract_z
 _atom_site_occupancy
  Ca  Ca0  1  0.89485600  0.10514400  0.25000000  1
  Ca  Ca1  1  0.10514400  0.89485600  0.75000000  1
  B  B2  1  0.56558600  0.23444800  0.01458100  1
  B  B3  1  0.43441400  0.76555200  0.98541900  1
  B  B4  1  0.76555200  0.43441400  0.48541900  1
  B  B5  1  0.23444800  0.56558600  0.51458100  1
  H  H6  1  0.49458100  0.00956400  0.24601100  1
  H  H7  1  0.50541900  0.99043600  0.75398900  1
  H  H8  1  0.99043600  0.50541900  0.25398900  1
  H  H9  1  0.00956400  0.49458100  0.74601100  1
  O  O10  1  0.35760600  0.93286100  0.08224000  1
  O  O11  1  0.64239400  0.06713900  0.91776000  1
  O  O12  1  0.06713900  0.64239400  0.41776000  1
  O  O13  1  0.93286100  0.35760600  0.58224000  1
  O  O14  1  0.71037100  0.49996900  0.01274300  1
  O  O15  1  0.28962900  0.50003100  0.98725700  1
  O  O16  1  0.50003100  0.28962900  0.48725700  1
  O  O17  1  0.49996900  0.71037100  0.51274300  1
  O  O18  1  0.56886000  0.12077500  0.18958500  1
  O  O19  1  0.43114000  0.87922500  0.81041500  1
  O  O20  1  0.87922500  0.43114000  0.31041500  1
  O  O21  1  0.12077500  0.56886000  0.68958500  1
  O  O22  1  0.21712200  0.70187400  0.06138800  1
  O  O23  1  0.78287800  0.29812600  0.93861200  1
  O  O24  1  0.29812600  0.78287800  0.43861200  1
  O  O25  1  0.70187400  0.21712200  0.56138800  1
