# generated using pymatgen
data_C3S2(OF2)2
_symmetry_space_group_name_H-M   'P 1'
_cell_length_a   24.01801500
_cell_length_b   5.40378200
_cell_length_c   6.52773960
_cell_angle_alpha   63.73748624
_cell_angle_beta   90.00000000
_cell_angle_gamma   90.00000000
_symmetry_Int_Tables_number   1
_chemical_formula_structural   C3S2(OF2)2
_chemical_formula_sum   'C12 S8 O8 F16'
_cell_volume   759.76938443
_cell_formula_units_Z   4
loop_
 _symmetry_equiv_pos_site_id
 _symmetry_equiv_pos_as_xyz
  1  'x, y, z'
loop_
 _atom_site_type_symbol
 _atom_site_label
 _atom_site_symmetry_multiplicity
 _atom_site_fract_x
 _atom_site_fract_y
 _atom_site_fract_z
 _atom_site_occupancy
  C  C0  1  0.93848400  0.48629200  0.27489600  1
  C  C1  1  0.06151600  0.51370800  0.72510400  1
  C  C2  1  0.43848400  0.51370800  0.22510400  1
  C  C3  1  0.56151600  0.48629200  0.77489600  1
  C  C4  1  0.67937100  0.81082700  0.11762300  1
  C  C5  1  0.32062900  0.18917300  0.88237700  1
  C  C6  1  0.17937100  0.18917300  0.38237700  1
  C  C7  1  0.82062900  0.81082700  0.61762300  1
  C  C8  1  0.88012900  0.50187700  0.16297300  1
  C  C9  1  0.11987100  0.49812300  0.83702700  1
  C  C10  1  0.38012900  0.49812300  0.33702700  1
  C  C11  1  0.61987100  0.50187700  0.66297300  1
  S  S12  1  0.69512200  0.46651500  0.31421300  1
  S  S13  1  0.30487800  0.53348500  0.68578700  1
  S  S14  1  0.19512200  0.53348500  0.18578700  1
  S  S15  1  0.80487800  0.46651500  0.81421300  1
  S  S16  1  0.38043200  0.65516600  0.52815200  1
  S  S17  1  0.61956800  0.34483400  0.47184800  1
  S  S18  1  0.88043200  0.34483400  0.97184800  1
  S  S19  1  0.11956800  0.65516600  0.02815200  1
  O  O20  1  0.63849200  0.94605200  0.09834100  1
  O  O21  1  0.36150800  0.05394800  0.90165900  1
  O  O22  1  0.13849200  0.05394800  0.40165900  1
  O  O23  1  0.86150800  0.94605200  0.59834100  1
  O  O24  1  0.84196800  0.62610300  0.19657800  1
  O  O25  1  0.15803200  0.37389700  0.80342200  1
  O  O26  1  0.34196800  0.37389700  0.30342200  1
  O  O27  1  0.65803200  0.62610300  0.69657800  1
  F  F28  1  0.77482300  0.91648200  0.47953200  1
  F  F29  1  0.22517700  0.08351800  0.52046800  1
  F  F30  1  0.27482300  0.08351800  0.02046800  1
  F  F31  1  0.72517700  0.91648200  0.97953200  1
  F  F32  1  0.93331000  0.48336200  0.48167400  1
  F  F33  1  0.06669000  0.51663800  0.51832600  1
  F  F34  1  0.43331000  0.51663800  0.01832600  1
  F  F35  1  0.56669000  0.48336200  0.98167400  1
  F  F36  1  0.46768200  0.73960900  0.20204300  1
  F  F37  1  0.53231800  0.26039100  0.79795700  1
  F  F38  1  0.96768200  0.26039100  0.29795700  1
  F  F39  1  0.03231800  0.73960900  0.70204300  1
  F  F40  1  0.96827400  0.71538400  0.13870600  1
  F  F41  1  0.03172600  0.28461600  0.86129400  1
  F  F42  1  0.46827400  0.28461600  0.36129400  1
  F  F43  1  0.53172600  0.71538400  0.63870600  1
