# generated using pymatgen
data_C13Cl12
_symmetry_space_group_name_H-M   'P 1'
_cell_length_a   8.59590362
_cell_length_b   8.76342689
_cell_length_c   16.22606161
_cell_angle_alpha   91.43787032
_cell_angle_beta   97.34794298
_cell_angle_gamma   118.51959540
_symmetry_Int_Tables_number   1
_chemical_formula_structural   C13Cl12
_chemical_formula_sum   'C26 Cl24'
_cell_volume   1059.94216724
_cell_formula_units_Z   2
loop_
 _symmetry_equiv_pos_site_id
 _symmetry_equiv_pos_as_xyz
  1  'x, y, z'
loop_
 _atom_site_type_symbol
 _atom_site_label
 _atom_site_symmetry_multiplicity
 _atom_site_fract_x
 _atom_site_fract_y
 _atom_site_fract_z
 _atom_site_occupancy
  C  C0  1  0.01918300  0.87871400  0.15957500  1
  C  C1  1  0.98081700  0.12128600  0.84042500  1
  C  C2  1  0.15005800  0.17959800  0.88166300  1
  C  C3  1  0.84994200  0.82040200  0.11833700  1
  C  C4  1  0.52436900  0.40042000  0.32042400  1
  C  C5  1  0.47563100  0.59958000  0.67957600  1
  C  C6  1  0.12893700  0.06161600  0.19734300  1
  C  C7  1  0.87106300  0.93838400  0.80265700  1
  C  C8  1  0.38739500  0.42921200  0.63951100  1
  C  C9  1  0.61260500  0.57078800  0.36048900  1
  C  C10  1  0.24522100  0.11360300  0.27137900  1
  C  C11  1  0.75477900  0.88639700  0.72862100  1
  C  C12  1  0.08173600  0.18329300  0.15323800  1
  C  C13  1  0.91826400  0.81670700  0.84676200  1
  C  C14  1  0.22753500  0.05956700  0.89834900  1
  C  C15  1  0.77246500  0.94043300  0.10165100  1
  C  C16  1  0.48502000  0.36716700  0.59903900  1
  C  C17  1  0.51498000  0.63283300  0.40096100  1
  C  C18  1  0.33868100  0.29120500  0.31795000  1
  C  C19  1  0.66131900  0.70879500  0.68205000  1
  C  C20  1  0.24543300  0.35194800  0.36286600  1
  C  C21  1  0.75456700  0.64805200  0.63713400  1
  C  C22  1  0.91343500  0.12955400  0.11247100  1
  C  C23  1  0.08656500  0.87044600  0.88752900  1
  C  C24  1  0.33184000  0.52196800  0.40363100  1
  C  C25  1  0.66816000  0.47803200  0.59636900  1
  Cl  Cl26  1  0.64269000  0.32690100  0.26973100  1
  Cl  Cl27  1  0.35731000  0.67309900  0.73026900  1
  Cl  Cl28  1  0.24221100  0.39737400  0.15265100  1
  Cl  Cl29  1  0.75778900  0.60262600  0.84734900  1
  Cl  Cl30  1  0.16385000  0.29603400  0.64105800  1
  Cl  Cl31  1  0.83615000  0.70396600  0.35894200  1
  Cl  Cl32  1  0.71024600  0.60493400  0.08522200  1
  Cl  Cl33  1  0.28975400  0.39506600  0.91477800  1
  Cl  Cl34  1  0.38033600  0.15780600  0.55249200  1
  Cl  Cl35  1  0.61966400  0.84219400  0.44750800  1
  Cl  Cl36  1  0.21470200  0.59515500  0.45562200  1
  Cl  Cl37  1  0.78529800  0.40484500  0.54437800  1
  Cl  Cl38  1  0.39027500  0.09730500  0.82743100  1
  Cl  Cl39  1  0.60972500  0.90269500  0.17256900  1
  Cl  Cl40  1  0.34631600  0.11007200  0.00358500  1
  Cl  Cl41  1  0.65368400  0.88992800  0.99641500  1
  Cl  Cl42  1  0.02225400  0.21768700  0.36687400  1
  Cl  Cl43  1  0.97774600  0.78231300  0.63312600  1
  Cl  Cl44  1  0.10342300  0.73615100  0.16487600  1
  Cl  Cl45  1  0.89657700  0.26384900  0.83512400  1
  Cl  Cl46  1  0.85051000  0.27396900  0.07283200  1
  Cl  Cl47  1  0.14949000  0.72603100  0.92716800  1
  Cl  Cl48  1  0.71102900  0.03021100  0.67209300  1
  Cl  Cl49  1  0.28897100  0.96978900  0.32790700  1
