# generated using pymatgen
data_CF
_symmetry_space_group_name_H-M   'P 1'
_cell_length_a   7.09508500
_cell_length_b   10.03473300
_cell_length_c   12.75061534
_cell_angle_alpha   68.25559912
_cell_angle_beta   90.00000000
_cell_angle_gamma   90.00000000
_symmetry_Int_Tables_number   1
_chemical_formula_structural   CF
_chemical_formula_sum   'C32 F32'
_cell_volume   843.21470456
_cell_formula_units_Z   32
loop_
 _symmetry_equiv_pos_site_id
 _symmetry_equiv_pos_as_xyz
  1  'x, y, z'
loop_
 _atom_site_type_symbol
 _atom_site_label
 _atom_site_symmetry_multiplicity
 _atom_site_fract_x
 _atom_site_fract_y
 _atom_site_fract_z
 _atom_site_occupancy
  C  C0  1  0.04408300  0.35902900  0.84907000  1
  C  C1  1  0.95591700  0.64097100  0.15093000  1
  C  C2  1  0.54408300  0.64097100  0.65093000  1
  C  C3  1  0.45591700  0.35902900  0.34907000  1
  C  C4  1  0.04446900  0.26399300  0.79676000  1
  C  C5  1  0.95553100  0.73600700  0.20324000  1
  C  C6  1  0.54446900  0.73600700  0.70324000  1
  C  C7  1  0.45553100  0.26399300  0.29676000  1
  C  C8  1  0.29426600  0.70388200  0.50164900  1
  C  C9  1  0.70573400  0.29611800  0.49835100  1
  C  C10  1  0.79426600  0.29611800  0.99835100  1
  C  C11  1  0.20573400  0.70388200  0.00164900  1
  C  C12  1  0.14023300  0.82917400  0.61571100  1
  C  C13  1  0.85976700  0.17082600  0.38428900  1
  C  C14  1  0.64023300  0.17082600  0.88428900  1
  C  C15  1  0.35976700  0.82917400  0.11571100  1
  C  C16  1  0.13937800  0.73372600  0.56382500  1
  C  C17  1  0.86062200  0.26627400  0.43617500  1
  C  C18  1  0.63937800  0.26627400  0.93617500  1
  C  C19  1  0.36062200  0.73372600  0.06382500  1
  C  C20  1  0.29508400  0.92194000  0.61886800  1
  C  C21  1  0.70491600  0.07806000  0.38113200  1
  C  C22  1  0.79508400  0.07806000  0.88113200  1
  C  C23  1  0.20491600  0.92194000  0.11886800  1
  C  C24  1  0.47108900  0.66384400  0.53946600  1
  C  C25  1  0.52891100  0.33615600  0.46053400  1
  C  C26  1  0.97108900  0.33615600  0.96053400  1
  C  C27  1  0.02891100  0.66384400  0.03946600  1
  C  C28  1  0.47103300  0.88123300  0.65782500  1
  C  C29  1  0.52896700  0.11876700  0.34217500  1
  C  C30  1  0.97103300  0.11876700  0.84217500  1
  C  C31  1  0.02896700  0.88123300  0.15782500  1
  F  F32  1  0.12830300  0.48851700  0.79703000  1
  F  F33  1  0.87169700  0.51148300  0.20297000  1
  F  F34  1  0.62830300  0.51148300  0.70297000  1
  F  F35  1  0.37169700  0.48851700  0.29703000  1
  F  F36  1  0.97894400  0.65996800  0.56440200  1
  F  F37  1  0.02105600  0.34003200  0.43559800  1
  F  F38  1  0.47894400  0.34003200  0.93559800  1
  F  F39  1  0.52105600  0.65996800  0.06440200  1
  F  F40  1  0.98036600  0.84858200  0.66702400  1
  F  F41  1  0.01963400  0.15141800  0.33297600  1
  F  F42  1  0.48036600  0.15141800  0.83297600  1
  F  F43  1  0.51963400  0.84858200  0.16702400  1
  F  F44  1  0.90378100  0.98372200  0.15859700  1
  F  F45  1  0.09621900  0.01627800  0.84140300  1
  F  F46  1  0.40378100  0.01627800  0.34140300  1
  F  F47  1  0.59621900  0.98372200  0.65859700  1
  F  F48  1  0.25046900  0.71485900  0.89516600  1
  F  F49  1  0.74953100  0.28514100  0.10483400  1
  F  F50  1  0.75046900  0.28514100  0.60483400  1
  F  F51  1  0.24953100  0.71485900  0.39516600  1
  F  F52  1  0.40377300  0.36396400  0.53015900  1
  F  F53  1  0.59622700  0.63603600  0.46984100  1
  F  F54  1  0.90377300  0.63603600  0.96984100  1
  F  F55  1  0.09622700  0.36396400  0.03015900  1
  F  F56  1  0.12792800  0.30116200  0.69442400  1
  F  F57  1  0.87207200  0.69883800  0.30557600  1
  F  F58  1  0.62792800  0.69883800  0.80557600  1
  F  F59  1  0.37207200  0.30116200  0.19442400  1
  F  F60  1  0.75008100  0.93607500  0.91907900  1
  F  F61  1  0.24991900  0.06392500  0.08092100  1
  F  F62  1  0.25008100  0.06392500  0.58092100  1
  F  F63  1  0.74991900  0.93607500  0.41907900  1
