# generated using pymatgen
data_CF
_symmetry_space_group_name_H-M   'P 1'
_cell_length_a   8.95332980
_cell_length_b   8.95332980
_cell_length_c   8.53267000
_cell_angle_alpha   90.00000000
_cell_angle_beta   90.00000000
_cell_angle_gamma   119.99999854
_symmetry_Int_Tables_number   1
_chemical_formula_structural   CF
_chemical_formula_sum   'C24 F24'
_cell_volume   592.35867419
_cell_formula_units_Z   24
loop_
 _symmetry_equiv_pos_site_id
 _symmetry_equiv_pos_as_xyz
  1  'x, y, z'
loop_
 _atom_site_type_symbol
 _atom_site_label
 _atom_site_symmetry_multiplicity
 _atom_site_fract_x
 _atom_site_fract_y
 _atom_site_fract_z
 _atom_site_occupancy
  C  C0  1  0.50988400  0.72210000  0.75000000  1
  C  C1  1  0.49011600  0.27790000  0.25000000  1
  C  C2  1  0.21221600  0.49011600  0.75000000  1
  C  C3  1  0.78778400  0.50988400  0.25000000  1
  C  C4  1  0.27790000  0.78778400  0.75000000  1
  C  C5  1  0.72210000  0.21221600  0.25000000  1
  C  C6  1  0.96760300  0.47654000  0.75000000  1
  C  C7  1  0.03239700  0.52346000  0.25000000  1
  C  C8  1  0.50893700  0.03239700  0.75000000  1
  C  C9  1  0.49106300  0.96760300  0.25000000  1
  C  C10  1  0.52346000  0.49106300  0.75000000  1
  C  C11  1  0.47654000  0.50893700  0.25000000  1
  C  C12  1  0.38815700  0.54541100  0.75000000  1
  C  C13  1  0.61184300  0.45458900  0.25000000  1
  C  C14  1  0.15725400  0.61184300  0.75000000  1
  C  C15  1  0.84274600  0.38815700  0.25000000  1
  C  C16  1  0.45458900  0.84274600  0.75000000  1
  C  C17  1  0.54541100  0.15725400  0.25000000  1
  C  C18  1  0.66355400  0.69345200  0.75000000  1
  C  C19  1  0.33644600  0.30654800  0.25000000  1
  C  C20  1  0.02989800  0.33644600  0.75000000  1
  C  C21  1  0.97010200  0.66355400  0.25000000  1
  C  C22  1  0.30654800  0.97010200  0.75000000  1
  C  C23  1  0.69345200  0.02989800  0.25000000  1
  F  F24  1  0.87571100  0.47271800  0.87884300  1
  F  F25  1  0.12428900  0.52728200  0.12115700  1
  F  F26  1  0.59700700  0.12428900  0.87884300  1
  F  F27  1  0.12428900  0.52728200  0.37884300  1
  F  F28  1  0.40299300  0.87571100  0.12115700  1
  F  F29  1  0.87571100  0.47271800  0.62115700  1
  F  F30  1  0.52728200  0.40299300  0.87884300  1
  F  F31  1  0.40299300  0.87571100  0.37884300  1
  F  F32  1  0.47271800  0.59700700  0.12115700  1
  F  F33  1  0.59700700  0.12428900  0.62115700  1
  F  F34  1  0.47271800  0.59700700  0.37884300  1
  F  F35  1  0.52728200  0.40299300  0.62115700  1
  F  F36  1  0.98240600  0.23329200  0.87914800  1
  F  F37  1  0.01759400  0.76670800  0.12085200  1
  F  F38  1  0.25088600  0.01759400  0.87914800  1
  F  F39  1  0.01759400  0.76670800  0.37914800  1
  F  F40  1  0.74911400  0.98240600  0.12085200  1
  F  F41  1  0.98240600  0.23329200  0.62085200  1
  F  F42  1  0.76670800  0.74911400  0.87914800  1
  F  F43  1  0.74911400  0.98240600  0.37914800  1
  F  F44  1  0.23329200  0.25088600  0.12085200  1
  F  F45  1  0.25088600  0.01759400  0.62085200  1
  F  F46  1  0.23329200  0.25088600  0.37914800  1
  F  F47  1  0.76670800  0.74911400  0.62085200  1
