# generated using pymatgen
data_Ba7BrClF12
_symmetry_space_group_name_H-M   'P 1'
_cell_length_a   10.80578807
_cell_length_b   10.80578807
_cell_length_c   4.24946100
_cell_angle_alpha   90.00000000
_cell_angle_beta   90.00000000
_cell_angle_gamma   120.00000045
_symmetry_Int_Tables_number   1
_chemical_formula_structural   Ba7BrClF12
_chemical_formula_sum   'Ba7 Br1 Cl1 F12'
_cell_volume   429.71188839
_cell_formula_units_Z   1
loop_
 _symmetry_equiv_pos_site_id
 _symmetry_equiv_pos_as_xyz
  1  'x, y, z'
loop_
 _atom_site_type_symbol
 _atom_site_label
 _atom_site_symmetry_multiplicity
 _atom_site_fract_x
 _atom_site_fract_y
 _atom_site_fract_z
 _atom_site_occupancy
  Ba  Ba0  1  0.28831800  0.39657500  0.50000000  1
  Ba  Ba1  1  0.60342500  0.89174300  0.50000000  1
  Ba  Ba2  1  0.10825700  0.71168200  0.50000000  1
  Ba  Ba3  1  0.00000000  0.00000000  0.00000000  1
  Ba  Ba4  1  0.41014100  0.10725800  0.00000000  1
  Ba  Ba5  1  0.89274200  0.30288300  0.00000000  1
  Ba  Ba6  1  0.69711700  0.58985900  0.00000000  1
  Br  Br7  1  0.33333300  0.66666700  0.00000000  1
  Cl  Cl8  1  0.66666700  0.33333300  0.50000000  1
  F  F9  1  0.04881100  0.43678900  0.50000000  1
  F  F10  1  0.56321100  0.61202200  0.50000000  1
  F  F11  1  0.38797800  0.95118900  0.50000000  1
  F  F12  1  0.21814700  0.11732100  0.50000000  1
  F  F13  1  0.88267900  0.10082500  0.50000000  1
  F  F14  1  0.89917500  0.78185300  0.50000000  1
  F  F15  1  0.43134800  0.36766800  0.00000000  1
  F  F16  1  0.63233200  0.06368000  0.00000000  1
  F  F17  1  0.93632000  0.56865200  0.00000000  1
  F  F18  1  0.12160300  0.27449500  0.00000000  1
  F  F19  1  0.72550500  0.84710900  0.00000000  1
  F  F20  1  0.15289100  0.87839700  0.00000000  1
