# generated using pymatgen
data_Ca3Yb2(GeO4)3
_symmetry_space_group_name_H-M   'P 1'
_cell_length_a   11.16812331
_cell_length_b   11.16812331
_cell_length_c   11.16812331
_cell_angle_alpha   109.47122063
_cell_angle_beta   109.47122063
_cell_angle_gamma   109.47122063
_symmetry_Int_Tables_number   1
_chemical_formula_structural   Ca3Yb2(GeO4)3
_chemical_formula_sum   'Ca12 Yb8 Ge12 O48'
_cell_volume   1072.30593752
_cell_formula_units_Z   4
loop_
 _symmetry_equiv_pos_site_id
 _symmetry_equiv_pos_as_xyz
  1  'x, y, z'
loop_
 _atom_site_type_symbol
 _atom_site_label
 _atom_site_symmetry_multiplicity
 _atom_site_fract_x
 _atom_site_fract_y
 _atom_site_fract_z
 _atom_site_occupancy
  Ca  Ca0  1  0.25000000  0.37500000  0.12500000  1
  Ca  Ca1  1  0.75000000  0.62500000  0.87500000  1
  Ca  Ca2  1  0.75000000  0.12500000  0.37500000  1
  Ca  Ca3  1  0.12500000  0.25000000  0.37500000  1
  Ca  Ca4  1  0.37500000  0.75000000  0.12500000  1
  Ca  Ca5  1  0.25000000  0.87500000  0.62500000  1
  Ca  Ca6  1  0.87500000  0.75000000  0.62500000  1
  Ca  Ca7  1  0.62500000  0.25000000  0.87500000  1
  Ca  Ca8  1  0.37500000  0.12500000  0.25000000  1
  Ca  Ca9  1  0.62500000  0.87500000  0.75000000  1
  Ca  Ca10  1  0.12500000  0.37500000  0.75000000  1
  Ca  Ca11  1  0.87500000  0.62500000  0.25000000  1
  Yb  Yb12  1  0.00000000  0.00000000  0.00000000  1
  Yb  Yb13  1  0.50000000  0.00000000  0.50000000  1
  Yb  Yb14  1  0.00000000  0.50000000  0.50000000  1
  Yb  Yb15  1  0.50000000  0.00000000  0.00000000  1
  Yb  Yb16  1  0.50000000  0.50000000  0.00000000  1
  Yb  Yb17  1  0.50000000  0.50000000  0.50000000  1
  Yb  Yb18  1  0.00000000  0.00000000  0.50000000  1
  Yb  Yb19  1  0.00000000  0.50000000  0.00000000  1
  Ge  Ge20  1  0.25000000  0.62500000  0.37500000  1
  Ge  Ge21  1  0.75000000  0.37500000  0.62500000  1
  Ge  Ge22  1  0.75000000  0.87500000  0.12500000  1
  Ge  Ge23  1  0.37500000  0.25000000  0.62500000  1
  Ge  Ge24  1  0.62500000  0.75000000  0.37500000  1
  Ge  Ge25  1  0.25000000  0.12500000  0.87500000  1
  Ge  Ge26  1  0.12500000  0.75000000  0.87500000  1
  Ge  Ge27  1  0.87500000  0.25000000  0.12500000  1
  Ge  Ge28  1  0.62500000  0.37500000  0.25000000  1
  Ge  Ge29  1  0.37500000  0.62500000  0.75000000  1
  Ge  Ge30  1  0.87500000  0.12500000  0.75000000  1
  Ge  Ge31  1  0.12500000  0.87500000  0.25000000  1
  O  O32  1  0.47634400  0.37309000  0.27834200  1
  O  O33  1  0.52365600  0.62691000  0.72165800  1
  O  O34  1  0.59474700  0.19800200  0.22165800  1
  O  O35  1  0.90525300  0.12691000  0.60325500  1
  O  O36  1  0.27834200  0.47634400  0.37309000  1
  O  O37  1  0.30199800  0.90525200  0.27834200  1
  O  O38  1  0.40525300  0.80199800  0.77834200  1
  O  O39  1  0.09474700  0.87309000  0.39674500  1
  O  O40  1  0.72165800  0.52365600  0.62691000  1
  O  O41  1  0.69800200  0.09474700  0.72165800  1
  O  O42  1  0.02365600  0.30199800  0.89674500  1
  O  O43  1  0.22165800  0.59474700  0.19800200  1
  O  O44  1  0.12691000  0.02365600  0.22165800  1
  O  O45  1  0.97634400  0.69800200  0.10325500  1
  O  O46  1  0.77834200  0.40525300  0.80199800  1
  O  O47  1  0.87309000  0.97634400  0.77834200  1
  O  O48  1  0.60325500  0.90525300  0.12691000  1
  O  O49  1  0.19800200  0.47634400  0.60325500  1
  O  O50  1  0.39674500  0.09474700  0.87309000  1
  O  O51  1  0.80199800  0.52365600  0.39674500  1
  O  O52  1  0.89674500  0.02365600  0.30199800  1
  O  O53  1  0.37309000  0.59474700  0.89674500  1
  O  O54  1  0.10325500  0.97634400  0.69800200  1
  O  O55  1  0.62691000  0.40525200  0.10325500  1
  O  O56  1  0.37309000  0.27834200  0.47634400  1
  O  O57  1  0.59474700  0.89674500  0.37309000  1
  O  O58  1  0.62691000  0.72165800  0.52365600  1
  O  O59  1  0.40525200  0.10325500  0.62691000  1
  O  O60  1  0.12691000  0.60325500  0.90525300  1
  O  O61  1  0.02365600  0.22165800  0.12691000  1
  O  O62  1  0.87309000  0.39674500  0.09474700  1
  O  O63  1  0.97634400  0.77834200  0.87309000  1
  O  O64  1  0.30199800  0.89674500  0.02365600  1
  O  O65  1  0.90525300  0.27834200  0.30199800  1
  O  O66  1  0.69800200  0.10325500  0.97634400  1
  O  O67  1  0.09474700  0.72165800  0.69800200  1
  O  O68  1  0.19800200  0.22165800  0.59474700  1
  O  O69  1  0.47634400  0.60325500  0.19800200  1
  O  O70  1  0.80199800  0.77834200  0.40525300  1
  O  O71  1  0.52365600  0.39674500  0.80199800  1
  O  O72  1  0.27834200  0.30199800  0.90525300  1
  O  O73  1  0.72165800  0.69800200  0.09474700  1
  O  O74  1  0.22165800  0.12691000  0.02365600  1
  O  O75  1  0.77834200  0.87309000  0.97634400  1
  O  O76  1  0.89674500  0.37309000  0.59474700  1
  O  O77  1  0.10325500  0.62691000  0.40525300  1
  O  O78  1  0.60325500  0.19800200  0.47634400  1
  O  O79  1  0.39674500  0.80199800  0.52365600  1
