# generated using pymatgen
data_BeSi(AgO2)2
_symmetry_space_group_name_H-M   'P 1'
_cell_length_a   5.04371700
_cell_length_b   10.14967500
_cell_length_c   14.40424000
_cell_angle_alpha   90.00000000
_cell_angle_beta   90.00000000
_cell_angle_gamma   90.00000000
_symmetry_Int_Tables_number   1
_chemical_formula_structural   BeSi(AgO2)2
_chemical_formula_sum   'Be8 Si8 Ag16 O32'
_cell_volume   737.38312658
_cell_formula_units_Z   8
loop_
 _symmetry_equiv_pos_site_id
 _symmetry_equiv_pos_as_xyz
  1  'x, y, z'
loop_
 _atom_site_type_symbol
 _atom_site_label
 _atom_site_symmetry_multiplicity
 _atom_site_fract_x
 _atom_site_fract_y
 _atom_site_fract_z
 _atom_site_occupancy
  Be  Be0  1  0.02519300  0.01577800  0.49530100  1
  Be  Be1  1  0.97480700  0.98422200  0.99530100  1
  Be  Be2  1  0.97480700  0.51577800  0.49530100  1
  Be  Be3  1  0.02519300  0.48422200  0.99530100  1
  Be  Be4  1  0.50173400  0.23588700  0.74870600  1
  Be  Be5  1  0.49826600  0.76411300  0.24870600  1
  Be  Be6  1  0.49826600  0.73588700  0.74870600  1
  Be  Be7  1  0.50173400  0.26411300  0.24870600  1
  Si  Si8  1  0.52584700  0.48442300  0.87454800  1
  Si  Si9  1  0.47415300  0.51557700  0.37454800  1
  Si  Si10  1  0.47415300  0.98442300  0.87454800  1
  Si  Si11  1  0.52584700  0.01557700  0.37454800  1
  Si  Si12  1  0.00268200  0.26654500  0.62017800  1
  Si  Si13  1  0.99731800  0.73345500  0.12017800  1
  Si  Si14  1  0.99731800  0.76654500  0.62017800  1
  Si  Si15  1  0.00268200  0.23345500  0.12017800  1
  Ag  Ag16  1  0.01990600  0.23616700  0.87234400  1
  Ag  Ag17  1  0.98009400  0.76383300  0.37234400  1
  Ag  Ag18  1  0.98009400  0.73616700  0.87234400  1
  Ag  Ag19  1  0.01990600  0.26383300  0.37234400  1
  Ag  Ag20  1  0.01886700  0.49633200  0.74711800  1
  Ag  Ag21  1  0.98113300  0.50366800  0.24711800  1
  Ag  Ag22  1  0.98113300  0.99633200  0.74711800  1
  Ag  Ag23  1  0.01886700  0.00366800  0.24711800  1
  Ag  Ag24  1  0.52377700  0.26410300  0.49722700  1
  Ag  Ag25  1  0.47622300  0.73589700  0.99722700  1
  Ag  Ag26  1  0.47622300  0.76410300  0.49722700  1
  Ag  Ag27  1  0.52377700  0.23589700  0.99722700  1
  Ag  Ag28  1  0.51033800  0.01315900  0.62210200  1
  Ag  Ag29  1  0.48966200  0.98684100  0.12210200  1
  Ag  Ag30  1  0.48966200  0.51315900  0.62210200  1
  Ag  Ag31  1  0.51033800  0.48684100  0.12210200  1
  O  O32  1  0.58089500  0.33339900  0.83598400  1
  O  O33  1  0.41910500  0.66660100  0.33598400  1
  O  O34  1  0.41910500  0.83339900  0.83598400  1
  O  O35  1  0.58089500  0.16660100  0.33598400  1
  O  O36  1  0.26408300  0.30015000  0.68532000  1
  O  O37  1  0.73591700  0.69985000  0.18532000  1
  O  O38  1  0.73591700  0.80015000  0.68532000  1
  O  O39  1  0.26408300  0.19985000  0.18532000  1
  O  O40  1  0.10850600  0.59393500  0.07468100  1
  O  O41  1  0.89149400  0.40606500  0.57468100  1
  O  O42  1  0.89149400  0.09393500  0.07468100  1
  O  O43  1  0.10850600  0.90606500  0.57468100  1
  O  O44  1  0.21171200  0.50507900  0.90209700  1
  O  O45  1  0.78828800  0.49492100  0.40209700  1
  O  O46  1  0.78828800  0.00507900  0.90209700  1
  O  O47  1  0.21171200  0.99492100  0.40209700  1
  O  O48  1  0.23565500  0.70068500  0.68386900  1
  O  O49  1  0.76434500  0.29931500  0.18386900  1
  O  O50  1  0.76434500  0.20068500  0.68386900  1
  O  O51  1  0.23565500  0.79931500  0.18386900  1
  O  O52  1  0.28776300  0.00648800  0.96765100  1
  O  O53  1  0.71223700  0.99351200  0.46765100  1
  O  O54  1  0.71223700  0.50648800  0.96765100  1
  O  O55  1  0.28776300  0.49351200  0.46765100  1
  O  O56  1  0.08494800  0.16648400  0.53397100  1
  O  O57  1  0.91505200  0.83351600  0.03397100  1
  O  O58  1  0.91505200  0.66648400  0.53397100  1
  O  O59  1  0.08494800  0.33351600  0.03397100  1
  O  O60  1  0.39390600  0.09370400  0.79360300  1
  O  O61  1  0.60609400  0.90629600  0.29360300  1
  O  O62  1  0.60609400  0.59370400  0.79360300  1
  O  O63  1  0.39390600  0.40629600  0.29360300  1
