# generated using pymatgen
data_BaAlPO5F
_symmetry_space_group_name_H-M   'P 1'
_cell_length_a   12.90503000
_cell_length_b   5.20492300
_cell_length_c   7.88049571
_cell_angle_alpha   61.20845215
_cell_angle_beta   90.00000000
_cell_angle_gamma   90.00000000
_symmetry_Int_Tables_number   1
_chemical_formula_structural   BaAlPO5F
_chemical_formula_sum   'Ba4 Al4 P4 O20 F4'
_cell_volume   463.89340800
_cell_formula_units_Z   4
loop_
 _symmetry_equiv_pos_site_id
 _symmetry_equiv_pos_as_xyz
  1  'x, y, z'
loop_
 _atom_site_type_symbol
 _atom_site_label
 _atom_site_symmetry_multiplicity
 _atom_site_fract_x
 _atom_site_fract_y
 _atom_site_fract_z
 _atom_site_occupancy
  Ba  Ba0  1  0.70150700  0.36296400  0.18649600  1
  Ba  Ba1  1  0.29849300  0.63703600  0.81350400  1
  Ba  Ba2  1  0.20150700  0.63703600  0.31350400  1
  Ba  Ba3  1  0.79849300  0.36296400  0.68649600  1
  Al  Al4  1  0.00000000  0.50000000  0.00000000  1
  Al  Al5  1  0.50000000  0.50000000  0.50000000  1
  Al  Al6  1  0.00000000  0.00000000  0.50000000  1
  Al  Al7  1  0.50000000  0.00000000  0.00000000  1
  P  P8  1  0.88961100  0.87215900  0.19592200  1
  P  P9  1  0.11038900  0.12784100  0.80407800  1
  P  P10  1  0.38961100  0.12784100  0.30407800  1
  P  P11  1  0.61038900  0.87215900  0.69592200  1
  O  O12  1  0.91231500  0.71801200  0.07227600  1
  O  O13  1  0.08768500  0.28198800  0.92772400  1
  O  O14  1  0.41231500  0.28198800  0.42772400  1
  O  O15  1  0.58768500  0.71801200  0.57227600  1
  O  O16  1  0.54345000  0.68383000  0.24007300  1
  O  O17  1  0.45655000  0.31617000  0.75992700  1
  O  O18  1  0.04345000  0.31617000  0.25992700  1
  O  O19  1  0.95655000  0.68383000  0.74007300  1
  O  O20  1  0.38721700  0.78870700  0.44498600  1
  O  O21  1  0.61278300  0.21129300  0.55501400  1
  O  O22  1  0.88721700  0.21129300  0.05501400  1
  O  O23  1  0.11278300  0.78870700  0.94498600  1
  O  O24  1  0.97477400  0.79793500  0.35254100  1
  O  O25  1  0.02522600  0.20206500  0.64745900  1
  O  O26  1  0.47477400  0.20206500  0.14745900  1
  O  O27  1  0.52522600  0.79793500  0.85254100  1
  O  O28  1  0.78268600  0.77302700  0.28958200  1
  O  O29  1  0.21731400  0.22697300  0.71041800  1
  O  O30  1  0.28268600  0.22697300  0.21041800  1
  O  O31  1  0.71731400  0.77302700  0.78958200  1
  F  F32  1  0.36719700  0.85771900  0.03919100  1
  F  F33  1  0.63280300  0.14228100  0.96080900  1
  F  F34  1  0.86719700  0.14228100  0.46080900  1
  F  F35  1  0.13280300  0.85771900  0.53919100  1
