# generated using pymatgen
data_Bi4(PO4)3
_symmetry_space_group_name_H-M   'P 1'
_cell_length_a   8.99712233
_cell_length_b   8.99712233
_cell_length_c   8.99712233
_cell_angle_alpha   109.47122063
_cell_angle_beta   109.47122063
_cell_angle_gamma   109.47122063
_symmetry_Int_Tables_number   1
_chemical_formula_structural   Bi4(PO4)3
_chemical_formula_sum   'Bi8 P6 O24'
_cell_volume   560.64633279
_cell_formula_units_Z   2
loop_
 _symmetry_equiv_pos_site_id
 _symmetry_equiv_pos_as_xyz
  1  'x, y, z'
loop_
 _atom_site_type_symbol
 _atom_site_label
 _atom_site_symmetry_multiplicity
 _atom_site_fract_x
 _atom_site_fract_y
 _atom_site_fract_z
 _atom_site_occupancy
  Bi  Bi0  1  0.34657000  0.34657000  0.34657000  1
  Bi  Bi1  1  0.15343000  0.50000000  0.00000000  1
  Bi  Bi2  1  0.00000000  0.15343000  0.50000000  1
  Bi  Bi3  1  0.84657000  0.84657000  0.84657000  1
  Bi  Bi4  1  0.50000000  0.00000000  0.15343000  1
  Bi  Bi5  1  0.65343000  0.50000000  0.00000000  1
  Bi  Bi6  1  0.50000000  0.00000000  0.65343000  1
  Bi  Bi7  1  0.00000000  0.65343000  0.50000000  1
  P  P8  1  0.12500000  0.87500000  0.25000000  1
  P  P9  1  0.37500000  0.62500000  0.75000000  1
  P  P10  1  0.87500000  0.25000000  0.12500000  1
  P  P11  1  0.62500000  0.75000000  0.37500000  1
  P  P12  1  0.25000000  0.12500000  0.87500000  1
  P  P13  1  0.75000000  0.37500000  0.62500000  1
  O  O14  1  0.37388300  0.20764600  0.08319000  1
  O  O15  1  0.12611700  0.20930700  0.83376400  1
  O  O16  1  0.87554300  0.29235400  0.66623600  1
  O  O17  1  0.20764600  0.08319000  0.37388300  1
  O  O18  1  0.87388300  0.58319000  0.70764600  1
  O  O19  1  0.62445700  0.29069300  0.41681000  1
  O  O20  1  0.20930700  0.83376400  0.12611700  1
  O  O21  1  0.62611700  0.33376400  0.70930700  1
  O  O22  1  0.29235400  0.66623600  0.87554300  1
  O  O23  1  0.37554300  0.16623600  0.79235400  1
  O  O24  1  0.29069300  0.41681000  0.62445700  1
  O  O25  1  0.12445700  0.91681000  0.79069300  1
  O  O26  1  0.08319000  0.37388300  0.20764600  1
  O  O27  1  0.70764600  0.87388300  0.58319000  1
  O  O28  1  0.66623600  0.87554300  0.29235400  1
  O  O29  1  0.79235400  0.37554300  0.16623600  1
  O  O30  1  0.41681000  0.62445700  0.29069300  1
  O  O31  1  0.79069300  0.12445700  0.91681000  1
  O  O32  1  0.83376400  0.12611700  0.20930700  1
  O  O33  1  0.70930700  0.62611700  0.33376400  1
  O  O34  1  0.58319000  0.70764600  0.87388300  1
  O  O35  1  0.33376400  0.70930700  0.62611700  1
  O  O36  1  0.91681000  0.79069300  0.12445700  1
  O  O37  1  0.16623600  0.79235400  0.37554300  1
