# generated using pymatgen
data_C6BrF4
_symmetry_space_group_name_H-M   'P 1'
_cell_length_a   8.29171000
_cell_length_b   12.46842100
_cell_length_c   13.02485017
_cell_angle_alpha   77.04724955
_cell_angle_beta   90.00000000
_cell_angle_gamma   90.00000000
_symmetry_Int_Tables_number   1
_chemical_formula_structural   C6BrF4
_chemical_formula_sum   'C48 Br8 F32'
_cell_volume   1312.30492878
_cell_formula_units_Z   8
loop_
 _symmetry_equiv_pos_site_id
 _symmetry_equiv_pos_as_xyz
  1  'x, y, z'
loop_
 _atom_site_type_symbol
 _atom_site_label
 _atom_site_symmetry_multiplicity
 _atom_site_fract_x
 _atom_site_fract_y
 _atom_site_fract_z
 _atom_site_occupancy
  C  C0  1  0.29459400  0.67342300  0.51634700  1
  C  C1  1  0.70540600  0.32657700  0.48365300  1
  C  C2  1  0.79459500  0.32657700  0.98365300  1
  C  C3  1  0.20540600  0.67342300  0.01634700  1
  C  C4  1  0.34036300  0.57253700  0.58086100  1
  C  C5  1  0.65963700  0.42746300  0.41913900  1
  C  C6  1  0.84036300  0.42746300  0.91913900  1
  C  C7  1  0.15963700  0.57253700  0.08086100  1
  C  C8  1  0.06320100  0.52442400  0.62471100  1
  C  C9  1  0.93679900  0.47557600  0.37528900  1
  C  C10  1  0.56320100  0.47557600  0.87528900  1
  C  C11  1  0.43679900  0.52442400  0.12471100  1
  C  C12  1  0.51126800  0.81893000  0.50765000  1
  C  C13  1  0.48873200  0.18107000  0.49235000  1
  C  C14  1  0.01126800  0.18107000  0.99235000  1
  C  C15  1  0.98873200  0.81893000  0.00765000  1
  C  C16  1  0.22675800  0.49790800  0.63471100  1
  C  C17  1  0.77324200  0.50209200  0.36528900  1
  C  C18  1  0.72675800  0.50209200  0.86528900  1
  C  C19  1  0.27324200  0.49790800  0.13471100  1
  C  C20  1  0.86149800  0.90180200  0.84152400  1
  C  C21  1  0.13850200  0.09819800  0.15847600  1
  C  C22  1  0.36149800  0.09819800  0.65847600  1
  C  C23  1  0.63850200  0.90180200  0.34152400  1
  C  C24  1  0.87952500  0.89342700  0.94961700  1
  C  C25  1  0.12047500  0.10657300  0.05038300  1
  C  C26  1  0.37952500  0.10657300  0.55038300  1
  C  C27  1  0.62047500  0.89342700  0.44961700  1
  C  C28  1  0.08326900  0.75127700  0.95815500  1
  C  C29  1  0.91673100  0.24872300  0.04184500  1
  C  C30  1  0.58326900  0.24872300  0.54184500  1
  C  C31  1  0.41673100  0.75127700  0.45815500  1
  C  C32  1  0.01460800  0.62521200  0.56192400  1
  C  C33  1  0.98539200  0.37478800  0.43807600  1
  C  C34  1  0.51460800  0.37478800  0.93807600  1
  C  C35  1  0.48539200  0.62521200  0.06192400  1
  C  C36  1  0.06215400  0.76079800  0.84975000  1
  C  C37  1  0.93784600  0.23920200  0.15025000  1
  C  C38  1  0.56215400  0.23920200  0.65025000  1
  C  C39  1  0.43784600  0.76079800  0.34975000  1
  C  C40  1  0.95363900  0.83543800  0.79098200  1
  C  C41  1  0.04636100  0.16456200  0.20901800  1
  C  C42  1  0.45363900  0.16456200  0.70901800  1
  C  C43  1  0.54636100  0.83543800  0.29098200  1
  C  C44  1  0.12899200  0.69882600  0.50807600  1
  C  C45  1  0.87100800  0.30117400  0.49192400  1
  C  C46  1  0.62899200  0.30117400  0.99192400  1
  C  C47  1  0.37100800  0.69882600  0.00807600  1
  Br  Br48  1  0.49411700  0.81042600  0.65369800  1
  Br  Br49  1  0.50588300  0.18957400  0.34630200  1
  Br  Br50  1  0.99411700  0.18957400  0.84630200  1
  Br  Br51  1  0.00588300  0.81042600  0.15369800  1
  Br  Br52  1  0.44231300  0.83484300  0.92609100  1
  Br  Br53  1  0.55768700  0.16515700  0.07390900  1
  Br  Br54  1  0.94231300  0.16515700  0.57390900  1
  Br  Br55  1  0.05768700  0.83484300  0.42609100  1
  F  F56  1  0.75423500  0.97345800  0.78628100  1
  F  F57  1  0.24576500  0.02654200  0.21371900  1
  F  F58  1  0.25423500  0.02654200  0.71371900  1
  F  F59  1  0.74576500  0.97345800  0.28628100  1
  F  F60  1  0.27363600  0.40048900  0.69507800  1
  F  F61  1  0.72636400  0.59951100  0.30492200  1
  F  F62  1  0.77363600  0.59951100  0.80492200  1
  F  F63  1  0.22636400  0.40048900  0.19507800  1
  F  F64  1  0.85541400  0.64827000  0.55374000  1
  F  F65  1  0.14458600  0.35173000  0.44626000  1
  F  F66  1  0.35541400  0.35173000  0.94626000  1
  F  F67  1  0.64458600  0.64827000  0.05374000  1
  F  F68  1  0.78654500  0.95756200  0.99634600  1
  F  F69  1  0.21345500  0.04243800  0.00365400  1
  F  F70  1  0.28654500  0.04243800  0.50365400  1
  F  F71  1  0.71345500  0.95756200  0.49634600  1
  F  F72  1  0.99797800  0.45532300  0.90705600  1
  F  F73  1  0.00202200  0.54467700  0.09294400  1
  F  F74  1  0.49797800  0.54467700  0.59294400  1
  F  F75  1  0.50202200  0.45532300  0.40705600  1
  F  F76  1  0.45181000  0.54761700  0.82593200  1
  F  F77  1  0.54819000  0.45238300  0.17406800  1
  F  F78  1  0.95181000  0.45238300  0.67406800  1
  F  F79  1  0.04819000  0.54761700  0.32593200  1
  F  F80  1  0.14943000  0.69715900  0.79865300  1
  F  F81  1  0.85057000  0.30284100  0.20134700  1
  F  F82  1  0.64943000  0.30284100  0.70134700  1
  F  F83  1  0.35057000  0.69715900  0.29865300  1
  F  F84  1  0.93875600  0.84481900  0.68629300  1
  F  F85  1  0.06124400  0.15518100  0.31370700  1
  F  F86  1  0.43875600  0.15518100  0.81370700  1
  F  F87  1  0.56124400  0.84481900  0.18629300  1
