data_image0
_chemical_formula_structural       Ba2In4Rh2
_chemical_formula_sum              "Ba2 In4 Rh2"
_cell_length_a       4.51504
_cell_length_b       6.1674
_cell_length_c       8.11288
_cell_angle_alpha    90
_cell_angle_beta     90
_cell_angle_gamma    68.5283

_space_group_name_H-M_alt    "P 1"
_space_group_IT_number       1

loop_
  _space_group_symop_operation_xyz
  'x, y, z'

loop_
  _atom_site_type_symbol
  _atom_site_label
  _atom_site_symmetry_multiplicity
  _atom_site_fract_x
  _atom_site_fract_y
  _atom_site_fract_z
  _atom_site_occupancy
  Ba  Ba1       1.0  0.94700  0.10600  0.25000  1.0000
  Ba  Ba2       1.0  0.05280  0.89400  0.75000  1.0000
  In  In1       1.0  0.66400  0.67300  0.05490  1.0000
  In  In2       1.0  0.66400  0.67300  0.44500  1.0000
  In  In3       1.0  0.33600  0.32700  0.55500  1.0000
  In  In4       1.0  0.33600  0.32700  0.94500  1.0000
  Rh  Rh1       1.0  0.21600  0.56700  0.25000  1.0000
  Rh  Rh2       1.0  0.78400  0.43300  0.75000  1.0000
