# generated using pymatgen
data_C(NO)2
_symmetry_space_group_name_H-M   'P 1'
_cell_length_a   6.92073700
_cell_length_b   7.25578800
_cell_length_c   16.30109500
_cell_angle_alpha   90.00000000
_cell_angle_beta   90.00000000
_cell_angle_gamma   90.00000000
_symmetry_Int_Tables_number   1
_chemical_formula_structural   C(NO)2
_chemical_formula_sum   'C8 N16 O16'
_cell_volume   818.56601362
_cell_formula_units_Z   8
loop_
 _symmetry_equiv_pos_site_id
 _symmetry_equiv_pos_as_xyz
  1  'x, y, z'
loop_
 _atom_site_type_symbol
 _atom_site_label
 _atom_site_symmetry_multiplicity
 _atom_site_fract_x
 _atom_site_fract_y
 _atom_site_fract_z
 _atom_site_occupancy
  C  C0  1  0.05508800  0.12528500  0.09920200  1
  C  C1  1  0.94491200  0.87471500  0.90079800  1
  C  C2  1  0.44491200  0.87471500  0.59920200  1
  C  C3  1  0.94491200  0.62528500  0.40079800  1
  C  C4  1  0.55508800  0.12528500  0.40079800  1
  C  C5  1  0.05508800  0.37471500  0.59920200  1
  C  C6  1  0.55508800  0.37471500  0.90079800  1
  C  C7  1  0.44491200  0.62528500  0.09920200  1
  N  N8  1  0.18924700  0.22355100  0.05665800  1
  N  N9  1  0.81075300  0.77644900  0.94334200  1
  N  N10  1  0.31075300  0.77644900  0.55665800  1
  N  N11  1  0.81075300  0.72355100  0.44334200  1
  N  N12  1  0.68924700  0.22355100  0.44334200  1
  N  N13  1  0.18924700  0.27644900  0.55665800  1
  N  N14  1  0.68924700  0.27644900  0.94334200  1
  N  N15  1  0.31075300  0.72355100  0.05665800  1
  N  N16  1  0.07567100  0.13372400  0.31813400  1
  N  N17  1  0.92432900  0.86627600  0.68186600  1
  N  N18  1  0.42432900  0.86627600  0.81813400  1
  N  N19  1  0.92432900  0.63372400  0.18186600  1
  N  N20  1  0.57567100  0.13372400  0.18186600  1
  N  N21  1  0.07567100  0.36627600  0.81813400  1
  N  N22  1  0.57567100  0.36627600  0.68186600  1
  N  N23  1  0.42432900  0.63372400  0.31813400  1
  O  O24  1  0.15131500  0.26014200  0.14568900  1
  O  O25  1  0.84868500  0.73985800  0.85431100  1
  O  O26  1  0.34868500  0.73985800  0.64568900  1
  O  O27  1  0.84868500  0.76014200  0.35431100  1
  O  O28  1  0.65131500  0.26014200  0.35431100  1
  O  O29  1  0.15131500  0.23985800  0.64568900  1
  O  O30  1  0.65131500  0.23985800  0.85431100  1
  O  O31  1  0.34868500  0.76014200  0.14568900  1
  O  O32  1  0.43408100  0.00963700  0.39314300  1
  O  O33  1  0.56591900  0.99036300  0.60685700  1
  O  O34  1  0.06591900  0.99036300  0.89314300  1
  O  O35  1  0.56591900  0.50963700  0.10685700  1
  O  O36  1  0.93408100  0.00963700  0.10685700  1
  O  O37  1  0.43408100  0.49036300  0.89314300  1
  O  O38  1  0.93408100  0.49036300  0.60685700  1
  O  O39  1  0.06591900  0.50963700  0.39314300  1
