# generated using pymatgen
data_BaSm2(CoO3)2
_symmetry_space_group_name_H-M   'P 1'
_cell_length_a   5.61099400
_cell_length_b   5.67742200
_cell_length_c   19.98211400
_cell_angle_alpha   90.00000000
_cell_angle_beta   90.00000000
_cell_angle_gamma   90.00000000
_symmetry_Int_Tables_number   1
_chemical_formula_structural   BaSm2(CoO3)2
_chemical_formula_sum   'Ba4 Sm8 Co8 O24'
_cell_volume   636.54983948
_cell_formula_units_Z   4
loop_
 _symmetry_equiv_pos_site_id
 _symmetry_equiv_pos_as_xyz
  1  'x, y, z'
loop_
 _atom_site_type_symbol
 _atom_site_label
 _atom_site_symmetry_multiplicity
 _atom_site_fract_x
 _atom_site_fract_y
 _atom_site_fract_z
 _atom_site_occupancy
  Ba  Ba0  1  0.22637700  0.73892600  0.00000000  1
  Ba  Ba1  1  0.77362300  0.26107400  0.00000000  1
  Ba  Ba2  1  0.27362300  0.23892600  0.50000000  1
  Ba  Ba3  1  0.72637700  0.76107400  0.50000000  1
  Sm  Sm4  1  0.24565900  0.26020200  0.31507100  1
  Sm  Sm5  1  0.75434100  0.73979800  0.68492900  1
  Sm  Sm6  1  0.75434100  0.73979800  0.31507100  1
  Sm  Sm7  1  0.25434100  0.76020200  0.18492900  1
  Sm  Sm8  1  0.24565900  0.26020200  0.68492900  1
  Sm  Sm9  1  0.74565900  0.23979800  0.81507100  1
  Sm  Sm10  1  0.74565900  0.23979800  0.18492900  1
  Sm  Sm11  1  0.25434100  0.76020200  0.81507100  1
  Co  Co12  1  0.24918600  0.25678700  0.10054100  1
  Co  Co13  1  0.75081400  0.74321300  0.89945900  1
  Co  Co14  1  0.75081400  0.74321300  0.10054100  1
  Co  Co15  1  0.25081400  0.75678700  0.39945900  1
  Co  Co16  1  0.24918600  0.25678700  0.89945900  1
  Co  Co17  1  0.74918600  0.24321300  0.60054100  1
  Co  Co18  1  0.74918600  0.24321300  0.39945900  1
  Co  Co19  1  0.25081400  0.75678700  0.60054100  1
  O  O20  1  0.00000000  0.00000000  0.11003000  1
  O  O21  1  0.00000000  0.00000000  0.88997000  1
  O  O22  1  0.50000000  0.50000000  0.38997000  1
  O  O23  1  0.50000000  0.50000000  0.61003000  1
  O  O24  1  0.28782700  0.22489600  0.00000000  1
  O  O25  1  0.71217300  0.77510400  0.00000000  1
  O  O26  1  0.21217300  0.72489600  0.50000000  1
  O  O27  1  0.78782700  0.27510400  0.50000000  1
  O  O28  1  0.31552800  0.17328000  0.20807000  1
  O  O29  1  0.68447200  0.82672000  0.79193000  1
  O  O30  1  0.68447200  0.82672000  0.20807000  1
  O  O31  1  0.18447200  0.67328000  0.29193000  1
  O  O32  1  0.31552800  0.17328000  0.79193000  1
  O  O33  1  0.81552800  0.32672000  0.70807000  1
  O  O34  1  0.81552800  0.32672000  0.29193000  1
  O  O35  1  0.18447200  0.67328000  0.70807000  1
  O  O36  1  0.00000000  0.00000000  0.38465400  1
  O  O37  1  0.00000000  0.00000000  0.61534600  1
  O  O38  1  0.50000000  0.50000000  0.11534600  1
  O  O39  1  0.50000000  0.50000000  0.88465400  1
  O  O40  1  0.00000000  0.50000000  0.12440400  1
  O  O41  1  0.00000000  0.50000000  0.87559600  1
  O  O42  1  0.50000000  0.00000000  0.37559600  1
  O  O43  1  0.50000000  0.00000000  0.62440400  1
