# generated using pymatgen
data_Ca5Si6W5O17
_symmetry_space_group_name_H-M   'P 1'
_cell_length_a   7.04527111
_cell_length_b   6.84867416
_cell_length_c   11.98644833
_cell_angle_alpha   88.67541408
_cell_angle_beta   78.91099563
_cell_angle_gamma   65.51747812
_symmetry_Int_Tables_number   1
_chemical_formula_structural   Ca5Si6W5O17
_chemical_formula_sum   'Ca5 Si6 W5 O17'
_cell_volume   515.48887715
_cell_formula_units_Z   1
loop_
 _symmetry_equiv_pos_site_id
 _symmetry_equiv_pos_as_xyz
  1  'x, y, z'
loop_
 _atom_site_type_symbol
 _atom_site_label
 _atom_site_symmetry_multiplicity
 _atom_site_fract_x
 _atom_site_fract_y
 _atom_site_fract_z
 _atom_site_occupancy
  Ca  Ca0  1  0.63196500  0.08288000  0.95702900  1
  Ca  Ca1  1  0.18065100  0.05646800  0.79843800  1
  Ca  Ca2  1  0.68124700  0.57491500  0.82770100  1
  Ca  Ca3  1  0.13402900  0.60596200  0.99997100  1
  Ca  Ca4  1  0.31266800  0.24292600  0.51087300  1
  Si  Si5  1  0.25988700  0.51650300  0.71780800  1
  Si  Si6  1  0.68481500  0.09015100  0.70649600  1
  Si  Si7  1  0.11944800  0.86090100  0.53873400  1
  Si  Si8  1  0.63966400  0.57038000  0.08143900  1
  Si  Si9  1  0.22141100  0.80672600  0.25358300  1
  Si  Si10  1  0.06088000  0.14589300  0.07094300  1
  W  W11  1  0.68784200  0.83384700  0.38149300  1
  W  W12  1  0.82228200  0.52551800  0.56041400  1
  W  W13  1  0.52573400  0.15728000  0.21904500  1
  W  W14  1  0.07223300  0.42437200  0.30692800  1
  W  W15  1  0.71640100  0.30487600  0.38380100  1
  O  O16  1  0.21869500  0.99768700  0.59490200  1
  O  O17  1  0.47615000  0.28685500  0.66480600  1
  O  O18  1  0.17338100  0.83802600  0.39562200  1
  O  O19  1  0.85705500  0.95826000  0.58869500  1
  O  O20  1  0.12484600  0.65795500  0.20219600  1
  O  O21  1  0.52046000  0.47455300  0.00811800  1
  O  O22  1  0.21173000  0.61506600  0.58969500  1
  O  O23  1  0.58475600  0.94096300  0.78207300  1
  O  O24  1  0.48113600  0.70195100  0.20285800  1
  O  O25  1  0.12415100  0.03849400  0.19358600  1
  O  O26  1  0.84639800  0.37219000  0.11967700  1
  O  O27  1  0.24316500  0.21378700  0.99908600  1
  O  O28  1  0.30703600  0.66384100  0.80192200  1
  O  O29  1  0.79060100  0.18928500  0.78625000  1
  O  O30  1  0.73677600  0.71766900  0.00170200  1
  O  O31  1  0.07463600  0.44169500  0.77564700  1
  O  O32  1  0.00547000  0.99312500  0.99266700  1
