# generated using pymatgen
data_Ca2Fe3Si3O14
_symmetry_space_group_name_H-M   'P 1'
_cell_length_a   10.47020512
_cell_length_b   10.47020512
_cell_length_c   8.78764828
_cell_angle_alpha   83.79931698
_cell_angle_beta   83.79931698
_cell_angle_gamma   33.50321122
_symmetry_Int_Tables_number   1
_chemical_formula_structural   Ca2Fe3Si3O14
_chemical_formula_sum   'Ca4 Fe6 Si6 O28'
_cell_volume   528.35855124
_cell_formula_units_Z   2
loop_
 _symmetry_equiv_pos_site_id
 _symmetry_equiv_pos_as_xyz
  1  'x, y, z'
loop_
 _atom_site_type_symbol
 _atom_site_label
 _atom_site_symmetry_multiplicity
 _atom_site_fract_x
 _atom_site_fract_y
 _atom_site_fract_z
 _atom_site_occupancy
  Ca  Ca0  1  0.34554300  0.34554300  0.17388400  1
  Ca  Ca1  1  0.65445700  0.65445700  0.82611600  1
  Ca  Ca2  1  0.83990400  0.83990400  0.74674400  1
  Ca  Ca3  1  0.16009600  0.16009600  0.25325600  1
  Fe  Fe4  1  0.26051200  0.75211500  0.25499300  1
  Fe  Fe5  1  0.73948800  0.24788500  0.74500700  1
  Fe  Fe6  1  0.24788500  0.73948800  0.74500700  1
  Fe  Fe7  1  0.75211500  0.26051200  0.25499300  1
  Fe  Fe8  1  0.50000000  0.00000000  0.50000000  1
  Fe  Fe9  1  0.00000000  0.50000000  0.50000000  1
  Si  Si10  1  0.75267300  0.75267300  0.16063000  1
  Si  Si11  1  0.24732700  0.24732700  0.83937000  1
  Si  Si12  1  0.59813000  0.59813000  0.46388000  1
  Si  Si13  1  0.40187000  0.40187000  0.53612000  1
  Si  Si14  1  0.90773700  0.90773700  0.05705200  1
  Si  Si15  1  0.09226300  0.09226300  0.94294800  1
  O  O16  1  0.97580300  0.97580300  0.37126800  1
  O  O17  1  0.02419700  0.02419700  0.62873200  1
  O  O18  1  0.67401100  0.67401100  0.52495900  1
  O  O19  1  0.32598900  0.32598900  0.47504100  1
  O  O20  1  0.82579800  0.82579800  0.04267500  1
  O  O21  1  0.17420200  0.17420200  0.95732500  1
  O  O22  1  0.69303400  0.69303400  0.05542000  1
  O  O23  1  0.30696600  0.30696600  0.94458000  1
  O  O24  1  0.52257500  0.98343700  0.26615800  1
  O  O25  1  0.47742500  0.01656300  0.73384200  1
  O  O26  1  0.01656300  0.47742500  0.73384200  1
  O  O27  1  0.98343700  0.52257500  0.26615800  1
  O  O28  1  0.80610700  0.80610700  0.50259400  1
  O  O29  1  0.19389300  0.19389300  0.49740600  1
  O  O30  1  0.94121000  0.94121000  0.87644400  1
  O  O31  1  0.05879000  0.05879000  0.12355600  1
  O  O32  1  0.70239100  0.15068000  0.14432200  1
  O  O33  1  0.29760900  0.84932000  0.85567800  1
  O  O34  1  0.84932000  0.29760900  0.85567800  1
  O  O35  1  0.15068000  0.70239100  0.14432200  1
  O  O36  1  0.53530800  0.53530800  0.13789700  1
  O  O37  1  0.46469200  0.46469200  0.86210300  1
  O  O38  1  0.36290000  0.80990200  0.36423600  1
  O  O39  1  0.63710000  0.19009800  0.63576400  1
  O  O40  1  0.19009800  0.63710000  0.63576400  1
  O  O41  1  0.80990200  0.36290000  0.36423600  1
  O  O42  1  0.45488500  0.45488500  0.37836100  1
  O  O43  1  0.54511500  0.54511500  0.62163900  1
