# generated using pymatgen
data_Ca2CrH3(IO5)2
_symmetry_space_group_name_H-M   'P 1'
_cell_length_a   7.48805000
_cell_length_b   10.41689100
_cell_length_c   13.79658442
_cell_angle_alpha   74.25780585
_cell_angle_beta   90.00000000
_cell_angle_gamma   90.00000000
_symmetry_Int_Tables_number   1
_chemical_formula_structural   Ca2CrH3(IO5)2
_chemical_formula_sum   'Ca8 Cr4 H12 I8 O40'
_cell_volume   1035.79941270
_cell_formula_units_Z   4
loop_
 _symmetry_equiv_pos_site_id
 _symmetry_equiv_pos_as_xyz
  1  'x, y, z'
loop_
 _atom_site_type_symbol
 _atom_site_label
 _atom_site_symmetry_multiplicity
 _atom_site_fract_x
 _atom_site_fract_y
 _atom_site_fract_z
 _atom_site_occupancy
  Ca  Ca0  1  0.23856200  0.88246700  0.51668800  1
  Ca  Ca1  1  0.76143800  0.11753300  0.48331200  1
  Ca  Ca2  1  0.73856200  0.11753300  0.98331200  1
  Ca  Ca3  1  0.26143800  0.88246700  0.01668800  1
  Ca  Ca4  1  0.05975200  0.70472800  0.78977100  1
  Ca  Ca5  1  0.94024800  0.29527200  0.21022900  1
  Ca  Ca6  1  0.55975200  0.29527200  0.71022900  1
  Ca  Ca7  1  0.44024800  0.70472800  0.28977100  1
  Cr  Cr8  1  0.28881700  0.56761400  0.57264200  1
  Cr  Cr9  1  0.71118300  0.43238600  0.42735800  1
  Cr  Cr10  1  0.78881700  0.43238600  0.92735800  1
  Cr  Cr11  1  0.21118300  0.56761400  0.07264200  1
  H  H12  1  0.48905400  0.60288800  0.85129500  1
  H  H13  1  0.51094600  0.39711200  0.14870500  1
  H  H14  1  0.98905400  0.39711200  0.64870500  1
  H  H15  1  0.01094600  0.60288800  0.35129500  1
  H  H16  1  0.46318900  0.56033400  0.71903600  1
  H  H17  1  0.53681100  0.43966600  0.28096400  1
  H  H18  1  0.96318900  0.43966600  0.78096400  1
  H  H19  1  0.03681100  0.56033400  0.21903600  1
  H  H20  1  0.39869400  0.60856900  0.82486100  1
  H  H21  1  0.60130600  0.39143100  0.17513900  1
  H  H22  1  0.89869400  0.39143100  0.67513900  1
  H  H23  1  0.10130600  0.60856900  0.32486100  1
  I  I24  1  0.73338900  0.75353500  0.56804900  1
  I  I25  1  0.26661100  0.24646500  0.43195100  1
  I  I26  1  0.23338900  0.24646500  0.93195100  1
  I  I27  1  0.76661100  0.75353500  0.06804900  1
  I  I28  1  0.70533200  0.95386100  0.76973500  1
  I  I29  1  0.29466800  0.04613900  0.23026500  1
  I  I30  1  0.20533200  0.04613900  0.73026500  1
  I  I31  1  0.79466800  0.95386100  0.26973500  1
  O  O32  1  0.79044500  0.73256900  0.70122600  1
  O  O33  1  0.20955500  0.26743100  0.29877400  1
  O  O34  1  0.29044500  0.26743100  0.79877400  1
  O  O35  1  0.70955500  0.73256900  0.20122600  1
  O  O36  1  0.90360500  0.87182300  0.50120800  1
  O  O37  1  0.09639500  0.12817700  0.49879200  1
  O  O38  1  0.40360500  0.12817700  0.99879200  1
  O  O39  1  0.59639500  0.87182300  0.00120800  1
  O  O40  1  0.21039800  0.42133000  0.56948500  1
  O  O41  1  0.78960200  0.57867000  0.43051500  1
  O  O42  1  0.71039800  0.57867000  0.93051500  1
  O  O43  1  0.28960200  0.42133000  0.06948500  1
  O  O44  1  0.90446700  0.87801000  0.83976300  1
  O  O45  1  0.09553300  0.12199000  0.16023700  1
  O  O46  1  0.40446700  0.12199000  0.66023700  1
  O  O47  1  0.59553300  0.87801000  0.33976300  1
  O  O48  1  0.15055900  0.68094900  0.96348800  1
  O  O49  1  0.84944100  0.31905100  0.03651200  1
  O  O50  1  0.65055900  0.31905100  0.53651200  1
  O  O51  1  0.34944100  0.68094900  0.46348800  1
  O  O52  1  0.94581500  0.87372400  0.06318500  1
  O  O53  1  0.05418500  0.12627600  0.93681500  1
  O  O54  1  0.44581500  0.12627600  0.43681500  1
  O  O55  1  0.55418500  0.87372400  0.56318500  1
  O  O56  1  0.18680900  0.90111600  0.67902300  1
  O  O57  1  0.81319100  0.09888400  0.32097700  1
  O  O58  1  0.68680900  0.09888400  0.82097700  1
  O  O59  1  0.31319100  0.90111600  0.17902300  1
  O  O60  1  0.15747200  0.65541300  0.63657300  1
  O  O61  1  0.84252800  0.34458700  0.36342700  1
  O  O62  1  0.65747200  0.34458700  0.86342700  1
  O  O63  1  0.34252800  0.65541300  0.13657300  1
  O  O64  1  0.48928200  0.53273000  0.65798200  1
  O  O65  1  0.51071800  0.46727000  0.34201800  1
  O  O66  1  0.98928200  0.46727000  0.84201800  1
  O  O67  1  0.01071800  0.53273000  0.15798200  1
  O  O68  1  0.31238800  0.95135100  0.84573000  1
  O  O69  1  0.68761200  0.04864900  0.15427000  1
  O  O70  1  0.81238800  0.04864900  0.65427000  1
  O  O71  1  0.18761200  0.95135100  0.34573000  1
