# generated using pymatgen
data_C7Cl8
_symmetry_space_group_name_H-M   'P 1'
_cell_length_a   11.05668000
_cell_length_b   10.49310300
_cell_length_c   11.84682895
_cell_angle_alpha   66.52905545
_cell_angle_beta   90.00000000
_cell_angle_gamma   90.00000000
_symmetry_Int_Tables_number   1
_chemical_formula_structural   C7Cl8
_chemical_formula_sum   'C28 Cl32'
_cell_volume   1260.73635290
_cell_formula_units_Z   4
loop_
 _symmetry_equiv_pos_site_id
 _symmetry_equiv_pos_as_xyz
  1  'x, y, z'
loop_
 _atom_site_type_symbol
 _atom_site_label
 _atom_site_symmetry_multiplicity
 _atom_site_fract_x
 _atom_site_fract_y
 _atom_site_fract_z
 _atom_site_occupancy
  C  C0  1  0.27116900  0.99863300  0.45945500  1
  C  C1  1  0.72883100  0.00136700  0.54054500  1
  C  C2  1  0.77116900  0.00136700  0.04054500  1
  C  C3  1  0.22883100  0.99863300  0.95945500  1
  C  C4  1  0.76368500  0.85520700  0.08683800  1
  C  C5  1  0.23631500  0.14479300  0.91316200  1
  C  C6  1  0.26368500  0.14479300  0.41316200  1
  C  C7  1  0.73631500  0.85520700  0.58683800  1
  C  C8  1  0.36225400  0.93553400  0.41633800  1
  C  C9  1  0.63774600  0.06446600  0.58366200  1
  C  C10  1  0.86225400  0.06446600  0.08366200  1
  C  C11  1  0.13774600  0.93553400  0.91633800  1
  C  C12  1  0.81403100  0.61090700  0.24308700  1
  C  C13  1  0.18596900  0.38909300  0.75691300  1
  C  C14  1  0.31403100  0.38909300  0.25691300  1
  C  C15  1  0.68596900  0.61090700  0.74308700  1
  C  C16  1  0.94939400  0.98100300  0.16529100  1
  C  C17  1  0.05060600  0.01899700  0.83470900  1
  C  C18  1  0.44939400  0.01899700  0.33470900  1
  C  C19  1  0.55060600  0.98100300  0.66529100  1
  C  C20  1  0.94232900  0.83418700  0.21120800  1
  C  C21  1  0.05767100  0.16581300  0.78879200  1
  C  C22  1  0.44232900  0.16581300  0.28879200  1
  C  C23  1  0.55767100  0.83418700  0.71120800  1
  C  C24  1  0.84274100  0.76791200  0.18076700  1
  C  C25  1  0.15725900  0.23208800  0.81923300  1
  C  C26  1  0.34274100  0.23208800  0.31923300  1
  C  C27  1  0.65725900  0.76791200  0.68076700  1
  Cl  Cl28  1  0.84291100  0.53030200  0.13676000  1
  Cl  Cl29  1  0.15708900  0.46969800  0.86324000  1
  Cl  Cl30  1  0.34291100  0.46969800  0.36324000  1
  Cl  Cl31  1  0.65708900  0.53030200  0.63676000  1
  Cl  Cl32  1  0.89245300  0.51144200  0.38139400  1
  Cl  Cl33  1  0.10754700  0.48855800  0.61860600  1
  Cl  Cl34  1  0.39245300  0.48855800  0.11860600  1
  Cl  Cl35  1  0.60754700  0.51144200  0.88139400  1
  Cl  Cl36  1  0.86868100  0.24130500  0.03221800  1
  Cl  Cl37  1  0.13131900  0.75869500  0.96778200  1
  Cl  Cl38  1  0.36868100  0.75869500  0.46778200  1
  Cl  Cl39  1  0.63131900  0.24130500  0.53221800  1
  Cl  Cl40  1  0.56510200  0.25234400  0.20362200  1
  Cl  Cl41  1  0.43489800  0.74765600  0.79637800  1
  Cl  Cl42  1  0.06510200  0.74765600  0.29637800  1
  Cl  Cl43  1  0.93489800  0.25234400  0.70362200  1
  Cl  Cl44  1  0.56589000  0.94012700  0.29164300  1
  Cl  Cl45  1  0.43411000  0.05987300  0.70835700  1
  Cl  Cl46  1  0.06589000  0.05987300  0.20835700  1
  Cl  Cl47  1  0.93411000  0.94012700  0.79164300  1
  Cl  Cl48  1  0.32966100  0.89673300  0.06687800  1
  Cl  Cl49  1  0.67033900  0.10326700  0.93312200  1
  Cl  Cl50  1  0.82966100  0.10326700  0.43312200  1
  Cl  Cl51  1  0.17033900  0.89673300  0.56687800  1
  Cl  Cl52  1  0.65685200  0.58739100  0.28957400  1
  Cl  Cl53  1  0.34314800  0.41260900  0.71042600  1
  Cl  Cl54  1  0.15685200  0.41260900  0.21042600  1
  Cl  Cl55  1  0.84314800  0.58739100  0.78957400  1
  Cl  Cl56  1  0.65645300  0.79001500  0.01916400  1
  Cl  Cl57  1  0.34354700  0.20998500  0.98083600  1
  Cl  Cl58  1  0.15645300  0.20998500  0.48083600  1
  Cl  Cl59  1  0.84354700  0.79001500  0.51916400  1
