# generated using pymatgen
data_CaY(CO4)2
_symmetry_space_group_name_H-M   'P 1'
_cell_length_a   7.80204300
_cell_length_b   7.80204300
_cell_length_c   21.99658600
_cell_angle_alpha   90.00000000
_cell_angle_beta   90.00000000
_cell_angle_gamma   90.00000000
_symmetry_Int_Tables_number   1
_chemical_formula_structural   CaY(CO4)2
_chemical_formula_sum   'Ca8 Y8 C16 O64'
_cell_volume   1338.97343284
_cell_formula_units_Z   8
loop_
 _symmetry_equiv_pos_site_id
 _symmetry_equiv_pos_as_xyz
  1  'x, y, z'
loop_
 _atom_site_type_symbol
 _atom_site_label
 _atom_site_symmetry_multiplicity
 _atom_site_fract_x
 _atom_site_fract_y
 _atom_site_fract_z
 _atom_site_occupancy
  Ca  Ca0  1  0.99579900  0.26276100  0.18814800  1
  Ca  Ca1  1  0.00420100  0.73723900  0.68814800  1
  Ca  Ca2  1  0.23723900  0.49579900  0.43814800  1
  Ca  Ca3  1  0.50420100  0.76276100  0.06185200  1
  Ca  Ca4  1  0.76276100  0.50420100  0.93814800  1
  Ca  Ca5  1  0.49579900  0.23723900  0.56185200  1
  Ca  Ca6  1  0.26276100  0.99579900  0.81185200  1
  Ca  Ca7  1  0.73723900  0.00420100  0.31185200  1
  Y  Y8  1  0.50052100  0.24078700  0.08478800  1
  Y  Y9  1  0.49947900  0.75921300  0.58478800  1
  Y  Y10  1  0.25921300  0.00052100  0.33478800  1
  Y  Y11  1  0.99947900  0.74078700  0.16521200  1
  Y  Y12  1  0.74078700  0.99947900  0.83478800  1
  Y  Y13  1  0.00052100  0.25921300  0.66521200  1
  Y  Y14  1  0.24078700  0.50052100  0.91521200  1
  Y  Y15  1  0.75921300  0.49947900  0.41521200  1
  C  C16  1  0.05633600  0.31017600  0.33413900  1
  C  C17  1  0.94366400  0.68982400  0.83413900  1
  C  C18  1  0.18982400  0.55633600  0.58413900  1
  C  C19  1  0.44366400  0.81017600  0.91586100  1
  C  C20  1  0.81017600  0.44366400  0.08413900  1
  C  C21  1  0.55633600  0.18982400  0.41586100  1
  C  C22  1  0.31017600  0.05633600  0.66586100  1
  C  C23  1  0.68982400  0.94366400  0.16586100  1
  C  C24  1  0.18379600  0.04596200  0.08607600  1
  C  C25  1  0.81620400  0.95403800  0.58607600  1
  C  C26  1  0.45403800  0.68379600  0.33607600  1
  C  C27  1  0.31620400  0.54596200  0.16392400  1
  C  C28  1  0.54596200  0.31620400  0.83607600  1
  C  C29  1  0.68379600  0.45403800  0.66392400  1
  C  C30  1  0.04596200  0.18379600  0.91392400  1
  C  C31  1  0.95403800  0.81620400  0.41392400  1
  O  O32  1  0.45398400  0.46185900  0.15475300  1
  O  O33  1  0.54601600  0.53814100  0.65475300  1
  O  O34  1  0.03814100  0.95398400  0.40475300  1
  O  O35  1  0.04601600  0.96185900  0.09524700  1
  O  O36  1  0.96185900  0.04601600  0.90475300  1
  O  O37  1  0.95398400  0.03814100  0.59524700  1
  O  O38  1  0.46185900  0.45398400  0.84524700  1
  O  O39  1  0.53814100  0.54601600  0.34524700  1
  O  O40  1  0.47328900  0.11802300  0.27991100  1
  O  O41  1  0.52671100  0.88197700  0.77991100  1
  O  O42  1  0.38197700  0.97328900  0.52991100  1
  O  O43  1  0.02671100  0.61802300  0.97008900  1
  O  O44  1  0.61802300  0.02671100  0.02991100  1
  O  O45  1  0.97328900  0.38197700  0.47008900  1
  O  O46  1  0.11802300  0.47328900  0.72008900  1
  O  O47  1  0.88197700  0.52671100  0.22008900  1
  O  O48  1  0.55504700  0.03265400  0.15608800  1
  O  O49  1  0.44495300  0.96734600  0.65608800  1
  O  O50  1  0.46734600  0.05504700  0.40608800  1
  O  O51  1  0.94495300  0.53265400  0.09391200  1
  O  O52  1  0.53265400  0.94495300  0.90608800  1
  O  O53  1  0.05504700  0.46734600  0.59391200  1
  O  O54  1  0.03265400  0.55504700  0.84391200  1
  O  O55  1  0.96734600  0.44495300  0.34391200  1
  O  O56  1  0.17081300  0.92696000  0.23136200  1
  O  O57  1  0.82918700  0.07304000  0.73136200  1
  O  O58  1  0.57304000  0.67081300  0.48136200  1
  O  O59  1  0.32918700  0.42696000  0.01863800  1
  O  O60  1  0.42696000  0.32918700  0.98136200  1
  O  O61  1  0.67081300  0.57304000  0.51863800  1
  O  O62  1  0.92696000  0.17081300  0.76863800  1
  O  O63  1  0.07304000  0.82918700  0.26863800  1
  O  O64  1  0.21344800  0.18805800  0.11579500  1
  O  O65  1  0.78655200  0.81194200  0.61579500  1
  O  O66  1  0.31194200  0.71344800  0.36579500  1
  O  O67  1  0.28655200  0.68805800  0.13420500  1
  O  O68  1  0.68805800  0.28655200  0.86579500  1
  O  O69  1  0.71344800  0.31194200  0.63420500  1
  O  O70  1  0.18805800  0.21344800  0.88420500  1
  O  O71  1  0.81194200  0.78655200  0.38420500  1
  O  O72  1  0.30033900  0.99374700  0.04802300  1
  O  O73  1  0.69966100  0.00625300  0.54802300  1
  O  O74  1  0.50625300  0.80033900  0.29802300  1
  O  O75  1  0.19966100  0.49374700  0.20197700  1
  O  O76  1  0.49374700  0.19966100  0.79802300  1
  O  O77  1  0.80033900  0.50625300  0.70197700  1
  O  O78  1  0.99374700  0.30033900  0.95197700  1
  O  O79  1  0.00625300  0.69966100  0.45197700  1
  O  O80  1  0.50943700  0.30971800  0.45442700  1
  O  O81  1  0.49056300  0.69028200  0.95442700  1
  O  O82  1  0.19028200  0.00943700  0.70442700  1
  O  O83  1  0.99056300  0.80971800  0.79557300  1
  O  O84  1  0.80971800  0.99056300  0.20442700  1
  O  O85  1  0.00943700  0.19028200  0.29557300  1
  O  O86  1  0.30971800  0.50943700  0.54557300  1
  O  O87  1  0.69028200  0.49056300  0.04557300  1
  O  O88  1  0.19959500  0.28522100  0.36290100  1
  O  O89  1  0.80040500  0.71477900  0.86290100  1
  O  O90  1  0.21477900  0.69959500  0.61290100  1
  O  O91  1  0.30040500  0.78522100  0.88709900  1
  O  O92  1  0.78522100  0.30040500  0.11290100  1
  O  O93  1  0.69959500  0.21477900  0.38709900  1
  O  O94  1  0.28522100  0.19959500  0.63709900  1
  O  O95  1  0.71477900  0.80040500  0.13709900  1
