# generated using pymatgen
data_BaV2ZnO7
_symmetry_space_group_name_H-M   'P 1'
_cell_length_a   5.56389300
_cell_length_b   7.55565300
_cell_length_c   15.42861500
_cell_angle_alpha   90.00000000
_cell_angle_beta   90.00000000
_cell_angle_gamma   90.00000000
_symmetry_Int_Tables_number   1
_chemical_formula_structural   BaV2ZnO7
_chemical_formula_sum   'Ba4 V8 Zn4 O28'
_cell_volume   648.60115204
_cell_formula_units_Z   4
loop_
 _symmetry_equiv_pos_site_id
 _symmetry_equiv_pos_as_xyz
  1  'x, y, z'
loop_
 _atom_site_type_symbol
 _atom_site_label
 _atom_site_symmetry_multiplicity
 _atom_site_fract_x
 _atom_site_fract_y
 _atom_site_fract_z
 _atom_site_occupancy
  Ba  Ba0  1  0.25000000  0.64727600  0.28975600  1
  Ba  Ba1  1  0.75000000  0.35272400  0.71024400  1
  Ba  Ba2  1  0.75000000  0.14727600  0.21024400  1
  Ba  Ba3  1  0.25000000  0.85272400  0.78975600  1
  V  V4  1  0.25000000  0.30556400  0.05651600  1
  V  V5  1  0.75000000  0.69443600  0.94348400  1
  V  V6  1  0.75000000  0.80556400  0.44348400  1
  V  V7  1  0.25000000  0.19443600  0.55651600  1
  V  V8  1  0.25000000  0.17248600  0.35938100  1
  V  V9  1  0.75000000  0.82751400  0.64061900  1
  V  V10  1  0.75000000  0.67248600  0.14061900  1
  V  V11  1  0.25000000  0.32751400  0.85938100  1
  Zn  Zn12  1  0.25000000  0.85089000  0.04767300  1
  Zn  Zn13  1  0.75000000  0.14911000  0.95232700  1
  Zn  Zn14  1  0.75000000  0.35089000  0.45232700  1
  Zn  Zn15  1  0.25000000  0.64911000  0.54767300  1
  O  O16  1  0.99764100  0.30804800  0.35642800  1
  O  O17  1  0.00235900  0.69195200  0.64357200  1
  O  O18  1  0.00235900  0.80804800  0.14357200  1
  O  O19  1  0.49764100  0.69195200  0.64357200  1
  O  O20  1  0.99764100  0.19195200  0.85642800  1
  O  O21  1  0.50235900  0.30804800  0.35642800  1
  O  O22  1  0.50235900  0.19195200  0.85642800  1
  O  O23  1  0.49764100  0.80804800  0.14357200  1
  O  O24  1  0.99802300  0.16876800  0.04996200  1
  O  O25  1  0.00197700  0.83123200  0.95003800  1
  O  O26  1  0.00197700  0.66876800  0.45003800  1
  O  O27  1  0.49802300  0.83123200  0.95003800  1
  O  O28  1  0.99802300  0.33123200  0.54996200  1
  O  O29  1  0.50197700  0.16876800  0.04996200  1
  O  O30  1  0.50197700  0.33123200  0.54996200  1
  O  O31  1  0.49802300  0.66876800  0.45003800  1
  O  O32  1  0.25000000  0.05139100  0.46125100  1
  O  O33  1  0.75000000  0.94860900  0.53874900  1
  O  O34  1  0.75000000  0.55139100  0.03874900  1
  O  O35  1  0.25000000  0.44860900  0.96125100  1
  O  O36  1  0.25000000  0.04107700  0.27049800  1
  O  O37  1  0.75000000  0.95892300  0.72950200  1
  O  O38  1  0.75000000  0.54107700  0.22950200  1
  O  O39  1  0.25000000  0.45892300  0.77049800  1
  O  O40  1  0.25000000  0.41849500  0.15093400  1
  O  O41  1  0.75000000  0.58150500  0.84906600  1
  O  O42  1  0.75000000  0.91849500  0.34906600  1
  O  O43  1  0.25000000  0.08150500  0.65093400  1
