# generated using pymatgen
data_CaZr(SiO3)6
_symmetry_space_group_name_H-M   'P 1'
_cell_length_a   10.06355217
_cell_length_b   10.06355217
_cell_length_c   7.91826835
_cell_angle_alpha   76.80723172
_cell_angle_beta   76.80723172
_cell_angle_gamma   90.39826894
_symmetry_Int_Tables_number   1
_chemical_formula_structural   CaZr(SiO3)6
_chemical_formula_sum   'Ca2 Zr2 Si12 O36'
_cell_volume   758.67685970
_cell_formula_units_Z   2
loop_
 _symmetry_equiv_pos_site_id
 _symmetry_equiv_pos_as_xyz
  1  'x, y, z'
loop_
 _atom_site_type_symbol
 _atom_site_label
 _atom_site_symmetry_multiplicity
 _atom_site_fract_x
 _atom_site_fract_y
 _atom_site_fract_z
 _atom_site_occupancy
  Ca  Ca0  1  0.48814800  0.03743400  0.52854600  1
  Ca  Ca1  1  0.96256600  0.51185200  0.47145400  1
  Zr  Zr2  1  0.72597400  0.77162600  0.50185300  1
  Zr  Zr3  1  0.22837400  0.27402600  0.49814700  1
  Si  Si4  1  0.79720500  0.57394000  0.15838800  1
  Si  Si5  1  0.42606000  0.20279500  0.84161200  1
  Si  Si6  1  0.02623200  0.34679800  0.15685500  1
  Si  Si7  1  0.65320200  0.97376800  0.84314500  1
  Si  Si8  1  0.27454600  0.04068700  0.23141900  1
  Si  Si9  1  0.95931300  0.72545400  0.76858100  1
  Si  Si10  1  0.49299100  0.82214200  0.23319000  1
  Si  Si11  1  0.17785800  0.50700900  0.76681000  1
  Si  Si12  1  0.48649800  0.52113700  0.19601700  1
  Si  Si13  1  0.47886300  0.51350200  0.80398300  1
  Si  Si14  1  0.97247200  0.03283600  0.19808300  1
  Si  Si15  1  0.96716400  0.02752800  0.80191700  1
  O  O16  1  0.35194200  0.89946300  0.22831400  1
  O  O17  1  0.10053700  0.64805800  0.77168600  1
  O  O18  1  0.32439000  0.14886300  0.03795900  1
  O  O19  1  0.85113700  0.67561000  0.96204100  1
  O  O20  1  0.45961000  0.65965300  0.27088500  1
  O  O21  1  0.34034700  0.54039000  0.72911500  1
  O  O22  1  0.84579600  0.94103600  0.33639700  1
  O  O23  1  0.05896400  0.15420400  0.66360300  1
  O  O24  1  0.30991500  0.10656800  0.38719200  1
  O  O25  1  0.89343200  0.69008500  0.61280800  1
  O  O26  1  0.94852000  0.19844900  0.17757900  1
  O  O27  1  0.80155100  0.05148000  0.82242100  1
  O  O28  1  0.76452700  0.23547300  0.00000000  1
  O  O29  1  0.90718500  0.45516300  0.19117900  1
  O  O30  1  0.54483700  0.09281500  0.80882100  1
  O  O31  1  0.15792600  0.64454000  0.28070000  1
  O  O32  1  0.35546000  0.84207400  0.71930000  1
  O  O33  1  0.60300600  0.87434700  0.04064700  1
  O  O34  1  0.12565300  0.39699400  0.95935300  1
  O  O35  1  0.99770500  0.00229500  0.00000000  1
  O  O36  1  0.64776900  0.24012700  0.43305600  1
  O  O37  1  0.75987300  0.35223100  0.56694400  1
  O  O38  1  0.75286300  0.24713700  0.50000000  1
  O  O39  1  0.65398700  0.89795400  0.68267200  1
  O  O40  1  0.10204600  0.34601300  0.31732800  1
  O  O41  1  0.35022900  0.20319700  0.68099900  1
  O  O42  1  0.79680300  0.64977100  0.31900100  1
  O  O43  1  0.50327500  0.34858600  0.82831100  1
  O  O44  1  0.65141400  0.49672500  0.17168900  1
  O  O45  1  0.39303100  0.39515100  0.33392000  1
  O  O46  1  0.60484900  0.60696900  0.66608000  1
  O  O47  1  0.45210000  0.54790000  0.00000000  1
  O  O48  1  0.11173200  0.00320100  0.26943800  1
  O  O49  1  0.99679900  0.88826800  0.73056200  1
  O  O50  1  0.55787500  0.85855300  0.38990100  1
  O  O51  1  0.14144700  0.44212500  0.61009900  1
