# generated using pymatgen
data_Be3Tl2Cd2F12
_symmetry_space_group_name_H-M   'P 1'
_cell_length_a   10.65504600
_cell_length_b   10.65504600
_cell_length_c   10.65504600
_cell_angle_alpha   90.00000000
_cell_angle_beta   90.00000000
_cell_angle_gamma   90.00000000
_symmetry_Int_Tables_number   1
_chemical_formula_structural   Be3Tl2Cd2F12
_chemical_formula_sum   'Be12 Tl8 Cd8 F48'
_cell_volume   1209.66742845
_cell_formula_units_Z   4
loop_
 _symmetry_equiv_pos_site_id
 _symmetry_equiv_pos_as_xyz
  1  'x, y, z'
loop_
 _atom_site_type_symbol
 _atom_site_label
 _atom_site_symmetry_multiplicity
 _atom_site_fract_x
 _atom_site_fract_y
 _atom_site_fract_z
 _atom_site_occupancy
  Be  Be0  1  0.01746000  0.21690500  0.37561100  1
  Be  Be1  1  0.48254000  0.78309500  0.87561100  1
  Be  Be2  1  0.98254000  0.71690500  0.12438900  1
  Be  Be3  1  0.37561100  0.01746000  0.21690500  1
  Be  Be4  1  0.51746000  0.28309500  0.62438900  1
  Be  Be5  1  0.87561100  0.48254000  0.78309500  1
  Be  Be6  1  0.12438900  0.98254000  0.71690500  1
  Be  Be7  1  0.62438900  0.51746000  0.28309500  1
  Be  Be8  1  0.21690500  0.37561100  0.01746000  1
  Be  Be9  1  0.71690500  0.12438900  0.98254000  1
  Be  Be10  1  0.28309500  0.62438900  0.51746000  1
  Be  Be11  1  0.78309500  0.87561100  0.48254000  1
  Tl  Tl12  1  0.04998100  0.04998100  0.04998100  1
  Tl  Tl13  1  0.45001900  0.95001900  0.54998100  1
  Tl  Tl14  1  0.95001900  0.54998100  0.45001900  1
  Tl  Tl15  1  0.54998100  0.45001900  0.95001900  1
  Tl  Tl16  1  0.81638600  0.81638600  0.81638600  1
  Tl  Tl17  1  0.68361400  0.18361400  0.31638600  1
  Tl  Tl18  1  0.18361400  0.31638600  0.68361400  1
  Tl  Tl19  1  0.31638600  0.68361400  0.18361400  1
  Cd  Cd20  1  0.33362600  0.33362600  0.33362600  1
  Cd  Cd21  1  0.16637400  0.66637400  0.83362600  1
  Cd  Cd22  1  0.66637400  0.83362600  0.16637400  1
  Cd  Cd23  1  0.83362600  0.16637400  0.66637400  1
  Cd  Cd24  1  0.59551500  0.59551500  0.59551500  1
  Cd  Cd25  1  0.90448500  0.40448500  0.09551500  1
  Cd  Cd26  1  0.40448500  0.09551500  0.90448500  1
  Cd  Cd27  1  0.09551500  0.90448500  0.40448500  1
  F  F28  1  0.00890600  0.07936500  0.32318100  1
  F  F29  1  0.49109400  0.92063500  0.82318100  1
  F  F30  1  0.99109400  0.57936500  0.17681900  1
  F  F31  1  0.32318100  0.00890600  0.07936500  1
  F  F32  1  0.50890600  0.42063500  0.67681900  1
  F  F33  1  0.82318100  0.49109400  0.92063500  1
  F  F34  1  0.17681900  0.99109400  0.57936500  1
  F  F35  1  0.67681900  0.50890600  0.42063500  1
  F  F36  1  0.07936500  0.32318100  0.00890600  1
  F  F37  1  0.57936500  0.17681900  0.99109400  1
  F  F38  1  0.42063500  0.67681900  0.50890600  1
  F  F39  1  0.92063500  0.82318100  0.49109400  1
  F  F40  1  0.26348500  0.50092600  0.44025500  1
  F  F41  1  0.23651500  0.49907400  0.94025500  1
  F  F42  1  0.73651500  0.00092600  0.05974500  1
  F  F43  1  0.44025500  0.26348500  0.50092600  1
  F  F44  1  0.76348500  0.99907400  0.55974500  1
  F  F45  1  0.94025500  0.23651500  0.49907400  1
  F  F46  1  0.05974500  0.73651500  0.00092600  1
  F  F47  1  0.55974500  0.76348500  0.99907400  1
  F  F48  1  0.50092600  0.44025500  0.26348500  1
  F  F49  1  0.00092600  0.05974500  0.73651500  1
  F  F50  1  0.99907400  0.55974500  0.76348500  1
  F  F51  1  0.49907400  0.94025500  0.23651500  1
  F  F52  1  0.04461000  0.80572800  0.22370900  1
  F  F53  1  0.45539000  0.19427200  0.72370900  1
  F  F54  1  0.95539000  0.30572800  0.27629100  1
  F  F55  1  0.22370900  0.04461000  0.80572800  1
  F  F56  1  0.54461000  0.69427200  0.77629100  1
  F  F57  1  0.72370900  0.45539000  0.19427200  1
  F  F58  1  0.27629100  0.95539000  0.30572800  1
  F  F59  1  0.77629100  0.54461000  0.69427200  1
  F  F60  1  0.80572800  0.22370900  0.04461000  1
  F  F61  1  0.30572800  0.27629100  0.95539000  1
  F  F62  1  0.69427200  0.77629100  0.54461000  1
  F  F63  1  0.19427200  0.72370900  0.45539000  1
  F  F64  1  0.15560700  0.25145000  0.40822500  1
  F  F65  1  0.34439300  0.74855000  0.90822500  1
  F  F66  1  0.84439300  0.75145000  0.09177500  1
  F  F67  1  0.40822500  0.15560700  0.25145000  1
  F  F68  1  0.65560700  0.24855000  0.59177500  1
  F  F69  1  0.90822500  0.34439300  0.74855000  1
  F  F70  1  0.09177500  0.84439300  0.75145000  1
  F  F71  1  0.59177500  0.65560700  0.24855000  1
  F  F72  1  0.25145000  0.40822500  0.15560700  1
  F  F73  1  0.75145000  0.09177500  0.84439300  1
  F  F74  1  0.24855000  0.59177500  0.65560700  1
  F  F75  1  0.74855000  0.90822500  0.34439300  1
