# generated using pymatgen
data_Ce2WO6
_symmetry_space_group_name_H-M   'P 1'
_cell_length_a   9.98177025
_cell_length_b   9.98177025
_cell_length_c   5.54153799
_cell_angle_alpha   77.18154579
_cell_angle_beta   77.18154579
_cell_angle_gamma   68.78962337
_symmetry_Int_Tables_number   1
_chemical_formula_structural   Ce2WO6
_chemical_formula_sum   'Ce8 W4 O24'
_cell_volume   495.77827563
_cell_formula_units_Z   4
loop_
 _symmetry_equiv_pos_site_id
 _symmetry_equiv_pos_as_xyz
  1  'x, y, z'
loop_
 _atom_site_type_symbol
 _atom_site_label
 _atom_site_symmetry_multiplicity
 _atom_site_fract_x
 _atom_site_fract_y
 _atom_site_fract_z
 _atom_site_occupancy
  Ce  Ce0  1  0.61775300  0.38224700  0.75000000  1
  Ce  Ce1  1  0.38224700  0.61775300  0.25000000  1
  Ce  Ce2  1  0.12055300  0.87944700  0.75000000  1
  Ce  Ce3  1  0.87944700  0.12055300  0.25000000  1
  Ce  Ce4  1  0.71198500  0.93991300  0.89033100  1
  Ce  Ce5  1  0.28801500  0.06008700  0.10966900  1
  Ce  Ce6  1  0.06008700  0.28801500  0.60966900  1
  Ce  Ce7  1  0.93991300  0.71198500  0.39033100  1
  W  W8  1  0.50253500  0.81926700  0.57874000  1
  W  W9  1  0.49746500  0.18073300  0.42126000  1
  W  W10  1  0.18073300  0.49746500  0.92126000  1
  W  W11  1  0.81926700  0.50253500  0.07874000  1
  O  O12  1  0.68558300  0.14612800  0.58335800  1
  O  O13  1  0.31441700  0.85387200  0.41664200  1
  O  O14  1  0.85387200  0.31441700  0.91664200  1
  O  O15  1  0.14612800  0.68558300  0.08335800  1
  O  O16  1  0.37302800  0.81309300  0.89435100  1
  O  O17  1  0.62697200  0.18690700  0.10564900  1
  O  O18  1  0.18690700  0.62697200  0.60564900  1
  O  O19  1  0.81309300  0.37302800  0.39435100  1
  O  O20  1  0.69861600  0.78694600  0.64310000  1
  O  O21  1  0.30138400  0.21305400  0.35690000  1
  O  O22  1  0.21305400  0.30138400  0.85690000  1
  O  O23  1  0.78694600  0.69861600  0.14310000  1
  O  O24  1  0.46899600  0.03782700  0.72571200  1
  O  O25  1  0.53100400  0.96217300  0.27428800  1
  O  O26  1  0.96217300  0.53100400  0.77428800  1
  O  O27  1  0.03782700  0.46899600  0.22571200  1
  O  O28  1  0.53868300  0.62384900  0.52065700  1
  O  O29  1  0.46131700  0.37615100  0.47934300  1
  O  O30  1  0.37615100  0.46131700  0.97934300  1
  O  O31  1  0.62384900  0.53868300  0.02065700  1
  O  O32  1  0.89605300  0.92831400  0.07793400  1
  O  O33  1  0.10394700  0.07168600  0.92206600  1
  O  O34  1  0.07168600  0.10394700  0.42206600  1
  O  O35  1  0.92831400  0.89605300  0.57793400  1
