# generated using pymatgen
data_CaZn2(BrO)6
_symmetry_space_group_name_H-M   'P 1'
_cell_length_a   8.36017293
_cell_length_b   8.36017293
_cell_length_c   11.48323882
_cell_angle_alpha   79.81279673
_cell_angle_beta   79.81279673
_cell_angle_gamma   78.31678248
_symmetry_Int_Tables_number   1
_chemical_formula_structural   CaZn2(BrO)6
_chemical_formula_sum   'Ca2 Zn4 Br12 O12'
_cell_volume   765.24546762
_cell_formula_units_Z   2
loop_
 _symmetry_equiv_pos_site_id
 _symmetry_equiv_pos_as_xyz
  1  'x, y, z'
loop_
 _atom_site_type_symbol
 _atom_site_label
 _atom_site_symmetry_multiplicity
 _atom_site_fract_x
 _atom_site_fract_y
 _atom_site_fract_z
 _atom_site_occupancy
  Ca  Ca0  1  0.65198000  0.65198000  0.70639500  1
  Ca  Ca1  1  0.34802000  0.34802000  0.29360500  1
  Zn  Zn2  1  0.23993700  0.23993700  0.66878700  1
  Zn  Zn3  1  0.76006300  0.76006300  0.33121300  1
  Zn  Zn4  1  0.03247500  0.03247500  0.24147000  1
  Zn  Zn5  1  0.96752500  0.96752500  0.75853000  1
  Br  Br6  1  0.12528300  0.12528300  0.86489800  1
  Br  Br7  1  0.87471700  0.87471700  0.13510200  1
  Br  Br8  1  0.66309900  0.05964000  0.82889500  1
  Br  Br9  1  0.33690000  0.94036000  0.17110500  1
  Br  Br10  1  0.94036000  0.33690000  0.17110500  1
  Br  Br11  1  0.05964000  0.66309900  0.82889500  1
  Br  Br12  1  0.10149900  0.10149900  0.56083500  1
  Br  Br13  1  0.89850100  0.89850100  0.43916500  1
  Br  Br14  1  0.54246900  0.17566500  0.57724800  1
  Br  Br15  1  0.45753100  0.82433500  0.42275200  1
  Br  Br16  1  0.82433500  0.45753100  0.42275200  1
  Br  Br17  1  0.17566500  0.54246900  0.57724800  1
  O  O18  1  0.16979600  0.16979600  0.29719200  1
  O  O19  1  0.83020400  0.83020400  0.70280800  1
  O  O20  1  0.50561900  0.71774200  0.90899500  1
  O  O21  1  0.49438100  0.28225800  0.09100500  1
  O  O22  1  0.28225800  0.49438100  0.09100500  1
  O  O23  1  0.71774200  0.50561900  0.90899500  1
  O  O24  1  0.47829300  0.78148400  0.57798500  1
  O  O25  1  0.52170700  0.21851600  0.42201500  1
  O  O26  1  0.21851600  0.52170700  0.42201500  1
  O  O27  1  0.78148400  0.47829300  0.57798500  1
  O  O28  1  0.38796800  0.38796800  0.02826700  1
  O  O29  1  0.61203200  0.61203200  0.97173300  1
