# generated using pymatgen
data_Ba2V2FeO9
_symmetry_space_group_name_H-M   'P 1'
_cell_length_a   6.06356300
_cell_length_b   8.27226700
_cell_length_c   9.33631361
_cell_angle_alpha   66.68806484
_cell_angle_beta   90.00000000
_cell_angle_gamma   90.00000000
_symmetry_Int_Tables_number   1
_chemical_formula_structural   Ba2V2FeO9
_chemical_formula_sum   'Ba4 V4 Fe2 O18'
_cell_volume   430.07352077
_cell_formula_units_Z   2
loop_
 _symmetry_equiv_pos_site_id
 _symmetry_equiv_pos_as_xyz
  1  'x, y, z'
loop_
 _atom_site_type_symbol
 _atom_site_label
 _atom_site_symmetry_multiplicity
 _atom_site_fract_x
 _atom_site_fract_y
 _atom_site_fract_z
 _atom_site_occupancy
  Ba  Ba0  1  0.25000000  0.31718000  0.58972700  1
  Ba  Ba1  1  0.75000000  0.68282000  0.41027300  1
  Ba  Ba2  1  0.25000000  0.72593700  0.76278500  1
  Ba  Ba3  1  0.75000000  0.27406300  0.23721500  1
  V  V4  1  0.25000000  0.95542300  0.33178400  1
  V  V5  1  0.75000000  0.04457700  0.66821600  1
  V  V6  1  0.25000000  0.56907600  0.17660500  1
  V  V7  1  0.75000000  0.43092400  0.82339500  1
  Fe  Fe8  1  0.50000000  0.00000000  0.00000000  1
  Fe  Fe9  1  0.00000000  0.00000000  0.00000000  1
  O  O10  1  0.25000000  0.45969400  0.05713200  1
  O  O11  1  0.75000000  0.54030600  0.94286800  1
  O  O12  1  0.99350300  0.00285000  0.78593400  1
  O  O13  1  0.00649700  0.99715000  0.21406600  1
  O  O14  1  0.49350300  0.99715000  0.21406600  1
  O  O15  1  0.50649700  0.00285000  0.78593400  1
  O  O16  1  0.25000000  0.73875600  0.45467300  1
  O  O17  1  0.75000000  0.26124400  0.54532700  1
  O  O18  1  0.25000000  0.07741400  0.44208700  1
  O  O19  1  0.75000000  0.92258600  0.55791300  1
  O  O20  1  0.47759000  0.50172300  0.29778800  1
  O  O21  1  0.52241000  0.49827700  0.70221200  1
  O  O22  1  0.97759000  0.49827700  0.70221200  1
  O  O23  1  0.02241000  0.50172300  0.29778800  1
  O  O24  1  0.25000000  0.80780900  0.05315900  1
  O  O25  1  0.75000000  0.19219100  0.94684100  1
  O  O26  1  0.25000000  0.14546600  0.94234800  1
  O  O27  1  0.75000000  0.85453400  0.05765200  1
