# generated using pymatgen
data_Ba3Sm(BO2)9
_symmetry_space_group_name_H-M   'P 1'
_cell_length_a   7.30711952
_cell_length_b   7.30711952
_cell_length_c   17.77470900
_cell_angle_alpha   90.00000000
_cell_angle_beta   90.00000000
_cell_angle_gamma   119.99999570
_symmetry_Int_Tables_number   1
_chemical_formula_structural   Ba3Sm(BO2)9
_chemical_formula_sum   'Ba6 Sm2 B18 O36'
_cell_volume   821.91247551
_cell_formula_units_Z   2
loop_
 _symmetry_equiv_pos_site_id
 _symmetry_equiv_pos_as_xyz
  1  'x, y, z'
loop_
 _atom_site_type_symbol
 _atom_site_label
 _atom_site_symmetry_multiplicity
 _atom_site_fract_x
 _atom_site_fract_y
 _atom_site_fract_z
 _atom_site_occupancy
  Ba  Ba0  1  0.66666700  0.33333300  0.86669100  1
  Ba  Ba1  1  0.33333300  0.66666700  0.13330900  1
  Ba  Ba2  1  0.33333300  0.66666700  0.36669100  1
  Ba  Ba3  1  0.66666700  0.33333300  0.63330900  1
  Ba  Ba4  1  0.00000000  0.00000000  0.75000000  1
  Ba  Ba5  1  0.00000000  0.00000000  0.25000000  1
  Sm  Sm6  1  0.00000000  0.00000000  0.00000000  1
  Sm  Sm7  1  0.00000000  0.00000000  0.50000000  1
  B  B8  1  0.54881200  0.83519500  0.91774500  1
  B  B9  1  0.45118800  0.16480500  0.08225500  1
  B  B10  1  0.28638300  0.45118800  0.91774500  1
  B  B11  1  0.45118800  0.16480500  0.41774500  1
  B  B12  1  0.71361700  0.54881200  0.08225500  1
  B  B13  1  0.54881200  0.83519500  0.58225500  1
  B  B14  1  0.16480500  0.71361700  0.91774500  1
  B  B15  1  0.71361700  0.54881200  0.41774500  1
  B  B16  1  0.83519500  0.28638300  0.08225500  1
  B  B17  1  0.28638300  0.45118800  0.58225500  1
  B  B18  1  0.83519500  0.28638300  0.41774500  1
  B  B19  1  0.16480500  0.71361700  0.58225500  1
  B  B20  1  0.50445200  0.62202000  0.75000000  1
  B  B21  1  0.49554800  0.37798000  0.25000000  1
  B  B22  1  0.11756800  0.49554800  0.75000000  1
  B  B23  1  0.88243200  0.50445200  0.25000000  1
  B  B24  1  0.37798000  0.88243200  0.75000000  1
  B  B25  1  0.62202000  0.11756800  0.25000000  1
  O  O26  1  0.54110500  0.83238400  0.75000000  1
  O  O27  1  0.45889500  0.16761600  0.25000000  1
  O  O28  1  0.29127900  0.45889500  0.75000000  1
  O  O29  1  0.70872100  0.54110500  0.25000000  1
  O  O30  1  0.16761600  0.70872100  0.75000000  1
  O  O31  1  0.83238400  0.29127900  0.25000000  1
  O  O32  1  0.92086500  0.33357700  0.75000000  1
  O  O33  1  0.07913500  0.66642300  0.25000000  1
  O  O34  1  0.41271300  0.07913500  0.75000000  1
  O  O35  1  0.58728700  0.92086500  0.25000000  1
  O  O36  1  0.66642300  0.58728700  0.75000000  1
  O  O37  1  0.33357700  0.41271300  0.25000000  1
  O  O38  1  0.74676400  0.99590300  0.91764500  1
  O  O39  1  0.25323600  0.00409700  0.08235500  1
  O  O40  1  0.24913900  0.25323600  0.91764500  1
  O  O41  1  0.25323600  0.00409700  0.41764500  1
  O  O42  1  0.75086100  0.74676400  0.08235500  1
  O  O43  1  0.74676400  0.99590300  0.58235500  1
  O  O44  1  0.00409700  0.75086100  0.91764500  1
  O  O45  1  0.75086100  0.74676400  0.41764500  1
  O  O46  1  0.99590300  0.24913900  0.08235500  1
  O  O47  1  0.24913900  0.25323600  0.58235500  1
  O  O48  1  0.99590300  0.24913900  0.41764500  1
  O  O49  1  0.00409700  0.75086100  0.58235500  1
  O  O50  1  0.49694300  0.62144000  0.91810900  1
  O  O51  1  0.50305700  0.37856000  0.08189100  1
  O  O52  1  0.12449700  0.50305700  0.91810900  1
  O  O53  1  0.50305700  0.37856000  0.41810900  1
  O  O54  1  0.87550300  0.49694300  0.08189100  1
  O  O55  1  0.49694300  0.62144000  0.58189100  1
  O  O56  1  0.37856000  0.87550300  0.91810900  1
  O  O57  1  0.87550300  0.49694300  0.41810900  1
  O  O58  1  0.62144000  0.12449700  0.08189100  1
  O  O59  1  0.12449700  0.50305700  0.58189100  1
  O  O60  1  0.62144000  0.12449700  0.41810900  1
  O  O61  1  0.37856000  0.87550300  0.58189100  1
