# generated using pymatgen
data_Ba2SrY2Cu2PtO10
_symmetry_space_group_name_H-M   'P 1'
_cell_length_a   6.90879991
_cell_length_b   6.90879991
_cell_length_c   7.47004064
_cell_angle_alpha   76.02185448
_cell_angle_beta   76.02185448
_cell_angle_gamma   49.50461432
_symmetry_Int_Tables_number   1
_chemical_formula_structural   Ba2SrY2Cu2PtO10
_chemical_formula_sum   'Ba2 Sr1 Y2 Cu2 Pt1 O10'
_cell_volume   261.37846752
_cell_formula_units_Z   1
loop_
 _symmetry_equiv_pos_site_id
 _symmetry_equiv_pos_as_xyz
  1  'x, y, z'
loop_
 _atom_site_type_symbol
 _atom_site_label
 _atom_site_symmetry_multiplicity
 _atom_site_fract_x
 _atom_site_fract_y
 _atom_site_fract_z
 _atom_site_occupancy
  Ba  Ba0  1  0.35020300  0.35020300  0.02776500  1
  Ba  Ba1  1  0.64979700  0.64979700  0.97223500  1
  Sr  Sr2  1  0.50000000  0.50000000  0.50000000  1
  Y  Y3  1  0.81070300  0.81070300  0.37460600  1
  Y  Y4  1  0.18929700  0.18929700  0.62539400  1
  Cu  Cu5  1  0.91455600  0.91455600  0.69456400  1
  Cu  Cu6  1  0.08544400  0.08544400  0.30543600  1
  Pt  Pt7  1  0.00000000  0.00000000  0.00000000  1
  O  O8  1  0.75548400  0.20704400  0.22007300  1
  O  O9  1  0.24451600  0.79295600  0.77992700  1
  O  O10  1  0.79295600  0.24451600  0.77992700  1
  O  O11  1  0.20704400  0.75548400  0.22007300  1
  O  O12  1  0.83237700  0.83237700  0.05064800  1
  O  O13  1  0.16762300  0.16762300  0.94935200  1
  O  O14  1  0.41227700  0.93819100  0.38216500  1
  O  O15  1  0.58772300  0.06180900  0.61783500  1
  O  O16  1  0.06180900  0.58772300  0.61783500  1
  O  O17  1  0.93819100  0.41227700  0.38216500  1
