# generated using pymatgen
data_Ba5MgMnV4(Cl3O7)2
_symmetry_space_group_name_H-M   'P 1'
_cell_length_a   5.81939600
_cell_length_b   13.54675200
_cell_length_c   16.02264417
_cell_angle_alpha   66.42640850
_cell_angle_beta   90.00000000
_cell_angle_gamma   90.00000000
_symmetry_Int_Tables_number   1
_chemical_formula_structural   Ba5MgMnV4(Cl3O7)2
_chemical_formula_sum   'Ba10 Mg2 Mn2 V8 Cl12 O28'
_cell_volume   1157.71615945
_cell_formula_units_Z   2
loop_
 _symmetry_equiv_pos_site_id
 _symmetry_equiv_pos_as_xyz
  1  'x, y, z'
loop_
 _atom_site_type_symbol
 _atom_site_label
 _atom_site_symmetry_multiplicity
 _atom_site_fract_x
 _atom_site_fract_y
 _atom_site_fract_z
 _atom_site_occupancy
  Ba  Ba0  1  0.74851700  0.77112400  0.02195200  1
  Ba  Ba1  1  0.25148300  0.22887600  0.97804800  1
  Ba  Ba2  1  0.74851700  0.22887600  0.47804800  1
  Ba  Ba3  1  0.25148300  0.77112400  0.52195200  1
  Ba  Ba4  1  0.74600300  0.50000000  0.75000000  1
  Ba  Ba5  1  0.25399700  0.50000000  0.25000000  1
  Ba  Ba6  1  0.25235500  0.76400300  0.79441800  1
  Ba  Ba7  1  0.74764500  0.23599700  0.20558200  1
  Ba  Ba8  1  0.25235500  0.23599700  0.70558200  1
  Ba  Ba9  1  0.74764500  0.76400300  0.29441800  1
  Mg  Mg10  1  0.75010000  0.00000000  0.75000000  1
  Mg  Mg11  1  0.24990000  0.00000000  0.25000000  1
  Mn  Mn12  1  0.00000000  0.50000000  0.50000000  1
  Mn  Mn13  1  0.00000000  0.50000000  0.00000000  1
  V  V14  1  0.74926900  0.79481900  0.65141700  1
  V  V15  1  0.25073100  0.20518100  0.34858300  1
  V  V16  1  0.74926900  0.20518100  0.84858300  1
  V  V17  1  0.25073100  0.79481900  0.15141700  1
  V  V18  1  0.24775000  0.95073900  0.90503800  1
  V  V19  1  0.75225000  0.04926100  0.09496200  1
  V  V20  1  0.24775000  0.04926100  0.59496200  1
  V  V21  1  0.75225000  0.95073900  0.40503800  1
  Cl  Cl22  1  0.75647000  0.64840400  0.51334600  1
  Cl  Cl23  1  0.24353000  0.35159600  0.48665400  1
  Cl  Cl24  1  0.75647000  0.35159600  0.98665400  1
  Cl  Cl25  1  0.24353000  0.64840400  0.01334600  1
  Cl  Cl26  1  0.76835200  0.50188800  0.13649100  1
  Cl  Cl27  1  0.23164800  0.49811200  0.86350900  1
  Cl  Cl28  1  0.76835200  0.49811200  0.36350900  1
  Cl  Cl29  1  0.23164800  0.50188800  0.63649100  1
  Cl  Cl30  1  0.75553400  0.64506000  0.88822600  1
  Cl  Cl31  1  0.24446600  0.35494000  0.11177400  1
  Cl  Cl32  1  0.75553400  0.35494000  0.61177400  1
  Cl  Cl33  1  0.24446600  0.64506000  0.38822600  1
  O  O34  1  0.74827800  0.87591900  0.52820600  1
  O  O35  1  0.25172200  0.12408100  0.47179400  1
  O  O36  1  0.74827800  0.12408100  0.97179400  1
  O  O37  1  0.25172200  0.87591900  0.02820600  1
  O  O38  1  0.51608900  0.70935000  0.67807500  1
  O  O39  1  0.48391100  0.29065000  0.32192500  1
  O  O40  1  0.51608900  0.29065000  0.82192500  1
  O  O41  1  0.48391100  0.70935000  0.17807500  1
  O  O42  1  0.99451400  0.91582900  0.35931900  1
  O  O43  1  0.00548600  0.08417100  0.64068100  1
  O  O44  1  0.99451400  0.08417100  0.14068100  1
  O  O45  1  0.00548600  0.91582900  0.85931900  1
  O  O46  1  0.74673500  0.86937300  0.71614600  1
  O  O47  1  0.25326500  0.13062700  0.28385400  1
  O  O48  1  0.74673500  0.13062700  0.78385400  1
  O  O49  1  0.25326500  0.86937300  0.21614600  1
  O  O50  1  0.98465400  0.71152000  0.67746100  1
  O  O51  1  0.01534600  0.28848000  0.32253900  1
  O  O52  1  0.98465400  0.28848000  0.82253900  1
  O  O53  1  0.01534600  0.71152000  0.17746100  1
  O  O54  1  0.48798600  0.91454700  0.85871700  1
  O  O55  1  0.51201400  0.08545300  0.14128300  1
  O  O56  1  0.48798600  0.08545300  0.64128300  1
  O  O57  1  0.51201400  0.91454700  0.35871700  1
  O  O58  1  0.75013100  0.91579500  0.11834200  1
  O  O59  1  0.24986900  0.08420500  0.88165800  1
  O  O60  1  0.75013100  0.08420500  0.38165800  1
  O  O61  1  0.24986900  0.91579500  0.61834200  1
