# generated using pymatgen
data_Ba2MnCdFe2F14
_symmetry_space_group_name_H-M   'P 1'
_cell_length_a   7.53005632
_cell_length_b   7.53005632
_cell_length_c   15.14183409
_cell_angle_alpha   88.98260255
_cell_angle_beta   88.98260255
_cell_angle_gamma   42.44348024
_symmetry_Int_Tables_number   1
_chemical_formula_structural   Ba2MnCdFe2F14
_chemical_formula_sum   'Ba4 Mn2 Cd2 Fe4 F28'
_cell_volume   579.31061504
_cell_formula_units_Z   2
loop_
 _symmetry_equiv_pos_site_id
 _symmetry_equiv_pos_as_xyz
  1  'x, y, z'
loop_
 _atom_site_type_symbol
 _atom_site_label
 _atom_site_symmetry_multiplicity
 _atom_site_fract_x
 _atom_site_fract_y
 _atom_site_fract_z
 _atom_site_occupancy
  Ba  Ba0  1  0.64812700  0.73286900  0.87821600  1
  Ba  Ba1  1  0.35187300  0.26713100  0.12178400  1
  Ba  Ba2  1  0.26713100  0.35187300  0.62178400  1
  Ba  Ba3  1  0.73286900  0.64812700  0.37821600  1
  Mn  Mn4  1  0.00000000  0.00000000  0.50000000  1
  Mn  Mn5  1  0.00000000  0.00000000  0.00000000  1
  Cd  Cd6  1  0.95059300  0.04940700  0.75000000  1
  Cd  Cd7  1  0.04940700  0.95059300  0.25000000  1
  Fe  Fe8  1  0.38092700  0.37906000  0.87563400  1
  Fe  Fe9  1  0.61907300  0.62094000  0.12436600  1
  Fe  Fe10  1  0.62094000  0.61907300  0.62436700  1
  Fe  Fe11  1  0.37906000  0.38092700  0.37563400  1
  F  F12  1  0.34494300  0.90566600  0.70206900  1
  F  F13  1  0.65505700  0.09433400  0.29793100  1
  F  F14  1  0.09433400  0.65505700  0.79793100  1
  F  F15  1  0.90566600  0.34494300  0.20206900  1
  F  F16  1  0.54572800  0.12427800  0.77830700  1
  F  F17  1  0.45427200  0.87572200  0.22169300  1
  F  F18  1  0.87572200  0.45427200  0.72169300  1
  F  F19  1  0.12427800  0.54572800  0.27830700  1
  F  F20  1  0.59761000  0.38652700  0.65718300  1
  F  F21  1  0.40239000  0.61347300  0.34281700  1
  F  F22  1  0.61347300  0.40239000  0.84281700  1
  F  F23  1  0.38652700  0.59761000  0.15718300  1
  F  F24  1  0.69313900  0.80821200  0.58824400  1
  F  F25  1  0.30686100  0.19178800  0.41175600  1
  F  F26  1  0.19178800  0.30686100  0.91175600  1
  F  F27  1  0.80821200  0.69313900  0.08824400  1
  F  F28  1  0.67072600  0.07133600  0.95251200  1
  F  F29  1  0.32927400  0.92866400  0.04748800  1
  F  F30  1  0.92866400  0.32927400  0.54748800  1
  F  F31  1  0.07133600  0.67072600  0.45251200  1
  F  F32  1  0.84977200  0.03664000  0.12444800  1
  F  F33  1  0.15022800  0.96336000  0.87555200  1
  F  F34  1  0.96336000  0.15022800  0.37555200  1
  F  F35  1  0.03664000  0.84977200  0.62444800  1
  F  F36  1  0.40926100  0.75738400  0.51725600  1
  F  F37  1  0.59073900  0.24261600  0.48274400  1
  F  F38  1  0.24261600  0.59073900  0.98274400  1
  F  F39  1  0.75738400  0.40926100  0.01725600  1
