# generated using pymatgen
data_Ba2Zn3F10
_symmetry_space_group_name_H-M   'P 1'
_cell_length_a   9.96779808
_cell_length_b   9.96779808
_cell_length_c   8.04173702
_cell_angle_alpha   69.47880643
_cell_angle_beta   69.47880643
_cell_angle_gamma   35.78940870
_symmetry_Int_Tables_number   1
_chemical_formula_structural   Ba2Zn3F10
_chemical_formula_sum   'Ba4 Zn6 F20'
_cell_volume   434.40388921
_cell_formula_units_Z   2
loop_
 _symmetry_equiv_pos_site_id
 _symmetry_equiv_pos_as_xyz
  1  'x, y, z'
loop_
 _atom_site_type_symbol
 _atom_site_label
 _atom_site_symmetry_multiplicity
 _atom_site_fract_x
 _atom_site_fract_y
 _atom_site_fract_z
 _atom_site_occupancy
  Ba  Ba0  1  0.61498300  0.61498300  0.27951700  1
  Ba  Ba1  1  0.38501700  0.38501700  0.72048300  1
  Ba  Ba2  1  0.71717500  0.71717500  0.68595100  1
  Ba  Ba3  1  0.28282500  0.28282500  0.31404900  1
  Zn  Zn4  1  0.74305400  0.25694600  0.00000000  1
  Zn  Zn5  1  0.25694600  0.74305400  0.00000000  1
  Zn  Zn6  1  0.82323900  0.82323900  0.01913200  1
  Zn  Zn7  1  0.17676100  0.17676100  0.98086800  1
  Zn  Zn8  1  0.92530800  0.92530800  0.45420700  1
  Zn  Zn9  1  0.07469200  0.07469200  0.54579300  1
  F  F10  1  0.86447400  0.86447400  0.74659100  1
  F  F11  1  0.13552600  0.13552600  0.25340900  1
  F  F12  1  0.62343500  0.15217500  0.02737300  1
  F  F13  1  0.37656500  0.84782500  0.97262700  1
  F  F14  1  0.84782500  0.37656500  0.97262700  1
  F  F15  1  0.15217500  0.62343500  0.02737300  1
  F  F16  1  0.77594300  0.22405700  0.50000000  1
  F  F17  1  0.22405700  0.77594300  0.50000000  1
  F  F18  1  0.97845900  0.97845900  0.18117800  1
  F  F19  1  0.02154100  0.02154100  0.81882200  1
  F  F20  1  0.48325000  0.48325000  0.18521900  1
  F  F21  1  0.51675000  0.51675000  0.81478100  1
  F  F22  1  0.76224200  0.76224200  0.28205500  1
  F  F23  1  0.23775800  0.23775800  0.71794500  1
  F  F24  1  0.50000000  0.00000000  0.00000000  1
  F  F25  1  0.00000000  0.50000000  0.00000000  1
  F  F26  1  0.60976000  0.08918600  0.47867800  1
  F  F27  1  0.39024000  0.91081400  0.52132200  1
  F  F28  1  0.91081400  0.39024000  0.52132200  1
  F  F29  1  0.08918600  0.60976000  0.47867800  1
