# generated using pymatgen
data_BaP2(HO)2
_symmetry_space_group_name_H-M   'P 1'
_cell_length_a   10.31231563
_cell_length_b   10.31231563
_cell_length_c   7.51445800
_cell_angle_alpha   90.00000000
_cell_angle_beta   90.00000000
_cell_angle_gamma   139.83706096
_symmetry_Int_Tables_number   1
_chemical_formula_structural   BaP2(HO)2
_chemical_formula_sum   'Ba4 P8 H8 O8'
_cell_volume   515.40092630
_cell_formula_units_Z   4
loop_
 _symmetry_equiv_pos_site_id
 _symmetry_equiv_pos_as_xyz
  1  'x, y, z'
loop_
 _atom_site_type_symbol
 _atom_site_label
 _atom_site_symmetry_multiplicity
 _atom_site_fract_x
 _atom_site_fract_y
 _atom_site_fract_z
 _atom_site_occupancy
  Ba  Ba0  1  0.75000000  0.25000000  0.75000000  1
  Ba  Ba1  1  0.25000000  0.75000000  0.75000000  1
  Ba  Ba2  1  0.75000000  0.25000000  0.25000000  1
  Ba  Ba3  1  0.25000000  0.75000000  0.25000000  1
  P  P4  1  0.06126900  0.26222400  0.50277000  1
  P  P5  1  0.93873100  0.73777600  0.50277000  1
  P  P6  1  0.73777600  0.93873100  0.49723000  1
  P  P7  1  0.43873100  0.23777600  0.99723000  1
  P  P8  1  0.26222400  0.06126900  0.49723000  1
  P  P9  1  0.56126900  0.76222400  0.99723000  1
  P  P10  1  0.76222400  0.56126900  0.00277000  1
  P  P11  1  0.23777600  0.43873100  0.00277000  1
  H  H12  1  0.07526100  0.26276300  0.69409800  1
  H  H13  1  0.92473900  0.73723700  0.69409800  1
  H  H14  1  0.73723700  0.92473900  0.30590200  1
  H  H15  1  0.42473900  0.23723700  0.80590200  1
  H  H16  1  0.26276300  0.07526100  0.30590200  1
  H  H17  1  0.57526100  0.76276300  0.80590200  1
  H  H18  1  0.76276300  0.57526100  0.19409800  1
  H  H19  1  0.23723700  0.42473900  0.19409800  1
  O  O20  1  0.04731100  0.41122900  0.48282900  1
  O  O21  1  0.95268900  0.58877100  0.48282900  1
  O  O22  1  0.58877100  0.95268900  0.51717100  1
  O  O23  1  0.45268900  0.08877100  0.01717100  1
  O  O24  1  0.41122900  0.04731100  0.51717100  1
  O  O25  1  0.54731100  0.91122900  0.01717100  1
  O  O26  1  0.91122900  0.54731100  0.98282900  1
  O  O27  1  0.08877100  0.45268900  0.98282900  1
