# generated using pymatgen
data_CaH6C6(BrO4)2
_symmetry_space_group_name_H-M   'P 1'
_cell_length_a   10.19776015
_cell_length_b   10.19776015
_cell_length_c   6.68699536
_cell_angle_alpha   81.39273033
_cell_angle_beta   81.39273033
_cell_angle_gamma   113.72150965
_symmetry_Int_Tables_number   1
_chemical_formula_structural   CaH6C6(BrO4)2
_chemical_formula_sum   'Ca2 H12 C12 Br4 O16'
_cell_volume   612.33302793
_cell_formula_units_Z   2
loop_
 _symmetry_equiv_pos_site_id
 _symmetry_equiv_pos_as_xyz
  1  'x, y, z'
loop_
 _atom_site_type_symbol
 _atom_site_label
 _atom_site_symmetry_multiplicity
 _atom_site_fract_x
 _atom_site_fract_y
 _atom_site_fract_z
 _atom_site_occupancy
  Ca  Ca0  1  0.80043400  0.80043400  0.14295800  1
  Ca  Ca1  1  0.19956600  0.19956600  0.85704200  1
  H  H2  1  0.70902000  0.79946900  0.60687400  1
  H  H3  1  0.29098000  0.20053100  0.39312600  1
  H  H4  1  0.20053100  0.29098000  0.39312600  1
  H  H5  1  0.79946900  0.70902000  0.60687400  1
  H  H6  1  0.07874500  0.98832300  0.27990800  1
  H  H7  1  0.92125500  0.01167700  0.72009200  1
  H  H8  1  0.01167700  0.92125500  0.72009200  1
  H  H9  1  0.98832300  0.07874500  0.27990800  1
  H  H10  1  0.79977800  0.10116300  0.43413600  1
  H  H11  1  0.20022200  0.89883700  0.56586400  1
  H  H12  1  0.89883700  0.20022200  0.56586400  1
  H  H13  1  0.10116300  0.79977800  0.43413600  1
  C  C14  1  0.42999100  0.09480200  0.04648900  1
  C  C15  1  0.57000900  0.90519800  0.95351100  1
  C  C16  1  0.90519800  0.57000900  0.95351100  1
  C  C17  1  0.09480200  0.42999100  0.04648900  1
  C  C18  1  0.61278000  0.99996400  0.11218300  1
  C  C19  1  0.38722000  0.00003600  0.88781700  1
  C  C20  1  0.00003600  0.38722000  0.88781700  1
  C  C21  1  0.99996400  0.61278000  0.11218300  1
  C  C22  1  0.54214400  0.09135600  0.14566600  1
  C  C23  1  0.45785600  0.90864400  0.85433400  1
  C  C24  1  0.90864400  0.45785600  0.85433400  1
  C  C25  1  0.09135600  0.54214400  0.14566600  1
  Br  Br26  1  0.59617400  0.21466200  0.33161100  1
  Br  Br27  1  0.40382600  0.78533800  0.66838900  1
  Br  Br28  1  0.78533800  0.40382600  0.66838900  1
  Br  Br29  1  0.21466200  0.59617400  0.33161100  1
  O  O30  1  0.57086100  0.57086100  0.28775400  1
  O  O31  1  0.42913900  0.42913900  0.71224600  1
  O  O32  1  0.88308000  0.11692000  0.50000000  1
  O  O33  1  0.11692000  0.88308000  0.50000000  1
  O  O34  1  0.76790300  0.76790300  0.51380700  1
  O  O35  1  0.23209700  0.23209700  0.48619300  1
  O  O36  1  0.36021800  0.17013000  0.07989400  1
  O  O37  1  0.63978200  0.82987000  0.92010600  1
  O  O38  1  0.82987000  0.63978200  0.92010600  1
  O  O39  1  0.17013000  0.36021800  0.07989400  1
  O  O40  1  0.70993600  0.98906100  0.20161300  1
  O  O41  1  0.29006400  0.01093900  0.79838700  1
  O  O42  1  0.01093900  0.29006400  0.79838700  1
  O  O43  1  0.98906100  0.70993600  0.20161300  1
  O  O44  1  0.97120700  0.97120700  0.80991100  1
  O  O45  1  0.02879300  0.02879300  0.19008900  1
