# generated using pymatgen
data_Ba5Na(GaSb3)2
_symmetry_space_group_name_H-M   'P 1'
_cell_length_a   10.86283600
_cell_length_b   12.82296900
_cell_length_c   14.45510700
_cell_angle_alpha   90.00000000
_cell_angle_beta   90.00000000
_cell_angle_gamma   90.00000000
_symmetry_Int_Tables_number   1
_chemical_formula_structural   Ba5Na(GaSb3)2
_chemical_formula_sum   'Ba20 Na4 Ga8 Sb24'
_cell_volume   2013.50691758
_cell_formula_units_Z   4
loop_
 _symmetry_equiv_pos_site_id
 _symmetry_equiv_pos_as_xyz
  1  'x, y, z'
loop_
 _atom_site_type_symbol
 _atom_site_label
 _atom_site_symmetry_multiplicity
 _atom_site_fract_x
 _atom_site_fract_y
 _atom_site_fract_z
 _atom_site_occupancy
  Ba  Ba0  1  0.02549900  0.92129100  0.75499500  1
  Ba  Ba1  1  0.97450100  0.07870900  0.24500500  1
  Ba  Ba2  1  0.97450100  0.57870900  0.25499500  1
  Ba  Ba3  1  0.52549900  0.07870900  0.24500500  1
  Ba  Ba4  1  0.02549900  0.42129100  0.74500500  1
  Ba  Ba5  1  0.47450100  0.92129100  0.75499500  1
  Ba  Ba6  1  0.47450100  0.42129100  0.74500500  1
  Ba  Ba7  1  0.52549900  0.57870900  0.25499500  1
  Ba  Ba8  1  0.25000000  0.83545200  0.19030500  1
  Ba  Ba9  1  0.75000000  0.16454800  0.80969500  1
  Ba  Ba10  1  0.75000000  0.66454800  0.69030500  1
  Ba  Ba11  1  0.25000000  0.33545200  0.30969500  1
  Ba  Ba12  1  0.51897600  0.67123600  0.96733600  1
  Ba  Ba13  1  0.48102400  0.32876400  0.03266400  1
  Ba  Ba14  1  0.48102400  0.82876400  0.46733600  1
  Ba  Ba15  1  0.01897600  0.32876400  0.03266400  1
  Ba  Ba16  1  0.51897600  0.17123600  0.53266400  1
  Ba  Ba17  1  0.98102400  0.67123600  0.96733600  1
  Ba  Ba18  1  0.98102400  0.17123600  0.53266400  1
  Ba  Ba19  1  0.01897600  0.82876400  0.46733600  1
  Na  Na20  1  0.00000000  0.50000000  0.50000000  1
  Na  Na21  1  0.00000000  0.00000000  0.00000000  1
  Na  Na22  1  0.50000000  0.50000000  0.50000000  1
  Na  Na23  1  0.50000000  0.00000000  0.00000000  1
  Ga  Ga24  1  0.25000000  0.69119200  0.80662100  1
  Ga  Ga25  1  0.75000000  0.30880800  0.19337900  1
  Ga  Ga26  1  0.75000000  0.80880800  0.30662100  1
  Ga  Ga27  1  0.25000000  0.19119200  0.69337900  1
  Ga  Ga28  1  0.25000000  0.59198900  0.57786700  1
  Ga  Ga29  1  0.75000000  0.40801100  0.42213300  1
  Ga  Ga30  1  0.75000000  0.90801100  0.07786700  1
  Ga  Ga31  1  0.25000000  0.09198900  0.92213300  1
  Sb  Sb32  1  0.25000000  0.54420600  0.11608900  1
  Sb  Sb33  1  0.75000000  0.45579400  0.88391100  1
  Sb  Sb34  1  0.75000000  0.95579400  0.61608900  1
  Sb  Sb35  1  0.25000000  0.04420600  0.38391100  1
  Sb  Sb36  1  0.05941500  0.67430500  0.67942100  1
  Sb  Sb37  1  0.94058500  0.32569500  0.32057900  1
  Sb  Sb38  1  0.94058500  0.82569500  0.17942100  1
  Sb  Sb39  1  0.55941500  0.32569500  0.32057900  1
  Sb  Sb40  1  0.05941500  0.17430500  0.82057900  1
  Sb  Sb41  1  0.44058500  0.67430500  0.67942100  1
  Sb  Sb42  1  0.44058500  0.17430500  0.82057900  1
  Sb  Sb43  1  0.55941500  0.82569500  0.17942100  1
  Sb  Sb44  1  0.25000000  0.85876800  0.93391400  1
  Sb  Sb45  1  0.75000000  0.14123200  0.06608600  1
  Sb  Sb46  1  0.75000000  0.64123200  0.43391400  1
  Sb  Sb47  1  0.25000000  0.35876800  0.56608600  1
  Sb  Sb48  1  0.25000000  0.50765100  0.91573300  1
  Sb  Sb49  1  0.75000000  0.49234900  0.08426700  1
  Sb  Sb50  1  0.75000000  0.99234900  0.41573300  1
  Sb  Sb51  1  0.25000000  0.00765100  0.58426700  1
  Sb  Sb52  1  0.25000000  0.12318800  0.11326600  1
  Sb  Sb53  1  0.75000000  0.87681200  0.88673400  1
  Sb  Sb54  1  0.75000000  0.37681200  0.61326600  1
  Sb  Sb55  1  0.25000000  0.62318800  0.38673400  1
