# generated using pymatgen
data_Ba3Dy(BO2)9
_symmetry_space_group_name_H-M   'P 1'
_cell_length_a   7.27406605
_cell_length_b   7.27406605
_cell_length_c   17.50285500
_cell_angle_alpha   90.00000000
_cell_angle_beta   90.00000000
_cell_angle_gamma   120.00000043
_symmetry_Int_Tables_number   1
_chemical_formula_structural   Ba3Dy(BO2)9
_chemical_formula_sum   'Ba6 Dy2 B18 O36'
_cell_volume   802.03626327
_cell_formula_units_Z   2
loop_
 _symmetry_equiv_pos_site_id
 _symmetry_equiv_pos_as_xyz
  1  'x, y, z'
loop_
 _atom_site_type_symbol
 _atom_site_label
 _atom_site_symmetry_multiplicity
 _atom_site_fract_x
 _atom_site_fract_y
 _atom_site_fract_z
 _atom_site_occupancy
  Ba  Ba0  1  0.66666700  0.33333300  0.86772400  1
  Ba  Ba1  1  0.33333300  0.66666700  0.13227600  1
  Ba  Ba2  1  0.33333300  0.66666700  0.36772400  1
  Ba  Ba3  1  0.66666700  0.33333300  0.63227600  1
  Ba  Ba4  1  0.00000000  0.00000000  0.75000000  1
  Ba  Ba5  1  0.00000000  0.00000000  0.25000000  1
  Dy  Dy6  1  0.00000000  0.00000000  0.00000000  1
  Dy  Dy7  1  0.00000000  0.00000000  0.50000000  1
  B  B8  1  0.55017600  0.83496300  0.91820900  1
  B  B9  1  0.44982400  0.16503700  0.08179100  1
  B  B10  1  0.28478700  0.44982400  0.91820900  1
  B  B11  1  0.44982400  0.16503700  0.41820900  1
  B  B12  1  0.71521300  0.55017600  0.08179100  1
  B  B13  1  0.55017600  0.83496300  0.58179100  1
  B  B14  1  0.16503700  0.71521300  0.91820900  1
  B  B15  1  0.71521300  0.55017600  0.41820900  1
  B  B16  1  0.83496300  0.28478700  0.08179100  1
  B  B17  1  0.28478700  0.44982400  0.58179100  1
  B  B18  1  0.83496300  0.28478700  0.41820900  1
  B  B19  1  0.16503700  0.71521300  0.58179100  1
  B  B20  1  0.50484900  0.62215400  0.75000000  1
  B  B21  1  0.49515100  0.37784600  0.25000000  1
  B  B22  1  0.11730500  0.49515100  0.75000000  1
  B  B23  1  0.88269500  0.50484900  0.25000000  1
  B  B24  1  0.37784600  0.88269500  0.75000000  1
  B  B25  1  0.62215400  0.11730500  0.25000000  1
  O  O26  1  0.54203400  0.83304700  0.75000000  1
  O  O27  1  0.45796600  0.16695300  0.25000000  1
  O  O28  1  0.29101300  0.45796600  0.75000000  1
  O  O29  1  0.70898700  0.54203400  0.25000000  1
  O  O30  1  0.16695300  0.70898700  0.75000000  1
  O  O31  1  0.83304700  0.29101300  0.25000000  1
  O  O32  1  0.91994800  0.33279500  0.75000000  1
  O  O33  1  0.08005200  0.66720500  0.25000000  1
  O  O34  1  0.41284700  0.08005200  0.75000000  1
  O  O35  1  0.58715300  0.91994800  0.25000000  1
  O  O36  1  0.66720500  0.58715300  0.75000000  1
  O  O37  1  0.33279500  0.41284700  0.25000000  1
  O  O38  1  0.74982700  0.99506800  0.91907400  1
  O  O39  1  0.25017300  0.00493200  0.08092600  1
  O  O40  1  0.24524100  0.25017300  0.91907400  1
  O  O41  1  0.25017300  0.00493200  0.41907400  1
  O  O42  1  0.75475900  0.74982700  0.08092600  1
  O  O43  1  0.74982700  0.99506800  0.58092600  1
  O  O44  1  0.00493200  0.75475900  0.91907400  1
  O  O45  1  0.75475900  0.74982700  0.41907400  1
  O  O46  1  0.99506800  0.24524100  0.08092600  1
  O  O47  1  0.24524100  0.25017300  0.58092600  1
  O  O48  1  0.99506800  0.24524100  0.41907400  1
  O  O49  1  0.00493200  0.75475900  0.58092600  1
  O  O50  1  0.49672400  0.61985600  0.91807300  1
  O  O51  1  0.50327600  0.38014400  0.08192700  1
  O  O52  1  0.12313200  0.50327600  0.91807300  1
  O  O53  1  0.50327600  0.38014400  0.41807300  1
  O  O54  1  0.87686800  0.49672400  0.08192700  1
  O  O55  1  0.49672400  0.61985600  0.58192700  1
  O  O56  1  0.38014400  0.87686800  0.91807300  1
  O  O57  1  0.87686800  0.49672400  0.41807300  1
  O  O58  1  0.61985600  0.12313200  0.08192700  1
  O  O59  1  0.12313200  0.50327600  0.58192700  1
  O  O60  1  0.61985600  0.12313200  0.41807300  1
  O  O61  1  0.38014400  0.87686800  0.58192700  1
