# generated using pymatgen
data_Ba3TiO5
_symmetry_space_group_name_H-M   'P 1'
_cell_length_a   7.97121891
_cell_length_b   7.97121891
_cell_length_c   7.97121891
_cell_angle_alpha   124.54512528
_cell_angle_beta   124.54512528
_cell_angle_gamma   82.29282626
_symmetry_Int_Tables_number   1
_chemical_formula_structural   Ba3TiO5
_chemical_formula_sum   'Ba6 Ti2 O10'
_cell_volume   330.25503191
_cell_formula_units_Z   2
loop_
 _symmetry_equiv_pos_site_id
 _symmetry_equiv_pos_as_xyz
  1  'x, y, z'
loop_
 _atom_site_type_symbol
 _atom_site_label
 _atom_site_symmetry_multiplicity
 _atom_site_fract_x
 _atom_site_fract_y
 _atom_site_fract_z
 _atom_site_occupancy
  Ba  Ba0  1  0.25000000  0.25000000  0.00000000  1
  Ba  Ba1  1  0.75000000  0.75000000  0.00000000  1
  Ba  Ba2  1  0.18140300  0.68140300  0.86280700  1
  Ba  Ba3  1  0.81859700  0.31859700  0.13719300  1
  Ba  Ba4  1  0.68140300  0.81859700  0.50000000  1
  Ba  Ba5  1  0.31859700  0.18140300  0.50000000  1
  Ti  Ti6  1  0.75000000  0.25000000  0.50000000  1
  Ti  Ti7  1  0.25000000  0.75000000  0.50000000  1
  O  O8  1  0.79549700  0.29549700  0.77667100  1
  O  O9  1  0.20450300  0.70450300  0.22332900  1
  O  O10  1  0.51882600  0.01882600  0.22332900  1
  O  O11  1  0.29549700  0.51882600  0.50000000  1
  O  O12  1  0.98117400  0.20450300  0.50000000  1
  O  O13  1  0.48117400  0.98117400  0.77667100  1
  O  O14  1  0.70450300  0.48117400  0.50000000  1
  O  O15  1  0.01882600  0.79549700  0.50000000  1
  O  O16  1  0.00000000  0.00000000  0.00000000  1
  O  O17  1  0.50000000  0.50000000  0.00000000  1
