# generated using pymatgen
data_BaH(NO2)2
_symmetry_space_group_name_H-M   'P 1'
_cell_length_a   7.07261676
_cell_length_b   7.07261676
_cell_length_c   17.72254900
_cell_angle_alpha   90.00000000
_cell_angle_beta   90.00000000
_cell_angle_gamma   120.00000707
_symmetry_Int_Tables_number   1
_chemical_formula_structural   BaH(NO2)2
_chemical_formula_sum   'Ba6 H6 N12 O24'
_cell_volume   767.74507242
_cell_formula_units_Z   6
loop_
 _symmetry_equiv_pos_site_id
 _symmetry_equiv_pos_as_xyz
  1  'x, y, z'
loop_
 _atom_site_type_symbol
 _atom_site_label
 _atom_site_symmetry_multiplicity
 _atom_site_fract_x
 _atom_site_fract_y
 _atom_site_fract_z
 _atom_site_occupancy
  Ba  Ba0  1  0.56266800  0.15311200  0.99879500  1
  Ba  Ba1  1  0.59044400  0.43733200  0.66546200  1
  Ba  Ba2  1  0.43733200  0.84688800  0.49879500  1
  Ba  Ba3  1  0.84688800  0.40955600  0.33212800  1
  Ba  Ba4  1  0.40955600  0.56266800  0.16546200  1
  Ba  Ba5  1  0.15311200  0.59044400  0.83212800  1
  H  H6  1  0.92573400  0.14616800  0.91505200  1
  H  H7  1  0.22043400  0.07426600  0.58171900  1
  H  H8  1  0.07426600  0.85383200  0.41505200  1
  H  H9  1  0.85383200  0.77956600  0.24838600  1
  H  H10  1  0.77956600  0.92573400  0.08171900  1
  H  H11  1  0.14616800  0.22043400  0.74838600  1
  N  N12  1  0.75559800  0.78739200  0.81271600  1
  N  N13  1  0.03179400  0.24440200  0.47938300  1
  N  N14  1  0.24440200  0.21260800  0.31271600  1
  N  N15  1  0.21260800  0.96820600  0.14605000  1
  N  N16  1  0.96820600  0.75559800  0.97938300  1
  N  N17  1  0.78739200  0.03179400  0.64605000  1
  N  N18  1  0.43763800  0.55129800  0.99131400  1
  N  N19  1  0.11365900  0.56236200  0.65798100  1
  N  N20  1  0.56236200  0.44870200  0.49131400  1
  N  N21  1  0.44870200  0.88634100  0.32464700  1
  N  N22  1  0.88634100  0.43763800  0.15798100  1
  N  N23  1  0.55129800  0.11365900  0.82464700  1
  O  O24  1  0.41686000  0.70967900  0.96680500  1
  O  O25  1  0.29281900  0.58314000  0.63347100  1
  O  O26  1  0.58314000  0.29032100  0.46680500  1
  O  O27  1  0.29032100  0.70718100  0.30013800  1
  O  O28  1  0.70718100  0.41686000  0.13347100  1
  O  O29  1  0.70967900  0.29281900  0.80013800  1
  O  O30  1  0.37444100  0.39230000  0.94625800  1
  O  O31  1  0.01786000  0.62555900  0.61292500  1
  O  O32  1  0.62555900  0.60770000  0.44625800  1
  O  O33  1  0.60770000  0.98214000  0.27959100  1
  O  O34  1  0.98214000  0.37444100  0.11292500  1
  O  O35  1  0.39230000  0.01786000  0.77959100  1
  O  O36  1  0.75634400  0.86314200  0.61069600  1
  O  O37  1  0.10679800  0.24365600  0.27736300  1
  O  O38  1  0.24365600  0.13685800  0.11069600  1
  O  O39  1  0.13685800  0.89320200  0.94402900  1
  O  O40  1  0.89320200  0.75634400  0.77736300  1
  O  O41  1  0.86314200  0.10679800  0.44402900  1
  O  O42  1  0.55825600  0.66592200  0.79012400  1
  O  O43  1  0.10766600  0.44174400  0.45679000  1
  O  O44  1  0.44174400  0.33407800  0.29012400  1
  O  O45  1  0.33407800  0.89233400  0.12345700  1
  O  O46  1  0.89233400  0.55825600  0.95679000  1
  O  O47  1  0.66592200  0.10766600  0.62345700  1
