# generated using pymatgen
data_AlH6
_symmetry_space_group_name_H-M   'P 1'
_cell_length_a   6.09628697
_cell_length_b   6.09628697
_cell_length_c   17.21077885
_cell_angle_alpha   89.72818738
_cell_angle_beta   89.72818738
_cell_angle_gamma   127.08968755
_symmetry_Int_Tables_number   1
_chemical_formula_structural   AlH6
_chemical_formula_sum   'Al2 H12'
_cell_volume   510.20205577
_cell_formula_units_Z   2
loop_
 _symmetry_equiv_pos_site_id
 _symmetry_equiv_pos_as_xyz
  1  'x, y, z'
loop_
 _atom_site_type_symbol
 _atom_site_label
 _atom_site_symmetry_multiplicity
 _atom_site_fract_x
 _atom_site_fract_y
 _atom_site_fract_z
 _atom_site_occupancy
  Al  Al0  1  0.00000000  0.50000000  0.00000000  1
  Al  Al1  1  0.50000000  0.00000000  0.50000000  1
  H  H2  1  0.00469300  0.13269300  0.25009500  1
  H  H3  1  0.99530700  0.86730700  0.74990500  1
  H  H4  1  0.67770600  0.28442100  0.99748800  1
  H  H5  1  0.86730700  0.99530700  0.24990500  1
  H  H6  1  0.32229400  0.71557900  0.00251200  1
  H  H7  1  0.13269300  0.00469300  0.75009500  1
  H  H8  1  0.74834800  0.49855500  0.37085500  1
  H  H9  1  0.71557900  0.32229400  0.50251200  1
  H  H10  1  0.25165200  0.50144500  0.62914500  1
  H  H11  1  0.28442100  0.67770600  0.49748800  1
  H  H12  1  0.50144500  0.25165200  0.12914500  1
  H  H13  1  0.49855500  0.74834800  0.87085500  1
