# generated using pymatgen
data_AlTl(SO4)2
_symmetry_space_group_name_H-M   'P 1'
_cell_length_a   4.92768801
_cell_length_b   4.92768801
_cell_length_c   8.49744900
_cell_angle_alpha   90.00000000
_cell_angle_beta   90.00000000
_cell_angle_gamma   120.00000012
_symmetry_Int_Tables_number   1
_chemical_formula_structural   AlTl(SO4)2
_chemical_formula_sum   'Al1 Tl1 S2 O8'
_cell_volume   178.69220346
_cell_formula_units_Z   1
loop_
 _symmetry_equiv_pos_site_id
 _symmetry_equiv_pos_as_xyz
  1  'x, y, z'
loop_
 _atom_site_type_symbol
 _atom_site_label
 _atom_site_symmetry_multiplicity
 _atom_site_fract_x
 _atom_site_fract_y
 _atom_site_fract_z
 _atom_site_occupancy
  Al  Al0  1  0.00000000  0.00000000  0.00000000  1
  Tl  Tl1  1  0.00000000  0.00000000  0.50000000  1
  S  S2  1  0.66666700  0.33333300  0.80332300  1
  S  S3  1  0.33333300  0.66666700  0.19667700  1
  O  O4  1  0.88151600  0.22662500  0.86172300  1
  O  O5  1  0.34510900  0.11848400  0.86172300  1
  O  O6  1  0.65489100  0.77337500  0.13827700  1
  O  O7  1  0.77337500  0.65489100  0.86172300  1
  O  O8  1  0.22662500  0.88151600  0.13827700  1
  O  O9  1  0.11848400  0.34510900  0.13827700  1
  O  O10  1  0.66666700  0.33333300  0.63125200  1
  O  O11  1  0.33333300  0.66666700  0.36874800  1
