# generated using pymatgen
data_AlTl(SeO4)2
_symmetry_space_group_name_H-M   'P 1'
_cell_length_a   5.09112251
_cell_length_b   5.09112251
_cell_length_c   8.92056200
_cell_angle_alpha   90.00000000
_cell_angle_beta   90.00000000
_cell_angle_gamma   119.99998067
_symmetry_Int_Tables_number   1
_chemical_formula_structural   AlTl(SeO4)2
_chemical_formula_sum   'Al1 Tl1 Se2 O8'
_cell_volume   200.23962731
_cell_formula_units_Z   1
loop_
 _symmetry_equiv_pos_site_id
 _symmetry_equiv_pos_as_xyz
  1  'x, y, z'
loop_
 _atom_site_type_symbol
 _atom_site_label
 _atom_site_symmetry_multiplicity
 _atom_site_fract_x
 _atom_site_fract_y
 _atom_site_fract_z
 _atom_site_occupancy
  Al  Al0  1  0.00000000  0.00000000  0.00000000  1
  Tl  Tl1  1  0.00000000  0.00000000  0.50000000  1
  Se  Se2  1  0.66666700  0.33333300  0.80189500  1
  Se  Se3  1  0.33333300  0.66666700  0.19810500  1
  O  O4  1  0.92790000  0.24971200  0.86211300  1
  O  O5  1  0.32181200  0.07210000  0.86211300  1
  O  O6  1  0.67818800  0.75028800  0.13788700  1
  O  O7  1  0.75028800  0.67818800  0.86211300  1
  O  O8  1  0.24971200  0.92790000  0.13788700  1
  O  O9  1  0.07210000  0.32181200  0.13788700  1
  O  O10  1  0.66666700  0.33333300  0.61734300  1
  O  O11  1  0.33333300  0.66666700  0.38265700  1
