# generated using pymatgen
data_B2NCl3
_symmetry_space_group_name_H-M   'P 1'
_cell_length_a   10.06916600
_cell_length_b   10.06916600
_cell_length_c   16.78136600
_cell_angle_alpha   90.00000000
_cell_angle_beta   90.00000000
_cell_angle_gamma   90.00000000
_symmetry_Int_Tables_number   1
_chemical_formula_structural   B2NCl3
_chemical_formula_sum   'B24 N12 Cl36'
_cell_volume   1701.43088019
_cell_formula_units_Z   12
loop_
 _symmetry_equiv_pos_site_id
 _symmetry_equiv_pos_as_xyz
  1  'x, y, z'
loop_
 _atom_site_type_symbol
 _atom_site_label
 _atom_site_symmetry_multiplicity
 _atom_site_fract_x
 _atom_site_fract_y
 _atom_site_fract_z
 _atom_site_occupancy
  B  B0  1  0.20943300  0.20943300  0.00000000  1
  B  B1  1  0.79056700  0.79056700  0.50000000  1
  B  B2  1  0.29056700  0.70943300  0.25000000  1
  B  B3  1  0.70943300  0.29056700  0.75000000  1
  B  B4  1  0.90276200  0.90276200  0.00000000  1
  B  B5  1  0.09723800  0.09723800  0.50000000  1
  B  B6  1  0.59723800  0.40276200  0.25000000  1
  B  B7  1  0.40276200  0.59723800  0.75000000  1
  B  B8  1  0.01576300  0.10046600  0.06444400  1
  B  B9  1  0.98423700  0.89953400  0.56444400  1
  B  B10  1  0.39953400  0.51576300  0.31444400  1
  B  B11  1  0.48423700  0.60046600  0.18555600  1
  B  B12  1  0.60046600  0.48423700  0.81444400  1
  B  B13  1  0.51576300  0.39953400  0.68555600  1
  B  B14  1  0.10046600  0.01576300  0.93555600  1
  B  B15  1  0.89953400  0.98423700  0.43555600  1
  B  B16  1  0.12566500  0.29491900  0.13332300  1
  B  B17  1  0.87433500  0.70508100  0.63332300  1
  B  B18  1  0.20508100  0.62566500  0.38332300  1
  B  B19  1  0.37433500  0.79491900  0.11667700  1
  B  B20  1  0.79491900  0.37433500  0.88332300  1
  B  B21  1  0.62566500  0.20508100  0.61667700  1
  B  B22  1  0.29491900  0.12566500  0.86667700  1
  B  B23  1  0.70508100  0.87433500  0.36667700  1
  N  N24  1  0.11727700  0.20159400  0.06560700  1
  N  N25  1  0.88272300  0.79840600  0.56560700  1
  N  N26  1  0.29840600  0.61727700  0.31560700  1
  N  N27  1  0.38272300  0.70159400  0.18439300  1
  N  N28  1  0.70159400  0.38272300  0.81560700  1
  N  N29  1  0.61727700  0.29840600  0.68439300  1
  N  N30  1  0.20159400  0.11727700  0.93439300  1
  N  N31  1  0.79840600  0.88272300  0.43439300  1
  N  N32  1  0.00668900  0.00668900  0.00000000  1
  N  N33  1  0.99331100  0.99331100  0.50000000  1
  N  N34  1  0.49331100  0.50668900  0.25000000  1
  N  N35  1  0.50668900  0.49331100  0.75000000  1
  Cl  Cl36  1  0.40731800  0.39793300  0.39274600  1
  Cl  Cl37  1  0.59268200  0.60206700  0.89274600  1
  Cl  Cl38  1  0.10206700  0.90731800  0.64274600  1
  Cl  Cl39  1  0.09268200  0.89793300  0.85725400  1
  Cl  Cl40  1  0.89793300  0.09268200  0.14274600  1
  Cl  Cl41  1  0.90731800  0.10206700  0.35725400  1
  Cl  Cl42  1  0.39793300  0.40731800  0.60725400  1
  Cl  Cl43  1  0.60206700  0.59268200  0.10725400  1
  Cl  Cl44  1  0.06453700  0.45707900  0.12687500  1
  Cl  Cl45  1  0.93546300  0.54292100  0.62687500  1
  Cl  Cl46  1  0.04292100  0.56453700  0.37687500  1
  Cl  Cl47  1  0.43546300  0.95707900  0.12312500  1
  Cl  Cl48  1  0.95707900  0.43546300  0.87687500  1
  Cl  Cl49  1  0.56453700  0.04292100  0.62312500  1
  Cl  Cl50  1  0.45707900  0.06453700  0.87312500  1
  Cl  Cl51  1  0.54292100  0.93546300  0.37312500  1
  Cl  Cl52  1  0.19770100  0.24706500  0.22367300  1
  Cl  Cl53  1  0.80229900  0.75293500  0.72367300  1
  Cl  Cl54  1  0.25293500  0.69770100  0.47367300  1
  Cl  Cl55  1  0.30229900  0.74706500  0.02632700  1
  Cl  Cl56  1  0.74706500  0.30229900  0.97367300  1
  Cl  Cl57  1  0.69770100  0.25293500  0.52632700  1
  Cl  Cl58  1  0.24706500  0.19770100  0.77632700  1
  Cl  Cl59  1  0.75293500  0.80229900  0.27632700  1
  Cl  Cl60  1  0.24843500  0.07414300  0.45083400  1
  Cl  Cl61  1  0.75156500  0.92585700  0.95083400  1
  Cl  Cl62  1  0.42585700  0.74843500  0.70083400  1
  Cl  Cl63  1  0.25156500  0.57414300  0.79916600  1
  Cl  Cl64  1  0.57414300  0.25156500  0.20083400  1
  Cl  Cl65  1  0.74843500  0.42585700  0.29916600  1
  Cl  Cl66  1  0.07414300  0.24843500  0.54916600  1
  Cl  Cl67  1  0.92585700  0.75156500  0.04916600  1
  Cl  Cl68  1  0.33407800  0.33407800  0.00000000  1
  Cl  Cl69  1  0.66592200  0.66592200  0.50000000  1
  Cl  Cl70  1  0.16592200  0.83407800  0.25000000  1
  Cl  Cl71  1  0.83407800  0.16592200  0.75000000  1
