# generated using pymatgen
data_Ba2CaFe2CoF14
_symmetry_space_group_name_H-M   'P 1'
_cell_length_a   7.47302068
_cell_length_b   7.47302068
_cell_length_c   15.07457118
_cell_angle_alpha   88.80510106
_cell_angle_beta   88.80510106
_cell_angle_gamma   42.62974234
_symmetry_Int_Tables_number   1
_chemical_formula_structural   Ba2CaFe2CoF14
_chemical_formula_sum   'Ba4 Ca2 Fe4 Co2 F28'
_cell_volume   570.01021314
_cell_formula_units_Z   2
loop_
 _symmetry_equiv_pos_site_id
 _symmetry_equiv_pos_as_xyz
  1  'x, y, z'
loop_
 _atom_site_type_symbol
 _atom_site_label
 _atom_site_symmetry_multiplicity
 _atom_site_fract_x
 _atom_site_fract_y
 _atom_site_fract_z
 _atom_site_occupancy
  Ba  Ba0  1  0.64451800  0.73853500  0.88015700  1
  Ba  Ba1  1  0.35548200  0.26146500  0.11984300  1
  Ba  Ba2  1  0.26146500  0.35548200  0.61984300  1
  Ba  Ba3  1  0.73853500  0.64451800  0.38015700  1
  Ca  Ca4  1  0.94163000  0.05837000  0.75000000  1
  Ca  Ca5  1  0.05837000  0.94163000  0.25000000  1
  Fe  Fe6  1  0.61135600  0.62425500  0.62327600  1
  Fe  Fe7  1  0.38864400  0.37574500  0.37672400  1
  Fe  Fe8  1  0.37574500  0.38864400  0.87672400  1
  Fe  Fe9  1  0.62425500  0.61135600  0.12327600  1
  Co  Co10  1  0.00000000  0.00000000  0.50000000  1
  Co  Co11  1  0.00000000  0.00000000  0.00000000  1
  F  F12  1  0.33948000  0.91140100  0.70294500  1
  F  F13  1  0.66052000  0.08859900  0.29705500  1
  F  F14  1  0.08859900  0.66052000  0.79705500  1
  F  F15  1  0.91140100  0.33948000  0.20294500  1
  F  F16  1  0.39498000  0.76931200  0.51592100  1
  F  F17  1  0.60502000  0.23068800  0.48407900  1
  F  F18  1  0.23068800  0.60502000  0.98407900  1
  F  F19  1  0.76931200  0.39498000  0.01592100  1
  F  F20  1  0.69356600  0.80676500  0.58587500  1
  F  F21  1  0.30643400  0.19323500  0.41412500  1
  F  F22  1  0.19323500  0.30643400  0.91412500  1
  F  F23  1  0.80676500  0.69356600  0.08587500  1
  F  F24  1  0.86221800  0.02583400  0.11879800  1
  F  F25  1  0.13778200  0.97416600  0.88120200  1
  F  F26  1  0.97416600  0.13778200  0.38120200  1
  F  F27  1  0.02583400  0.86221800  0.61879800  1
  F  F28  1  0.57744900  0.40058700  0.65821300  1
  F  F29  1  0.42255100  0.59941300  0.34178700  1
  F  F30  1  0.59941300  0.42255100  0.84178700  1
  F  F31  1  0.40058700  0.57744900  0.15821300  1
  F  F32  1  0.54737800  0.12897700  0.77836700  1
  F  F33  1  0.45262200  0.87102300  0.22163300  1
  F  F34  1  0.87102300  0.45262200  0.72163300  1
  F  F35  1  0.12897700  0.54737800  0.27836700  1
  F  F36  1  0.67092900  0.07929100  0.95201400  1
  F  F37  1  0.32907100  0.92070900  0.04798600  1
  F  F38  1  0.92070900  0.32907100  0.54798600  1
  F  F39  1  0.07929100  0.67092900  0.45201400  1
