# generated using pymatgen
data_Ca2Al4Si8(W3O8)3
_symmetry_space_group_name_H-M   'P 1'
_cell_length_a   7.89696894
_cell_length_b   10.26257280
_cell_length_c   10.26257280
_cell_angle_alpha   83.97185231
_cell_angle_beta   73.82294679
_cell_angle_gamma   73.82294679
_symmetry_Int_Tables_number   1
_chemical_formula_structural   Ca2Al4Si8(W3O8)3
_chemical_formula_sum   'Ca2 Al4 Si8 W9 O24'
_cell_volume   766.81469733
_cell_formula_units_Z   1
loop_
 _symmetry_equiv_pos_site_id
 _symmetry_equiv_pos_as_xyz
  1  'x, y, z'
loop_
 _atom_site_type_symbol
 _atom_site_label
 _atom_site_symmetry_multiplicity
 _atom_site_fract_x
 _atom_site_fract_y
 _atom_site_fract_z
 _atom_site_occupancy
  Ca  Ca0  1  0.71430700  0.75068400  0.75068400  1
  Ca  Ca1  1  0.28569300  0.24931600  0.24931600  1
  Al  Al2  1  0.23847400  0.17305900  0.57011900  1
  Al  Al3  1  0.76152600  0.82694100  0.42988100  1
  Al  Al4  1  0.76152600  0.42988100  0.82694100  1
  Al  Al5  1  0.23847400  0.57011900  0.17305900  1
  Si  Si6  1  0.16017200  0.68821700  0.46336800  1
  Si  Si7  1  0.83982800  0.31178300  0.53663200  1
  Si  Si8  1  0.83982800  0.53663200  0.31178300  1
  Si  Si9  1  0.16017200  0.46336800  0.68821700  1
  Si  Si10  1  0.34683900  0.84538800  0.61413000  1
  Si  Si11  1  0.65316100  0.15461200  0.38587000  1
  Si  Si12  1  0.65316100  0.38587000  0.15461200  1
  Si  Si13  1  0.34683900  0.61413000  0.84538800  1
  W  W14  1  0.29560500  0.04664600  0.04664600  1
  W  W15  1  0.70439500  0.95335400  0.95335400  1
  W  W16  1  0.00000000  0.00000000  0.00000000  1
  W  W17  1  0.50000000  0.16382600  0.83617400  1
  W  W18  1  0.50000000  0.83617400  0.16382600  1
  W  W19  1  0.08222500  0.98918900  0.28518400  1
  W  W20  1  0.91777500  0.01081100  0.71481600  1
  W  W21  1  0.91777500  0.71481600  0.01081100  1
  W  W22  1  0.08222500  0.28518400  0.98918900  1
  O  O23  1  0.43602900  0.16285700  0.43332600  1
  O  O24  1  0.56397100  0.83714300  0.56667400  1
  O  O25  1  0.56397100  0.56667400  0.83714300  1
  O  O26  1  0.43602900  0.43332600  0.16285700  1
  O  O27  1  0.20395000  0.53697300  0.53697300  1
  O  O28  1  0.79605000  0.46302700  0.46302700  1
  O  O29  1  0.22823100  0.29871700  0.67747400  1
  O  O30  1  0.77176900  0.70128300  0.32252600  1
  O  O31  1  0.77176900  0.32252600  0.70128300  1
  O  O32  1  0.22823100  0.67747400  0.29871700  1
  O  O33  1  0.06096900  0.23984100  0.48478600  1
  O  O34  1  0.93903100  0.76015900  0.51521400  1
  O  O35  1  0.93903100  0.51521400  0.76015900  1
  O  O36  1  0.06096900  0.48478600  0.23984100  1
  O  O37  1  0.22504600  0.00489200  0.63254400  1
  O  O38  1  0.77495400  0.99510800  0.36745600  1
  O  O39  1  0.77495400  0.36745600  0.99510800  1
  O  O40  1  0.22504600  0.63254400  0.00489200  1
  O  O41  1  0.27928400  0.77729900  0.50706600  1
  O  O42  1  0.72071600  0.22270100  0.49293400  1
  O  O43  1  0.72071600  0.49293400  0.22270100  1
  O  O44  1  0.27928400  0.50706600  0.77729900  1
  O  O45  1  0.31831800  0.76019600  0.76019600  1
  O  O46  1  0.68168200  0.23980400  0.23980400  1
