# generated using pymatgen
data_BaEu2CuO5
_symmetry_space_group_name_H-M   'P 1'
_cell_length_a   5.80514300
_cell_length_b   12.47098800
_cell_length_c   7.48190000
_cell_angle_alpha   90.00000000
_cell_angle_beta   90.00000000
_cell_angle_gamma   90.00000000
_symmetry_Int_Tables_number   1
_chemical_formula_structural   BaEu2CuO5
_chemical_formula_sum   'Ba4 Eu8 Cu4 O20'
_cell_volume   541.65864996
_cell_formula_units_Z   4
loop_
 _symmetry_equiv_pos_site_id
 _symmetry_equiv_pos_as_xyz
  1  'x, y, z'
loop_
 _atom_site_type_symbol
 _atom_site_label
 _atom_site_symmetry_multiplicity
 _atom_site_fract_x
 _atom_site_fract_y
 _atom_site_fract_z
 _atom_site_occupancy
  Ba  Ba0  1  0.75000000  0.59494300  0.93110400  1
  Ba  Ba1  1  0.25000000  0.40505700  0.06889600  1
  Ba  Ba2  1  0.25000000  0.90505700  0.43110400  1
  Ba  Ba3  1  0.75000000  0.09494300  0.56889600  1
  Eu  Eu4  1  0.75000000  0.42695300  0.39076100  1
  Eu  Eu5  1  0.25000000  0.57304700  0.60923900  1
  Eu  Eu6  1  0.25000000  0.07304700  0.89076100  1
  Eu  Eu7  1  0.75000000  0.92695300  0.10923900  1
  Eu  Eu8  1  0.75000000  0.71382500  0.38598500  1
  Eu  Eu9  1  0.25000000  0.28617500  0.61401500  1
  Eu  Eu10  1  0.25000000  0.78617500  0.88598500  1
  Eu  Eu11  1  0.75000000  0.21382500  0.11401500  1
  Cu  Cu12  1  0.75000000  0.83904100  0.71887400  1
  Cu  Cu13  1  0.25000000  0.16095900  0.28112600  1
  Cu  Cu14  1  0.25000000  0.66095900  0.21887400  1
  Cu  Cu15  1  0.75000000  0.33904100  0.78112600  1
  O  O16  1  0.98676100  0.73272600  0.64950800  1
  O  O17  1  0.01323900  0.26727400  0.35049200  1
  O  O18  1  0.01323900  0.76727400  0.14950800  1
  O  O19  1  0.48676100  0.26727400  0.35049200  1
  O  O20  1  0.98676100  0.23272600  0.85049200  1
  O  O21  1  0.51323900  0.73272600  0.64950800  1
  O  O22  1  0.51323900  0.23272600  0.85049200  1
  O  O23  1  0.48676100  0.76727400  0.14950800  1
  O  O24  1  0.75000000  0.90276400  0.42187500  1
  O  O25  1  0.25000000  0.09723600  0.57812500  1
  O  O26  1  0.25000000  0.59723600  0.92187500  1
  O  O27  1  0.75000000  0.40276400  0.07812500  1
  O  O28  1  0.98176100  0.93139900  0.82610300  1
  O  O29  1  0.01823900  0.06860100  0.17389700  1
  O  O30  1  0.01823900  0.56860100  0.32610300  1
  O  O31  1  0.48176100  0.06860100  0.17389700  1
  O  O32  1  0.98176100  0.43139900  0.67389700  1
  O  O33  1  0.51823900  0.93139900  0.82610300  1
  O  O34  1  0.51823900  0.43139900  0.67389700  1
  O  O35  1  0.48176100  0.56860100  0.32610300  1
