# generated using pymatgen
data_Ba2PrV3O11
_symmetry_space_group_name_H-M   'P 1'
_cell_length_a   7.87696000
_cell_length_b   12.58219753
_cell_length_c   11.47360310
_cell_angle_alpha   103.12684151
_cell_angle_beta   90.00000000
_cell_angle_gamma   90.00000000
_symmetry_Int_Tables_number   1
_chemical_formula_structural   Ba2PrV3O11
_chemical_formula_sum   'Ba8 Pr4 V12 O44'
_cell_volume   1107.42878206
_cell_formula_units_Z   4
loop_
 _symmetry_equiv_pos_site_id
 _symmetry_equiv_pos_as_xyz
  1  'x, y, z'
loop_
 _atom_site_type_symbol
 _atom_site_label
 _atom_site_symmetry_multiplicity
 _atom_site_fract_x
 _atom_site_fract_y
 _atom_site_fract_z
 _atom_site_occupancy
  Ba  Ba0  1  0.27411200  0.76442100  0.94111700  1
  Ba  Ba1  1  0.72588800  0.23557900  0.05888300  1
  Ba  Ba2  1  0.77411200  0.23557900  0.55888300  1
  Ba  Ba3  1  0.22588800  0.76442100  0.44111700  1
  Ba  Ba4  1  0.74729300  0.55375400  0.88926300  1
  Ba  Ba5  1  0.25270700  0.44624600  0.11073700  1
  Ba  Ba6  1  0.24729300  0.44624600  0.61073700  1
  Ba  Ba7  1  0.75270700  0.55375400  0.38926300  1
  Pr  Pr8  1  0.50077700  0.99770600  0.71071900  1
  Pr  Pr9  1  0.49922300  0.00229400  0.28928100  1
  Pr  Pr10  1  0.00077700  0.00229400  0.78928100  1
  Pr  Pr11  1  0.99922300  0.99770600  0.21071900  1
  V  V12  1  0.75046300  0.90346000  0.97546700  1
  V  V13  1  0.24953700  0.09654000  0.02453300  1
  V  V14  1  0.25046300  0.09654000  0.52453300  1
  V  V15  1  0.74953700  0.90346000  0.47546700  1
  V  V16  1  0.51997700  0.68238200  0.67360800  1
  V  V17  1  0.48002300  0.31761800  0.32639200  1
  V  V18  1  0.01997700  0.31761800  0.82639200  1
  V  V19  1  0.98002300  0.68238200  0.17360800  1
  V  V20  1  0.98044400  0.68574900  0.67003800  1
  V  V21  1  0.01955600  0.31425100  0.32996200  1
  V  V22  1  0.48044400  0.31425100  0.82996200  1
  V  V23  1  0.51955600  0.68574900  0.17003800  1
  O  O24  1  0.44192100  0.81399900  0.71961100  1
  O  O25  1  0.55807900  0.18600100  0.28038900  1
  O  O26  1  0.94192100  0.18600100  0.78038900  1
  O  O27  1  0.05807900  0.81399900  0.21961100  1
  O  O28  1  0.55237000  0.18155900  0.81039900  1
  O  O29  1  0.44763000  0.81844100  0.18960100  1
  O  O30  1  0.05237000  0.81844100  0.68960100  1
  O  O31  1  0.94763000  0.18155900  0.31039900  1
  O  O32  1  0.75024900  0.66708300  0.66752000  1
  O  O33  1  0.24975100  0.33291700  0.33248000  1
  O  O34  1  0.25024900  0.33291700  0.83248000  1
  O  O35  1  0.74975100  0.66708300  0.16752000  1
  O  O36  1  0.94553800  0.37557700  0.96569000  1
  O  O37  1  0.05446200  0.62442300  0.03431000  1
  O  O38  1  0.44553800  0.62442300  0.53431000  1
  O  O39  1  0.55446200  0.37557700  0.46569000  1
  O  O40  1  0.94271000  0.39374600  0.73209800  1
  O  O41  1  0.05729000  0.60625400  0.26790200  1
  O  O42  1  0.44271000  0.60625400  0.76790200  1
  O  O43  1  0.55729000  0.39374600  0.23209800  1
  O  O44  1  0.78610500  0.98562900  0.62097300  1
  O  O45  1  0.21389500  0.01437100  0.37902700  1
  O  O46  1  0.28610500  0.01437100  0.87902700  1
  O  O47  1  0.71389500  0.98562900  0.12097300  1
  O  O48  1  0.96869900  0.88190400  0.97284900  1
  O  O49  1  0.03130100  0.11809600  0.02715100  1
  O  O50  1  0.46869900  0.11809600  0.52715100  1
  O  O51  1  0.53130100  0.88190400  0.47284900  1
  O  O52  1  0.63742600  0.78528600  0.94651900  1
  O  O53  1  0.36257400  0.21471400  0.05348100  1
  O  O54  1  0.13742600  0.21471400  0.55348100  1
  O  O55  1  0.86257400  0.78528600  0.44651900  1
  O  O56  1  0.71615600  0.98226000  0.86717400  1
  O  O57  1  0.28384400  0.01774000  0.13282600  1
  O  O58  1  0.21615600  0.01774000  0.63282600  1
  O  O59  1  0.78384400  0.98226000  0.36717400  1
  O  O60  1  0.55812400  0.37060100  0.71954400  1
  O  O61  1  0.44187600  0.62939900  0.28045600  1
  O  O62  1  0.05812400  0.62939900  0.78045600  1
  O  O63  1  0.94187600  0.37060100  0.21954400  1
  O  O64  1  0.56159400  0.38891600  0.96169400  1
  O  O65  1  0.43840600  0.61108400  0.03830600  1
  O  O66  1  0.06159400  0.61108400  0.53830600  1
  O  O67  1  0.93840600  0.38891600  0.46169400  1
