# generated using pymatgen
data_BaPtO3
_symmetry_space_group_name_H-M   'P 1'
_cell_length_a   5.86578627
_cell_length_b   5.86578627
_cell_length_c   34.99641100
_cell_angle_alpha   90.00000000
_cell_angle_beta   90.00000000
_cell_angle_gamma   120.00000304
_symmetry_Int_Tables_number   1
_chemical_formula_structural   BaPtO3
_chemical_formula_sum   'Ba14 Pt14 O42'
_cell_volume   1042.81338257
_cell_formula_units_Z   14
loop_
 _symmetry_equiv_pos_site_id
 _symmetry_equiv_pos_as_xyz
  1  'x, y, z'
loop_
 _atom_site_type_symbol
 _atom_site_label
 _atom_site_symmetry_multiplicity
 _atom_site_fract_x
 _atom_site_fract_y
 _atom_site_fract_z
 _atom_site_occupancy
  Ba  Ba0  1  0.00000000  0.00000000  0.89386400  1
  Ba  Ba1  1  0.00000000  0.00000000  0.10613600  1
  Ba  Ba2  1  0.00000000  0.00000000  0.39386400  1
  Ba  Ba3  1  0.00000000  0.00000000  0.60613600  1
  Ba  Ba4  1  0.66666700  0.33333300  0.81805500  1
  Ba  Ba5  1  0.33333300  0.66666700  0.18194500  1
  Ba  Ba6  1  0.33333300  0.66666700  0.31805500  1
  Ba  Ba7  1  0.66666700  0.33333300  0.68194500  1
  Ba  Ba8  1  0.66666700  0.33333300  0.25000000  1
  Ba  Ba9  1  0.33333300  0.66666700  0.75000000  1
  Ba  Ba10  1  0.66666700  0.33333300  0.95827200  1
  Ba  Ba11  1  0.33333300  0.66666700  0.04172800  1
  Ba  Ba12  1  0.33333300  0.66666700  0.45827200  1
  Ba  Ba13  1  0.66666700  0.33333300  0.54172800  1
  Pt  Pt14  1  0.00000000  0.00000000  0.79011900  1
  Pt  Pt15  1  0.00000000  0.00000000  0.20988100  1
  Pt  Pt16  1  0.00000000  0.00000000  0.29011900  1
  Pt  Pt17  1  0.00000000  0.00000000  0.70988100  1
  Pt  Pt18  1  0.00000000  0.00000000  0.00000000  1
  Pt  Pt19  1  0.00000000  0.00000000  0.50000000  1
  Pt  Pt20  1  0.66666700  0.33333300  0.43620400  1
  Pt  Pt21  1  0.33333300  0.66666700  0.56379600  1
  Pt  Pt22  1  0.33333300  0.66666700  0.93620400  1
  Pt  Pt23  1  0.66666700  0.33333300  0.06379600  1
  Pt  Pt24  1  0.66666700  0.33333300  0.35644400  1
  Pt  Pt25  1  0.33333300  0.66666700  0.64355600  1
  Pt  Pt26  1  0.33333300  0.66666700  0.85644400  1
  Pt  Pt27  1  0.66666700  0.33333300  0.14355600  1
  O  O28  1  0.82063800  0.17936200  0.31712500  1
  O  O29  1  0.17936200  0.82063800  0.68287500  1
  O  O30  1  0.35872300  0.17936200  0.31712500  1
  O  O31  1  0.17936200  0.82063800  0.81712500  1
  O  O32  1  0.64127700  0.82063800  0.68287500  1
  O  O33  1  0.82063800  0.17936200  0.18287500  1
  O  O34  1  0.82063800  0.64127700  0.31712500  1
  O  O35  1  0.64127700  0.82063800  0.81712500  1
  O  O36  1  0.17936200  0.35872300  0.68287500  1
  O  O37  1  0.35872300  0.17936200  0.18287500  1
  O  O38  1  0.17936200  0.35872300  0.81712500  1
  O  O39  1  0.82063800  0.64127700  0.18287500  1
  O  O40  1  0.85206400  0.14793600  0.75000000  1
  O  O41  1  0.14793600  0.85206400  0.25000000  1
  O  O42  1  0.29587100  0.14793600  0.75000000  1
  O  O43  1  0.70412900  0.85206400  0.25000000  1
  O  O44  1  0.85206400  0.70412900  0.75000000  1
  O  O45  1  0.14793600  0.29587100  0.25000000  1
  O  O46  1  0.48314200  0.51685800  0.89560400  1
  O  O47  1  0.51685800  0.48314200  0.10439600  1
  O  O48  1  0.03371600  0.51685800  0.89560400  1
  O  O49  1  0.51685800  0.48314200  0.39560400  1
  O  O50  1  0.96628400  0.48314200  0.10439600  1
  O  O51  1  0.48314200  0.51685800  0.60439600  1
  O  O52  1  0.48314200  0.96628400  0.89560400  1
  O  O53  1  0.96628400  0.48314200  0.39560400  1
  O  O54  1  0.51685800  0.03371600  0.10439600  1
  O  O55  1  0.03371600  0.51685800  0.60439600  1
  O  O56  1  0.51685800  0.03371600  0.39560400  1
  O  O57  1  0.48314200  0.96628400  0.60439600  1
  O  O58  1  0.84898900  0.15101100  0.46048600  1
  O  O59  1  0.15101100  0.84898900  0.53951400  1
  O  O60  1  0.30202100  0.15101100  0.46048600  1
  O  O61  1  0.15101100  0.84898900  0.96048600  1
  O  O62  1  0.69797900  0.84898900  0.53951400  1
  O  O63  1  0.84898900  0.15101100  0.03951400  1
  O  O64  1  0.84898900  0.69797900  0.46048600  1
  O  O65  1  0.69797900  0.84898900  0.96048600  1
  O  O66  1  0.15101100  0.30202100  0.53951400  1
  O  O67  1  0.30202100  0.15101100  0.03951400  1
  O  O68  1  0.15101100  0.30202100  0.96048600  1
  O  O69  1  0.84898900  0.69797900  0.03951400  1
