# generated using pymatgen
data_Be2AsO9
_symmetry_space_group_name_H-M   'P 1'
_cell_length_a   7.60943787
_cell_length_b   7.13537832
_cell_length_c   13.12719600
_cell_angle_alpha   90.00000000
_cell_angle_beta   90.00000000
_cell_angle_gamma   94.42753327
_symmetry_Int_Tables_number   1
_chemical_formula_structural   Be2AsO9
_chemical_formula_sum   'Be8 As4 O36'
_cell_volume   710.63006514
_cell_formula_units_Z   4
loop_
 _symmetry_equiv_pos_site_id
 _symmetry_equiv_pos_as_xyz
  1  'x, y, z'
loop_
 _atom_site_type_symbol
 _atom_site_label
 _atom_site_symmetry_multiplicity
 _atom_site_fract_x
 _atom_site_fract_y
 _atom_site_fract_z
 _atom_site_occupancy
  Be  Be0  1  0.39400100  0.11141500  0.13443000  1
  Be  Be1  1  0.60599900  0.88858500  0.86557000  1
  Be  Be2  1  0.10599900  0.88858500  0.63443000  1
  Be  Be3  1  0.89400100  0.11141500  0.36557000  1
  Be  Be4  1  0.09078100  0.39306300  0.14425100  1
  Be  Be5  1  0.90921900  0.60693700  0.85574900  1
  Be  Be6  1  0.40921900  0.60693700  0.64425100  1
  Be  Be7  1  0.59078100  0.39306300  0.35574900  1
  As  As8  1  0.24766000  0.21333900  0.32760900  1
  As  As9  1  0.75234000  0.78666100  0.67239100  1
  As  As10  1  0.25234000  0.78666100  0.82760900  1
  As  As11  1  0.74766000  0.21333900  0.17239100  1
  O  O12  1  0.98044400  0.67817500  0.26759900  1
  O  O13  1  0.01955600  0.32182500  0.73240100  1
  O  O14  1  0.51955600  0.32182500  0.76759900  1
  O  O15  1  0.48044400  0.67817500  0.23240100  1
  O  O16  1  0.34001500  0.05724600  0.24724500  1
  O  O17  1  0.65998500  0.94275400  0.75275500  1
  O  O18  1  0.15998500  0.94275400  0.74724500  1
  O  O19  1  0.84001500  0.05724600  0.25275500  1
  O  O20  1  0.26435700  0.28883600  0.08675000  1
  O  O21  1  0.73564300  0.71116400  0.91325000  1
  O  O22  1  0.23564300  0.71116400  0.58675000  1
  O  O23  1  0.76435700  0.28883600  0.41325000  1
  O  O24  1  0.14609800  0.38049300  0.25888500  1
  O  O25  1  0.85390200  0.61950600  0.74111500  1
  O  O26  1  0.35390200  0.61950600  0.75888500  1
  O  O27  1  0.64609800  0.38049300  0.24111500  1
  O  O28  1  0.12703200  0.63890800  0.12309300  1
  O  O29  1  0.87296800  0.36109200  0.87690700  1
  O  O30  1  0.37296800  0.36109200  0.62309300  1
  O  O31  1  0.62703200  0.63890800  0.37690700  1
  O  O32  1  0.08693800  0.10573600  0.40375000  1
  O  O33  1  0.91306200  0.89426400  0.59625000  1
  O  O34  1  0.41306200  0.89426400  0.90375000  1
  O  O35  1  0.58693800  0.10573600  0.09625000  1
  O  O36  1  0.40895500  0.32208900  0.40169400  1
  O  O37  1  0.59104500  0.67791100  0.59830600  1
  O  O38  1  0.09104500  0.67791100  0.90169400  1
  O  O39  1  0.90895500  0.32208900  0.09830600  1
  O  O40  1  0.27878600  0.89262400  0.55575500  1
  O  O41  1  0.72121400  0.10737600  0.44424500  1
  O  O42  1  0.22121400  0.10737600  0.05575500  1
  O  O43  1  0.77878600  0.89262400  0.94424500  1
  O  O44  1  0.92826500  0.24810900  0.80370000  1
  O  O45  1  0.07173500  0.75189100  0.19630000  1
  O  O46  1  0.57173500  0.75189100  0.30370000  1
  O  O47  1  0.42826500  0.24810900  0.69630000  1
