# generated using pymatgen
data_Ba4Zn11Ge12
_symmetry_space_group_name_H-M   'P 1'
_cell_length_a   10.88664100
_cell_length_b   10.88664100
_cell_length_c   10.88664100
_cell_angle_alpha   90.00000000
_cell_angle_beta   90.00000000
_cell_angle_gamma   90.00000000
_symmetry_Int_Tables_number   1
_chemical_formula_structural   Ba4Zn11Ge12
_chemical_formula_sum   'Ba8 Zn22 Ge24'
_cell_volume   1290.27328498
_cell_formula_units_Z   2
loop_
 _symmetry_equiv_pos_site_id
 _symmetry_equiv_pos_as_xyz
  1  'x, y, z'
loop_
 _atom_site_type_symbol
 _atom_site_label
 _atom_site_symmetry_multiplicity
 _atom_site_fract_x
 _atom_site_fract_y
 _atom_site_fract_z
 _atom_site_occupancy
  Ba  Ba0  1  0.25000000  0.00000000  0.50000000  1
  Ba  Ba1  1  0.75000000  0.00000000  0.50000000  1
  Ba  Ba2  1  0.50000000  0.25000000  0.00000000  1
  Ba  Ba3  1  0.50000000  0.75000000  0.00000000  1
  Ba  Ba4  1  0.00000000  0.50000000  0.25000000  1
  Ba  Ba5  1  0.00000000  0.50000000  0.75000000  1
  Ba  Ba6  1  0.00000000  0.00000000  0.00000000  1
  Ba  Ba7  1  0.50000000  0.50000000  0.50000000  1
  Zn  Zn8  1  0.25000000  0.50000000  0.00000000  1
  Zn  Zn9  1  0.75000000  0.50000000  0.00000000  1
  Zn  Zn10  1  0.00000000  0.25000000  0.50000000  1
  Zn  Zn11  1  0.00000000  0.75000000  0.50000000  1
  Zn  Zn12  1  0.50000000  0.00000000  0.25000000  1
  Zn  Zn13  1  0.50000000  0.00000000  0.75000000  1
  Zn  Zn14  1  0.18184300  0.18184300  0.18184300  1
  Zn  Zn15  1  0.81815700  0.81815700  0.81815700  1
  Zn  Zn16  1  0.81815700  0.81815700  0.18184300  1
  Zn  Zn17  1  0.81815700  0.18184300  0.81815700  1
  Zn  Zn18  1  0.68184300  0.68184300  0.31815700  1
  Zn  Zn19  1  0.18184300  0.18184300  0.81815700  1
  Zn  Zn20  1  0.18184300  0.81815700  0.18184300  1
  Zn  Zn21  1  0.31815700  0.31815700  0.68184300  1
  Zn  Zn22  1  0.18184300  0.81815700  0.81815700  1
  Zn  Zn23  1  0.31815700  0.31815700  0.31815700  1
  Zn  Zn24  1  0.81815700  0.18184300  0.18184300  1
  Zn  Zn25  1  0.68184300  0.68184300  0.68184300  1
  Zn  Zn26  1  0.68184300  0.31815700  0.68184300  1
  Zn  Zn27  1  0.31815700  0.68184300  0.31815700  1
  Zn  Zn28  1  0.31815700  0.68184300  0.68184300  1
  Zn  Zn29  1  0.68184300  0.31815700  0.31815700  1
  Ge  Ge30  1  0.00000000  0.11364400  0.31361700  1
  Ge  Ge31  1  0.00000000  0.88635600  0.68638300  1
  Ge  Ge32  1  0.00000000  0.88635600  0.31361700  1
  Ge  Ge33  1  0.00000000  0.11364400  0.68638300  1
  Ge  Ge34  1  0.31361700  0.00000000  0.11364400  1
  Ge  Ge35  1  0.61364400  0.50000000  0.18638300  1
  Ge  Ge36  1  0.68638300  0.00000000  0.88635600  1
  Ge  Ge37  1  0.38635600  0.50000000  0.81361700  1
  Ge  Ge38  1  0.31361700  0.00000000  0.88635600  1
  Ge  Ge39  1  0.38635600  0.50000000  0.18638300  1
  Ge  Ge40  1  0.68638300  0.00000000  0.11364400  1
  Ge  Ge41  1  0.61364400  0.50000000  0.81361700  1
  Ge  Ge42  1  0.11364400  0.31361700  0.00000000  1
  Ge  Ge43  1  0.50000000  0.81361700  0.38635600  1
  Ge  Ge44  1  0.88635600  0.68638300  0.00000000  1
  Ge  Ge45  1  0.50000000  0.18638300  0.61364400  1
  Ge  Ge46  1  0.11364400  0.68638300  0.00000000  1
  Ge  Ge47  1  0.50000000  0.18638300  0.38635600  1
  Ge  Ge48  1  0.88635600  0.31361700  0.00000000  1
  Ge  Ge49  1  0.50000000  0.81361700  0.61364400  1
  Ge  Ge50  1  0.18638300  0.61364400  0.50000000  1
  Ge  Ge51  1  0.81361700  0.38635600  0.50000000  1
  Ge  Ge52  1  0.18638300  0.38635600  0.50000000  1
  Ge  Ge53  1  0.81361700  0.61364400  0.50000000  1
