# generated using pymatgen
data_C4N3
_symmetry_space_group_name_H-M   'P 1'
_cell_length_a   10.87457000
_cell_length_b   13.11138900
_cell_length_c   13.93991100
_cell_angle_alpha   90.00000000
_cell_angle_beta   90.00000000
_cell_angle_gamma   90.00000000
_symmetry_Int_Tables_number   1
_chemical_formula_structural   C4N3
_chemical_formula_sum   'C64 N48'
_cell_volume   1987.56251196
_cell_formula_units_Z   16
loop_
 _symmetry_equiv_pos_site_id
 _symmetry_equiv_pos_as_xyz
  1  'x, y, z'
loop_
 _atom_site_type_symbol
 _atom_site_label
 _atom_site_symmetry_multiplicity
 _atom_site_fract_x
 _atom_site_fract_y
 _atom_site_fract_z
 _atom_site_occupancy
  C  C0  1  0.09455900  0.08819800  0.18413300  1
  C  C1  1  0.90544100  0.91180200  0.81586700  1
  C  C2  1  0.40544100  0.91180200  0.68413300  1
  C  C3  1  0.90544100  0.58819800  0.31586700  1
  C  C4  1  0.59455900  0.08819800  0.31586700  1
  C  C5  1  0.09455900  0.41180200  0.68413300  1
  C  C6  1  0.59455900  0.41180200  0.81586700  1
  C  C7  1  0.40544100  0.58819800  0.18413300  1
  C  C8  1  0.20094500  0.06854600  0.04462700  1
  C  C9  1  0.79905500  0.93145400  0.95537300  1
  C  C10  1  0.29905500  0.93145400  0.54462700  1
  C  C11  1  0.79905500  0.56854600  0.45537300  1
  C  C12  1  0.70094500  0.06854600  0.45537300  1
  C  C13  1  0.20094500  0.43145400  0.54462700  1
  C  C14  1  0.70094500  0.43145400  0.95537300  1
  C  C15  1  0.29905500  0.56854600  0.04462700  1
  C  C16  1  0.22706400  0.49384300  0.46281800  1
  C  C17  1  0.77293600  0.50615700  0.53718200  1
  C  C18  1  0.27293600  0.50615700  0.96281800  1
  C  C19  1  0.77293600  0.99384300  0.03718200  1
  C  C20  1  0.72706400  0.49384300  0.03718200  1
  C  C21  1  0.22706400  0.00615700  0.96281800  1
  C  C22  1  0.72706400  0.00615700  0.53718200  1
  C  C23  1  0.27293600  0.99384300  0.46281800  1
  C  C24  1  0.12729200  0.24586600  0.28124800  1
  C  C25  1  0.87270800  0.75413400  0.71875200  1
  C  C26  1  0.37270800  0.75413400  0.78124800  1
  C  C27  1  0.87270800  0.74586600  0.21875200  1
  C  C28  1  0.62729200  0.24586600  0.21875200  1
  C  C29  1  0.12729200  0.25413400  0.78124800  1
  C  C30  1  0.62729200  0.25413400  0.71875200  1
  C  C31  1  0.37270800  0.74586600  0.28124800  1
  C  C32  1  0.35413600  0.29952800  0.49645100  1
  C  C33  1  0.64586400  0.70047200  0.50354900  1
  C  C34  1  0.14586400  0.70047200  0.99645100  1
  C  C35  1  0.64586400  0.79952800  0.00354900  1
  C  C36  1  0.85413600  0.29952800  0.00354900  1
  C  C37  1  0.35413600  0.20047200  0.99645100  1
  C  C38  1  0.85413600  0.20047200  0.50354900  1
  C  C39  1  0.14586400  0.79952800  0.49645100  1
  C  C40  1  0.15367900  0.18362200  0.19930500  1
  C  C41  1  0.84632100  0.81637800  0.80069500  1
  C  C42  1  0.34632100  0.81637800  0.69930500  1
  C  C43  1  0.84632100  0.68362200  0.30069500  1
  C  C44  1  0.65367900  0.18362200  0.30069500  1
  C  C45  1  0.15367900  0.31637800  0.69930500  1
  C  C46  1  0.65367900  0.31637800  0.80069500  1
  C  C47  1  0.34632100  0.68362200  0.19930500  1
  C  C48  1  0.50731200  0.04801900  0.24877100  1
  C  C49  1  0.49268800  0.95198100  0.75122900  1
  C  C50  1  0.99268800  0.95198100  0.74877100  1
  C  C51  1  0.49268800  0.54801900  0.25122900  1
  C  C52  1  0.00731200  0.04801900  0.25122900  1
  C  C53  1  0.50731200  0.45198100  0.74877100  1
  C  C54  1  0.00731200  0.45198100  0.75122900  1
  C  C55  1  0.99268800  0.54801900  0.24877100  1
  C  C56  1  0.26199500  0.16288600  0.06080000  1
  C  C57  1  0.73800500  0.83711400  0.93920000  1
  C  C58  1  0.23800500  0.83711400  0.56080000  1
  C  C59  1  0.73800500  0.66288600  0.43920000  1
  C  C60  1  0.76199500  0.16288600  0.43920000  1
  C  C61  1  0.26199500  0.33711400  0.56080000  1
  C  C62  1  0.76199500  0.33711400  0.93920000  1
  C  C63  1  0.23800500  0.66288600  0.06080000  1
  N  N64  1  0.43024600  0.26903800  0.44483700  1
  N  N65  1  0.56975400  0.73096200  0.55516300  1
  N  N66  1  0.06975400  0.73096200  0.94483700  1
  N  N67  1  0.56975400  0.76903800  0.05516300  1
  N  N68  1  0.93024600  0.26903800  0.05516300  1
  N  N69  1  0.43024600  0.23096200  0.94483700  1
  N  N70  1  0.93024600  0.23096200  0.55516300  1
  N  N71  1  0.06975400  0.76903800  0.44483700  1
  N  N72  1  0.11790600  0.03197700  0.10631900  1
  N  N73  1  0.88209400  0.96802300  0.89368100  1
  N  N74  1  0.38209400  0.96802300  0.60631900  1
  N  N75  1  0.88209400  0.53197700  0.39368100  1
  N  N76  1  0.61790600  0.03197700  0.39368100  1
  N  N77  1  0.11790600  0.46802300  0.60631900  1
  N  N78  1  0.61790600  0.46802300  0.89368100  1
  N  N79  1  0.38209400  0.53197700  0.10631900  1
  N  N80  1  0.43571900  0.01585500  0.19417900  1
  N  N81  1  0.56428100  0.98414500  0.80582100  1
  N  N82  1  0.06428100  0.98414500  0.69417900  1
  N  N83  1  0.56428100  0.51585500  0.30582100  1
  N  N84  1  0.93571900  0.01585500  0.30582100  1
  N  N85  1  0.43571900  0.48414500  0.69417900  1
  N  N86  1  0.93571900  0.48414500  0.80582100  1
  N  N87  1  0.06428100  0.51585500  0.19417900  1
  N  N88  1  0.23712700  0.22000600  0.13779100  1
  N  N89  1  0.76287300  0.77999400  0.86220900  1
  N  N90  1  0.26287300  0.77999400  0.63779100  1
  N  N91  1  0.76287300  0.72000600  0.36220900  1
  N  N92  1  0.73712700  0.22000600  0.36220900  1
  N  N93  1  0.23712700  0.27999400  0.63779100  1
  N  N94  1  0.73712700  0.27999400  0.86220900  1
  N  N95  1  0.26287300  0.72000600  0.13779100  1
  N  N96  1  0.10554100  0.29594300  0.34820100  1
  N  N97  1  0.89445900  0.70405700  0.65179900  1
  N  N98  1  0.39445900  0.70405700  0.84820100  1
  N  N99  1  0.89445900  0.79594300  0.15179900  1
  N  N100  1  0.60554100  0.29594300  0.15179900  1
  N  N101  1  0.10554100  0.20405700  0.84820100  1
  N  N102  1  0.60554100  0.20405700  0.65179900  1
  N  N103  1  0.39445900  0.79594300  0.34820100  1
  N  N104  1  0.24920600  0.04534000  0.39710700  1
  N  N105  1  0.75079400  0.95466000  0.60289300  1
  N  N106  1  0.25079400  0.95466000  0.89710700  1
  N  N107  1  0.75079400  0.54534000  0.10289300  1
  N  N108  1  0.74920600  0.04534000  0.10289300  1
  N  N109  1  0.24920600  0.45466000  0.89710700  1
  N  N110  1  0.74920600  0.45466000  0.60289300  1
  N  N111  1  0.25079400  0.54534000  0.39710700  1
