# generated using pymatgen
data_Ba2CrF6
_symmetry_space_group_name_H-M   'P 1'
_cell_length_a   8.62355349
_cell_length_b   8.62355349
_cell_length_c   6.07900900
_cell_angle_alpha   90.00000000
_cell_angle_beta   90.00000000
_cell_angle_gamma   138.38510104
_symmetry_Int_Tables_number   1
_chemical_formula_structural   Ba2CrF6
_chemical_formula_sum   'Ba4 Cr2 F12'
_cell_volume   300.22875808
_cell_formula_units_Z   2
loop_
 _symmetry_equiv_pos_site_id
 _symmetry_equiv_pos_as_xyz
  1  'x, y, z'
loop_
 _atom_site_type_symbol
 _atom_site_label
 _atom_site_symmetry_multiplicity
 _atom_site_fract_x
 _atom_site_fract_y
 _atom_site_fract_z
 _atom_site_occupancy
  Ba  Ba0  1  0.15403800  0.84596200  0.50000000  1
  Ba  Ba1  1  0.84596200  0.15403800  0.50000000  1
  Ba  Ba2  1  0.34596200  0.65403800  0.00000000  1
  Ba  Ba3  1  0.65403800  0.34596200  0.00000000  1
  Cr  Cr4  1  0.50000000  0.50000000  0.50000000  1
  Cr  Cr5  1  0.00000000  0.00000000  0.00000000  1
  F  F6  1  0.37476300  0.62523700  0.50000000  1
  F  F7  1  0.62523700  0.37476300  0.50000000  1
  F  F8  1  0.12523700  0.87476300  0.00000000  1
  F  F9  1  0.87476300  0.12523700  0.00000000  1
  F  F10  1  0.73713400  0.73713400  0.73067400  1
  F  F11  1  0.26286600  0.26286600  0.26932600  1
  F  F12  1  0.76286600  0.76286600  0.23067400  1
  F  F13  1  0.23713400  0.23713400  0.76932600  1
  F  F14  1  0.49908800  0.99908800  0.75000000  1
  F  F15  1  0.50091200  0.00091200  0.25000000  1
  F  F16  1  0.00091200  0.50091200  0.25000000  1
  F  F17  1  0.99908800  0.49908800  0.75000000  1
