# generated using pymatgen
data_BaU3W3(SeO7)2
_symmetry_space_group_name_H-M   'P 1'
_cell_length_a   7.16978000
_cell_length_b   7.47342200
_cell_length_c   17.21890800
_cell_angle_alpha   90.00000000
_cell_angle_beta   90.00000000
_cell_angle_gamma   90.00000000
_symmetry_Int_Tables_number   1
_chemical_formula_structural   BaU3W3(SeO7)2
_chemical_formula_sum   'Ba2 U6 W6 Se4 O28'
_cell_volume   922.63715872
_cell_formula_units_Z   2
loop_
 _symmetry_equiv_pos_site_id
 _symmetry_equiv_pos_as_xyz
  1  'x, y, z'
loop_
 _atom_site_type_symbol
 _atom_site_label
 _atom_site_symmetry_multiplicity
 _atom_site_fract_x
 _atom_site_fract_y
 _atom_site_fract_z
 _atom_site_occupancy
  Ba  Ba0  1  0.32976400  0.42564400  0.00000000  1
  Ba  Ba1  1  0.82976400  0.57435600  0.50000000  1
  U  U2  1  0.97232000  0.89040600  0.00000000  1
  U  U3  1  0.47232000  0.10959400  0.50000000  1
  U  U4  1  0.47195600  0.89923600  0.89514100  1
  U  U5  1  0.97195600  0.10076400  0.60485900  1
  U  U6  1  0.97195600  0.10076400  0.39514100  1
  U  U7  1  0.47195600  0.89923600  0.10485900  1
  W  W8  1  0.56501100  0.63726700  0.70689600  1
  W  W9  1  0.06501100  0.36273300  0.79310400  1
  W  W10  1  0.06501100  0.36273300  0.20689600  1
  W  W11  1  0.56501100  0.63726700  0.29310400  1
  W  W12  1  0.83951100  0.37735200  0.00000000  1
  W  W13  1  0.33951100  0.62264800  0.50000000  1
  Se  Se14  1  0.96563300  0.87862000  0.79510100  1
  Se  Se15  1  0.46563300  0.12138000  0.70489900  1
  Se  Se16  1  0.46563300  0.12138000  0.29510100  1
  Se  Se17  1  0.96563300  0.87862000  0.20489900  1
  O  O18  1  0.14670200  0.86945000  0.86034000  1
  O  O19  1  0.64670200  0.13055000  0.63966000  1
  O  O20  1  0.64670200  0.13055000  0.36034000  1
  O  O21  1  0.14670200  0.86945000  0.13966000  1
  O  O22  1  0.95299900  0.61732300  0.00000000  1
  O  O23  1  0.45299900  0.38267700  0.50000000  1
  O  O24  1  0.49494800  0.64623900  0.88924000  1
  O  O25  1  0.99494800  0.35376100  0.61076000  1
  O  O26  1  0.99494800  0.35376100  0.38924000  1
  O  O27  1  0.49494800  0.64623900  0.11076000  1
  O  O28  1  0.28307300  0.85316700  0.00000000  1
  O  O29  1  0.78307300  0.14683300  0.50000000  1
  O  O30  1  0.94034200  0.84924700  0.60101300  1
  O  O31  1  0.44034200  0.15075300  0.89898700  1
  O  O32  1  0.44034200  0.15075300  0.10101300  1
  O  O33  1  0.94034200  0.84924700  0.39898700  1
  O  O34  1  0.66390800  0.90838800  0.00000000  1
  O  O35  1  0.16390800  0.09161200  0.50000000  1
  O  O36  1  0.49552000  0.90782800  0.75118700  1
  O  O37  1  0.99552000  0.09217200  0.74881300  1
  O  O38  1  0.99552000  0.09217200  0.25118700  1
  O  O39  1  0.49552000  0.90782800  0.24881300  1
  O  O40  1  0.00392900  0.16319700  0.00000000  1
  O  O41  1  0.50392900  0.83680300  0.50000000  1
  O  O42  1  0.80683500  0.92871300  0.86649200  1
  O  O43  1  0.30683500  0.07128700  0.63350800  1
  O  O44  1  0.30683500  0.07128700  0.36649200  1
  O  O45  1  0.80683500  0.92871300  0.13350800  1
