# generated using pymatgen
data_Ag3Pd13Pb6
_symmetry_space_group_name_H-M   'P 1'
_cell_length_a   9.11823152
_cell_length_b   9.11823152
_cell_length_c   17.15035400
_cell_angle_alpha   90.00000000
_cell_angle_beta   90.00000000
_cell_angle_gamma   119.99999655
_symmetry_Int_Tables_number   1
_chemical_formula_structural   Ag3Pd13Pb6
_chemical_formula_sum   'Ag9 Pd39 Pb18'
_cell_volume   1234.88059510
_cell_formula_units_Z   3
loop_
 _symmetry_equiv_pos_site_id
 _symmetry_equiv_pos_as_xyz
  1  'x, y, z'
loop_
 _atom_site_type_symbol
 _atom_site_label
 _atom_site_symmetry_multiplicity
 _atom_site_fract_x
 _atom_site_fract_y
 _atom_site_fract_z
 _atom_site_occupancy
  Ag  Ag0  1  0.49023300  0.00000000  0.33333300  1
  Ag  Ag1  1  0.00000000  0.49023300  0.66666700  1
  Ag  Ag2  1  0.50976700  0.50976700  0.00000000  1
  Ag  Ag3  1  0.18932500  0.30959000  0.57306300  1
  Ag  Ag4  1  0.69041000  0.87973500  0.90639700  1
  Ag  Ag5  1  0.30959000  0.18932500  0.42693700  1
  Ag  Ag6  1  0.12026500  0.81067500  0.23973000  1
  Ag  Ag7  1  0.87973500  0.69041000  0.09360300  1
  Ag  Ag8  1  0.81067500  0.12026500  0.76027000  1
  Pd  Pd9  1  0.16255300  0.34300300  0.73927400  1
  Pd  Pd10  1  0.65699700  0.81954900  0.07260800  1
  Pd  Pd11  1  0.34300300  0.16255300  0.26072600  1
  Pd  Pd12  1  0.18045100  0.83744700  0.40594100  1
  Pd  Pd13  1  0.81954900  0.65699700  0.92739200  1
  Pd  Pd14  1  0.83744700  0.18045100  0.59405900  1
  Pd  Pd15  1  0.48617900  0.00000000  0.83333300  1
  Pd  Pd16  1  0.00000000  0.48617900  0.16666700  1
  Pd  Pd17  1  0.51382100  0.51382100  0.50000000  1
  Pd  Pd18  1  0.34350200  0.18932000  0.92928000  1
  Pd  Pd19  1  0.81068000  0.15418100  0.26261400  1
  Pd  Pd20  1  0.18932000  0.34350200  0.07072000  1
  Pd  Pd21  1  0.84581900  0.65649800  0.59594700  1
  Pd  Pd22  1  0.15418100  0.81068000  0.73738600  1
  Pd  Pd23  1  0.65649800  0.84581900  0.40405300  1
  Pd  Pd24  1  0.01578000  0.00000000  0.83333300  1
  Pd  Pd25  1  0.00000000  0.01578000  0.16666700  1
  Pd  Pd26  1  0.98422000  0.98422000  0.50000000  1
  Pd  Pd27  1  0.49958900  0.00274100  0.66877800  1
  Pd  Pd28  1  0.99725900  0.49684800  0.00211200  1
  Pd  Pd29  1  0.00274100  0.49958900  0.33122200  1
  Pd  Pd30  1  0.50315200  0.50041100  0.33544500  1
  Pd  Pd31  1  0.49684800  0.99725900  0.99788800  1
  Pd  Pd32  1  0.50041100  0.50315200  0.66455500  1
  Pd  Pd33  1  0.31690000  0.66295300  0.58922400  1
  Pd  Pd34  1  0.33704700  0.65394700  0.92255800  1
  Pd  Pd35  1  0.66295300  0.31690000  0.41077600  1
  Pd  Pd36  1  0.34605300  0.68310000  0.25589100  1
  Pd  Pd37  1  0.65394700  0.33704700  0.07744200  1
  Pd  Pd38  1  0.68310000  0.34605300  0.74410900  1
  Pd  Pd39  1  0.00574500  0.50953100  0.83209000  1
  Pd  Pd40  1  0.49046900  0.49621400  0.16542300  1
  Pd  Pd41  1  0.50953100  0.00574500  0.16791000  1
  Pd  Pd42  1  0.50378600  0.99425500  0.49875700  1
  Pd  Pd43  1  0.49621400  0.49046900  0.83457700  1
  Pd  Pd44  1  0.99425500  0.50378600  0.50124300  1
  Pd  Pd45  1  0.00407700  0.00000000  0.33333300  1
  Pd  Pd46  1  0.00000000  0.00407700  0.66666700  1
  Pd  Pd47  1  0.99592300  0.99592300  0.00000000  1
  Pb  Pb48  1  0.61427600  0.30684000  0.57669800  1
  Pb  Pb49  1  0.69316000  0.30743600  0.91003200  1
  Pb  Pb50  1  0.30684000  0.61427600  0.42330200  1
  Pb  Pb51  1  0.69256400  0.38572400  0.24336500  1
  Pb  Pb52  1  0.30743600  0.69316000  0.08996800  1
  Pb  Pb53  1  0.38572400  0.69256400  0.75663500  1
  Pb  Pb54  1  0.11092600  0.30387400  0.90545200  1
  Pb  Pb55  1  0.69612600  0.80705200  0.23878500  1
  Pb  Pb56  1  0.30387400  0.11092600  0.09454800  1
  Pb  Pb57  1  0.19294800  0.88907400  0.57211800  1
  Pb  Pb58  1  0.80705200  0.69612600  0.76121500  1
  Pb  Pb59  1  0.88907400  0.19294800  0.42788200  1
  Pb  Pb60  1  0.33175200  0.16727700  0.75139100  1
  Pb  Pb61  1  0.83272300  0.16447500  0.08472500  1
  Pb  Pb62  1  0.16727700  0.33175200  0.24860900  1
  Pb  Pb63  1  0.83552500  0.66824800  0.41805800  1
  Pb  Pb64  1  0.16447500  0.83272300  0.91527500  1
  Pb  Pb65  1  0.66824800  0.83552500  0.58194200  1
