# generated using pymatgen
data_Al19Co6
_symmetry_space_group_name_H-M   'P 1'
_cell_length_a   8.57257349
_cell_length_b   8.57257349
_cell_length_c   12.41634863
_cell_angle_alpha   73.83826745
_cell_angle_beta   73.83826745
_cell_angle_gamma   56.28273893
_symmetry_Int_Tables_number   1
_chemical_formula_structural   Al19Co6
_chemical_formula_sum   'Al38 Co12'
_cell_volume   720.17057288
_cell_formula_units_Z   2
loop_
 _symmetry_equiv_pos_site_id
 _symmetry_equiv_pos_as_xyz
  1  'x, y, z'
loop_
 _atom_site_type_symbol
 _atom_site_label
 _atom_site_symmetry_multiplicity
 _atom_site_fract_x
 _atom_site_fract_y
 _atom_site_fract_z
 _atom_site_occupancy
  Al  Al0  1  0.23070400  0.77963800  0.32823600  1
  Al  Al1  1  0.76929600  0.22036200  0.67176400  1
  Al  Al2  1  0.22036200  0.76929600  0.67176400  1
  Al  Al3  1  0.77963800  0.23070400  0.32823600  1
  Al  Al4  1  0.57750300  0.57750300  0.42001100  1
  Al  Al5  1  0.42249800  0.42249800  0.57998900  1
  Al  Al6  1  0.73415700  0.73415700  0.47916200  1
  Al  Al7  1  0.26584300  0.26584300  0.52083800  1
  Al  Al8  1  0.54021800  0.09830000  0.33632400  1
  Al  Al9  1  0.45978200  0.90170000  0.66367600  1
  Al  Al10  1  0.90170000  0.45978200  0.66367600  1
  Al  Al11  1  0.09830000  0.54021800  0.33632400  1
  Al  Al12  1  0.74450300  0.74450300  0.02236000  1
  Al  Al13  1  0.25549700  0.25549700  0.97764000  1
  Al  Al14  1  0.97391100  0.97391100  0.16787300  1
  Al  Al15  1  0.02608900  0.02608900  0.83212700  1
  Al  Al16  1  0.59140700  0.59140700  0.21357800  1
  Al  Al17  1  0.40859300  0.40859300  0.78642200  1
  Al  Al18  1  0.67675000  0.06817700  0.52200000  1
  Al  Al19  1  0.32325000  0.93182300  0.47800000  1
  Al  Al20  1  0.93182300  0.32325000  0.47800000  1
  Al  Al21  1  0.06817700  0.67675000  0.52200000  1
  Al  Al22  1  0.83444600  0.83444600  0.72294100  1
  Al  Al23  1  0.16555400  0.16555400  0.27705900  1
  Al  Al24  1  0.34630700  0.91281900  0.10817500  1
  Al  Al25  1  0.65369300  0.08718100  0.89182500  1
  Al  Al26  1  0.08718100  0.65369300  0.89182500  1
  Al  Al27  1  0.91281900  0.34630700  0.10817500  1
  Al  Al28  1  0.74899800  0.25100200  0.00000000  1
  Al  Al29  1  0.25100200  0.74899800  0.00000000  1
  Al  Al30  1  0.43355200  0.43355200  0.17407200  1
  Al  Al31  1  0.56644800  0.56644800  0.82592800  1
  Al  Al32  1  0.78975100  0.78975100  0.23536300  1
  Al  Al33  1  0.21024900  0.21024900  0.76463700  1
  Al  Al34  1  0.53268200  0.09469800  0.11617300  1
  Al  Al35  1  0.46731800  0.90530200  0.88382700  1
  Al  Al36  1  0.90530200  0.46731800  0.88382700  1
  Al  Al37  1  0.09469800  0.53268200  0.11617300  1
  Co  Co38  1  0.41805900  0.41805900  0.38098700  1
  Co  Co39  1  0.58194100  0.58194100  0.61901300  1
  Co  Co40  1  0.59171000  0.59171000  0.01541300  1
  Co  Co41  1  0.40829000  0.40829000  0.98458700  1
  Co  Co42  1  0.89993300  0.89993300  0.01694400  1
  Co  Co43  1  0.10006700  0.10006700  0.98305600  1
  Co  Co44  1  0.89140700  0.89140700  0.36720200  1
  Co  Co45  1  0.10859300  0.10859300  0.63279800  1
  Co  Co46  1  0.45024200  0.89644900  0.28127200  1
  Co  Co47  1  0.54975800  0.10355100  0.71872800  1
  Co  Co48  1  0.10355100  0.54975800  0.71872800  1
  Co  Co49  1  0.89644900  0.45024200  0.28127200  1
