# generated using pymatgen
data_BC10XeF17
_symmetry_space_group_name_H-M   'P 1'
_cell_length_a   16.10399900
_cell_length_b   6.81024700
_cell_length_c   14.84810111
_cell_angle_alpha   80.41292330
_cell_angle_beta   90.00000000
_cell_angle_gamma   90.00000000
_symmetry_Int_Tables_number   1
_chemical_formula_structural   BC10XeF17
_chemical_formula_sum   'B4 C40 Xe4 F68'
_cell_volume   1605.68089895
_cell_formula_units_Z   4
loop_
 _symmetry_equiv_pos_site_id
 _symmetry_equiv_pos_as_xyz
  1  'x, y, z'
loop_
 _atom_site_type_symbol
 _atom_site_label
 _atom_site_symmetry_multiplicity
 _atom_site_fract_x
 _atom_site_fract_y
 _atom_site_fract_z
 _atom_site_occupancy
  B  B0  1  0.29762500  0.79854600  0.60201800  1
  B  B1  1  0.70237500  0.20145400  0.39798200  1
  B  B2  1  0.79762500  0.20145400  0.89798200  1
  B  B3  1  0.20237500  0.79854600  0.10201800  1
  C  C4  1  0.03214100  0.60545700  0.75439700  1
  C  C5  1  0.96785900  0.39454300  0.24560300  1
  C  C6  1  0.53214100  0.39454300  0.74560300  1
  C  C7  1  0.46785900  0.60545700  0.25439700  1
  C  C8  1  0.97250800  0.67132000  0.68787700  1
  C  C9  1  0.02749200  0.32868000  0.31212300  1
  C  C10  1  0.47250800  0.32868000  0.81212300  1
  C  C11  1  0.52749200  0.67132000  0.18787700  1
  C  C12  1  0.48947700  0.63087100  0.87699400  1
  C  C13  1  0.51052300  0.36912900  0.12300600  1
  C  C14  1  0.98947700  0.36912900  0.62300600  1
  C  C15  1  0.01052300  0.63087100  0.37699400  1
  C  C16  1  0.22591600  0.90154900  0.52990500  1
  C  C17  1  0.77408400  0.09845100  0.47009500  1
  C  C18  1  0.72591600  0.09845100  0.97009500  1
  C  C19  1  0.27408400  0.90154900  0.02990500  1
  C  C20  1  0.28228200  0.85597600  0.70416100  1
  C  C21  1  0.71771800  0.14402400  0.29583900  1
  C  C22  1  0.78228200  0.14402400  0.79583900  1
  C  C23  1  0.21771800  0.85597600  0.20416100  1
  C  C24  1  0.45104400  0.44719400  0.87651800  1
  C  C25  1  0.54895600  0.55280600  0.12348200  1
  C  C26  1  0.95104400  0.55280600  0.62348200  1
  C  C27  1  0.04895600  0.44719400  0.37651800  1
  C  C28  1  0.04944900  0.30148200  0.68851700  1
  C  C29  1  0.95055100  0.69851800  0.31148300  1
  C  C30  1  0.54944900  0.69851800  0.81148300  1
  C  C31  1  0.45055100  0.30148200  0.18851700  1
  C  C32  1  0.29304500  0.55478800  0.60941700  1
  C  C33  1  0.70695500  0.44521200  0.39058300  1
  C  C34  1  0.79304500  0.44521200  0.89058300  1
  C  C35  1  0.20695500  0.55478800  0.10941700  1
  C  C36  1  0.39005900  0.87744700  0.56439600  1
  C  C37  1  0.60994100  0.12255300  0.43560400  1
  C  C38  1  0.89005900  0.12255300  0.93560400  1
  C  C39  1  0.10994100  0.87744700  0.06439600  1
  C  C40  1  0.06971100  0.42236100  0.75185100  1
  C  C41  1  0.93028900  0.57763900  0.24814900  1
  C  C42  1  0.56971100  0.57763900  0.74814900  1
  C  C43  1  0.43028900  0.42236100  0.25185100  1
  Xe  Xe44  1  0.15811600  0.31042600  0.85391100  1
  Xe  Xe45  1  0.84188400  0.68957400  0.14608900  1
  Xe  Xe46  1  0.65811600  0.68957400  0.64608900  1
  Xe  Xe47  1  0.34188400  0.31042600  0.35391100  1
  F  F48  1  0.89144900  0.61413800  0.56217700  1
  F  F49  1  0.10855100  0.38586200  0.43782300  1
  F  F50  1  0.39144900  0.38586200  0.93782300  1
  F  F51  1  0.60855100  0.61413800  0.06217700  1
  F  F52  1  0.21534500  0.75645300  0.75022500  1
  F  F53  1  0.78465500  0.24354700  0.24977500  1
  F  F54  1  0.71534500  0.24354700  0.74977500  1
  F  F55  1  0.28465500  0.75645300  0.25022500  1
  F  F56  1  0.32868200  0.48569200  0.53612600  1
  F  F57  1  0.67131800  0.51430800  0.46387400  1
  F  F58  1  0.82868200  0.51430800  0.96387400  1
  F  F59  1  0.17131800  0.48569200  0.03612600  1
  F  F60  1  0.21293200  0.48066400  0.61440500  1
  F  F61  1  0.78706800  0.51933600  0.38559500  1
  F  F62  1  0.71293200  0.51933600  0.88559500  1
  F  F63  1  0.28706800  0.48066400  0.11440500  1
  F  F64  1  0.05009800  0.71342900  0.81910300  1
  F  F65  1  0.94990200  0.28657100  0.18089700  1
  F  F66  1  0.55009800  0.28657100  0.68089700  1
  F  F67  1  0.44990200  0.71342900  0.31910300  1
  F  F68  1  0.45479200  0.76132800  0.60544200  1
  F  F69  1  0.54520800  0.23867200  0.39455800  1
  F  F70  1  0.95479200  0.23867200  0.89455800  1
  F  F71  1  0.04520800  0.76132800  0.10544200  1
  F  F72  1  0.90830900  0.93190900  0.92272300  1
  F  F73  1  0.09169100  0.06809100  0.07727700  1
  F  F74  1  0.40830900  0.06809100  0.57727700  1
  F  F75  1  0.59169100  0.93190900  0.42272300  1
  F  F76  1  0.73802100  0.89247600  0.99788900  1
  F  F77  1  0.26197900  0.10752400  0.00211100  1
  F  F78  1  0.23802100  0.10752400  0.50211100  1
  F  F79  1  0.76197900  0.89247600  0.49788900  1
  F  F80  1  0.34881900  0.80935800  0.76223200  1
  F  F81  1  0.65118100  0.19064200  0.23776800  1
  F  F82  1  0.84881900  0.19064200  0.73776800  1
  F  F83  1  0.15118100  0.80935800  0.26223200  1
  F  F84  1  0.14662900  0.88632200  0.56389900  1
  F  F85  1  0.85337100  0.11367800  0.43610100  1
  F  F86  1  0.64662900  0.11367800  0.93610100  1
  F  F87  1  0.35337100  0.88632200  0.06389900  1
  F  F88  1  0.09934700  0.87847000  0.97189800  1
  F  F89  1  0.90065300  0.12153000  0.02810200  1
  F  F90  1  0.59934700  0.12153000  0.52810200  1
  F  F91  1  0.40065300  0.87847000  0.47189800  1
  F  F92  1  0.46803600  0.74333000  0.93923400  1
  F  F93  1  0.53196400  0.25667000  0.06076600  1
  F  F94  1  0.96803600  0.25667000  0.56076600  1
  F  F95  1  0.03196400  0.74333000  0.43923400  1
  F  F96  1  0.33264700  0.45224700  0.68546300  1
  F  F97  1  0.66735300  0.54775300  0.31453700  1
  F  F98  1  0.83264700  0.54775300  0.81453700  1
  F  F99  1  0.16735300  0.45224700  0.18546300  1
  F  F100  1  0.27692300  0.82636800  0.94967200  1
  F  F101  1  0.72307700  0.17363200  0.05032800  1
  F  F102  1  0.77692300  0.17363200  0.55032800  1
  F  F103  1  0.22307700  0.82636800  0.44967200  1
  F  F104  1  0.58520600  0.87633600  0.80978800  1
  F  F105  1  0.41479400  0.12366400  0.19021200  1
  F  F106  1  0.08520600  0.12366400  0.69021200  1
  F  F107  1  0.91479400  0.87633600  0.30978800  1
  F  F108  1  0.76660600  0.94585600  0.79558000  1
  F  F109  1  0.23339400  0.05414400  0.20442000  1
  F  F110  1  0.26660600  0.05414400  0.70442000  1
  F  F111  1  0.73339400  0.94585600  0.29558000  1
  F  F112  1  0.93400200  0.84582200  0.68762000  1
  F  F113  1  0.06599800  0.15417800  0.31238000  1
  F  F114  1  0.43400200  0.15417800  0.81238000  1
  F  F115  1  0.56599800  0.84582200  0.18762000  1
