# generated using pymatgen
data_Al3Co(PO4)4
_symmetry_space_group_name_H-M   'P 1'
_cell_length_a   8.88085384
_cell_length_b   8.88085384
_cell_length_c   28.55668698
_cell_angle_alpha   89.11698146
_cell_angle_beta   89.11698146
_cell_angle_gamma   109.35922224
_symmetry_Int_Tables_number   1
_chemical_formula_structural   Al3Co(PO4)4
_chemical_formula_sum   'Al12 Co4 P16 O64'
_cell_volume   2124.15337007
_cell_formula_units_Z   4
loop_
 _symmetry_equiv_pos_site_id
 _symmetry_equiv_pos_as_xyz
  1  'x, y, z'
loop_
 _atom_site_type_symbol
 _atom_site_label
 _atom_site_symmetry_multiplicity
 _atom_site_fract_x
 _atom_site_fract_y
 _atom_site_fract_z
 _atom_site_occupancy
  Al  Al0  1  0.16668200  0.11693200  0.69316600  1
  Al  Al1  1  0.83331800  0.88306800  0.30683400  1
  Al  Al2  1  0.88306800  0.83331800  0.80683400  1
  Al  Al3  1  0.11693200  0.16668200  0.19316600  1
  Al  Al4  1  0.34692200  0.35670800  0.55710100  1
  Al  Al5  1  0.65307800  0.64329200  0.44289900  1
  Al  Al6  1  0.64329200  0.65307800  0.94289900  1
  Al  Al7  1  0.35670800  0.34692200  0.05710100  1
  Al  Al8  1  0.71753800  0.97735100  0.61705800  1
  Al  Al9  1  0.28246200  0.02264900  0.38294200  1
  Al  Al10  1  0.02264900  0.28246200  0.88294200  1
  Al  Al11  1  0.97735100  0.71753800  0.11705800  1
  Co  Co12  1  0.49694900  0.20665900  0.86683200  1
  Co  Co13  1  0.50305100  0.79334100  0.13316800  1
  Co  Co14  1  0.79334100  0.50305100  0.63316800  1
  Co  Co15  1  0.20665900  0.49694900  0.36683200  1
  P  P16  1  0.71956900  0.97831800  0.88339700  1
  P  P17  1  0.28043100  0.02168200  0.11660300  1
  P  P18  1  0.02168200  0.28043100  0.61660300  1
  P  P19  1  0.97831800  0.71956900  0.38339700  1
  P  P20  1  0.18306200  0.13739400  0.80335300  1
  P  P21  1  0.81693800  0.86260600  0.19664700  1
  P  P22  1  0.86260600  0.81693800  0.69664700  1
  P  P23  1  0.13739400  0.18306200  0.30335300  1
  P  P24  1  0.64240700  0.67077800  0.55485700  1
  P  P25  1  0.35759300  0.32922200  0.44514300  1
  P  P26  1  0.32922200  0.35759300  0.94514300  1
  P  P27  1  0.67077800  0.64240700  0.05485700  1
  P  P28  1  0.48879500  0.18737800  0.63290100  1
  P  P29  1  0.51120500  0.81262200  0.36709900  1
  P  P30  1  0.81262200  0.51120500  0.86709900  1
  P  P31  1  0.18737800  0.48879500  0.13290100  1
  O  O32  1  0.60930300  0.33959700  0.65341600  1
  O  O33  1  0.39069700  0.66040300  0.34658400  1
  O  O34  1  0.66040300  0.39069700  0.84658400  1
  O  O35  1  0.33959700  0.60930300  0.15341600  1
  O  O36  1  0.18621400  0.18042000  0.75099700  1
  O  O37  1  0.81378600  0.81958000  0.24900300  1
  O  O38  1  0.81958000  0.81378600  0.74900300  1
  O  O39  1  0.18042000  0.18621400  0.25099700  1
  O  O40  1  0.75479200  0.91596800  0.83585000  1
  O  O41  1  0.24520800  0.08403200  0.16415000  1
  O  O42  1  0.08403200  0.24520800  0.66415000  1
  O  O43  1  0.91596800  0.75479200  0.33585000  1
  O  O44  1  0.91874400  0.03957500  0.18810200  1
  O  O45  1  0.08125600  0.96042500  0.81189800  1
  O  O46  1  0.96042500  0.08125600  0.31189800  1
  O  O47  1  0.03957500  0.91874400  0.68810200  1
  O  O48  1  0.34844400  0.12281200  0.66791500  1
  O  O49  1  0.65155600  0.87718800  0.33208500  1
  O  O50  1  0.87718800  0.65155600  0.83208500  1
  O  O51  1  0.12281200  0.34844400  0.16791500  1
  O  O52  1  0.65484300  0.83543800  0.57360100  1
  O  O53  1  0.34515700  0.16456200  0.42639900  1
  O  O54  1  0.16456200  0.34515700  0.92639900  1
  O  O55  1  0.83543800  0.65484300  0.07360100  1
  O  O56  1  0.58579200  0.05033600  0.87719700  1
  O  O57  1  0.41420800  0.94966400  0.12280300  1
  O  O58  1  0.94966400  0.41420800  0.62280300  1
  O  O59  1  0.05033600  0.58579200  0.37719700  1
  O  O60  1  0.75292800  0.88775000  0.66914200  1
  O  O61  1  0.24707200  0.11225000  0.33085800  1
  O  O62  1  0.11225000  0.24707200  0.83085800  1
  O  O63  1  0.88775000  0.75292800  0.16914200  1
  O  O64  1  0.56619400  0.05848600  0.62622200  1
  O  O65  1  0.43380600  0.94151400  0.37377800  1
  O  O66  1  0.94151400  0.43380600  0.87377800  1
  O  O67  1  0.05848600  0.56619400  0.12622200  1
  O  O68  1  0.66164400  0.84045200  0.91924400  1
  O  O69  1  0.33835600  0.15954800  0.08075600  1
  O  O70  1  0.15954800  0.33835600  0.58075600  1
  O  O71  1  0.84045200  0.66164400  0.41924400  1
  O  O72  1  0.35493000  0.16288300  0.81838500  1
  O  O73  1  0.64507000  0.83711700  0.18161500  1
  O  O74  1  0.83711700  0.64507000  0.68161500  1
  O  O75  1  0.16288300  0.35493000  0.31838500  1
  O  O76  1  0.42939900  0.22526100  0.58503700  1
  O  O77  1  0.57060100  0.77473900  0.41496300  1
  O  O78  1  0.77473900  0.57060100  0.91496300  1
  O  O79  1  0.22526100  0.42939900  0.08503700  1
  O  O80  1  0.47204100  0.55436700  0.56476800  1
  O  O81  1  0.52795900  0.44563300  0.43523200  1
  O  O82  1  0.44563300  0.52795900  0.93523200  1
  O  O83  1  0.55436700  0.47204100  0.06476800  1
  O  O84  1  0.67717500  0.68885000  0.50201600  1
  O  O85  1  0.32282500  0.31115000  0.49798400  1
  O  O86  1  0.31115000  0.32282500  0.99798400  1
  O  O87  1  0.68885000  0.67717500  0.00201600  1
  O  O88  1  0.39110200  0.23216900  0.92160000  1
  O  O89  1  0.60889800  0.76783100  0.07840000  1
  O  O90  1  0.76783100  0.60889800  0.57840000  1
  O  O91  1  0.23216900  0.39110200  0.42160000  1
  O  O92  1  0.87177500  0.10500900  0.90131900  1
  O  O93  1  0.12822500  0.89499100  0.09868100  1
  O  O94  1  0.89499100  0.12822500  0.59868100  1
  O  O95  1  0.10500900  0.87177500  0.40131900  1
