# generated using pymatgen
data_BaP3HNO9
_symmetry_space_group_name_H-M   'P 1'
_cell_length_a   7.54449842
_cell_length_b   12.84647679
_cell_length_c   12.38855600
_cell_angle_alpha   90.00000000
_cell_angle_beta   90.00000000
_cell_angle_gamma   69.90456592
_symmetry_Int_Tables_number   1
_chemical_formula_structural   BaP3HNO9
_chemical_formula_sum   'Ba4 P12 H4 N4 O36'
_cell_volume   1127.60487005
_cell_formula_units_Z   4
loop_
 _symmetry_equiv_pos_site_id
 _symmetry_equiv_pos_as_xyz
  1  'x, y, z'
loop_
 _atom_site_type_symbol
 _atom_site_label
 _atom_site_symmetry_multiplicity
 _atom_site_fract_x
 _atom_site_fract_y
 _atom_site_fract_z
 _atom_site_occupancy
  Ba  Ba0  1  0.73280300  0.63102600  0.57376300  1
  Ba  Ba1  1  0.26719700  0.36897400  0.42623700  1
  Ba  Ba2  1  0.76719700  0.86897400  0.07376300  1
  Ba  Ba3  1  0.23280300  0.13102600  0.92623700  1
  P  P4  1  0.73482000  0.57431600  0.15093500  1
  P  P5  1  0.26518000  0.42568400  0.84906500  1
  P  P6  1  0.76518000  0.92568400  0.65093500  1
  P  P7  1  0.23482000  0.07431600  0.34906500  1
  P  P8  1  0.50905000  0.85542900  0.33529700  1
  P  P9  1  0.49095000  0.14457100  0.66470300  1
  P  P10  1  0.99095000  0.64457100  0.83529700  1
  P  P11  1  0.00905000  0.35542900  0.16470300  1
  P  P12  1  0.24127000  0.93066200  0.16015500  1
  P  P13  1  0.75873000  0.06933800  0.83984500  1
  P  P14  1  0.25873000  0.56933800  0.66015500  1
  P  P15  1  0.74127000  0.43066200  0.33984500  1
  H  H16  1  0.97504500  0.71364700  0.37013100  1
  H  H17  1  0.02495500  0.28635300  0.62986900  1
  H  H18  1  0.52495500  0.78635300  0.87013100  1
  H  H19  1  0.47504500  0.21364700  0.12986900  1
  N  N20  1  0.11094900  0.90874500  0.59608400  1
  N  N21  1  0.88905100  0.09125500  0.40391600  1
  N  N22  1  0.38905100  0.59125500  0.09608400  1
  N  N23  1  0.61094900  0.40874500  0.90391600  1
  O  O24  1  0.64742600  0.89656200  0.27916400  1
  O  O25  1  0.35257400  0.10343800  0.72083600  1
  O  O26  1  0.85257400  0.60343800  0.77916400  1
  O  O27  1  0.14742600  0.39656200  0.22083600  1
  O  O28  1  0.35864500  0.96194700  0.40349500  1
  O  O29  1  0.64135500  0.03805300  0.59650500  1
  O  O30  1  0.14135500  0.53805300  0.90349500  1
  O  O31  1  0.85864500  0.46194700  0.09650500  1
  O  O32  1  0.36756000  0.95510700  0.07678400  1
  O  O33  1  0.63244000  0.04489300  0.92321600  1
  O  O34  1  0.13244000  0.54489300  0.57678400  1
  O  O35  1  0.86756000  0.45510700  0.42321600  1
  O  O36  1  0.66356400  0.54239200  0.26116200  1
  O  O37  1  0.33643600  0.45760800  0.73883800  1
  O  O38  1  0.83643600  0.95760800  0.76116200  1
  O  O39  1  0.16356400  0.04239200  0.23883800  1
  O  O40  1  0.36041500  0.83755700  0.24548800  1
  O  O41  1  0.63958500  0.16244300  0.75451200  1
  O  O42  1  0.13958500  0.66244300  0.74548800  1
  O  O43  1  0.86041500  0.33755700  0.25451200  1
  O  O44  1  0.07349000  0.90460500  0.12450700  1
  O  O45  1  0.92651000  0.09539500  0.87549300  1
  O  O46  1  0.42651000  0.59539500  0.62450700  1
  O  O47  1  0.57349000  0.40460500  0.37549300  1
  O  O48  1  0.56414200  0.75943200  0.40976000  1
  O  O49  1  0.43585800  0.24056800  0.59024000  1
  O  O50  1  0.93585800  0.74056800  0.90976000  1
  O  O51  1  0.06414200  0.25943200  0.09024000  1
  O  O52  1  0.54226400  0.61864300  0.07634900  1
  O  O53  1  0.45773600  0.38135700  0.92365100  1
  O  O54  1  0.95773600  0.88135700  0.57634900  1
  O  O55  1  0.04226400  0.11864300  0.42365100  1
  O  O56  1  0.81683600  0.66318100  0.15345900  1
  O  O57  1  0.18316400  0.33681900  0.84654100  1
  O  O58  1  0.68316400  0.83681900  0.65345900  1
  O  O59  1  0.31683600  0.16318100  0.34654100  1
