# generated using pymatgen
data_AlH10C3N6OF5
_symmetry_space_group_name_H-M   'P 1'
_cell_length_a   7.94983367
_cell_length_b   8.78117200
_cell_length_c   13.75632265
_cell_angle_alpha   90.00000000
_cell_angle_beta   102.23306625
_cell_angle_gamma   90.00000000
_symmetry_Int_Tables_number   1
_chemical_formula_structural   AlH10C3N6OF5
_chemical_formula_sum   'Al4 H40 C12 N24 O4 F20'
_cell_volume   938.50806963
_cell_formula_units_Z   4
loop_
 _symmetry_equiv_pos_site_id
 _symmetry_equiv_pos_as_xyz
  1  'x, y, z'
loop_
 _atom_site_type_symbol
 _atom_site_label
 _atom_site_symmetry_multiplicity
 _atom_site_fract_x
 _atom_site_fract_y
 _atom_site_fract_z
 _atom_site_occupancy
  Al  Al0  1  0.20936800  0.22125000  0.30251000  1
  Al  Al1  1  0.79063200  0.77875000  0.69749000  1
  Al  Al2  1  0.79063200  0.72125000  0.19749000  1
  Al  Al3  1  0.20936800  0.27875000  0.80251000  1
  H  H4  1  0.19672300  0.07457000  0.10275700  1
  H  H5  1  0.80327700  0.92543000  0.89724300  1
  H  H6  1  0.80327700  0.57457000  0.39724300  1
  H  H7  1  0.19672300  0.42543000  0.60275700  1
  H  H8  1  0.57180300  0.38487900  0.21017500  1
  H  H9  1  0.42819700  0.61512100  0.78982500  1
  H  H10  1  0.42819700  0.88487900  0.28982500  1
  H  H11  1  0.57180300  0.11512100  0.71017500  1
  H  H12  1  0.06184800  0.82809400  0.14624800  1
  H  H13  1  0.93815200  0.17190600  0.85375200  1
  H  H14  1  0.93815200  0.32809400  0.35375200  1
  H  H15  1  0.06184800  0.67190600  0.64624800  1
  H  H16  1  0.13287300  0.53302800  0.12798700  1
  H  H17  1  0.86712700  0.46697200  0.87201300  1
  H  H18  1  0.86712700  0.03302800  0.37201300  1
  H  H19  1  0.13287300  0.96697200  0.62798700  1
  H  H20  1  0.66064700  0.01504400  0.11945200  1
  H  H21  1  0.33935300  0.98495600  0.88054800  1
  H  H22  1  0.33935300  0.51504400  0.38054800  1
  H  H23  1  0.66064700  0.48495600  0.61945200  1
  H  H24  1  0.26178900  0.13985800  0.99775800  1
  H  H25  1  0.73821100  0.86014200  0.00224200  1
  H  H26  1  0.73821100  0.63985800  0.50224200  1
  H  H27  1  0.26178900  0.36014200  0.49775800  1
  H  H28  1  0.53243700  0.18817700  0.22177700  1
  H  H29  1  0.46756300  0.81182300  0.77822300  1
  H  H30  1  0.46756300  0.68817700  0.27822300  1
  H  H31  1  0.53243700  0.31182300  0.72177700  1
  H  H32  1  0.00367800  0.55502800  0.72659900  1
  H  H33  1  0.99632200  0.44497200  0.27340100  1
  H  H34  1  0.99632200  0.05502800  0.77340100  1
  H  H35  1  0.00367800  0.94497200  0.22659900  1
  H  H36  1  0.68047800  0.48265800  0.08144000  1
  H  H37  1  0.31952200  0.51734200  0.91856000  1
  H  H38  1  0.31952200  0.98265800  0.41856000  1
  H  H39  1  0.68047800  0.01734200  0.58144000  1
  H  H40  1  0.21265800  0.41889500  0.04221100  1
  H  H41  1  0.78734200  0.58110500  0.95778900  1
  H  H42  1  0.78734200  0.91889500  0.45778900  1
  H  H43  1  0.21265800  0.08110500  0.54221100  1
  C  C44  1  0.24079400  0.64730000  0.02766800  1
  C  C45  1  0.75920600  0.35270000  0.97233200  1
  C  C46  1  0.75920600  0.14730000  0.47233200  1
  C  C47  1  0.24079400  0.85270000  0.52766800  1
  C  C48  1  0.26061400  0.59368100  0.51124800  1
  C  C49  1  0.73938600  0.40631900  0.48875200  1
  C  C50  1  0.73938600  0.09368100  0.98875200  1
  C  C51  1  0.26061400  0.90631900  0.01124800  1
  C  C52  1  0.64775700  0.25290500  0.10708400  1
  C  C53  1  0.35224300  0.74709500  0.89291600  1
  C  C54  1  0.35224300  0.75290500  0.39291600  1
  C  C55  1  0.64775700  0.24709500  0.60708400  1
  N  N56  1  0.68859400  0.37337800  0.05485800  1
  N  N57  1  0.31140600  0.62662200  0.94514200  1
  N  N58  1  0.31140600  0.87337800  0.44514200  1
  N  N59  1  0.68859400  0.12662200  0.55485800  1
  N  N60  1  0.21755700  0.78689000  0.06188500  1
  N  N61  1  0.78244300  0.21311000  0.93811500  1
  N  N62  1  0.78244300  0.28689000  0.43811500  1
  N  N63  1  0.21755700  0.71311000  0.56188500  1
  N  N64  1  0.67443400  0.11216700  0.07372800  1
  N  N65  1  0.32556600  0.88783300  0.92627200  1
  N  N66  1  0.32556600  0.61216700  0.42627200  1
  N  N67  1  0.67443400  0.38783300  0.57372800  1
  N  N68  1  0.24304900  0.04702500  0.04064100  1
  N  N69  1  0.75695100  0.95297500  0.95935900  1
  N  N70  1  0.75695100  0.54702500  0.45935900  1
  N  N71  1  0.24304900  0.45297500  0.54064100  1
  N  N72  1  0.58434200  0.27464100  0.18696500  1
  N  N73  1  0.41565800  0.72535900  0.81303500  1
  N  N74  1  0.41565800  0.77464100  0.31303500  1
  N  N75  1  0.58434200  0.22535900  0.68696500  1
  N  N76  1  0.19861000  0.52407700  0.07170900  1
  N  N77  1  0.80139000  0.47592300  0.92829100  1
  N  N78  1  0.80139000  0.02407700  0.42829100  1
  N  N79  1  0.19861000  0.97592300  0.57170900  1
  O  O80  1  0.03620600  0.36492000  0.32612600  1
  O  O81  1  0.96379400  0.63508000  0.67387400  1
  O  O82  1  0.96379400  0.86492000  0.17387400  1
  O  O83  1  0.03620600  0.13508000  0.82612600  1
  F  F84  1  0.37976100  0.08683600  0.28986600  1
  F  F85  1  0.62023900  0.91316400  0.71013400  1
  F  F86  1  0.62023900  0.58683600  0.21013400  1
  F  F87  1  0.37976100  0.41316400  0.78986600  1
  F  F88  1  0.35476800  0.38573400  0.31411200  1
  F  F89  1  0.64523200  0.61426600  0.68588800  1
  F  F90  1  0.64523200  0.88573400  0.18588800  1
  F  F91  1  0.35476800  0.11426600  0.81411200  1
  F  F92  1  0.14362300  0.24009800  0.17094900  1
  F  F93  1  0.85637700  0.75990200  0.82905100  1
  F  F94  1  0.85637700  0.74009800  0.32905100  1
  F  F95  1  0.14362300  0.25990200  0.67094900  1
  F  F96  1  0.27682500  0.19363500  0.43987100  1
  F  F97  1  0.72317500  0.80636500  0.56012900  1
  F  F98  1  0.72317500  0.69363500  0.06012900  1
  F  F99  1  0.27682500  0.30636500  0.93987100  1
  F  F100  1  0.05170800  0.06722800  0.30531500  1
  F  F101  1  0.94829200  0.93277200  0.69468500  1
  F  F102  1  0.94829200  0.56722800  0.19468500  1
  F  F103  1  0.05170800  0.43277200  0.80531500  1
