# generated using pymatgen
data_CdRe2C4S4(NO)8
_symmetry_space_group_name_H-M   'P 1'
_cell_length_a   14.00550900
_cell_length_b   7.14060400
_cell_length_c   13.06450090
_cell_angle_alpha   67.89181681
_cell_angle_beta   90.00000000
_cell_angle_gamma   90.00000000
_symmetry_Int_Tables_number   1
_chemical_formula_structural   CdRe2C4S4(NO)8
_chemical_formula_sum   'Cd2 Re4 C8 S8 N16 O16'
_cell_volume   1210.48753305
_cell_formula_units_Z   2
loop_
 _symmetry_equiv_pos_site_id
 _symmetry_equiv_pos_as_xyz
  1  'x, y, z'
loop_
 _atom_site_type_symbol
 _atom_site_label
 _atom_site_symmetry_multiplicity
 _atom_site_fract_x
 _atom_site_fract_y
 _atom_site_fract_z
 _atom_site_occupancy
  Cd  Cd0  1  0.50000000  0.00000000  0.50000000  1
  Cd  Cd1  1  0.00000000  0.00000000  0.00000000  1
  Re  Re2  1  0.47497800  0.59602000  0.78848600  1
  Re  Re3  1  0.52502200  0.40398000  0.21151400  1
  Re  Re4  1  0.97497800  0.40398000  0.71151400  1
  Re  Re5  1  0.02502200  0.59602000  0.28848600  1
  C  C6  1  0.26104500  0.88216600  0.03747400  1
  C  C7  1  0.73895500  0.11783400  0.96252600  1
  C  C8  1  0.76104500  0.11783400  0.46252600  1
  C  C9  1  0.23895500  0.88216600  0.53747400  1
  C  C10  1  0.36688900  0.43954000  0.50858100  1
  C  C11  1  0.63311100  0.56046000  0.49141900  1
  C  C12  1  0.86688900  0.56046000  0.99141900  1
  C  C13  1  0.13311100  0.43954000  0.00858100  1
  S  S14  1  0.90042000  0.84702600  0.78808100  1
  S  S15  1  0.09958000  0.15297400  0.21191900  1
  S  S16  1  0.40042000  0.15297400  0.71191900  1
  S  S17  1  0.59958000  0.84702600  0.28808100  1
  S  S18  1  0.66135700  0.00864700  0.63622000  1
  S  S19  1  0.33864300  0.99135300  0.36378000  1
  S  S20  1  0.16135700  0.99135300  0.86378000  1
  S  S21  1  0.83864300  0.00864700  0.13622000  1
  N  N22  1  0.23229700  0.80326100  0.63429100  1
  N  N23  1  0.76770300  0.19673900  0.36570900  1
  N  N24  1  0.73229700  0.19673900  0.86570900  1
  N  N25  1  0.26770300  0.80326100  0.13429100  1
  N  N26  1  0.25904400  0.96296300  0.92854100  1
  N  N27  1  0.74095600  0.03703700  0.07145900  1
  N  N28  1  0.75904400  0.03703700  0.57145900  1
  N  N29  1  0.24095600  0.96296300  0.42854100  1
  N  N30  1  0.14985000  0.58915300  0.93082200  1
  N  N31  1  0.85015000  0.41084700  0.06917800  1
  N  N32  1  0.64985000  0.41084700  0.56917800  1
  N  N33  1  0.35015000  0.58915300  0.43082200  1
  N  N34  1  0.38527800  0.26842700  0.58517300  1
  N  N35  1  0.61472200  0.73157300  0.41482700  1
  N  N36  1  0.88527800  0.73157300  0.91482700  1
  N  N37  1  0.11472200  0.26842700  0.08517300  1
  O  O38  1  0.36022600  0.52687000  0.83871400  1
  O  O39  1  0.63977400  0.47313000  0.16128600  1
  O  O40  1  0.86022600  0.47313000  0.66128600  1
  O  O41  1  0.13977400  0.52687000  0.33871400  1
  O  O42  1  0.47250500  0.72598700  0.63923400  1
  O  O43  1  0.52749500  0.27401300  0.36076600  1
  O  O44  1  0.97250500  0.27401300  0.86076600  1
  O  O45  1  0.02749500  0.72598700  0.13923400  1
  O  O46  1  0.04299700  0.62194400  0.67935300  1
  O  O47  1  0.95700300  0.37805600  0.32064700  1
  O  O48  1  0.54299700  0.37805600  0.82064700  1
  O  O49  1  0.45700300  0.62194400  0.17935300  1
  O  O50  1  0.02445200  0.24661800  0.65080100  1
  O  O51  1  0.97554800  0.75338200  0.34919900  1
  O  O52  1  0.52445200  0.75338200  0.84919900  1
  O  O53  1  0.47554800  0.24661800  0.15080100  1
