# generated using pymatgen
data_CaAl2O12
_symmetry_space_group_name_H-M   'P 1'
_cell_length_a   14.15231944
_cell_length_b   14.15231944
_cell_length_c   9.22677300
_cell_angle_alpha   90.00000000
_cell_angle_beta   90.00000000
_cell_angle_gamma   119.99999740
_symmetry_Int_Tables_number   1
_chemical_formula_structural   CaAl2O12
_chemical_formula_sum   'Ca6 Al12 O72'
_cell_volume   1600.42646675
_cell_formula_units_Z   6
loop_
 _symmetry_equiv_pos_site_id
 _symmetry_equiv_pos_as_xyz
  1  'x, y, z'
loop_
 _atom_site_type_symbol
 _atom_site_label
 _atom_site_symmetry_multiplicity
 _atom_site_fract_x
 _atom_site_fract_y
 _atom_site_fract_z
 _atom_site_occupancy
  Ca  Ca0  1  0.23544700  0.32325600  0.25000000  1
  Ca  Ca1  1  0.76455300  0.67674400  0.75000000  1
  Ca  Ca2  1  0.67674400  0.91219200  0.25000000  1
  Ca  Ca3  1  0.32325600  0.08780800  0.75000000  1
  Ca  Ca4  1  0.08780800  0.76455300  0.25000000  1
  Ca  Ca5  1  0.91219200  0.23544700  0.75000000  1
  Al  Al6  1  0.04962400  0.43328000  0.05040700  1
  Al  Al7  1  0.95037600  0.56672000  0.94959300  1
  Al  Al8  1  0.56672000  0.61634300  0.05040700  1
  Al  Al9  1  0.95037600  0.56672000  0.55040700  1
  Al  Al10  1  0.43328000  0.38365700  0.94959300  1
  Al  Al11  1  0.04962400  0.43328000  0.44959300  1
  Al  Al12  1  0.38365700  0.95037600  0.05040700  1
  Al  Al13  1  0.43328000  0.38365700  0.55040700  1
  Al  Al14  1  0.61634300  0.04962400  0.94959300  1
  Al  Al15  1  0.56672000  0.61634300  0.44959300  1
  Al  Al16  1  0.61634300  0.04962400  0.55040700  1
  Al  Al17  1  0.38365700  0.95037600  0.44959300  1
  O  O18  1  0.95904400  0.52486800  0.25000000  1
  O  O19  1  0.04095600  0.47513200  0.75000000  1
  O  O20  1  0.47513200  0.43417600  0.25000000  1
  O  O21  1  0.52486800  0.56582400  0.75000000  1
  O  O22  1  0.56582400  0.04095600  0.25000000  1
  O  O23  1  0.43417600  0.95904400  0.75000000  1
  O  O24  1  0.51933900  0.06130300  0.11927100  1
  O  O25  1  0.48066100  0.93869700  0.88072900  1
  O  O26  1  0.93869700  0.45803500  0.11927100  1
  O  O27  1  0.48066100  0.93869700  0.61927100  1
  O  O28  1  0.06130300  0.54196500  0.88072900  1
  O  O29  1  0.51933900  0.06130300  0.38072900  1
  O  O30  1  0.54196500  0.48066100  0.11927100  1
  O  O31  1  0.06130300  0.54196500  0.61927100  1
  O  O32  1  0.45803500  0.51933900  0.88072900  1
  O  O33  1  0.93869700  0.45803500  0.38072900  1
  O  O34  1  0.45803500  0.51933900  0.61927100  1
  O  O35  1  0.54196500  0.48066100  0.38072900  1
  O  O36  1  0.32460300  0.32610600  0.06336800  1
  O  O37  1  0.67539700  0.67389400  0.93663200  1
  O  O38  1  0.67389400  0.99849600  0.06336800  1
  O  O39  1  0.67539700  0.67389400  0.56336800  1
  O  O40  1  0.32610600  0.00150400  0.93663200  1
  O  O41  1  0.32460300  0.32610600  0.43663200  1
  O  O42  1  0.00150400  0.67539700  0.06336800  1
  O  O43  1  0.32610600  0.00150400  0.56336800  1
  O  O44  1  0.99849600  0.32460300  0.93663200  1
  O  O45  1  0.67389400  0.99849600  0.43663200  1
  O  O46  1  0.99849600  0.32460300  0.56336800  1
  O  O47  1  0.00150400  0.67539700  0.43663200  1
  O  O48  1  0.08577300  0.34967800  0.17340400  1
  O  O49  1  0.91422700  0.65032200  0.82659600  1
  O  O50  1  0.65032200  0.73609500  0.17340400  1
  O  O51  1  0.91422700  0.65032200  0.67340400  1
  O  O52  1  0.34967800  0.26390500  0.82659600  1
  O  O53  1  0.08577300  0.34967800  0.32659600  1
  O  O54  1  0.26390500  0.91422700  0.17340400  1
  O  O55  1  0.34967800  0.26390500  0.67340400  1
  O  O56  1  0.73609500  0.08577300  0.82659600  1
  O  O57  1  0.65032200  0.73609500  0.32659600  1
  O  O58  1  0.73609500  0.08577300  0.67340400  1
  O  O59  1  0.26390500  0.91422700  0.32659600  1
  O  O60  1  0.17036100  0.56510200  0.12085400  1
  O  O61  1  0.82963900  0.43489800  0.87914600  1
  O  O62  1  0.43489800  0.60525900  0.12085400  1
  O  O63  1  0.82963900  0.43489800  0.62085400  1
  O  O64  1  0.56510200  0.39474100  0.87914600  1
  O  O65  1  0.17036100  0.56510200  0.37914600  1
  O  O66  1  0.39474100  0.82963900  0.12085400  1
  O  O67  1  0.56510200  0.39474100  0.62085400  1
  O  O68  1  0.60525900  0.17036100  0.87914600  1
  O  O69  1  0.43489800  0.60525900  0.37914600  1
  O  O70  1  0.60525900  0.17036100  0.62085400  1
  O  O71  1  0.39474100  0.82963900  0.37914600  1
  O  O72  1  0.16888700  0.61517000  0.25000000  1
  O  O73  1  0.83111300  0.38483000  0.75000000  1
  O  O74  1  0.38483000  0.55371700  0.25000000  1
  O  O75  1  0.61517000  0.44628300  0.75000000  1
  O  O76  1  0.44628300  0.83111300  0.25000000  1
  O  O77  1  0.55371700  0.16888700  0.75000000  1
  O  O78  1  0.07890400  0.10304100  0.03236800  1
  O  O79  1  0.92109600  0.89695900  0.96763200  1
  O  O80  1  0.89695900  0.97586300  0.03236800  1
  O  O81  1  0.92109600  0.89695900  0.53236800  1
  O  O82  1  0.10304100  0.02413700  0.96763200  1
  O  O83  1  0.07890400  0.10304100  0.46763200  1
  O  O84  1  0.02413700  0.92109600  0.03236800  1
  O  O85  1  0.10304100  0.02413700  0.53236800  1
  O  O86  1  0.97586300  0.07890400  0.96763200  1
  O  O87  1  0.89695900  0.97586300  0.46763200  1
  O  O88  1  0.97586300  0.07890400  0.53236800  1
  O  O89  1  0.02413700  0.92109600  0.46763200  1
