# generated using pymatgen
data_Ag3HSN3O2
_symmetry_space_group_name_H-M   'P 1'
_cell_length_a   7.10206500
_cell_length_b   9.02761700
_cell_length_c   11.37518300
_cell_angle_alpha   90.00000000
_cell_angle_beta   90.00000000
_cell_angle_gamma   90.00000000
_symmetry_Int_Tables_number   1
_chemical_formula_structural   Ag3HSN3O2
_chemical_formula_sum   'Ag12 H4 S4 N12 O8'
_cell_volume   729.31670404
_cell_formula_units_Z   4
loop_
 _symmetry_equiv_pos_site_id
 _symmetry_equiv_pos_as_xyz
  1  'x, y, z'
loop_
 _atom_site_type_symbol
 _atom_site_label
 _atom_site_symmetry_multiplicity
 _atom_site_fract_x
 _atom_site_fract_y
 _atom_site_fract_z
 _atom_site_occupancy
  Ag  Ag0  1  0.00850400  0.05019400  0.11983700  1
  Ag  Ag1  1  0.99149600  0.94980600  0.88016300  1
  Ag  Ag2  1  0.50850400  0.94980600  0.88016300  1
  Ag  Ag3  1  0.49149600  0.94980600  0.61983700  1
  Ag  Ag4  1  0.49149600  0.05019400  0.11983700  1
  Ag  Ag5  1  0.50850400  0.05019400  0.38016300  1
  Ag  Ag6  1  0.99149600  0.05019400  0.38016300  1
  Ag  Ag7  1  0.00850400  0.94980600  0.61983700  1
  Ag  Ag8  1  0.25000000  0.27659700  0.24873900  1
  Ag  Ag9  1  0.75000000  0.72340200  0.75126100  1
  Ag  Ag10  1  0.25000000  0.72340200  0.74873900  1
  Ag  Ag11  1  0.75000000  0.27659700  0.25126100  1
  H  H12  1  0.25000000  0.86293200  0.21994200  1
  H  H13  1  0.75000000  0.13706800  0.78005800  1
  H  H14  1  0.25000000  0.13706800  0.71994200  1
  H  H15  1  0.75000000  0.86293200  0.28005800  1
  S  S16  1  0.25000000  0.23760100  0.54388300  1
  S  S17  1  0.75000000  0.76239900  0.45611700  1
  S  S18  1  0.25000000  0.76239900  0.04388300  1
  S  S19  1  0.75000000  0.23760100  0.95611700  1
  N  N20  1  0.25000000  0.16101900  0.41483800  1
  N  N21  1  0.75000000  0.83898100  0.58516200  1
  N  N22  1  0.25000000  0.83898100  0.91483800  1
  N  N23  1  0.75000000  0.16101900  0.08516200  1
  N  N24  1  0.25000000  0.08698200  0.63834500  1
  N  N25  1  0.75000000  0.91301800  0.36165500  1
  N  N26  1  0.25000000  0.91301800  0.13834500  1
  N  N27  1  0.75000000  0.08698200  0.86165500  1
  N  N28  1  0.25000000  0.35159200  0.08173100  1
  N  N29  1  0.75000000  0.64840800  0.91826900  1
  N  N30  1  0.25000000  0.64840800  0.58173100  1
  N  N31  1  0.75000000  0.35159200  0.41826900  1
  O  O32  1  0.07457900  0.31437800  0.56659200  1
  O  O33  1  0.92542100  0.68562200  0.43340800  1
  O  O34  1  0.57457900  0.68562200  0.43340800  1
  O  O35  1  0.42542100  0.68562200  0.06659200  1
  O  O36  1  0.42542100  0.31437800  0.56659200  1
  O  O37  1  0.57457900  0.31437800  0.93340800  1
  O  O38  1  0.92542100  0.31437800  0.93340800  1
  O  O39  1  0.07457900  0.68562200  0.06659200  1
