# generated using pymatgen
data_AlPO6
_symmetry_space_group_name_H-M   'P 1'
_cell_length_a   8.52307200
_cell_length_b   9.62316700
_cell_length_c   9.81839000
_cell_angle_alpha   90.00000000
_cell_angle_beta   90.00000000
_cell_angle_gamma   90.00000000
_symmetry_Int_Tables_number   1
_chemical_formula_structural   AlPO6
_chemical_formula_sum   'Al8 P8 O48'
_cell_volume   805.29399145
_cell_formula_units_Z   8
loop_
 _symmetry_equiv_pos_site_id
 _symmetry_equiv_pos_as_xyz
  1  'x, y, z'
loop_
 _atom_site_type_symbol
 _atom_site_label
 _atom_site_symmetry_multiplicity
 _atom_site_fract_x
 _atom_site_fract_y
 _atom_site_fract_z
 _atom_site_occupancy
  Al  Al0  1  0.35919300  0.18387200  0.12600400  1
  Al  Al1  1  0.64080700  0.81612800  0.87399600  1
  Al  Al2  1  0.14080700  0.81612800  0.62600400  1
  Al  Al3  1  0.64080700  0.68387200  0.37399600  1
  Al  Al4  1  0.85919300  0.18387200  0.37399600  1
  Al  Al5  1  0.35919300  0.31612800  0.62600400  1
  Al  Al6  1  0.85919300  0.31612800  0.87399600  1
  Al  Al7  1  0.14080700  0.68387200  0.12600400  1
  P  P8  1  0.03993800  0.36151600  0.16040500  1
  P  P9  1  0.96006200  0.63848400  0.83959500  1
  P  P10  1  0.46006200  0.63848400  0.66040500  1
  P  P11  1  0.96006200  0.86151600  0.33959500  1
  P  P12  1  0.53993800  0.36151600  0.33959500  1
  P  P13  1  0.03993800  0.13848400  0.66040500  1
  P  P14  1  0.53993800  0.13848400  0.83959500  1
  P  P15  1  0.46006200  0.86151600  0.16040500  1
  O  O16  1  0.47397200  0.02189100  0.17123900  1
  O  O17  1  0.52602800  0.97810900  0.82876100  1
  O  O18  1  0.02602800  0.97810900  0.67123900  1
  O  O19  1  0.52602800  0.52189100  0.32876100  1
  O  O20  1  0.97397200  0.02189100  0.32876100  1
  O  O21  1  0.47397200  0.47810900  0.67123900  1
  O  O22  1  0.97397200  0.47810900  0.82876100  1
  O  O23  1  0.02602800  0.52189100  0.17123900  1
  O  O24  1  0.20722300  0.32453200  0.10978800  1
  O  O25  1  0.79277700  0.67546800  0.89021200  1
  O  O26  1  0.29277700  0.67546800  0.60978800  1
  O  O27  1  0.79277700  0.82453200  0.39021200  1
  O  O28  1  0.70722300  0.32453200  0.39021200  1
  O  O29  1  0.20722300  0.17546800  0.60978800  1
  O  O30  1  0.70722300  0.17546800  0.89021200  1
  O  O31  1  0.29277700  0.82453200  0.10978800  1
  O  O32  1  0.41764500  0.30933600  0.44566900  1
  O  O33  1  0.58235500  0.69066400  0.55433100  1
  O  O34  1  0.08235500  0.69066400  0.94566900  1
  O  O35  1  0.58235500  0.80933600  0.05433100  1
  O  O36  1  0.91764500  0.30933600  0.05433100  1
  O  O37  1  0.41764500  0.19066400  0.94566900  1
  O  O38  1  0.91764500  0.19066400  0.55433100  1
  O  O39  1  0.08235500  0.80933600  0.44566900  1
  O  O40  1  0.19301000  0.06461900  0.05582700  1
  O  O41  1  0.80699000  0.93538100  0.94417300  1
  O  O42  1  0.30699000  0.93538100  0.55582700  1
  O  O43  1  0.80699000  0.56461900  0.44417300  1
  O  O44  1  0.69301000  0.06461900  0.44417300  1
  O  O45  1  0.19301000  0.43538100  0.55582700  1
  O  O46  1  0.69301000  0.43538100  0.94417300  1
  O  O47  1  0.30699000  0.56461900  0.05582700  1
  O  O48  1  0.26816700  0.12570200  0.29912900  1
  O  O49  1  0.73183300  0.87429800  0.70087100  1
  O  O50  1  0.23183300  0.87429800  0.79912900  1
  O  O51  1  0.73183300  0.62570200  0.20087100  1
  O  O52  1  0.76816700  0.12570200  0.20087100  1
  O  O53  1  0.26816700  0.37429800  0.79912900  1
  O  O54  1  0.76816700  0.37429800  0.70087100  1
  O  O55  1  0.23183300  0.62570200  0.29912900  1
  O  O56  1  0.00755100  0.29500600  0.29839500  1
  O  O57  1  0.99244900  0.70499400  0.70160500  1
  O  O58  1  0.49244900  0.70499400  0.79839500  1
  O  O59  1  0.99244900  0.79500600  0.20160500  1
  O  O60  1  0.50755100  0.29500600  0.20160500  1
  O  O61  1  0.00755100  0.20499400  0.79839500  1
  O  O62  1  0.50755100  0.20499400  0.70160500  1
  O  O63  1  0.49244900  0.79500600  0.29839500  1
