# generated using pymatgen
data_AlP(HO2)2
_symmetry_space_group_name_H-M   'P 1'
_cell_length_a   9.03722400
_cell_length_b   5.27559600
_cell_length_c   10.47064562
_cell_angle_alpha   60.27434557
_cell_angle_beta   90.00000000
_cell_angle_gamma   90.00000000
_symmetry_Int_Tables_number   1
_chemical_formula_structural   AlP(HO2)2
_chemical_formula_sum   'Al4 P4 H8 O16'
_cell_volume   433.51551589
_cell_formula_units_Z   4
loop_
 _symmetry_equiv_pos_site_id
 _symmetry_equiv_pos_as_xyz
  1  'x, y, z'
loop_
 _atom_site_type_symbol
 _atom_site_label
 _atom_site_symmetry_multiplicity
 _atom_site_fract_x
 _atom_site_fract_y
 _atom_site_fract_z
 _atom_site_occupancy
  Al  Al0  1  0.69857600  0.19456300  0.84783500  1
  Al  Al1  1  0.30142400  0.80543700  0.15216500  1
  Al  Al2  1  0.19857600  0.80543700  0.65216500  1
  Al  Al3  1  0.80142400  0.19456300  0.34783500  1
  P  P4  1  0.34385500  0.14951700  0.80305500  1
  P  P5  1  0.65614500  0.85048300  0.19694500  1
  P  P6  1  0.84385500  0.85048300  0.69694500  1
  P  P7  1  0.15614500  0.14951700  0.30305500  1
  H  H8  1  0.13554400  0.46053000  0.95447600  1
  H  H9  1  0.86445600  0.53947000  0.04552400  1
  H  H10  1  0.63554400  0.53947000  0.54552400  1
  H  H11  1  0.36445600  0.46053000  0.45447600  1
  H  H12  1  0.01985200  0.38187700  0.65126500  1
  H  H13  1  0.98014800  0.61812300  0.34873500  1
  H  H14  1  0.51985200  0.61812300  0.84873500  1
  H  H15  1  0.48014800  0.38187700  0.15126500  1
  O  O16  1  0.27238900  0.45250300  0.73745000  1
  O  O17  1  0.72761100  0.54749700  0.26255000  1
  O  O18  1  0.77238900  0.54749700  0.76255000  1
  O  O19  1  0.22761100  0.45250300  0.23745000  1
  O  O20  1  0.51287500  0.18164300  0.80309500  1
  O  O21  1  0.48712500  0.81835700  0.19690500  1
  O  O22  1  0.01287500  0.81835700  0.69690500  1
  O  O23  1  0.98712500  0.18164300  0.30309500  1
  O  O24  1  0.28641800  0.95380100  0.96064600  1
  O  O25  1  0.71358200  0.04619900  0.03935400  1
  O  O26  1  0.78641800  0.04619900  0.53935400  1
  O  O27  1  0.21358200  0.95380100  0.46064600  1
  O  O28  1  0.30495600  0.01073100  0.70867800  1
  O  O29  1  0.69504400  0.98926900  0.29132200  1
  O  O30  1  0.80495600  0.98926900  0.79132200  1
  O  O31  1  0.19504400  0.01073100  0.20867800  1
