# generated using pymatgen
data_Ba2GdV3O11
_symmetry_space_group_name_H-M   'P 1'
_cell_length_a   7.82149800
_cell_length_b   12.48276402
_cell_length_c   11.38799756
_cell_angle_alpha   103.14243533
_cell_angle_beta   90.00000000
_cell_angle_gamma   90.00000000
_symmetry_Int_Tables_number   1
_chemical_formula_structural   Ba2GdV3O11
_chemical_formula_sum   'Ba8 Gd4 V12 O44'
_cell_volume   1082.73288833
_cell_formula_units_Z   4
loop_
 _symmetry_equiv_pos_site_id
 _symmetry_equiv_pos_as_xyz
  1  'x, y, z'
loop_
 _atom_site_type_symbol
 _atom_site_label
 _atom_site_symmetry_multiplicity
 _atom_site_fract_x
 _atom_site_fract_y
 _atom_site_fract_z
 _atom_site_occupancy
  Ba  Ba0  1  0.27365100  0.76825600  0.94193500  1
  Ba  Ba1  1  0.72634900  0.23174400  0.05806500  1
  Ba  Ba2  1  0.77365100  0.23174400  0.55806500  1
  Ba  Ba3  1  0.22634900  0.76825600  0.44193500  1
  Ba  Ba4  1  0.74773300  0.55455900  0.88951500  1
  Ba  Ba5  1  0.25226700  0.44544100  0.11048500  1
  Ba  Ba6  1  0.24773300  0.44544100  0.61048500  1
  Ba  Ba7  1  0.75226700  0.55455900  0.38951500  1
  Gd  Gd8  1  0.49960200  0.99779700  0.71497400  1
  Gd  Gd9  1  0.50039800  0.00220300  0.28502600  1
  Gd  Gd10  1  0.99960200  0.00220300  0.78502600  1
  Gd  Gd11  1  0.00039800  0.99779700  0.21497400  1
  V  V12  1  0.75381500  0.90522400  0.97594100  1
  V  V13  1  0.24618500  0.09477600  0.02405900  1
  V  V14  1  0.25381500  0.09477600  0.52405900  1
  V  V15  1  0.74618500  0.90522400  0.47594100  1
  V  V16  1  0.51906900  0.68410700  0.67348000  1
  V  V17  1  0.48093100  0.31589300  0.32652000  1
  V  V18  1  0.01906900  0.31589300  0.82652000  1
  V  V19  1  0.98093100  0.68410700  0.17348000  1
  V  V20  1  0.98149800  0.68748600  0.67095300  1
  V  V21  1  0.01850200  0.31251400  0.32904700  1
  V  V22  1  0.48149800  0.31251400  0.82904700  1
  V  V23  1  0.51850200  0.68748600  0.17095300  1
  O  O24  1  0.44424200  0.81807200  0.71797200  1
  O  O25  1  0.55575800  0.18192800  0.28202800  1
  O  O26  1  0.94424200  0.18192800  0.78202800  1
  O  O27  1  0.05575800  0.81807200  0.21797200  1
  O  O28  1  0.55068500  0.17759100  0.80682300  1
  O  O29  1  0.44931500  0.82240900  0.19317700  1
  O  O30  1  0.05068500  0.82240900  0.69317700  1
  O  O31  1  0.94931500  0.17759100  0.30682300  1
  O  O32  1  0.75036700  0.66606300  0.66735700  1
  O  O33  1  0.24963300  0.33393700  0.33264300  1
  O  O34  1  0.25036700  0.33393700  0.83264300  1
  O  O35  1  0.74963300  0.66606300  0.16735700  1
  O  O36  1  0.94476200  0.37529900  0.96620500  1
  O  O37  1  0.05523800  0.62470100  0.03379500  1
  O  O38  1  0.44476200  0.62470100  0.53379500  1
  O  O39  1  0.55523800  0.37529900  0.46620500  1
  O  O40  1  0.94071700  0.39177500  0.73133500  1
  O  O41  1  0.05928300  0.60822500  0.26866500  1
  O  O42  1  0.44071700  0.60822500  0.76866500  1
  O  O43  1  0.55928300  0.39177500  0.23133500  1
  O  O44  1  0.78266900  0.98687000  0.62379300  1
  O  O45  1  0.21733100  0.01313000  0.37620700  1
  O  O46  1  0.28266900  0.01313000  0.87620700  1
  O  O47  1  0.71733100  0.98687000  0.12379300  1
  O  O48  1  0.97153000  0.88198100  0.97346400  1
  O  O49  1  0.02847000  0.11801900  0.02653600  1
  O  O50  1  0.47153000  0.11801900  0.52653600  1
  O  O51  1  0.52847000  0.88198100  0.47346400  1
  O  O52  1  0.63954500  0.78642300  0.94661900  1
  O  O53  1  0.36045500  0.21357700  0.05338100  1
  O  O54  1  0.13954500  0.21357700  0.55338100  1
  O  O55  1  0.86045500  0.78642300  0.44661900  1
  O  O56  1  0.72087600  0.98354000  0.86463100  1
  O  O57  1  0.27912400  0.01646000  0.13536900  1
  O  O58  1  0.22087600  0.01646000  0.63536900  1
  O  O59  1  0.77912400  0.98354000  0.36463100  1
  O  O60  1  0.55881600  0.37034200  0.71874300  1
  O  O61  1  0.44118400  0.62965800  0.28125700  1
  O  O62  1  0.05881600  0.62965800  0.78125700  1
  O  O63  1  0.94118400  0.37034200  0.21874300  1
  O  O64  1  0.56324000  0.38714600  0.96140500  1
  O  O65  1  0.43676000  0.61285400  0.03859500  1
  O  O66  1  0.06324000  0.61285400  0.53859500  1
  O  O67  1  0.93676000  0.38714600  0.46140500  1
