# generated using pymatgen
data_Cd(N2Cl)6
_symmetry_space_group_name_H-M   'P 1'
_cell_length_a   18.08280813
_cell_length_b   18.67802284
_cell_length_c   22.66652592
_cell_angle_alpha   88.46192151
_cell_angle_beta   93.17866058
_cell_angle_gamma   118.95132684
_symmetry_Int_Tables_number   1
_chemical_formula_structural   Cd(N2Cl)6
_chemical_formula_sum   'Cd2 N24 Cl12'
_cell_volume   6688.62138621
_cell_formula_units_Z   2
loop_
 _symmetry_equiv_pos_site_id
 _symmetry_equiv_pos_as_xyz
  1  'x, y, z'
loop_
 _atom_site_type_symbol
 _atom_site_label
 _atom_site_symmetry_multiplicity
 _atom_site_fract_x
 _atom_site_fract_y
 _atom_site_fract_z
 _atom_site_occupancy
  Cd  Cd0  1  0.00000000  -0.00000000  0.00000000  1
  Cd  Cd1  1  0.50000000  -0.00000000  0.50000000  1
  N  N2  1  0.58275947  0.60401210  0.74986184  1
  N  N3  1  0.41724053  0.39598790  0.25013816  1
  N  N4  1  0.74991302  0.14533107  0.00068117  1
  N  N5  1  0.52125263  0.60401210  0.75013816  1
  N  N6  1  0.25008698  0.85466893  0.99931883  1
  N  N7  1  0.47874737  0.39598790  0.24986184  1
  N  N8  1  0.00060524  0.25058829  0.60464743  1
  N  N9  1  0.89541805  0.14533107  0.49931883  1
  N  N10  1  0.99939476  0.74941171  0.39535257  1
  N  N11  1  0.10458195  0.85466893  0.50068117  1
  N  N12  1  0.74998305  0.25058829  0.89535257  1
  N  N13  1  0.25001695  0.74941171  0.10464743  1
  N  N14  1  0.00404433  0.00068132  0.75189394  1
  N  N15  1  0.99595567  0.99931868  0.24810606  1
  N  N16  1  0.74797340  0.75244951  0.99621337  1
  N  N17  1  0.49663699  0.00068132  0.74810606  1
  N  N18  1  0.25202660  0.24755049  0.00378663  1
  N  N19  1  0.50336301  0.99931868  0.25189394  1
  N  N20  1  0.99446943  0.24742135  0.99345207  1
  N  N21  1  0.50447611  0.75244951  0.50378663  1
  N  N22  1  0.00553057  0.75257865  0.00654793  1
  N  N23  1  0.49552389  0.24755049  0.49621337  1
  N  N24  1  0.75295192  0.24742135  0.50654793  1
  N  N25  1  0.24704808  0.75257865  0.49345207  1
  Cl  Cl26  1  0.71820635  0.78971232  0.94082298  1
  Cl  Cl27  1  0.28179365  0.21028768  0.05917702  1
  Cl  Cl28  1  0.94263146  0.22345468  0.93050406  1
  Cl  Cl29  1  0.57150597  0.78971232  0.55917702  1
  Cl  Cl30  1  0.05736854  0.77654532  0.06949594  1
  Cl  Cl31  1  0.42849403  0.21028768  0.44082298  1
  Cl  Cl32  1  0.91999670  0.98635934  0.71412196  1
  Cl  Cl33  1  0.78082322  0.22345468  0.56949594  1
  Cl  Cl34  1  0.08000330  0.01364066  0.28587804  1
  Cl  Cl35  1  0.21917678  0.77654532  0.43050406  1
  Cl  Cl36  1  0.56636264  0.98635934  0.78587804  1
  Cl  Cl37  1  0.43363736  0.01364066  0.21412196  1
