# generated using pymatgen
data_Al2(FeO3)3
_symmetry_space_group_name_H-M   'P 1'
_cell_length_a   5.49300870
_cell_length_b   5.49300870
_cell_length_c   15.07786207
_cell_angle_alpha   88.90246737
_cell_angle_beta   88.90246737
_cell_angle_gamma   121.13535192
_symmetry_Int_Tables_number   1
_chemical_formula_structural   Al2(FeO3)3
_chemical_formula_sum   'Al4 Fe6 O18'
_cell_volume   389.11470631
_cell_formula_units_Z   2
loop_
 _symmetry_equiv_pos_site_id
 _symmetry_equiv_pos_as_xyz
  1  'x, y, z'
loop_
 _atom_site_type_symbol
 _atom_site_label
 _atom_site_symmetry_multiplicity
 _atom_site_fract_x
 _atom_site_fract_y
 _atom_site_fract_z
 _atom_site_occupancy
  Al  Al0  1  0.66668300  0.99435600  0.19162700  1
  Al  Al1  1  0.33331700  0.00564400  0.80837300  1
  Al  Al2  1  0.00564400  0.33331700  0.80837300  1
  Al  Al3  1  0.99435600  0.66668300  0.19162700  1
  Fe  Fe4  1  0.66105000  0.33895000  0.00000000  1
  Fe  Fe5  1  0.33895000  0.66105000  0.00000000  1
  Fe  Fe6  1  0.00000000  0.00000000  0.50000000  1
  Fe  Fe7  1  0.66666300  0.33333700  0.50000000  1
  Fe  Fe8  1  0.33333700  0.66666300  0.50000000  1
  Fe  Fe9  1  0.00000000  0.00000000  0.00000000  1
  O  O10  1  0.67329000  0.67329000  0.55908000  1
  O  O11  1  0.32671000  0.32671000  0.44092000  1
  O  O12  1  0.66012200  0.99336100  0.44104200  1
  O  O13  1  0.33987800  0.00663900  0.55895800  1
  O  O14  1  0.00663900  0.33987800  0.55895800  1
  O  O15  1  0.99336100  0.66012200  0.44104200  1
  O  O16  1  0.82967000  0.82967000  0.23396900  1
  O  O17  1  0.17033000  0.17033000  0.76603100  1
  O  O18  1  0.32636300  0.82468700  0.23250800  1
  O  O19  1  0.67363700  0.17531300  0.76749200  1
  O  O20  1  0.17531300  0.67363700  0.76749200  1
  O  O21  1  0.82468700  0.32636300  0.23250800  1
  O  O22  1  0.66219900  0.99784900  0.06897600  1
  O  O23  1  0.33780100  0.00215100  0.93102400  1
  O  O24  1  0.00215100  0.33780100  0.93102400  1
  O  O25  1  0.99784900  0.66219900  0.06897600  1
  O  O26  1  0.31290300  0.31290300  0.06010300  1
  O  O27  1  0.68709700  0.68709700  0.93989700  1
