# generated using pymatgen
data_Ca5Si6W5O17
_symmetry_space_group_name_H-M   'P 1'
_cell_length_a   6.90324336
_cell_length_b   6.90324336
_cell_length_c   23.66969148
_cell_angle_alpha   84.67592426
_cell_angle_beta   84.67592426
_cell_angle_gamma   65.63536053
_symmetry_Int_Tables_number   1
_chemical_formula_structural   Ca5Si6W5O17
_chemical_formula_sum   'Ca10 Si12 W10 O34'
_cell_volume   1021.23242018
_cell_formula_units_Z   2
loop_
 _symmetry_equiv_pos_site_id
 _symmetry_equiv_pos_as_xyz
  1  'x, y, z'
loop_
 _atom_site_type_symbol
 _atom_site_label
 _atom_site_symmetry_multiplicity
 _atom_site_fract_x
 _atom_site_fract_y
 _atom_site_fract_z
 _atom_site_occupancy
  Ca  Ca0  1  0.39420700  0.64438400  0.87876700  1
  Ca  Ca1  1  0.64438400  0.39420700  0.37876700  1
  Ca  Ca2  1  0.15873400  0.89959700  0.39161300  1
  Ca  Ca3  1  0.89959700  0.15873400  0.89161300  1
  Ca  Ca4  1  0.92974600  0.80446600  0.53861800  1
  Ca  Ca5  1  0.80446600  0.92974600  0.03861800  1
  Ca  Ca6  1  0.40823400  0.15557000  0.79503200  1
  Ca  Ca7  1  0.15557000  0.40823400  0.29503200  1
  Ca  Ca8  1  0.91488200  0.66739000  0.81248400  1
  Ca  Ca9  1  0.66739000  0.91488200  0.31248400  1
  Si  Si10  1  0.88473500  0.20985700  0.75636400  1
  Si  Si11  1  0.20985700  0.88473500  0.25636400  1
  Si  Si12  1  0.46026100  0.62966400  0.75222500  1
  Si  Si13  1  0.62966400  0.46026100  0.25222500  1
  Si  Si14  1  0.29133900  0.03049800  0.52312500  1
  Si  Si15  1  0.03049800  0.29133900  0.02312500  1
  Si  Si16  1  0.41850000  0.10979200  0.93398600  1
  Si  Si17  1  0.10979200  0.41850000  0.43398600  1
  Si  Si18  1  0.83623400  0.67657700  0.93787000  1
  Si  Si19  1  0.67657700  0.83623400  0.43787000  1
  Si  Si20  1  0.26569600  0.00870100  0.66587700  1
  Si  Si21  1  0.00870100  0.26569600  0.16587700  1
  W  W22  1  0.68102600  0.09494400  0.64122000  1
  W  W23  1  0.09494400  0.68102600  0.14122000  1
  W  W24  1  0.79768000  0.47390200  0.60745300  1
  W  W25  1  0.47390200  0.79768000  0.10745300  1
  W  W26  1  0.48684300  0.34114600  0.09407700  1
  W  W27  1  0.34114600  0.48684300  0.59407700  1
  W  W28  1  0.27721300  0.69913200  0.01273000  1
  W  W29  1  0.69913200  0.27721300  0.51273000  1
  W  W30  1  0.99123000  0.66202600  0.67955600  1
  W  W31  1  0.66202600  0.99123000  0.17955600  1
  O  O32  1  0.55320500  0.29254700  0.29119900  1
  O  O33  1  0.29254700  0.55320500  0.79119900  1
  O  O34  1  0.27240400  0.01964500  0.59469600  1
  O  O35  1  0.01964500  0.27240400  0.09469600  1
  O  O36  1  0.55184400  0.91821800  0.50126200  1
  O  O37  1  0.91821800  0.55184400  0.00126200  1
  O  O38  1  0.63466400  0.90020100  0.95896200  1
  O  O39  1  0.90020100  0.63466400  0.45896200  1
  O  O40  1  0.76543300  0.54513900  0.89719900  1
  O  O41  1  0.54513900  0.76543300  0.39719900  1
  O  O42  1  0.50897600  0.27095300  0.89854400  1
  O  O43  1  0.27095300  0.50897600  0.39854400  1
  O  O44  1  0.02020200  0.12105400  0.69426900  1
  O  O45  1  0.12105400  0.02020200  0.19426900  1
  O  O46  1  0.01221400  0.75238900  0.90370100  1
  O  O47  1  0.75238900  0.01221400  0.40370100  1
  O  O48  1  0.17011500  0.91198300  0.49425200  1
  O  O49  1  0.91198300  0.17011500  0.99425200  1
  O  O50  1  0.53373300  0.76911000  0.79076400  1
  O  O51  1  0.76911000  0.53373300  0.29076400  1
  O  O52  1  0.35104800  0.75692800  0.69172500  1
  O  O53  1  0.75692800  0.35104800  0.19172500  1
  O  O54  1  0.80724900  0.04087200  0.79292500  1
  O  O55  1  0.04087200  0.80724900  0.29292600  1
  O  O56  1  0.28755200  0.01629600  0.29626200  1
  O  O57  1  0.01629600  0.28755200  0.79626200  1
  O  O58  1  0.66789200  0.41340700  0.73287000  1
  O  O59  1  0.41340700  0.66789200  0.23287000  1
  O  O60  1  0.27765000  0.20753800  0.99440200  1
  O  O61  1  0.20753800  0.27765000  0.49440200  1
  O  O62  1  0.29225900  0.02873300  0.89333500  1
  O  O63  1  0.02873300  0.29225900  0.39333500  1
  O  O64  1  0.40340500  0.11613700  0.69283500  1
  O  O65  1  0.11613700  0.40340500  0.19283500  1
