# generated using pymatgen
data_ZrTiNi2
_symmetry_space_group_name_H-M   'P 1'
_cell_length_a   3.11420900
_cell_length_b   4.08356100
_cell_length_c   5.09120609
_cell_angle_alpha   90.00000000
_cell_angle_beta   72.19116809
_cell_angle_gamma   90.00000000
_symmetry_Int_Tables_number   1
_chemical_formula_structural   ZrTiNi2
_chemical_formula_sum   'Zr1 Ti1 Ni2'
_cell_volume   61.64274266
_cell_formula_units_Z   1
loop_
 _symmetry_equiv_pos_site_id
 _symmetry_equiv_pos_as_xyz
  1  'x, y, z'
loop_
 _atom_site_type_symbol
 _atom_site_label
 _atom_site_symmetry_multiplicity
 _atom_site_fract_x
 _atom_site_fract_y
 _atom_site_fract_z
 _atom_site_occupancy
  Zr  Zr0  1  0.85558800  0.25000000  0.28882500  1
  Ti  Ti1  1  0.13797700  0.75000000  0.72404600  1
  Ni  Ni2  1  0.42090900  0.75000000  0.15818100  1
  Ni  Ni3  1  0.58552600  0.25000000  0.82894800  1
