# generated using pymatgen
data_ZrTaN2
_symmetry_space_group_name_H-M   'P 1'
_cell_length_a   5.51911048
_cell_length_b   5.51911048
_cell_length_c   5.51911062
_cell_angle_alpha   33.64387599
_cell_angle_beta   33.64387599
_cell_angle_gamma   33.64386896
_symmetry_Int_Tables_number   1
_chemical_formula_structural   ZrTaN2
_chemical_formula_sum   'Zr1 Ta1 N2'
_cell_volume   45.97030580
_cell_formula_units_Z   1
loop_
 _symmetry_equiv_pos_site_id
 _symmetry_equiv_pos_as_xyz
  1  'x, y, z'
loop_
 _atom_site_type_symbol
 _atom_site_label
 _atom_site_symmetry_multiplicity
 _atom_site_fract_x
 _atom_site_fract_y
 _atom_site_fract_z
 _atom_site_occupancy
  Zr  Zr0  1  0.50000000  0.50000000  0.50000000  1
  Ta  Ta1  1  0.00000000  0.00000000  0.00000000  1
  N  N2  1  0.25560700  0.25560700  0.25560700  1
  N  N3  1  0.74439300  0.74439300  0.74439300  1
