# generated using pymatgen
data_ZrMoWO8
_symmetry_space_group_name_H-M   'P 1'
_cell_length_a   8.39608872
_cell_length_b   8.39608872
_cell_length_c   8.39608930
_cell_angle_alpha   72.74070270
_cell_angle_beta   72.74070270
_cell_angle_gamma   72.74070384
_symmetry_Int_Tables_number   1
_chemical_formula_structural   ZrMoWO8
_chemical_formula_sum   'Zr3 Mo3 W3 O24'
_cell_volume   525.45473044
_cell_formula_units_Z   3
loop_
 _symmetry_equiv_pos_site_id
 _symmetry_equiv_pos_as_xyz
  1  'x, y, z'
loop_
 _atom_site_type_symbol
 _atom_site_label
 _atom_site_symmetry_multiplicity
 _atom_site_fract_x
 _atom_site_fract_y
 _atom_site_fract_z
 _atom_site_occupancy
  Zr  Zr0  1  0.00305700  0.00305700  0.00305700  1
  Zr  Zr1  1  0.29505100  0.29505100  0.29505100  1
  Zr  Zr2  1  0.70355100  0.70355100  0.70355100  1
  Mo  Mo3  1  0.26033200  0.57317100  0.86181400  1
  Mo  Mo4  1  0.57317100  0.86181400  0.26033200  1
  Mo  Mo5  1  0.86181400  0.26033200  0.57317100  1
  W  W6  1  0.73481000  0.43362300  0.13847700  1
  W  W7  1  0.43362300  0.13847700  0.73481000  1
  W  W8  1  0.13847700  0.73481000  0.43362300  1
  O  O9  1  0.81366400  0.44818900  0.30850500  1
  O  O10  1  0.44818900  0.30850500  0.81366400  1
  O  O11  1  0.30850500  0.81366400  0.44818900  1
  O  O12  1  0.18721400  0.55629900  0.68908000  1
  O  O13  1  0.55629900  0.68908000  0.18721400  1
  O  O14  1  0.68908000  0.18721400  0.55629900  1
  O  O15  1  0.53012800  0.37119100  0.19821900  1
  O  O16  1  0.37119100  0.19821900  0.53012800  1
  O  O17  1  0.19821900  0.53012800  0.37119100  1
  O  O18  1  0.46480500  0.62899200  0.80409400  1
  O  O19  1  0.62899200  0.80409400  0.46480500  1
  O  O20  1  0.80409400  0.46480500  0.62899200  1
  O  O21  1  0.78716100  0.58087800  0.92689700  1
  O  O22  1  0.58087800  0.92689700  0.78716100  1
  O  O23  1  0.92689700  0.78716100  0.58087800  1
  O  O24  1  0.21324000  0.42160400  0.06791900  1
  O  O25  1  0.42160400  0.06791900  0.21324000  1
  O  O26  1  0.06791900  0.21324000  0.42160400  1
  O  O27  1  0.87879000  0.23290700  0.08305000  1
  O  O28  1  0.23290700  0.08305000  0.87879000  1
  O  O29  1  0.08305000  0.87879000  0.23290700  1
  O  O30  1  0.11820600  0.76911000  0.91597100  1
  O  O31  1  0.76911000  0.91597100  0.11820600  1
  O  O32  1  0.91597100  0.11820600  0.76911000  1
