# generated using pymatgen
data_AgBHC12(NF2)9
_symmetry_space_group_name_H-M   'P 1'
_cell_length_a   8.55865319
_cell_length_b   13.75219607
_cell_length_c   18.98371843
_cell_angle_alpha   90.00000000
_cell_angle_beta   90.00000000
_cell_angle_gamma   90.00000000
_symmetry_Int_Tables_number   1
_chemical_formula_structural   AgBHC12(NF2)9
_chemical_formula_sum   'Ag4 B4 H4 C48 N36 F72'
_cell_volume   2234.38891322
_cell_formula_units_Z   4
loop_
 _symmetry_equiv_pos_site_id
 _symmetry_equiv_pos_as_xyz
  1  'x, y, z'
loop_
 _atom_site_type_symbol
 _atom_site_label
 _atom_site_symmetry_multiplicity
 _atom_site_fract_x
 _atom_site_fract_y
 _atom_site_fract_z
 _atom_site_occupancy
  Ag  Ag0  1  0.45113086  0.13710035  0.28474828  1
  Ag  Ag1  1  0.04886914  0.86289965  0.78474828  1
  Ag  Ag2  1  0.54886914  0.63710035  0.21525172  1
  Ag  Ag3  1  0.95113086  0.36289965  0.71525172  1
  B  B4  1  0.69821564  0.46292076  0.10016680  1
  B  B5  1  0.80178436  0.53707924  0.60016680  1
  B  B6  1  0.30178436  0.96292076  0.39983320  1
  B  B7  1  0.19821564  0.03707924  0.89983320  1
  H  H8  1  0.74851468  0.40532146  0.05905014  1
  H  H9  1  0.75148532  0.59467854  0.55905014  1
  H  H10  1  0.25148532  0.90532146  0.44094986  1
  H  H11  1  0.24851468  0.09467854  0.94094986  1
  C  C12  1  0.59373826  0.23282053  0.10827256  1
  C  C13  1  0.90626174  0.76717947  0.60827256  1
  C  C14  1  0.40626174  0.73282053  0.39172744  1
  C  C15  1  0.09373826  0.26717947  0.89172744  1
  C  C16  1  0.19848829  0.27769208  0.54884044  1
  C  C17  1  0.30151171  0.72230792  0.04884044  1
  C  C18  1  0.80151171  0.77769208  0.95115956  1
  C  C19  1  0.69848829  0.22230792  0.45115956  1
  C  C20  1  0.39249006  0.39618736  0.32136255  1
  C  C21  1  0.10750994  0.60381264  0.82136255  1
  C  C22  1  0.60750994  0.89618736  0.17863745  1
  C  C23  1  0.89249006  0.10381264  0.67863745  1
  C  C24  1  0.48118395  0.37839091  0.25403238  1
  C  C25  1  0.01881605  0.62160909  0.75403238  1
  C  C26  1  0.51881605  0.87839091  0.24596762  1
  C  C27  1  0.98118395  0.12160909  0.74596762  1
  C  C28  1  0.57360043  0.30936791  0.16482754  1
  C  C29  1  0.92639957  0.69063209  0.66482754  1
  C  C30  1  0.42639957  0.80936791  0.33517246  1
  C  C31  1  0.07360043  0.19063209  0.83517246  1
  C  C32  1  0.08081045  0.43352568  0.08320676  1
  C  C33  1  0.41918955  0.56647432  0.58320676  1
  C  C34  1  0.91918955  0.93352568  0.41679324  1
  C  C35  1  0.58081045  0.06647432  0.91679324  1
  C  C36  1  0.99560397  0.50694658  0.12824733  1
  C  C37  1  0.50439603  0.49305342  0.62824733  1
  C  C38  1  0.00439603  0.00694658  0.37175267  1
  C  C39  1  0.49560397  0.99305342  0.87175267  1
  C  C40  1  0.45436364  0.03337584  0.50999085  1
  C  C41  1  0.04563636  0.96662416  0.00999085  1
  C  C42  1  0.54563636  0.53337584  0.99000915  1
  C  C43  1  0.95436364  0.46662416  0.49000915  1
  C  C44  1  0.04123162  0.12250157  0.30316440  1
  C  C45  1  0.45876838  0.87749843  0.80316440  1
  C  C46  1  0.95876838  0.62250157  0.19683560  1
  C  C47  1  0.54123162  0.37749843  0.69683560  1
  C  C48  1  0.08335594  0.35867508  0.53949068  1
  C  C49  1  0.41664406  0.64132492  0.03949068  1
  C  C50  1  0.91664406  0.85867508  0.96050932  1
  C  C51  1  0.58335594  0.14132492  0.46050932  1
  C  C52  1  0.10796334  0.03301331  0.06686808  1
  C  C53  1  0.39203666  0.96698669  0.56686808  1
  C  C54  1  0.89203666  0.53301331  0.43313192  1
  C  C55  1  0.60796334  0.46698669  0.93313192  1
  C  C56  1  0.00916320  0.20663540  0.25480468  1
  C  C57  1  0.49083680  0.79336460  0.75480468  1
  C  C58  1  0.99083680  0.70663540  0.24519532  1
  C  C59  1  0.50916320  0.29336460  0.74519532  1
  N  N60  1  0.49746380  0.28915474  0.22456037  1
  N  N61  1  0.00253620  0.71084526  0.72456037  1
  N  N62  1  0.50253620  0.78915474  0.27543963  1
  N  N63  1  0.99746380  0.21084526  0.77543963  1
  N  N64  1  0.41366893  0.03271298  0.44038915  1
  N  N65  1  0.08633107  0.96728702  0.94038915  1
  N  N66  1  0.58633107  0.53271298  0.05961085  1
  N  N67  1  0.91366893  0.46728702  0.55961085  1
  N  N68  1  0.49893331  0.10372160  0.40837400  1
  N  N69  1  0.00106669  0.89627840  0.90837400  1
  N  N70  1  0.50106669  0.60372160  0.09162600  1
  N  N71  1  0.99893331  0.39627840  0.59162600  1
  N  N72  1  0.16222080  0.01907488  0.36562054  1
  N  N73  1  0.33777920  0.98092512  0.86562054  1
  N  N74  1  0.83777920  0.51907488  0.13437946  1
  N  N75  1  0.66222080  0.48092512  0.63437946  1
  N  N76  1  0.06057070  0.39966143  0.47580750  1
  N  N77  1  0.43942930  0.60033857  0.97580750  1
  N  N78  1  0.93942930  0.89966143  0.02419250  1
  N  N79  1  0.56057070  0.10033857  0.52419250  1
  N  N80  1  0.18489775  0.09464200  0.32045135  1
  N  N81  1  0.31510225  0.90535800  0.82045135  1
  N  N82  1  0.81510225  0.59464200  0.17954865  1
  N  N83  1  0.68489775  0.40535800  0.67954865  1
  N  N84  1  0.07446272  0.57064045  0.16665186  1
  N  N85  1  0.42553728  0.42935955  0.66665186  1
  N  N86  1  0.92553728  0.07064045  0.33334814  1
  N  N87  1  0.57446272  0.92935955  0.83334814  1
  N  N88  1  0.60502320  0.40582652  0.15910614  1
  N  N89  1  0.89497680  0.59417348  0.65910614  1
  N  N90  1  0.39497680  0.90582652  0.34089386  1
  N  N91  1  0.10502320  0.09417348  0.84089386  1
  N  N92  1  0.54387959  0.45041784  0.21705772  1
  N  N93  1  0.95612041  0.54958216  0.71705772  1
  N  N94  1  0.45612041  0.95041784  0.28294228  1
  N  N95  1  0.04387959  0.04958216  0.78294228  1
  F  F96  1  0.05780153  0.12616468  0.05768703  1
  F  F97  1  0.44219847  0.87383532  0.55768703  1
  F  F98  1  0.94219847  0.62616468  0.44231297  1
  F  F99  1  0.55780153  0.37383532  0.94231297  1
  F  F100  1  0.23472029  0.43291303  0.10110363  1
  F  F101  1  0.26527971  0.56708697  0.60110363  1
  F  F102  1  0.76527971  0.93291303  0.39889637  1
  F  F103  1  0.73472029  0.06708697  0.89889637  1
  F  F104  1  0.48394951  0.24635464  0.05719050  1
  F  F105  1  0.01605049  0.75364536  0.55719050  1
  F  F106  1  0.51605049  0.74635464  0.44280950  1
  F  F107  1  0.98394951  0.25364536  0.94280950  1
  F  F108  1  0.07188545  0.45629521  0.01354791  1
  F  F109  1  0.42811455  0.54370479  0.51354791  1
  F  F110  1  0.92811455  0.95629521  0.48645209  1
  F  F111  1  0.57188545  0.04370479  0.98645209  1
  F  F112  1  0.33295678  0.31181594  0.34729993  1
  F  F113  1  0.16704322  0.68818406  0.84729993  1
  F  F114  1  0.66704322  0.81181594  0.15270007  1
  F  F115  1  0.83295678  0.18818406  0.65270007  1
  F  F116  1  0.02353306  0.78961297  0.20871075  1
  F  F117  1  0.47646694  0.21038703  0.70871075  1
  F  F118  1  0.97646694  0.28961297  0.29128925  1
  F  F119  1  0.52353306  0.71038703  0.79128925  1
  F  F120  1  0.57029324  0.14328218  0.13636867  1
  F  F121  1  0.92970676  0.85671782  0.63636867  1
  F  F122  1  0.42970676  0.64328218  0.36363133  1
  F  F123  1  0.07029324  0.35671782  0.86363133  1
  F  F124  1  0.11583073  0.68806417  0.28731365  1
  F  F125  1  0.38416927  0.31193583  0.78731365  1
  F  F126  1  0.88416927  0.18806417  0.21268635  1
  F  F127  1  0.61583073  0.81193583  0.71268635  1
  F  F128  1  0.48553677  0.43552927  0.37157504  1
  F  F129  1  0.01446323  0.56447073  0.87157504  1
  F  F130  1  0.51446323  0.93552927  0.12842496  1
  F  F131  1  0.98553677  0.06447073  0.62842496  1
  F  F132  1  0.19456706  0.24243189  0.61562769  1
  F  F133  1  0.30543294  0.75756811  0.11562769  1
  F  F134  1  0.80543294  0.74243189  0.88437231  1
  F  F135  1  0.69456706  0.25756811  0.38437231  1
  F  F136  1  0.34642234  0.30863080  0.53480753  1
  F  F137  1  0.15357766  0.69136920  0.03480753  1
  F  F138  1  0.65357766  0.80863080  0.96519247  1
  F  F139  1  0.84642234  0.19136920  0.46519247  1
  F  F140  1  0.16904169  0.20264678  0.50379190  1
  F  F141  1  0.33095831  0.79735322  0.00379190  1
  F  F142  1  0.83095831  0.70264678  0.99620810  1
  F  F143  1  0.66904169  0.29735322  0.49620810  1
  F  F144  1  0.13477278  0.22497103  0.21300282  1
  F  F145  1  0.36522722  0.77502897  0.71300282  1
  F  F146  1  0.86522722  0.72497103  0.28699718  1
  F  F147  1  0.63477278  0.27502897  0.78699718  1
  F  F148  1  0.73585029  0.23329574  0.07732637  1
  F  F149  1  0.76414971  0.76670426  0.57732637  1
  F  F150  1  0.26414971  0.73329574  0.42267363  1
  F  F151  1  0.23585029  0.26670426  0.92267363  1
  F  F152  1  0.26687516  0.03445835  0.06812274  1
  F  F153  1  0.23312484  0.96554165  0.56812274  1
  F  F154  1  0.73312484  0.53445835  0.43187726  1
  F  F155  1  0.76687516  0.46554165  0.93187726  1
  F  F156  1  0.05797417  0.00269353  0.13086085  1
  F  F157  1  0.44202583  0.99730647  0.63086085  1
  F  F158  1  0.94202583  0.50269353  0.36913915  1
  F  F159  1  0.55797417  0.49730647  0.86913915  1
  F  F160  1  0.27204910  0.45816432  0.30917056  1
  F  F161  1  0.22795090  0.54183568  0.80917056  1
  F  F162  1  0.72795090  0.95816432  0.19082944  1
  F  F163  1  0.77204910  0.04183568  0.69082944  1
  F  F164  1  0.02558531  0.34181062  0.09178698  1
  F  F165  1  0.47441469  0.65818938  0.59178698  1
  F  F166  1  0.97441469  0.84181062  0.40821302  1
  F  F167  1  0.52558531  0.15818938  0.90821302  1
