# generated using pymatgen
data_ZrTi3As2
_symmetry_space_group_name_H-M   'P 1'
_cell_length_a   7.77394071
_cell_length_b   7.77394071
_cell_length_c   7.77394071
_cell_angle_alpha   152.15842971
_cell_angle_beta   152.15842971
_cell_angle_gamma   39.78198748
_symmetry_Int_Tables_number   1
_chemical_formula_structural   ZrTi3As2
_chemical_formula_sum   'Zr1 Ti3 As2'
_cell_volume   102.27959209
_cell_formula_units_Z   1
loop_
 _symmetry_equiv_pos_site_id
 _symmetry_equiv_pos_as_xyz
  1  'x, y, z'
loop_
 _atom_site_type_symbol
 _atom_site_label
 _atom_site_symmetry_multiplicity
 _atom_site_fract_x
 _atom_site_fract_y
 _atom_site_fract_z
 _atom_site_occupancy
  Zr  Zr0  1  0.68109600  0.68109600  0.00000000  1
  Ti  Ti1  1  0.99800900  0.49800900  0.50000000  1
  Ti  Ti2  1  0.49800900  0.99800900  0.50000000  1
  Ti  Ti3  1  0.32311800  0.32311800  0.00000000  1
  As  As4  1  0.86747500  0.86747500  0.00000000  1
  As  As5  1  0.13229400  0.13229400  0.00000000  1
