# generated using pymatgen
data_ZrCo3(BO4)2
_symmetry_space_group_name_H-M   'P 1'
_cell_length_a   3.33169300
_cell_length_b   9.37525200
_cell_length_c   9.56265600
_cell_angle_alpha   90.00000000
_cell_angle_beta   90.00000000
_cell_angle_gamma   90.00000000
_symmetry_Int_Tables_number   1
_chemical_formula_structural   ZrCo3(BO4)2
_chemical_formula_sum   'Zr2 Co6 B4 O16'
_cell_volume   298.69397296
_cell_formula_units_Z   2
loop_
 _symmetry_equiv_pos_site_id
 _symmetry_equiv_pos_as_xyz
  1  'x, y, z'
loop_
 _atom_site_type_symbol
 _atom_site_label
 _atom_site_symmetry_multiplicity
 _atom_site_fract_x
 _atom_site_fract_y
 _atom_site_fract_z
 _atom_site_occupancy
  Zr  Zr0  1  0.50000000  0.83537900  0.39862400  1
  Zr  Zr1  1  0.50000000  0.16462100  0.89862400  1
  Co  Co2  1  0.00000000  0.07762800  0.59306000  1
  Co  Co3  1  0.00000000  0.92237200  0.09306000  1
  Co  Co4  1  0.50000000  0.44052700  0.39958600  1
  Co  Co5  1  0.50000000  0.55947300  0.89958600  1
  Co  Co6  1  0.00000000  0.66700900  0.62334000  1
  Co  Co7  1  0.00000000  0.33299100  0.12334000  1
  B  B8  1  0.00000000  0.37356000  0.67148900  1
  B  B9  1  0.00000000  0.62644000  0.17148900  1
  B  B10  1  0.50000000  0.12225000  0.31864300  1
  B  B11  1  0.50000000  0.87775000  0.81864300  1
  O  O12  1  0.00000000  0.86976200  0.51818300  1
  O  O13  1  0.00000000  0.13023800  0.01818300  1
  O  O14  1  0.50000000  0.63744000  0.48829700  1
  O  O15  1  0.50000000  0.36256000  0.98829700  1
  O  O16  1  0.00000000  0.36997300  0.52913200  1
  O  O17  1  0.00000000  0.63002700  0.02913200  1
  O  O18  1  0.50000000  0.08377600  0.46007900  1
  O  O19  1  0.50000000  0.91622400  0.96007900  1
  O  O20  1  0.00000000  0.49601600  0.75162600  1
  O  O21  1  0.00000000  0.50398400  0.25162600  1
  O  O22  1  0.50000000  0.99936700  0.23224000  1
  O  O23  1  0.50000000  0.00063300  0.73224000  1
  O  O24  1  0.00000000  0.23908500  0.74504300  1
  O  O25  1  0.00000000  0.76091500  0.24504300  1
  O  O26  1  0.50000000  0.25835900  0.27065800  1
  O  O27  1  0.50000000  0.74164100  0.77065800  1
