# generated using pymatgen
data_Al27V
_symmetry_space_group_name_H-M   'P 1'
_cell_length_a   14.16732842
_cell_length_b   14.16732842
_cell_length_c   14.16732842
_cell_angle_alpha   60.00000000
_cell_angle_beta   60.00000000
_cell_angle_gamma   60.00000000
_symmetry_Int_Tables_number   1
_chemical_formula_structural   Al27V
_chemical_formula_sum   'Al54 V2'
_cell_volume   2010.70745162
_cell_formula_units_Z   2
loop_
 _symmetry_equiv_pos_site_id
 _symmetry_equiv_pos_as_xyz
  1  'x, y, z'
loop_
 _atom_site_type_symbol
 _atom_site_label
 _atom_site_symmetry_multiplicity
 _atom_site_fract_x
 _atom_site_fract_y
 _atom_site_fract_z
 _atom_site_occupancy
  Al  Al0  1  0.12500000  0.12500000  0.12500000  1
  Al  Al1  1  0.12500000  0.12500000  0.62500000  1
  Al  Al2  1  0.12500000  0.62500000  0.12500000  1
  Al  Al3  1  0.62500000  0.12500000  0.12500000  1
  Al  Al4  1  0.31453700  0.31453700  0.77813700  1
  Al  Al5  1  0.31453700  0.31453700  0.59278900  1
  Al  Al6  1  0.77813700  0.59278900  0.31453700  1
  Al  Al7  1  0.77813700  0.31453700  0.31453700  1
  Al  Al8  1  0.93546300  0.93546300  0.65721100  1
  Al  Al9  1  0.93546300  0.93546300  0.47186300  1
  Al  Al10  1  0.59278900  0.77813700  0.31453700  1
  Al  Al11  1  0.59278900  0.31453700  0.31453700  1
  Al  Al12  1  0.31453700  0.77813700  0.59278900  1
  Al  Al13  1  0.47186300  0.65721100  0.93546300  1
  Al  Al14  1  0.31453700  0.59278900  0.77813700  1
  Al  Al15  1  0.65721100  0.47186300  0.93546300  1
  Al  Al16  1  0.31453700  0.77813700  0.31453700  1
  Al  Al17  1  0.47186300  0.93546300  0.65721100  1
  Al  Al18  1  0.47186300  0.93546300  0.93546300  1
  Al  Al19  1  0.59278900  0.31453700  0.77813700  1
  Al  Al20  1  0.93546300  0.47186300  0.93546300  1
  Al  Al21  1  0.93546300  0.47186300  0.65721100  1
  Al  Al22  1  0.77813700  0.31453700  0.59278900  1
  Al  Al23  1  0.93546300  0.65721100  0.93546300  1
  Al  Al24  1  0.93546300  0.65721100  0.47186300  1
  Al  Al25  1  0.31453700  0.59278900  0.31453700  1
  Al  Al26  1  0.65721100  0.93546300  0.47186300  1
  Al  Al27  1  0.65721100  0.93546300  0.93546300  1
  Al  Al28  1  0.00000000  0.00000000  0.00000000  1
  Al  Al29  1  0.25000000  0.25000000  0.25000000  1
  Al  Al30  1  0.75538100  0.52212500  0.52212500  1
  Al  Al31  1  0.52212500  0.75538100  0.20036900  1
  Al  Al32  1  0.52212500  0.20036900  0.75538100  1
  Al  Al33  1  0.52212500  0.75538100  0.52212500  1
  Al  Al34  1  0.49461900  0.72787500  0.04963100  1
  Al  Al35  1  0.49461900  0.72787500  0.72787500  1
  Al  Al36  1  0.20036900  0.52212500  0.52212500  1
  Al  Al37  1  0.20036900  0.52212500  0.75538100  1
  Al  Al38  1  0.72787500  0.49461900  0.72787500  1
  Al  Al39  1  0.72787500  0.49461900  0.04963100  1
  Al  Al40  1  0.75538100  0.52212500  0.20036900  1
  Al  Al41  1  0.72787500  0.04963100  0.72787500  1
  Al  Al42  1  0.72787500  0.04963100  0.49461900  1
  Al  Al43  1  0.52212500  0.20036900  0.52212500  1
  Al  Al44  1  0.04963100  0.72787500  0.49461900  1
  Al  Al45  1  0.04963100  0.72787500  0.72787500  1
  Al  Al46  1  0.52212500  0.52212500  0.75538100  1
  Al  Al47  1  0.20036900  0.75538100  0.52212500  1
  Al  Al48  1  0.52212500  0.52212500  0.20036900  1
  Al  Al49  1  0.75538100  0.20036900  0.52212500  1
  Al  Al50  1  0.04963100  0.49461900  0.72787500  1
  Al  Al51  1  0.72787500  0.72787500  0.49461900  1
  Al  Al52  1  0.49461900  0.04963100  0.72787500  1
  Al  Al53  1  0.72787500  0.72787500  0.04963100  1
  V  V54  1  0.50000000  0.50000000  0.50000000  1
  V  V55  1  0.75000000  0.75000000  0.75000000  1
