# generated using pymatgen
data_ZrUCN
_symmetry_space_group_name_H-M   'P 1'
_cell_length_a   5.93751036
_cell_length_b   5.93751036
_cell_length_c   5.93751004
_cell_angle_alpha   32.87610211
_cell_angle_beta   32.87610211
_cell_angle_gamma   32.87610774
_symmetry_Int_Tables_number   1
_chemical_formula_structural   ZrUCN
_chemical_formula_sum   'Zr1 U1 C1 N1'
_cell_volume   54.87727106
_cell_formula_units_Z   1
loop_
 _symmetry_equiv_pos_site_id
 _symmetry_equiv_pos_as_xyz
  1  'x, y, z'
loop_
 _atom_site_type_symbol
 _atom_site_label
 _atom_site_symmetry_multiplicity
 _atom_site_fract_x
 _atom_site_fract_y
 _atom_site_fract_z
 _atom_site_occupancy
  Zr  Zr0  1  0.24948900  0.24948900  0.24948900  1
  U  U1  1  0.74984900  0.74984900  0.74984900  1
  C  C2  1  0.99814300  0.99814300  0.99814300  1
  N  N3  1  0.50251800  0.50251800  0.50251800  1
