# generated using pymatgen
data_ZrMnNi
_symmetry_space_group_name_H-M   'P 1'
_cell_length_a   5.00600782
_cell_length_b   5.00600782
_cell_length_c   5.00600782
_cell_angle_alpha   89.85160099
_cell_angle_beta   60.15969645
_cell_angle_gamma   119.98846918
_symmetry_Int_Tables_number   1
_chemical_formula_structural   ZrMnNi
_chemical_formula_sum   'Zr2 Mn2 Ni2'
_cell_volume   88.82162732
_cell_formula_units_Z   2
loop_
 _symmetry_equiv_pos_site_id
 _symmetry_equiv_pos_as_xyz
  1  'x, y, z'
loop_
 _atom_site_type_symbol
 _atom_site_label
 _atom_site_symmetry_multiplicity
 _atom_site_fract_x
 _atom_site_fract_y
 _atom_site_fract_z
 _atom_site_occupancy
  Zr  Zr0  1  0.50000000  0.74871700  0.75128300  1
  Zr  Zr1  1  0.00000000  0.00128300  0.99871700  1
  Mn  Mn2  1  0.75000000  0.37500000  0.87500000  1
  Mn  Mn3  1  0.25000000  0.37500000  0.37500000  1
  Ni  Ni4  1  0.25000000  0.87500000  0.37500000  1
  Ni  Ni5  1  0.75000000  0.37500000  0.37500000  1
