# generated using pymatgen
data_ZrTi(PbO3)2
_symmetry_space_group_name_H-M   'P 1'
_cell_length_a   4.19376400
_cell_length_b   5.77536849
_cell_length_c   5.85453653
_cell_angle_alpha   88.52136135
_cell_angle_beta   88.90629516
_cell_angle_gamma   89.29799271
_symmetry_Int_Tables_number   1
_chemical_formula_structural   ZrTi(PbO3)2
_chemical_formula_sum   'Zr1 Ti1 Pb2 O6'
_cell_volume   141.71713996
_cell_formula_units_Z   1
loop_
 _symmetry_equiv_pos_site_id
 _symmetry_equiv_pos_as_xyz
  1  'x, y, z'
loop_
 _atom_site_type_symbol
 _atom_site_label
 _atom_site_symmetry_multiplicity
 _atom_site_fract_x
 _atom_site_fract_y
 _atom_site_fract_z
 _atom_site_occupancy
  Zr  Zr0  1  0.77185300  0.64295500  0.91859600  1
  Ti  Ti1  1  0.74488500  0.13767200  0.41118600  1
  Pb  Pb2  1  0.22410900  0.62221200  0.38493400  1
  Pb  Pb3  1  0.22942900  0.13573300  0.86202700  1
  O  O4  1  0.81109600  0.39176600  0.68537400  1
  O  O5  1  0.79959600  0.90562900  0.20295300  1
  O  O6  1  0.28326700  0.65888400  0.96023700  1
  O  O7  1  0.30971000  0.15657300  0.44550500  1
  O  O8  1  0.80618700  0.40438400  0.20949700  1
  O  O9  1  0.80986800  0.92119200  0.68668900  1
