# generated using pymatgen
data_ZrU4O10
_symmetry_space_group_name_H-M   'P 1'
_cell_length_a   15.61194877
_cell_length_b   15.61194877
_cell_length_c   15.61194846
_cell_angle_alpha   13.99654849
_cell_angle_beta   13.99654849
_cell_angle_gamma   13.99654689
_symmetry_Int_Tables_number   1
_chemical_formula_structural   ZrU4O10
_chemical_formula_sum   'Zr1 U4 O10'
_cell_volume   193.72989731
_cell_formula_units_Z   1
loop_
 _symmetry_equiv_pos_site_id
 _symmetry_equiv_pos_as_xyz
  1  'x, y, z'
loop_
 _atom_site_type_symbol
 _atom_site_label
 _atom_site_symmetry_multiplicity
 _atom_site_fract_x
 _atom_site_fract_y
 _atom_site_fract_z
 _atom_site_occupancy
  Zr  Zr0  1  0.00000000  0.00000000  0.00000000  1
  U  U1  1  0.60139100  0.60139100  0.60139100  1
  U  U2  1  0.20042900  0.20042900  0.20042900  1
  U  U3  1  0.79957100  0.79957100  0.79957100  1
  U  U4  1  0.39860900  0.39860900  0.39860900  1
  O  O5  1  0.04789000  0.04789000  0.04789000  1
  O  O6  1  0.85018300  0.85018300  0.85018300  1
  O  O7  1  0.44930300  0.44930300  0.44930300  1
  O  O8  1  0.65180700  0.65180700  0.65180700  1
  O  O9  1  0.25119300  0.25119300  0.25119300  1
  O  O10  1  0.34819400  0.34819400  0.34819400  1
  O  O11  1  0.14981700  0.14981700  0.14981700  1
  O  O12  1  0.74880700  0.74880700  0.74880700  1
  O  O13  1  0.95211000  0.95211000  0.95211000  1
  O  O14  1  0.55069700  0.55069700  0.55069700  1
