# generated using pymatgen
data_CaAsO7
_symmetry_space_group_name_H-M   'P 1'
_cell_length_a   9.56447100
_cell_length_b   9.76054900
_cell_length_c   14.19667000
_cell_angle_alpha   90.00000000
_cell_angle_beta   90.00000000
_cell_angle_gamma   90.00000000
_symmetry_Int_Tables_number   1
_chemical_formula_structural   CaAsO7
_chemical_formula_sum   'Ca8 As8 O56'
_cell_volume   1325.32285709
_cell_formula_units_Z   8
loop_
 _symmetry_equiv_pos_site_id
 _symmetry_equiv_pos_as_xyz
  1  'x, y, z'
loop_
 _atom_site_type_symbol
 _atom_site_label
 _atom_site_symmetry_multiplicity
 _atom_site_fract_x
 _atom_site_fract_y
 _atom_site_fract_z
 _atom_site_occupancy
  Ca  Ca0  1  0.80711800  0.87603900  0.36975300  1
  Ca  Ca1  1  0.19288200  0.12396100  0.63024700  1
  Ca  Ca2  1  0.30711800  0.12396100  0.13024700  1
  Ca  Ca3  1  0.69288200  0.37603900  0.63024700  1
  Ca  Ca4  1  0.69288200  0.87603900  0.86975300  1
  Ca  Ca5  1  0.30711800  0.62396100  0.36975300  1
  Ca  Ca6  1  0.19288200  0.62396100  0.86975300  1
  Ca  Ca7  1  0.80711800  0.37603900  0.13024700  1
  As  As8  1  0.62779800  0.94385000  0.13238300  1
  As  As9  1  0.37220200  0.05615000  0.86761700  1
  As  As10  1  0.12779800  0.05615000  0.36761700  1
  As  As11  1  0.87220200  0.44385000  0.86761700  1
  As  As12  1  0.87220200  0.94385000  0.63238300  1
  As  As13  1  0.12779800  0.55615000  0.13238300  1
  As  As14  1  0.37220200  0.55615000  0.63238300  1
  As  As15  1  0.62779800  0.44385000  0.36761700  1
  O  O16  1  0.72914500  0.89924200  0.22322400  1
  O  O17  1  0.27085500  0.10075800  0.77677600  1
  O  O18  1  0.22914500  0.10075800  0.27677600  1
  O  O19  1  0.77085500  0.39924200  0.77677600  1
  O  O20  1  0.77085500  0.89924200  0.72322400  1
  O  O21  1  0.22914500  0.60075800  0.22322400  1
  O  O22  1  0.27085500  0.60075800  0.72322400  1
  O  O23  1  0.72914500  0.39924200  0.27677600  1
  O  O24  1  0.06051400  0.76680500  0.37609900  1
  O  O25  1  0.93948600  0.23319500  0.62390100  1
  O  O26  1  0.56051400  0.23319500  0.12390100  1
  O  O27  1  0.43948600  0.26680500  0.62390100  1
  O  O28  1  0.43948600  0.76680500  0.87609900  1
  O  O29  1  0.56051400  0.73319500  0.37609900  1
  O  O30  1  0.93948600  0.73319500  0.87609900  1
  O  O31  1  0.06051400  0.26680500  0.12390100  1
  O  O32  1  0.68475600  0.89150700  0.02667800  1
  O  O33  1  0.31524400  0.10849300  0.97332200  1
  O  O34  1  0.18475600  0.10849300  0.47332200  1
  O  O35  1  0.81524400  0.39150700  0.97332200  1
  O  O36  1  0.81524400  0.89150700  0.52667800  1
  O  O37  1  0.18475600  0.60849300  0.02667800  1
  O  O38  1  0.31524400  0.60849300  0.52667800  1
  O  O39  1  0.68475600  0.39150700  0.47332200  1
  O  O40  1  0.99522400  0.87971500  0.08101900  1
  O  O41  1  0.00477600  0.12028500  0.91898100  1
  O  O42  1  0.49522400  0.12028500  0.41898100  1
  O  O43  1  0.50477600  0.37971500  0.91898100  1
  O  O44  1  0.50477600  0.87971500  0.58101900  1
  O  O45  1  0.49522400  0.62028500  0.08101900  1
  O  O46  1  0.00477600  0.62028500  0.58101900  1
  O  O47  1  0.99522400  0.37971500  0.41898100  1
  O  O48  1  0.61738100  0.58072900  0.08784500  1
  O  O49  1  0.38261900  0.41927100  0.91215500  1
  O  O50  1  0.11738100  0.41927100  0.41215500  1
  O  O51  1  0.88261900  0.08072900  0.91215500  1
  O  O52  1  0.88261900  0.58072900  0.58784500  1
  O  O53  1  0.11738100  0.91927100  0.08784500  1
  O  O54  1  0.38261900  0.91927100  0.58784500  1
  O  O55  1  0.61738100  0.08072900  0.41215500  1
  O  O56  1  0.67177200  0.65034400  0.37490000  1
  O  O57  1  0.32822800  0.34965600  0.62510000  1
  O  O58  1  0.17177200  0.34965600  0.12510000  1
  O  O59  1  0.82822800  0.15034400  0.62510000  1
  O  O60  1  0.82822800  0.65034400  0.87490000  1
  O  O61  1  0.17177200  0.84965600  0.37490000  1
  O  O62  1  0.32822800  0.84965600  0.87490000  1
  O  O63  1  0.67177200  0.15034400  0.12510000  1
  O  O64  1  0.95531600  0.55008300  0.15229900  1
  O  O65  1  0.04468400  0.44991700  0.84770100  1
  O  O66  1  0.45531600  0.44991700  0.34770100  1
  O  O67  1  0.54468400  0.05008300  0.84770100  1
  O  O68  1  0.54468400  0.55008300  0.65229900  1
  O  O69  1  0.45531600  0.94991700  0.15229900  1
  O  O70  1  0.04468400  0.94991700  0.65229900  1
  O  O71  1  0.95531600  0.05008300  0.34770100  1
