# generated using pymatgen
data_ZrInCuS4
_symmetry_space_group_name_H-M   'P 1'
_cell_length_a   7.50562103
_cell_length_b   7.50562103
_cell_length_c   7.50562103
_cell_angle_alpha   121.35509313
_cell_angle_beta   120.25770593
_cell_angle_gamma   88.61155099
_symmetry_Int_Tables_number   1
_chemical_formula_structural   ZrInCuS4
_chemical_formula_sum   'Zr2 In2 Cu2 S8'
_cell_volume   295.20875462
_cell_formula_units_Z   2
loop_
 _symmetry_equiv_pos_site_id
 _symmetry_equiv_pos_as_xyz
  1  'x, y, z'
loop_
 _atom_site_type_symbol
 _atom_site_label
 _atom_site_symmetry_multiplicity
 _atom_site_fract_x
 _atom_site_fract_y
 _atom_site_fract_z
 _atom_site_occupancy
  Zr  Zr0  1  0.00000000  0.50000000  0.00000000  1
  Zr  Zr1  1  0.00000000  0.00000000  0.50000000  1
  In  In2  1  0.50000000  0.50000000  0.00000000  1
  In  In3  1  0.00000000  0.50000000  0.50000000  1
  Cu  Cu4  1  0.37415900  0.12415900  0.25000000  1
  Cu  Cu5  1  0.62584100  0.87584100  0.75000000  1
  S  S6  1  0.24628100  0.75490400  0.49137700  1
  S  S7  1  0.76352700  0.75490400  0.00862300  1
  S  S8  1  0.75699900  0.75423300  0.49723400  1
  S  S9  1  0.75699900  0.25976500  0.00276600  1
  S  S10  1  0.75371900  0.24509600  0.50862300  1
  S  S11  1  0.23647300  0.24509600  0.99137700  1
  S  S12  1  0.24300100  0.24576700  0.50276600  1
  S  S13  1  0.24300100  0.74023500  0.99723400  1
