# generated using pymatgen
data_ZrTiS6
_symmetry_space_group_name_H-M   'P 1'
_cell_length_a   3.54511200
_cell_length_b   5.12676212
_cell_length_c   9.16939059
_cell_angle_alpha   83.63159616
_cell_angle_beta   90.00000000
_cell_angle_gamma   90.00000000
_symmetry_Int_Tables_number   1
_chemical_formula_structural   ZrTiS6
_chemical_formula_sum   'Zr1 Ti1 S6'
_cell_volume   165.62480111
_cell_formula_units_Z   1
loop_
 _symmetry_equiv_pos_site_id
 _symmetry_equiv_pos_as_xyz
  1  'x, y, z'
loop_
 _atom_site_type_symbol
 _atom_site_label
 _atom_site_symmetry_multiplicity
 _atom_site_fract_x
 _atom_site_fract_y
 _atom_site_fract_z
 _atom_site_occupancy
  Zr  Zr0  1  0.25000000  0.72277600  0.64760700  1
  Ti  Ti1  1  0.75000000  0.27893300  0.34792300  1
  S  S2  1  0.75000000  0.48120800  0.82290200  1
  S  S3  1  0.25000000  0.50984200  0.18734900  1
  S  S4  1  0.75000000  0.88406700  0.82717500  1
  S  S5  1  0.25000000  0.11511200  0.18440200  1
  S  S6  1  0.75000000  0.76484400  0.44014200  1
  S  S7  1  0.25000000  0.24321800  0.54250000  1
