# generated using pymatgen
data_Al3P3H7O12
_symmetry_space_group_name_H-M   'P 1'
_cell_length_a   8.51977058
_cell_length_b   18.99039765
_cell_length_c   18.99039765
_cell_angle_alpha   119.99999678
_cell_angle_beta   90.00000000
_cell_angle_gamma   90.00000000
_symmetry_Int_Tables_number   1
_chemical_formula_structural   Al3P3H7O12
_chemical_formula_sum   'Al18 P18 H42 O72'
_cell_volume   2660.88842177
_cell_formula_units_Z   6
loop_
 _symmetry_equiv_pos_site_id
 _symmetry_equiv_pos_as_xyz
  1  'x, y, z'
loop_
 _atom_site_type_symbol
 _atom_site_label
 _atom_site_symmetry_multiplicity
 _atom_site_fract_x
 _atom_site_fract_y
 _atom_site_fract_z
 _atom_site_occupancy
  Al  Al0  1  0.69511559  0.48028862  0.82883334  1
  Al  Al1  1  0.69511559  0.34854473  0.51971138  1
  Al  Al2  1  0.19511559  0.51971138  0.17116666  1
  Al  Al3  1  0.69511559  0.17116666  0.65145527  1
  Al  Al4  1  0.19511559  0.65145527  0.48028862  1
  Al  Al5  1  0.19511559  0.82883334  0.34854473  1
  Al  Al6  1  0.69738404  0.65747142  0.17087721  1
  Al  Al7  1  0.69738404  0.51340578  0.34252858  1
  Al  Al8  1  0.19738404  0.34252858  0.82912279  1
  Al  Al9  1  0.69738404  0.82912279  0.48659422  1
  Al  Al10  1  0.19738404  0.48659422  0.65747142  1
  Al  Al11  1  0.19738404  0.17087721  0.51340578  1
  Al  Al12  1  0.72598711  0.59791411  0.59510802  1
  Al  Al13  1  0.72598711  0.99719391  0.40208589  1
  Al  Al14  1  0.22598711  0.40208589  0.40489198  1
  Al  Al15  1  0.72598711  0.40489198  0.00280609  1
  Al  Al16  1  0.22598711  0.00280609  0.59791411  1
  Al  Al17  1  0.22598711  0.59510802  0.99719391  1
  P  P18  1  0.82065601  0.50539893  0.68415773  1
  P  P19  1  0.82065601  0.17875880  0.49460107  1
  P  P20  1  0.32065601  0.49460107  0.31584227  1
  P  P21  1  0.82065601  0.31584227  0.82124120  1
  P  P22  1  0.32065601  0.82124120  0.50539893  1
  P  P23  1  0.32065601  0.68415773  0.17875880  1
  P  P24  1  0.85236070  0.43918458  0.44063030  1
  P  P25  1  0.85236070  0.00144572  0.56081542  1
  P  P26  1  0.35236070  0.56081542  0.55936970  1
  P  P27  1  0.85236070  0.55936970  0.99855428  1
  P  P28  1  0.35236070  0.99855428  0.43918458  1
  P  P29  1  0.35236070  0.44063030  0.00144572  1
  P  P30  1  0.81888996  0.81971400  0.32504552  1
  P  P31  1  0.81888996  0.50533152  0.18028600  1
  P  P32  1  0.31888996  0.18028600  0.67495448  1
  P  P33  1  0.81888996  0.67495448  0.49466848  1
  P  P34  1  0.31888996  0.49466848  0.81971400  1
  P  P35  1  0.31888996  0.32504552  0.50533152  1
  H  H36  1  0.65907521  0.99887710  0.28325612  1
  H  H37  1  0.65907521  0.28437903  0.00112290  1
  H  H38  1  0.15907521  0.00112290  0.71674388  1
  H  H39  1  0.65907521  0.71674388  0.71562097  1
  H  H40  1  0.15907521  0.71562097  0.99887710  1
  H  H41  1  0.15907521  0.28325612  0.28437903  1
  H  H42  1  0.95284919  0.94992100  0.07690334  1
  H  H43  1  0.95284919  0.12698234  0.05007900  1
  H  H44  1  0.45284919  0.05007900  0.92309666  1
  H  H45  1  0.95284919  0.92309666  0.87301766  1
  H  H46  1  0.45284919  0.87301766  0.94992100  1
  H  H47  1  0.45284919  0.07690334  0.12698234  1
  H  H48  1  0.95069003  0.81282501  0.13262575  1
  H  H49  1  0.95069003  0.31980073  0.18717499  1
  H  H50  1  0.45069003  0.18717499  0.86737425  1
  H  H51  1  0.95069003  0.86737425  0.68019927  1
  H  H52  1  0.45069003  0.68019927  0.81282501  1
  H  H53  1  0.45069003  0.13262575  0.31980073  1
  H  H54  1  0.98257274  0.68230727  0.86076903  1
  H  H55  1  0.98257274  0.17846176  0.31769273  1
  H  H56  1  0.48257274  0.31769273  0.13923097  1
  H  H57  1  0.98257274  0.13923097  0.82153824  1
  H  H58  1  0.48257274  0.82153824  0.68230727  1
  H  H59  1  0.48257274  0.86076903  0.17846176  1
  H  H60  1  0.70164292  0.75893783  0.95229675  1
  H  H61  1  0.70164292  0.19335892  0.24106217  1
  H  H62  1  0.20164292  0.24106217  0.04770325  1
  H  H63  1  0.70164292  0.04770325  0.80664108  1
  H  H64  1  0.20164292  0.80664108  0.75893783  1
  H  H65  1  0.20164292  0.95229675  0.19335892  1
  H  H66  1  0.97941780  0.99961378  0.33599168  1
  H  H67  1  0.97941780  0.33637790  0.00038622  1
  H  H68  1  0.47941780  0.00038622  0.66400832  1
  H  H69  1  0.97941780  0.66400832  0.66362210  1
  H  H70  1  0.47941780  0.66362210  0.99961378  1
  H  H71  1  0.47941780  0.33599168  0.33637790  1
  H  H72  1  0.94837106  0.95075831  0.11679657  1
  H  H73  1  0.94837106  0.16603826  0.04924169  1
  H  H74  1  0.44837106  0.04924169  0.88320343  1
  H  H75  1  0.94837106  0.88320343  0.83396174  1
  H  H76  1  0.44837106  0.83396174  0.95075831  1
  H  H77  1  0.44837106  0.11679657  0.16603826  1
  O  O78  1  0.71218510  0.81079888  0.38615304  1
  O  O79  1  0.71218510  0.57535416  0.18920112  1
  O  O80  1  0.21218510  0.18920112  0.61384696  1
  O  O81  1  0.71218510  0.61384696  0.42464584  1
  O  O82  1  0.21218510  0.42464584  0.81079888  1
  O  O83  1  0.21218510  0.38615304  0.57535416  1
  O  O84  1  0.52439721  0.98881177  0.41293961  1
  O  O85  1  0.52439721  0.42412783  0.01118823  1
  O  O86  1  0.02439721  0.01118823  0.58706039  1
  O  O87  1  0.52439721  0.58706039  0.57587217  1
  O  O88  1  0.02439721  0.57587217  0.98881177  1
  O  O89  1  0.02439721  0.41293961  0.42412783  1
  O  O90  1  0.74959609  0.57625554  0.67602795  1
  O  O91  1  0.74959609  0.09977241  0.42374446  1
  O  O92  1  0.24959609  0.42374446  0.32397205  1
  O  O93  1  0.74959609  0.32397205  0.90022759  1
  O  O94  1  0.24959609  0.90022759  0.57625554  1
  O  O95  1  0.24959609  0.67602795  0.09977241  1
  O  O96  1  0.78462830  0.62960191  0.07715836  1
  O  O97  1  0.78462830  0.44755645  0.37039809  1
  O  O98  1  0.28462830  0.37039809  0.92284164  1
  O  O99  1  0.78462830  0.92284164  0.55244355  1
  O  O100  1  0.28462830  0.55244355  0.62960191  1
  O  O101  1  0.28462830  0.07715836  0.44755645  1
  O  O102  1  0.79811841  0.74476927  0.24077802  1
  O  O103  1  0.79811841  0.49600875  0.25523073  1
  O  O104  1  0.29811841  0.25523073  0.75922198  1
  O  O105  1  0.79811841  0.75922198  0.50399125  1
  O  O106  1  0.29811841  0.50399125  0.74476927  1
  O  O107  1  0.29811841  0.24077802  0.49600875  1
  O  O108  1  0.77371571  0.89690719  0.32110469  1
  O  O109  1  0.77371571  0.42419751  0.10309281  1
  O  O110  1  0.27371571  0.10309281  0.67889531  1
  O  O111  1  0.77371571  0.67889531  0.57580249  1
  O  O112  1  0.27371571  0.57580249  0.89690719  1
  O  O113  1  0.27371571  0.32110469  0.42419751  1
  O  O114  1  0.75508504  0.55228522  0.92720010  1
  O  O115  1  0.75508504  0.37491488  0.44771478  1
  O  O116  1  0.25508504  0.44771478  0.07279990  1
  O  O117  1  0.75508504  0.07279990  0.62508512  1
  O  O118  1  0.25508504  0.62508512  0.55228522  1
  O  O119  1  0.25508504  0.92720010  0.37491488  1
  O  O120  1  0.76500795  0.42163061  0.61572819  1
  O  O121  1  0.76500795  0.19409758  0.57836939  1
  O  O122  1  0.26500795  0.57836939  0.38427181  1
  O  O123  1  0.76500795  0.38427181  0.80590242  1
  O  O124  1  0.26500795  0.80590242  0.42163061  1
  O  O125  1  0.26500795  0.61572819  0.19409758  1
  O  O126  1  0.84555550  0.99986639  0.47911148  1
  O  O127  1  0.84555550  0.47924509  0.00013361  1
  O  O128  1  0.34555550  0.00013361  0.52088852  1
  O  O129  1  0.84555550  0.52088852  0.52075491  1
  O  O130  1  0.34555550  0.52075491  0.99986639  1
  O  O131  1  0.34555550  0.47911148  0.47924509  1
  O  O132  1  0.76771275  0.51506859  0.76564887  1
  O  O133  1  0.76771275  0.25058029  0.48493141  1
  O  O134  1  0.26771275  0.48493141  0.23435113  1
  O  O135  1  0.76771275  0.23435113  0.74941971  1
  O  O136  1  0.26771275  0.74941971  0.51506859  1
  O  O137  1  0.26771275  0.76564887  0.25058029  1
  O  O138  1  0.99073204  0.82412012  0.35138111  1
  O  O139  1  0.99073204  0.52726099  0.17587988  1
  O  O140  1  0.49073204  0.17587988  0.64861889  1
  O  O141  1  0.99073204  0.64861889  0.47273901  1
  O  O142  1  0.49073204  0.47273901  0.82412012  1
  O  O143  1  0.49073204  0.35138111  0.52726099  1
  O  O144  1  0.00025354  0.51006493  0.68267893  1
  O  O145  1  0.00025354  0.17261400  0.48993507  1
  O  O146  1  0.50025354  0.48993507  0.31732107  1
  O  O147  1  0.00025354  0.31732107  0.82738600  1
  O  O148  1  0.50025354  0.82738600  0.51006493  1
  O  O149  1  0.50025354  0.68267893  0.17261400  1
