# generated using pymatgen
data_Al2FeSiO5
_symmetry_space_group_name_H-M   'P 1'
_cell_length_a   5.37623500
_cell_length_b   14.66221136
_cell_length_c   14.66221136
_cell_angle_alpha   113.18366301
_cell_angle_beta   90.00000000
_cell_angle_gamma   90.00000000
_symmetry_Int_Tables_number   1
_chemical_formula_structural   Al2FeSiO5
_chemical_formula_sum   'Al16 Fe8 Si8 O40'
_cell_volume   1062.45296541
_cell_formula_units_Z   8
loop_
 _symmetry_equiv_pos_site_id
 _symmetry_equiv_pos_as_xyz
  1  'x, y, z'
loop_
 _atom_site_type_symbol
 _atom_site_label
 _atom_site_symmetry_multiplicity
 _atom_site_fract_x
 _atom_site_fract_y
 _atom_site_fract_z
 _atom_site_occupancy
  Al  Al0  1  0.63208700  0.57459600  0.08983800  1
  Al  Al1  1  0.63208700  0.42540400  0.91016200  1
  Al  Al2  1  0.36791300  0.91016200  0.42540400  1
  Al  Al3  1  0.86791300  0.92540400  0.41016200  1
  Al  Al4  1  0.36791300  0.08983800  0.57459600  1
  Al  Al5  1  0.86791300  0.07459600  0.58983800  1
  Al  Al6  1  0.13208700  0.58983800  0.07459600  1
  Al  Al7  1  0.13208700  0.41016200  0.92540400  1
  Al  Al8  1  0.66682400  0.51790900  0.59812500  1
  Al  Al9  1  0.66682400  0.48209100  0.40187500  1
  Al  Al10  1  0.33317600  0.40187500  0.48209100  1
  Al  Al11  1  0.83317600  0.98209100  0.90187500  1
  Al  Al12  1  0.33317600  0.59812500  0.51790900  1
  Al  Al13  1  0.83317600  0.01790900  0.09812500  1
  Al  Al14  1  0.16682400  0.09812500  0.01790900  1
  Al  Al15  1  0.16682400  0.90187500  0.98209100  1
  Fe  Fe16  1  0.79201100  0.79978000  0.10555100  1
  Fe  Fe17  1  0.79201100  0.20022000  0.89444900  1
  Fe  Fe18  1  0.20798900  0.89444900  0.20022000  1
  Fe  Fe19  1  0.70798900  0.70022000  0.39444900  1
  Fe  Fe20  1  0.20798900  0.10555100  0.79978000  1
  Fe  Fe21  1  0.70798900  0.29978000  0.60555100  1
  Fe  Fe22  1  0.29201100  0.60555100  0.29978000  1
  Fe  Fe23  1  0.29201100  0.39444900  0.70022000  1
  Si  Si24  1  0.86574300  0.57096600  0.81906500  1
  Si  Si25  1  0.86574300  0.42903400  0.18093500  1
  Si  Si26  1  0.13425700  0.18093500  0.42903400  1
  Si  Si27  1  0.63425700  0.92903400  0.68093500  1
  Si  Si28  1  0.13425700  0.81906500  0.57096600  1
  Si  Si29  1  0.63425700  0.07096600  0.31906500  1
  Si  Si30  1  0.36574300  0.31906500  0.07096600  1
  Si  Si31  1  0.36574300  0.68093500  0.92903400  1
  O  O32  1  0.86031600  0.66983000  0.10045200  1
  O  O33  1  0.86031600  0.33017000  0.89954800  1
  O  O34  1  0.13968400  0.89954800  0.33017000  1
  O  O35  1  0.63968400  0.83017000  0.39954800  1
  O  O36  1  0.13968400  0.10045200  0.66983000  1
  O  O37  1  0.63968400  0.16983000  0.60045200  1
  O  O38  1  0.36031600  0.60045200  0.16983000  1
  O  O39  1  0.36031600  0.39954800  0.83017000  1
  O  O40  1  0.84426500  0.54684700  0.70106700  1
  O  O41  1  0.84426500  0.45315300  0.29893300  1
  O  O42  1  0.15573500  0.29893300  0.45315300  1
  O  O43  1  0.65573500  0.95315300  0.79893300  1
  O  O44  1  0.15573500  0.70106700  0.54684700  1
  O  O45  1  0.65573500  0.04684700  0.20106700  1
  O  O46  1  0.34426500  0.20106700  0.04684700  1
  O  O47  1  0.34426500  0.79893300  0.95315300  1
  O  O48  1  0.85775100  0.46782100  0.83659400  1
  O  O49  1  0.85775100  0.53217900  0.16340600  1
  O  O50  1  0.14224900  0.16340600  0.53217900  1
  O  O51  1  0.64224900  0.03217900  0.66340600  1
  O  O52  1  0.14224900  0.83659400  0.46782100  1
  O  O53  1  0.64224900  0.96782100  0.33659400  1
  O  O54  1  0.35775100  0.33659400  0.96782100  1
  O  O55  1  0.35775100  0.66340600  0.03217900  1
  O  O56  1  0.82302100  0.90654100  0.97883100  1
  O  O57  1  0.82302100  0.09345900  0.02116900  1
  O  O58  1  0.17697900  0.02116900  0.09345900  1
  O  O59  1  0.67697900  0.59345900  0.52116900  1
  O  O60  1  0.17697900  0.97883100  0.90654100  1
  O  O61  1  0.67697900  0.40654100  0.47883100  1
  O  O62  1  0.32302100  0.47883100  0.40654100  1
  O  O63  1  0.32302100  0.52116900  0.59345900  1
  O  O64  1  0.63727300  0.64561400  0.87606000  1
  O  O65  1  0.63727300  0.35438600  0.12394000  1
  O  O66  1  0.36272700  0.12394000  0.35438600  1
  O  O67  1  0.86272700  0.85438600  0.62394000  1
  O  O68  1  0.36272700  0.87606000  0.64561400  1
  O  O69  1  0.86272700  0.14561400  0.37606000  1
  O  O70  1  0.13727300  0.37606000  0.14561400  1
  O  O71  1  0.13727300  0.62394000  0.85438600  1
