# generated using pymatgen
data_Zr8As5
_symmetry_space_group_name_H-M   'P 1'
_cell_length_a   3.74925600
_cell_length_b   10.23768400
_cell_length_c   28.82554571
_cell_angle_alpha   89.16096101
_cell_angle_beta   90.00000000
_cell_angle_gamma   90.00000000
_symmetry_Int_Tables_number   1
_chemical_formula_structural   Zr8As5
_chemical_formula_sum   'Zr32 As20'
_cell_volume   1106.31241304
_cell_formula_units_Z   4
loop_
 _symmetry_equiv_pos_site_id
 _symmetry_equiv_pos_as_xyz
  1  'x, y, z'
loop_
 _atom_site_type_symbol
 _atom_site_label
 _atom_site_symmetry_multiplicity
 _atom_site_fract_x
 _atom_site_fract_y
 _atom_site_fract_z
 _atom_site_occupancy
  Zr  Zr0  1  0.50000000  0.24843600  0.98875600  1
  Zr  Zr1  1  0.50000000  0.75156400  0.01124400  1
  Zr  Zr2  1  0.50000000  0.21076300  0.49494300  1
  Zr  Zr3  1  0.50000000  0.78923700  0.50505700  1
  Zr  Zr4  1  0.50000000  0.49730200  0.76467000  1
  Zr  Zr5  1  0.50000000  0.50269800  0.23533000  1
  Zr  Zr6  1  0.50000000  0.00213500  0.26482600  1
  Zr  Zr7  1  0.50000000  0.99786500  0.73517400  1
  Zr  Zr8  1  0.00000000  0.25040300  0.71655600  1
  Zr  Zr9  1  0.00000000  0.74959700  0.28344400  1
  Zr  Zr10  1  0.00000000  0.25181400  0.21610100  1
  Zr  Zr11  1  0.00000000  0.74818600  0.78389900  1
  Zr  Zr12  1  0.50000000  0.49657100  0.58107700  1
  Zr  Zr13  1  0.50000000  0.50342900  0.41892300  1
  Zr  Zr14  1  0.50000000  0.01672900  0.08284300  1
  Zr  Zr15  1  0.50000000  0.98327100  0.91715700  1
  Zr  Zr16  1  0.00000000  0.08488500  0.82842400  1
  Zr  Zr17  1  0.00000000  0.91511500  0.17157600  1
  Zr  Zr18  1  0.00000000  0.40723000  0.32959000  1
  Zr  Zr19  1  0.00000000  0.59277000  0.67041000  1
  Zr  Zr20  1  0.50000000  0.33646400  0.87349800  1
  Zr  Zr21  1  0.50000000  0.66353600  0.12650200  1
  Zr  Zr22  1  0.50000000  0.16208700  0.37309200  1
  Zr  Zr23  1  0.50000000  0.83791300  0.62690800  1
  Zr  Zr24  1  0.50000000  0.18014800  0.62135700  1
  Zr  Zr25  1  0.50000000  0.81985200  0.37864300  1
  Zr  Zr26  1  0.50000000  0.32807800  0.11813600  1
  Zr  Zr27  1  0.50000000  0.67192200  0.88186400  1
  Zr  Zr28  1  0.00000000  0.50000000  0.50000000  1
  Zr  Zr29  1  0.00000000  0.00000000  0.00000000  1
  Zr  Zr30  1  0.00000000  0.00199400  0.55724200  1
  Zr  Zr31  1  0.00000000  0.99800600  0.44275800  1
  As  As32  1  0.00000000  0.02035300  0.66215500  1
  As  As33  1  0.00000000  0.97964700  0.33784500  1
  As  As34  1  0.00000000  0.48164700  0.16273700  1
  As  As35  1  0.00000000  0.51835300  0.83726300  1
  As  As36  1  0.50000000  0.40051800  0.67149100  1
  As  As37  1  0.50000000  0.59948200  0.32850900  1
  As  As38  1  0.50000000  0.10802500  0.17099100  1
  As  As39  1  0.50000000  0.89197500  0.82900900  1
  As  As40  1  0.00000000  0.28742600  0.56106700  1
  As  As41  1  0.00000000  0.71257400  0.43893300  1
  As  As42  1  0.00000000  0.22056000  0.05881900  1
  As  As43  1  0.00000000  0.77944000  0.94118100  1
  As  As44  1  0.50000000  0.23814400  0.78606900  1
  As  As45  1  0.50000000  0.76185600  0.21393100  1
  As  As46  1  0.50000000  0.26163800  0.28502800  1
  As  As47  1  0.50000000  0.73836200  0.71497200  1
  As  As48  1  0.00000000  0.18256500  0.92039700  1
  As  As49  1  0.00000000  0.81743500  0.07960300  1
  As  As50  1  0.00000000  0.29803300  0.42541600  1
  As  As51  1  0.00000000  0.70196700  0.57458400  1
