# generated using pymatgen
data_Zr5S8
_symmetry_space_group_name_H-M   'P 1'
_cell_length_a   7.48965098
_cell_length_b   7.48965098
_cell_length_c   7.48965098
_cell_angle_alpha   60.00000000
_cell_angle_beta   60.00000000
_cell_angle_gamma   60.00000000
_symmetry_Int_Tables_number   1
_chemical_formula_structural   Zr5S8
_chemical_formula_sum   'Zr5 S8'
_cell_volume   297.07748782
_cell_formula_units_Z   1
loop_
 _symmetry_equiv_pos_site_id
 _symmetry_equiv_pos_as_xyz
  1  'x, y, z'
loop_
 _atom_site_type_symbol
 _atom_site_label
 _atom_site_symmetry_multiplicity
 _atom_site_fract_x
 _atom_site_fract_y
 _atom_site_fract_z
 _atom_site_occupancy
  Zr  Zr0  1  0.07761600  0.64079500  0.64079500  1
  Zr  Zr1  1  0.64079500  0.07761600  0.64079500  1
  Zr  Zr2  1  0.64079500  0.64079500  0.07761600  1
  Zr  Zr3  1  0.64079500  0.64079500  0.64079500  1
  Zr  Zr4  1  0.25000000  0.25000000  0.25000000  1
  S  S5  1  0.84747900  0.38417400  0.38417400  1
  S  S6  1  0.38417400  0.84747900  0.38417400  1
  S  S7  1  0.38417400  0.38417400  0.84747900  1
  S  S8  1  0.38417400  0.38417400  0.38417400  1
  S  S9  1  0.36236300  0.87921200  0.87921200  1
  S  S10  1  0.87921200  0.36236300  0.87921200  1
  S  S11  1  0.87921200  0.87921200  0.36236300  1
  S  S12  1  0.87921200  0.87921200  0.87921200  1
