# generated using pymatgen
data_ZnCu3
_symmetry_space_group_name_H-M   'P 1'
_cell_length_a   8.47095062
_cell_length_b   8.47095062
_cell_length_c   8.47095029
_cell_angle_alpha   17.79853212
_cell_angle_beta   17.79853212
_cell_angle_gamma   17.79853432
_symmetry_Int_Tables_number   1
_chemical_formula_structural   ZnCu3
_chemical_formula_sum   'Zn1 Cu3'
_cell_volume   49.58075981
_cell_formula_units_Z   1
loop_
 _symmetry_equiv_pos_site_id
 _symmetry_equiv_pos_as_xyz
  1  'x, y, z'
loop_
 _atom_site_type_symbol
 _atom_site_label
 _atom_site_symmetry_multiplicity
 _atom_site_fract_x
 _atom_site_fract_y
 _atom_site_fract_z
 _atom_site_occupancy
  Zn  Zn0  1  0.00000000  0.00000000  0.00000000  1
  Cu  Cu1  1  0.24859200  0.24859200  0.24859200  1
  Cu  Cu2  1  0.50000000  0.50000000  0.50000000  1
  Cu  Cu3  1  0.75140800  0.75140800  0.75140800  1
