# generated using pymatgen
data_Zr6Pb(OF11)2
_symmetry_space_group_name_H-M   'P 1'
_cell_length_a   7.63415597
_cell_length_b   7.63415597
_cell_length_c   15.25012500
_cell_angle_alpha   90.00000000
_cell_angle_beta   90.00000000
_cell_angle_gamma   119.99999976
_symmetry_Int_Tables_number   1
_chemical_formula_structural   Zr6Pb(OF11)2
_chemical_formula_sum   'Zr12 Pb2 O4 F44'
_cell_volume   769.70816509
_cell_formula_units_Z   2
loop_
 _symmetry_equiv_pos_site_id
 _symmetry_equiv_pos_as_xyz
  1  'x, y, z'
loop_
 _atom_site_type_symbol
 _atom_site_label
 _atom_site_symmetry_multiplicity
 _atom_site_fract_x
 _atom_site_fract_y
 _atom_site_fract_z
 _atom_site_occupancy
  Zr  Zr0  1  0.82702700  0.17297300  0.60960200  1
  Zr  Zr1  1  0.34594600  0.17297300  0.60960200  1
  Zr  Zr2  1  0.82702700  0.65405400  0.60960200  1
  Zr  Zr3  1  0.17865100  0.82134900  0.38727700  1
  Zr  Zr4  1  0.64269800  0.82134900  0.38727700  1
  Zr  Zr5  1  0.17865100  0.35730200  0.38727700  1
  Zr  Zr6  1  0.17297300  0.82702700  0.10960200  1
  Zr  Zr7  1  0.65405400  0.82702700  0.10960200  1
  Zr  Zr8  1  0.17297300  0.34594600  0.10960200  1
  Zr  Zr9  1  0.82134900  0.17865100  0.88727700  1
  Zr  Zr10  1  0.35730200  0.17865100  0.88727700  1
  Zr  Zr11  1  0.82134900  0.64269800  0.88727700  1
  Pb  Pb12  1  0.66666700  0.33333300  0.24293700  1
  Pb  Pb13  1  0.33333300  0.66666700  0.74293700  1
  O  O14  1  0.66666700  0.33333300  0.59000100  1
  O  O15  1  0.33333300  0.66666700  0.41081800  1
  O  O16  1  0.33333300  0.66666700  0.09000100  1
  O  O17  1  0.66666700  0.33333300  0.91081800  1
  F  F18  1  0.32974800  0.99836800  0.49850400  1
  F  F19  1  0.66862100  0.67025200  0.49850400  1
  F  F20  1  0.00163200  0.33137900  0.49850400  1
  F  F21  1  0.66862100  0.99836800  0.49850400  1
  F  F22  1  0.00163200  0.67025200  0.49850400  1
  F  F23  1  0.32974800  0.33137900  0.49850400  1
  F  F24  1  0.67025200  0.00163200  0.99850400  1
  F  F25  1  0.33137900  0.32974800  0.99850400  1
  F  F26  1  0.99836800  0.66862100  0.99850400  1
  F  F27  1  0.33137900  0.00163200  0.99850400  1
  F  F28  1  0.99836800  0.32974800  0.99850400  1
  F  F29  1  0.67025200  0.66862100  0.99850400  1
  F  F30  1  0.87653300  0.12346700  0.16054200  1
  F  F31  1  0.24693500  0.12346700  0.16054200  1
  F  F32  1  0.87653300  0.75306500  0.16054200  1
  F  F33  1  0.11309500  0.88690500  0.85320200  1
  F  F34  1  0.77381000  0.88690500  0.85320200  1
  F  F35  1  0.11309500  0.22619000  0.85320200  1
  F  F36  1  0.12346700  0.87653300  0.66054200  1
  F  F37  1  0.75306500  0.87653300  0.66054200  1
  F  F38  1  0.12346700  0.24693500  0.66054200  1
  F  F39  1  0.88690500  0.11309500  0.35320200  1
  F  F40  1  0.22619000  0.11309500  0.35320200  1
  F  F41  1  0.88690500  0.77381000  0.35320200  1
  F  F42  1  0.80450900  0.19549100  0.74967900  1
  F  F43  1  0.39098300  0.19549100  0.74967900  1
  F  F44  1  0.80450900  0.60901700  0.74967900  1
  F  F45  1  0.19549100  0.80450900  0.24967900  1
  F  F46  1  0.60901700  0.80450900  0.24967900  1
  F  F47  1  0.19549100  0.39098300  0.24967900  1
  F  F48  1  0.49329200  0.50670800  0.64683800  1
  F  F49  1  0.01341700  0.50670800  0.64683800  1
  F  F50  1  0.49329200  0.98658300  0.64683800  1
  F  F51  1  0.50742500  0.49257500  0.35042900  1
  F  F52  1  0.98515000  0.49257500  0.35042900  1
  F  F53  1  0.50742500  0.01485000  0.35042900  1
  F  F54  1  0.50670800  0.49329200  0.14683800  1
  F  F55  1  0.98658300  0.49329200  0.14683800  1
  F  F56  1  0.50670800  0.01341700  0.14683800  1
  F  F57  1  0.49257500  0.50742500  0.85042900  1
  F  F58  1  0.01485000  0.50742500  0.85042900  1
  F  F59  1  0.49257500  0.98515000  0.85042900  1
  F  F60  1  0.00000000  0.00000000  0.53909500  1
  F  F61  1  0.00000000  0.00000000  0.03909500  1
