# generated using pymatgen
data_Zn3FeS4
_symmetry_space_group_name_H-M   'P 1'
_cell_length_a   12.76113067
_cell_length_b   12.76113067
_cell_length_c   12.76113058
_cell_angle_alpha   17.28370955
_cell_angle_beta   17.28370955
_cell_angle_gamma   17.28371150
_symmetry_Int_Tables_number   1
_chemical_formula_structural   Zn3FeS4
_chemical_formula_sum   'Zn3 Fe1 S4'
_cell_volume   160.06403371
_cell_formula_units_Z   1
loop_
 _symmetry_equiv_pos_site_id
 _symmetry_equiv_pos_as_xyz
  1  'x, y, z'
loop_
 _atom_site_type_symbol
 _atom_site_label
 _atom_site_symmetry_multiplicity
 _atom_site_fract_x
 _atom_site_fract_y
 _atom_site_fract_z
 _atom_site_occupancy
  Zn  Zn0  1  0.00003800  0.00003800  0.00003800  1
  Zn  Zn1  1  0.75005500  0.75005500  0.75005500  1
  Zn  Zn2  1  0.50007700  0.50007700  0.50007700  1
  Fe  Fe3  1  0.25011500  0.25011500  0.25011500  1
  S  S4  1  0.06248100  0.06248100  0.06248100  1
  S  S5  1  0.81246300  0.81246300  0.81246300  1
  S  S6  1  0.56275400  0.56275400  0.56275400  1
  S  S7  1  0.31201800  0.31201800  0.31201800  1
