# generated using pymatgen
data_Zr3Se2
_symmetry_space_group_name_H-M   'P 1'
_cell_length_a   3.43257958
_cell_length_b   3.43257958
_cell_length_c   10.67700400
_cell_angle_alpha   90.00000000
_cell_angle_beta   90.00000000
_cell_angle_gamma   119.99999198
_symmetry_Int_Tables_number   1
_chemical_formula_structural   Zr3Se2
_chemical_formula_sum   'Zr3 Se2'
_cell_volume   108.94851182
_cell_formula_units_Z   1
loop_
 _symmetry_equiv_pos_site_id
 _symmetry_equiv_pos_as_xyz
  1  'x, y, z'
loop_
 _atom_site_type_symbol
 _atom_site_label
 _atom_site_symmetry_multiplicity
 _atom_site_fract_x
 _atom_site_fract_y
 _atom_site_fract_z
 _atom_site_occupancy
  Zr  Zr0  1  0.00000000  0.00000000  0.35307600  1
  Zr  Zr1  1  0.00000000  0.00000000  0.00000000  1
  Zr  Zr2  1  0.00000000  0.00000000  0.64692400  1
  Se  Se3  1  0.66666700  0.33333300  0.17756400  1
  Se  Se4  1  0.66666700  0.33333300  0.82243600  1
