# generated using pymatgen
data_ZnCdO2
_symmetry_space_group_name_H-M   'P 1'
_cell_length_a   3.44643142
_cell_length_b   3.44643142
_cell_length_c   5.70526600
_cell_angle_alpha   90.00000000
_cell_angle_beta   90.00000000
_cell_angle_gamma   119.99998895
_symmetry_Int_Tables_number   1
_chemical_formula_structural   ZnCdO2
_chemical_formula_sum   'Zn1 Cd1 O2'
_cell_volume   58.68753393
_cell_formula_units_Z   1
loop_
 _symmetry_equiv_pos_site_id
 _symmetry_equiv_pos_as_xyz
  1  'x, y, z'
loop_
 _atom_site_type_symbol
 _atom_site_label
 _atom_site_symmetry_multiplicity
 _atom_site_fract_x
 _atom_site_fract_y
 _atom_site_fract_z
 _atom_site_occupancy
  Zn  Zn0  1  0.00000000  0.00000000  0.99693700  1
  Cd  Cd1  1  0.66666700  0.33333300  0.49044100  1
  O  O2  1  0.66666700  0.33333300  0.09799100  1
  O  O3  1  0.00000000  0.00000000  0.65063200  1
