# generated using pymatgen
data_Zr3TiFe8
_symmetry_space_group_name_H-M   'P 1'
_cell_length_a   8.56428310
_cell_length_b   8.56428310
_cell_length_c   8.56428341
_cell_angle_alpha   33.59055455
_cell_angle_beta   33.59055455
_cell_angle_gamma   33.59056397
_symmetry_Int_Tables_number   1
_chemical_formula_structural   Zr3TiFe8
_chemical_formula_sum   'Zr3 Ti1 Fe8'
_cell_volume   171.27315888
_cell_formula_units_Z   1
loop_
 _symmetry_equiv_pos_site_id
 _symmetry_equiv_pos_as_xyz
  1  'x, y, z'
loop_
 _atom_site_type_symbol
 _atom_site_label
 _atom_site_symmetry_multiplicity
 _atom_site_fract_x
 _atom_site_fract_y
 _atom_site_fract_z
 _atom_site_occupancy
  Zr  Zr0  1  0.37511200  0.37511200  0.37511200  1
  Zr  Zr1  1  0.99870300  0.99870300  0.99870300  1
  Zr  Zr2  1  0.50129100  0.50129100  0.50129100  1
  Ti  Ti3  1  0.87489000  0.87489000  0.87489000  1
  Fe  Fe4  1  0.43667300  0.93681400  0.43667300  1
  Fe  Fe5  1  0.93754300  0.43950500  0.93754300  1
  Fe  Fe6  1  0.43667300  0.43667300  0.93681400  1
  Fe  Fe7  1  0.93754300  0.93754300  0.43950500  1
  Fe  Fe8  1  0.18775800  0.18775800  0.18775800  1
  Fe  Fe9  1  0.68749600  0.68749600  0.68749600  1
  Fe  Fe10  1  0.93681400  0.43667300  0.43667300  1
  Fe  Fe11  1  0.43950500  0.93754300  0.93754300  1
