# generated using pymatgen
data_Zr2CrCo3
_symmetry_space_group_name_H-M   'P 1'
_cell_length_a   4.84405379
_cell_length_b   4.84405379
_cell_length_c   4.84405439
_cell_angle_alpha   62.63716449
_cell_angle_beta   62.63716449
_cell_angle_gamma   62.63717080
_symmetry_Int_Tables_number   1
_chemical_formula_structural   Zr2CrCo3
_chemical_formula_sum   'Zr2 Cr1 Co3'
_cell_volume   85.09198449
_cell_formula_units_Z   1
loop_
 _symmetry_equiv_pos_site_id
 _symmetry_equiv_pos_as_xyz
  1  'x, y, z'
loop_
 _atom_site_type_symbol
 _atom_site_label
 _atom_site_symmetry_multiplicity
 _atom_site_fract_x
 _atom_site_fract_y
 _atom_site_fract_z
 _atom_site_occupancy
  Zr  Zr0  1  0.62661000  0.62661000  0.62661000  1
  Zr  Zr1  1  0.37339000  0.37339000  0.37339000  1
  Cr  Cr2  1  0.00000000  0.00000000  0.00000000  1
  Co  Co3  1  0.00000000  0.50000000  0.00000000  1
  Co  Co4  1  0.50000000  0.00000000  0.00000000  1
  Co  Co5  1  0.00000000  0.00000000  0.50000000  1
