# generated using pymatgen
data_Zr3S2
_symmetry_space_group_name_H-M   'P 1'
_cell_length_a   4.83709961
_cell_length_b   4.83709961
_cell_length_c   4.83709917
_cell_angle_alpha   73.74803703
_cell_angle_beta   73.74803703
_cell_angle_gamma   73.74803472
_symmetry_Int_Tables_number   1
_chemical_formula_structural   Zr3S2
_chemical_formula_sum   'Zr3 S2'
_cell_volume   101.78755577
_cell_formula_units_Z   1
loop_
 _symmetry_equiv_pos_site_id
 _symmetry_equiv_pos_as_xyz
  1  'x, y, z'
loop_
 _atom_site_type_symbol
 _atom_site_label
 _atom_site_symmetry_multiplicity
 _atom_site_fract_x
 _atom_site_fract_y
 _atom_site_fract_z
 _atom_site_occupancy
  Zr  Zr0  1  0.16127300  0.83872700  0.50000000  1
  Zr  Zr1  1  0.50000000  0.16127300  0.83872700  1
  Zr  Zr2  1  0.83872700  0.50000000  0.16127300  1
  S  S3  1  0.33497700  0.33497700  0.33497700  1
  S  S4  1  0.66502300  0.66502300  0.66502300  1
