# generated using pymatgen
data_Zr2As3Se
_symmetry_space_group_name_H-M   'P 1'
_cell_length_a   3.82951500
_cell_length_b   3.82951500
_cell_length_c   8.14318700
_cell_angle_alpha   90.00000000
_cell_angle_beta   90.00000000
_cell_angle_gamma   90.00000000
_symmetry_Int_Tables_number   1
_chemical_formula_structural   Zr2As3Se
_chemical_formula_sum   'Zr2 As3 Se1'
_cell_volume   119.42134495
_cell_formula_units_Z   1
loop_
 _symmetry_equiv_pos_site_id
 _symmetry_equiv_pos_as_xyz
  1  'x, y, z'
loop_
 _atom_site_type_symbol
 _atom_site_label
 _atom_site_symmetry_multiplicity
 _atom_site_fract_x
 _atom_site_fract_y
 _atom_site_fract_z
 _atom_site_occupancy
  Zr  Zr0  1  0.50000000  0.50000000  0.73654700  1
  Zr  Zr1  1  0.00000000  0.00000000  0.26486700  1
  As  As2  1  0.50000000  0.00000000  0.99985100  1
  As  As3  1  0.00000000  0.50000000  0.99985100  1
  As  As4  1  0.50000000  0.50000000  0.37713900  1
  Se  Se5  1  0.00000000  0.00000000  0.62174700  1
