# generated using pymatgen
data_Zr4Si3Sb5
_symmetry_space_group_name_H-M   'P 1'
_cell_length_a   3.84972600
_cell_length_b   3.84972600
_cell_length_c   17.43562000
_cell_angle_alpha   90.00000000
_cell_angle_beta   90.00000000
_cell_angle_gamma   90.00000000
_symmetry_Int_Tables_number   1
_chemical_formula_structural   Zr4Si3Sb5
_chemical_formula_sum   'Zr4 Si3 Sb5'
_cell_volume   258.40269309
_cell_formula_units_Z   1
loop_
 _symmetry_equiv_pos_site_id
 _symmetry_equiv_pos_as_xyz
  1  'x, y, z'
loop_
 _atom_site_type_symbol
 _atom_site_label
 _atom_site_symmetry_multiplicity
 _atom_site_fract_x
 _atom_site_fract_y
 _atom_site_fract_z
 _atom_site_occupancy
  Zr  Zr0  1  0.50000000  0.00000000  0.37943000  1
  Zr  Zr1  1  0.50000000  0.00000000  0.87218600  1
  Zr  Zr2  1  0.00000000  0.50000000  0.12781400  1
  Zr  Zr3  1  0.00000000  0.50000000  0.62057000  1
  Si  Si4  1  0.50000000  0.50000000  0.50000000  1
  Si  Si5  1  0.00000000  0.00000000  0.00000000  1
  Si  Si6  1  0.00000000  0.00000000  0.50000000  1
  Sb  Sb7  1  0.50000000  0.00000000  0.19957900  1
  Sb  Sb8  1  0.50000000  0.00000000  0.69014100  1
  Sb  Sb9  1  0.00000000  0.50000000  0.30985900  1
  Sb  Sb10  1  0.00000000  0.50000000  0.80042100  1
  Sb  Sb11  1  0.50000000  0.50000000  0.00000000  1
