# generated using pymatgen
data_Yb4SmS5
_symmetry_space_group_name_H-M   'P 1'
_cell_length_a   10.61752177
_cell_length_b   10.61752177
_cell_length_c   10.61752177
_cell_angle_alpha   158.39878246
_cell_angle_beta   149.16999574
_cell_angle_gamma   37.95814403
_symmetry_Int_Tables_number   1
_chemical_formula_structural   Yb4SmS5
_chemical_formula_sum   'Yb4 Sm1 S5'
_cell_volume   225.51401242
_cell_formula_units_Z   1
loop_
 _symmetry_equiv_pos_site_id
 _symmetry_equiv_pos_as_xyz
  1  'x, y, z'
loop_
 _atom_site_type_symbol
 _atom_site_label
 _atom_site_symmetry_multiplicity
 _atom_site_fract_x
 _atom_site_fract_y
 _atom_site_fract_z
 _atom_site_occupancy
  Yb  Yb0  1  0.10110300  0.60110300  0.50000000  1
  Yb  Yb1  1  0.70070600  0.20070600  0.50000000  1
  Yb  Yb2  1  0.29929400  0.79929400  0.50000000  1
  Yb  Yb3  1  0.89889700  0.39889700  0.50000000  1
  Sm  Sm4  1  0.50000000  0.00000000  0.50000000  1
  S  S5  1  0.80037700  0.80037700  0.00000000  1
  S  S6  1  0.39899200  0.39899200  0.00000000  1
  S  S7  1  0.00000000  0.00000000  0.00000000  1
  S  S8  1  0.60100900  0.60100800  0.00000000  1
  S  S9  1  0.19962300  0.19962300  0.00000000  1
