# generated using pymatgen
data_ZnCdSeS
_symmetry_space_group_name_H-M   'P 1'
_cell_length_a   4.10752313
_cell_length_b   4.10756500
_cell_length_c   6.82764900
_cell_angle_alpha   90.00000000
_cell_angle_beta   89.99985699
_cell_angle_gamma   59.99965474
_symmetry_Int_Tables_number   1
_chemical_formula_structural   ZnCdSeS
_chemical_formula_sum   'Zn1 Cd1 Se1 S1'
_cell_volume   99.76191323
_cell_formula_units_Z   1
loop_
 _symmetry_equiv_pos_site_id
 _symmetry_equiv_pos_as_xyz
  1  'x, y, z'
loop_
 _atom_site_type_symbol
 _atom_site_label
 _atom_site_symmetry_multiplicity
 _atom_site_fract_x
 _atom_site_fract_y
 _atom_site_fract_z
 _atom_site_occupancy
  Zn  Zn0  1  0.33333900  0.33333100  0.01049700  1
  Cd  Cd1  1  0.66666000  0.66667000  0.48303000  1
  Se  Se2  1  0.33333500  0.33333200  0.64643500  1
  S  S3  1  0.66666700  0.66666700  0.10803800  1
