# generated using pymatgen
data_Zn4CoSe5
_symmetry_space_group_name_H-M   'P 1'
_cell_length_a   6.98199878
_cell_length_b   6.98199878
_cell_length_c   9.87281514
_cell_angle_alpha   61.94085469
_cell_angle_beta   61.94085469
_cell_angle_gamma   33.69575098
_symmetry_Int_Tables_number   1
_chemical_formula_structural   Zn4CoSe5
_chemical_formula_sum   'Zn4 Co1 Se5'
_cell_volume   232.53414265
_cell_formula_units_Z   1
loop_
 _symmetry_equiv_pos_site_id
 _symmetry_equiv_pos_as_xyz
  1  'x, y, z'
loop_
 _atom_site_type_symbol
 _atom_site_label
 _atom_site_symmetry_multiplicity
 _atom_site_fract_x
 _atom_site_fract_y
 _atom_site_fract_z
 _atom_site_occupancy
  Zn  Zn0  1  0.59922600  0.59922600  0.60238400  1
  Zn  Zn1  1  0.20186200  0.20186200  0.19865400  1
  Zn  Zn2  1  0.79901000  0.79901000  0.80165100  1
  Zn  Zn3  1  0.40059500  0.40059500  0.39641700  1
  Co  Co4  1  0.00007700  0.00007700  0.99937800  1
  Se  Se5  1  0.80031600  0.80031600  0.54987200  1
  Se  Se6  1  0.40441800  0.40441800  0.14282900  1
  Se  Se7  1  0.99866800  0.99866800  0.75694700  1
  Se  Se8  1  0.60070700  0.60070700  0.35017500  1
  Se  Se9  1  0.19512100  0.19512100  0.95169100  1
