# generated using pymatgen
data_Zn4CdSe5
_symmetry_space_group_name_H-M   'P 1'
_cell_length_a   17.12150876
_cell_length_b   17.12150876
_cell_length_c   17.12150854
_cell_angle_alpha   13.82924459
_cell_angle_beta   13.82924459
_cell_angle_gamma   13.82924623
_symmetry_Int_Tables_number   1
_chemical_formula_structural   Zn4CdSe5
_chemical_formula_sum   'Zn4 Cd1 Se5'
_cell_volume   249.55226306
_cell_formula_units_Z   1
loop_
 _symmetry_equiv_pos_site_id
 _symmetry_equiv_pos_as_xyz
  1  'x, y, z'
loop_
 _atom_site_type_symbol
 _atom_site_label
 _atom_site_symmetry_multiplicity
 _atom_site_fract_x
 _atom_site_fract_y
 _atom_site_fract_z
 _atom_site_occupancy
  Zn  Zn0  1  0.59734500  0.59734500  0.59734500  1
  Zn  Zn1  1  0.19922100  0.19922100  0.19922100  1
  Zn  Zn2  1  0.80074300  0.80074300  0.80074300  1
  Zn  Zn3  1  0.40286200  0.40286200  0.40286200  1
  Cd  Cd4  1  0.99890800  0.99890800  0.99890800  1
  Se  Se5  1  0.94638800  0.94638800  0.94638800  1
  Se  Se6  1  0.54840400  0.54840400  0.54840400  1
  Se  Se7  1  0.15013400  0.15013400  0.15013400  1
  Se  Se8  1  0.75184300  0.75184300  0.75184300  1
  Se  Se9  1  0.35415100  0.35415100  0.35415100  1
