# generated using pymatgen
data_Zn2SiGeN4
_symmetry_space_group_name_H-M   'P 1'
_cell_length_a   5.15309300
_cell_length_b   5.40144800
_cell_length_c   6.40616040
_cell_angle_alpha   89.83241872
_cell_angle_beta   90.00000000
_cell_angle_gamma   90.00000000
_symmetry_Int_Tables_number   1
_chemical_formula_structural   Zn2SiGeN4
_chemical_formula_sum   'Zn4 Si2 Ge2 N8'
_cell_volume   178.30935575
_cell_formula_units_Z   2
loop_
 _symmetry_equiv_pos_site_id
 _symmetry_equiv_pos_as_xyz
  1  'x, y, z'
loop_
 _atom_site_type_symbol
 _atom_site_label
 _atom_site_symmetry_multiplicity
 _atom_site_fract_x
 _atom_site_fract_y
 _atom_site_fract_z
 _atom_site_occupancy
  Zn  Zn0  1  0.00445500  0.07861400  0.62677100  1
  Zn  Zn1  1  0.50445500  0.92138600  0.37322900  1
  Zn  Zn2  1  0.50535900  0.41156000  0.12141100  1
  Zn  Zn3  1  0.00535900  0.58844000  0.87858900  1
  Si  Si4  1  0.00462600  0.07241200  0.12075800  1
  Si  Si5  1  0.50462600  0.92758800  0.87924200  1
  Ge  Ge6  1  0.50708000  0.42562500  0.63014900  1
  Ge  Ge7  1  0.00708000  0.57437500  0.36985100  1
  N  N8  1  0.86915300  0.43576000  0.61193300  1
  N  N9  1  0.36915300  0.56424000  0.38806700  1
  N  N10  1  0.34731000  0.05757300  0.09647600  1
  N  N11  1  0.84731000  0.94242700  0.90352400  1
  N  N12  1  0.90420700  0.38370700  0.13931200  1
  N  N13  1  0.40420700  0.61629300  0.86068800  1
  N  N14  1  0.40581000  0.09201300  0.65361300  1
  N  N15  1  0.90581000  0.90798700  0.34638700  1
