# generated using pymatgen
data_ZnInGeAs3
_symmetry_space_group_name_H-M   'P 1'
_cell_length_a   4.16760676
_cell_length_b   5.89281039
_cell_length_c   7.22019491
_cell_angle_alpha   65.78320529
_cell_angle_beta   73.22538447
_cell_angle_gamma   90.00000000
_symmetry_Int_Tables_number   1
_chemical_formula_structural   ZnInGeAs3
_chemical_formula_sum   'Zn1 In1 Ge1 As3'
_cell_volume   153.40494848
_cell_formula_units_Z   1
loop_
 _symmetry_equiv_pos_site_id
 _symmetry_equiv_pos_as_xyz
  1  'x, y, z'
loop_
 _atom_site_type_symbol
 _atom_site_label
 _atom_site_symmetry_multiplicity
 _atom_site_fract_x
 _atom_site_fract_y
 _atom_site_fract_z
 _atom_site_occupancy
  Zn  Zn0  1  0.00076700  0.98986700  0.99846500  1
  In  In1  1  0.33495300  0.33725100  0.33009300  1
  Ge  Ge2  1  0.66406200  0.67442000  0.67187800  1
  As  As3  1  0.50878900  0.77340400  0.98242200  1
  As  As4  1  0.83404900  0.05720700  0.33190100  1
  As  As5  1  0.15738000  0.41785200  0.68524100  1
