# generated using pymatgen
data_Zn4CdS5
_symmetry_space_group_name_H-M   'P 1'
_cell_length_a   15.17676456
_cell_length_b   15.17676456
_cell_length_c   15.17676459
_cell_angle_alpha   13.85948159
_cell_angle_beta   13.85948159
_cell_angle_gamma   13.85948090
_symmetry_Int_Tables_number   1
_chemical_formula_structural   Zn4CdS5
_chemical_formula_sum   'Zn4 Cd1 S5'
_cell_volume   174.55895762
_cell_formula_units_Z   1
loop_
 _symmetry_equiv_pos_site_id
 _symmetry_equiv_pos_as_xyz
  1  'x, y, z'
loop_
 _atom_site_type_symbol
 _atom_site_label
 _atom_site_symmetry_multiplicity
 _atom_site_fract_x
 _atom_site_fract_y
 _atom_site_fract_z
 _atom_site_occupancy
  Zn  Zn0  1  0.59723400  0.59723400  0.59723400  1
  Zn  Zn1  1  0.19921900  0.19921900  0.19921900  1
  Zn  Zn2  1  0.80078100  0.80078100  0.80078100  1
  Zn  Zn3  1  0.40276600  0.40276600  0.40276600  1
  Cd  Cd4  1  0.00000000  0.00000000  0.00000000  1
  S  S5  1  0.70439200  0.70439200  0.70439200  1
  S  S6  1  0.10180700  0.10180700  0.10180700  1
  S  S7  1  0.50000000  0.50000000  0.50000000  1
  S  S8  1  0.29560800  0.29560800  0.29560800  1
  S  S9  1  0.89819300  0.89819300  0.89819300  1
