# generated using pymatgen
data_YbEu
_symmetry_space_group_name_H-M   'P 1'
_cell_length_a   6.78858621
_cell_length_b   6.78858621
_cell_length_c   6.78858603
_cell_angle_alpha   33.27556586
_cell_angle_beta   33.27556586
_cell_angle_gamma   33.27557017
_symmetry_Int_Tables_number   1
_chemical_formula_structural   YbEu
_chemical_formula_sum   'Yb1 Eu1'
_cell_volume   83.84885637
_cell_formula_units_Z   1
loop_
 _symmetry_equiv_pos_site_id
 _symmetry_equiv_pos_as_xyz
  1  'x, y, z'
loop_
 _atom_site_type_symbol
 _atom_site_label
 _atom_site_symmetry_multiplicity
 _atom_site_fract_x
 _atom_site_fract_y
 _atom_site_fract_z
 _atom_site_occupancy
  Yb  Yb0  1  0.50000000  0.50000000  0.50000000  1
  Eu  Eu1  1  0.00000000  0.00000000  0.00000000  1
