# generated using pymatgen
data_YbSc(BO3)2
_symmetry_space_group_name_H-M   'P 1'
_cell_length_a   6.12398612
_cell_length_b   6.12398612
_cell_length_c   6.12398666
_cell_angle_alpha   47.29916422
_cell_angle_beta   47.29916422
_cell_angle_gamma   47.29915845
_symmetry_Int_Tables_number   1
_chemical_formula_structural   YbSc(BO3)2
_chemical_formula_sum   'Yb1 Sc1 B2 O6'
_cell_volume   113.46127283
_cell_formula_units_Z   1
loop_
 _symmetry_equiv_pos_site_id
 _symmetry_equiv_pos_as_xyz
  1  'x, y, z'
loop_
 _atom_site_type_symbol
 _atom_site_label
 _atom_site_symmetry_multiplicity
 _atom_site_fract_x
 _atom_site_fract_y
 _atom_site_fract_z
 _atom_site_occupancy
  Yb  Yb0  1  0.00000000  0.00000000  0.00000000  1
  Sc  Sc1  1  0.50000000  0.50000000  0.50000000  1
  B  B2  1  0.75546200  0.75546200  0.75546200  1
  B  B3  1  0.24453800  0.24453800  0.24453800  1
  O  O4  1  0.48843100  0.72826500  0.04693100  1
  O  O5  1  0.72826500  0.04693100  0.48843100  1
  O  O6  1  0.04693100  0.48843100  0.72826500  1
  O  O7  1  0.27173500  0.95306900  0.51156900  1
  O  O8  1  0.95306900  0.51156900  0.27173500  1
  O  O9  1  0.51156900  0.27173500  0.95306900  1
