# generated using pymatgen
data_ZnCu2Ge(SeS)2
_symmetry_space_group_name_H-M   'P 1'
_cell_length_a   5.48833569
_cell_length_b   5.48833569
_cell_length_c   6.69250656
_cell_angle_alpha   65.90363336
_cell_angle_beta   65.90363336
_cell_angle_gamma   90.24639456
_symmetry_Int_Tables_number   1
_chemical_formula_structural   ZnCu2Ge(SeS)2
_chemical_formula_sum   'Zn1 Cu2 Ge1 Se2 S2'
_cell_volume   164.41372195
_cell_formula_units_Z   1
loop_
 _symmetry_equiv_pos_site_id
 _symmetry_equiv_pos_as_xyz
  1  'x, y, z'
loop_
 _atom_site_type_symbol
 _atom_site_label
 _atom_site_symmetry_multiplicity
 _atom_site_fract_x
 _atom_site_fract_y
 _atom_site_fract_z
 _atom_site_occupancy
  Zn  Zn0  1  0.99338300  0.99338300  0.01323400  1
  Cu  Cu1  1  0.25918500  0.75918500  0.48162900  1
  Cu  Cu2  1  0.75918500  0.25918500  0.48162900  1
  Ge  Ge3  1  0.49262900  0.49262900  0.01474100  1
  Se  Se4  1  0.38280500  0.87328900  0.74390600  1
  Se  Se5  1  0.87328900  0.38280500  0.74390600  1
  S  S6  1  0.61175500  0.61175500  0.26047700  1
  S  S7  1  0.12776800  0.12776800  0.26047700  1
