# generated using pymatgen
data_ZnCu(SeO3)2
_symmetry_space_group_name_H-M   'P 1'
_cell_length_a   5.98004100
_cell_length_b   5.28981900
_cell_length_c   9.16967095
_cell_angle_alpha   56.10341106
_cell_angle_beta   90.00000000
_cell_angle_gamma   90.00000000
_symmetry_Int_Tables_number   1
_chemical_formula_structural   ZnCu(SeO3)2
_chemical_formula_sum   'Zn2 Cu2 Se4 O12'
_cell_volume   240.76902743
_cell_formula_units_Z   2
loop_
 _symmetry_equiv_pos_site_id
 _symmetry_equiv_pos_as_xyz
  1  'x, y, z'
loop_
 _atom_site_type_symbol
 _atom_site_label
 _atom_site_symmetry_multiplicity
 _atom_site_fract_x
 _atom_site_fract_y
 _atom_site_fract_z
 _atom_site_occupancy
  Zn  Zn0  1  0.50000000  0.50000000  0.50000000  1
  Zn  Zn1  1  0.00000000  0.50000000  0.00000000  1
  Cu  Cu2  1  0.50000000  0.00000000  0.00000000  1
  Cu  Cu3  1  0.00000000  0.00000000  0.50000000  1
  Se  Se4  1  0.53548600  0.74326800  0.75203200  1
  Se  Se5  1  0.03548600  0.25673200  0.74796800  1
  Se  Se6  1  0.46451400  0.25673200  0.24796800  1
  Se  Se7  1  0.96451400  0.74326800  0.25203200  1
  O  O8  1  0.57620200  0.07041000  0.75487500  1
  O  O9  1  0.07620200  0.92959000  0.74512500  1
  O  O10  1  0.42379800  0.92959000  0.24512500  1
  O  O11  1  0.92379800  0.07041000  0.25487500  1
  O  O12  1  0.69759900  0.46145700  0.92423300  1
  O  O13  1  0.19759900  0.53854300  0.57576700  1
  O  O14  1  0.30217400  0.18974800  0.42585400  1
  O  O15  1  0.80217400  0.81025200  0.07414600  1
  O  O16  1  0.30240100  0.53854300  0.07576700  1
  O  O17  1  0.80240100  0.46145700  0.42423300  1
  O  O18  1  0.69782600  0.81025200  0.57414600  1
  O  O19  1  0.19782600  0.18974800  0.92585400  1
