# generated using pymatgen
data_YbAg(MoO4)2
_symmetry_space_group_name_H-M   'P 1'
_cell_length_a   6.82342493
_cell_length_b   6.82342493
_cell_length_c   6.82342493
_cell_angle_alpha   134.70947333
_cell_angle_beta   134.70947333
_cell_angle_gamma   65.98194901
_symmetry_Int_Tables_number   1
_chemical_formula_structural   YbAg(MoO4)2
_chemical_formula_sum   'Yb1 Ag1 Mo2 O8'
_cell_volume   158.00829014
_cell_formula_units_Z   1
loop_
 _symmetry_equiv_pos_site_id
 _symmetry_equiv_pos_as_xyz
  1  'x, y, z'
loop_
 _atom_site_type_symbol
 _atom_site_label
 _atom_site_symmetry_multiplicity
 _atom_site_fract_x
 _atom_site_fract_y
 _atom_site_fract_z
 _atom_site_occupancy
  Yb  Yb0  1  0.50000000  0.50000000  0.00000000  1
  Ag  Ag1  1  0.75000000  0.25000000  0.50000000  1
  Mo  Mo2  1  0.25000000  0.75000000  0.50000000  1
  Mo  Mo3  1  0.00000000  0.00000000  0.00000000  1
  O  O4  1  0.75949000  0.66987200  0.59672300  1
  O  O5  1  0.07314800  0.16276600  0.40327700  1
  O  O6  1  0.83723400  0.24051000  0.91038200  1
  O  O7  1  0.33012800  0.92685200  0.08961800  1
  O  O8  1  0.18694100  0.59536900  0.10611100  1
  O  O9  1  0.48925800  0.08083000  0.89388900  1
  O  O10  1  0.91917000  0.81305900  0.40842800  1
  O  O11  1  0.40463100  0.51074200  0.59157200  1
