# generated using pymatgen
data_ZnGeAsP
_symmetry_space_group_name_H-M   'P 1'
_cell_length_a   6.83309653
_cell_length_b   6.83309653
_cell_length_c   6.83309653
_cell_angle_alpha   131.58337243
_cell_angle_beta   131.25754799
_cell_angle_gamma   71.14622546
_symmetry_Int_Tables_number   1
_chemical_formula_structural   ZnGeAsP
_chemical_formula_sum   'Zn2 Ge2 As2 P2'
_cell_volume   175.64027282
_cell_formula_units_Z   2
loop_
 _symmetry_equiv_pos_site_id
 _symmetry_equiv_pos_as_xyz
  1  'x, y, z'
loop_
 _atom_site_type_symbol
 _atom_site_label
 _atom_site_symmetry_multiplicity
 _atom_site_fract_x
 _atom_site_fract_y
 _atom_site_fract_z
 _atom_site_occupancy
  Zn  Zn0  1  0.63106000  0.38106000  0.25000000  1
  Zn  Zn1  1  0.86894000  0.11894000  0.75000000  1
  Ge  Ge2  1  0.12968800  0.87968800  0.25000000  1
  Ge  Ge3  1  0.37031200  0.62031200  0.75000000  1
  As  As4  1  0.25000000  0.49907900  0.24907900  1
  As  As5  1  0.75000000  0.00092100  0.25092100  1
  P  P6  1  0.49425700  0.25000000  0.74425700  1
  P  P7  1  0.00574300  0.75000000  0.75574300  1
