# generated using pymatgen
data_Zr2NiSe4
_symmetry_space_group_name_H-M   'P 1'
_cell_length_a   3.74587806
_cell_length_b   7.10017313
_cell_length_c   6.44884439
_cell_angle_alpha   63.38310061
_cell_angle_beta   90.01925189
_cell_angle_gamma   105.31293972
_symmetry_Int_Tables_number   1
_chemical_formula_structural   Zr2NiSe4
_chemical_formula_sum   'Zr2 Ni1 Se4'
_cell_volume   146.50422583
_cell_formula_units_Z   1
loop_
 _symmetry_equiv_pos_site_id
 _symmetry_equiv_pos_as_xyz
  1  'x, y, z'
loop_
 _atom_site_type_symbol
 _atom_site_label
 _atom_site_symmetry_multiplicity
 _atom_site_fract_x
 _atom_site_fract_y
 _atom_site_fract_z
 _atom_site_occupancy
  Zr  Zr0  1  0.50232500  0.00485100  0.49992800  1
  Zr  Zr1  1  0.99767500  0.99514900  0.00007200  1
  Ni  Ni2  1  0.25000000  0.50000000  0.75000000  1
  Se  Se3  1  0.13749600  0.27417300  0.53411800  1
  Se  Se4  1  0.63654000  0.27240700  0.03062900  1
  Se  Se5  1  0.86346000  0.72759300  0.46937100  1
  Se  Se6  1  0.36250400  0.72582700  0.96588200  1
