# generated using pymatgen
data_Zr2CrFe3
_symmetry_space_group_name_H-M   'P 1'
_cell_length_a   4.98255680
_cell_length_b   4.98255680
_cell_length_c   8.07284300
_cell_angle_alpha   90.00000000
_cell_angle_beta   90.00000000
_cell_angle_gamma   120.00001067
_symmetry_Int_Tables_number   1
_chemical_formula_structural   Zr2CrFe3
_chemical_formula_sum   'Zr4 Cr2 Fe6'
_cell_volume   173.56478258
_cell_formula_units_Z   2
loop_
 _symmetry_equiv_pos_site_id
 _symmetry_equiv_pos_as_xyz
  1  'x, y, z'
loop_
 _atom_site_type_symbol
 _atom_site_label
 _atom_site_symmetry_multiplicity
 _atom_site_fract_x
 _atom_site_fract_y
 _atom_site_fract_z
 _atom_site_occupancy
  Zr  Zr0  1  0.33333300  0.66666700  0.93728500  1
  Zr  Zr1  1  0.66666700  0.33333300  0.06271500  1
  Zr  Zr2  1  0.66666700  0.33333300  0.43728500  1
  Zr  Zr3  1  0.33333300  0.66666700  0.56271500  1
  Cr  Cr4  1  0.00000000  0.00000000  0.00000000  1
  Cr  Cr5  1  0.00000000  0.00000000  0.50000000  1
  Fe  Fe6  1  0.83215500  0.16784500  0.75000000  1
  Fe  Fe7  1  0.83215500  0.66431000  0.75000000  1
  Fe  Fe8  1  0.33569000  0.16784500  0.75000000  1
  Fe  Fe9  1  0.16784500  0.83215500  0.25000000  1
  Fe  Fe10  1  0.16784500  0.33569000  0.25000000  1
  Fe  Fe11  1  0.66431000  0.83215500  0.25000000  1
