# generated using pymatgen
data_ZnFe4CuO8
_symmetry_space_group_name_H-M   'P 1'
_cell_length_a   6.01153122
_cell_length_b   6.01153122
_cell_length_c   6.01153209
_cell_angle_alpha   60.29081072
_cell_angle_beta   60.29081072
_cell_angle_gamma   60.29080919
_symmetry_Int_Tables_number   1
_chemical_formula_structural   ZnFe4CuO8
_chemical_formula_sum   'Zn1 Fe4 Cu1 O8'
_cell_volume   154.62837801
_cell_formula_units_Z   1
loop_
 _symmetry_equiv_pos_site_id
 _symmetry_equiv_pos_as_xyz
  1  'x, y, z'
loop_
 _atom_site_type_symbol
 _atom_site_label
 _atom_site_symmetry_multiplicity
 _atom_site_fract_x
 _atom_site_fract_y
 _atom_site_fract_z
 _atom_site_occupancy
  Zn  Zn0  1  0.99856400  0.99856400  0.99856400  1
  Fe  Fe1  1  0.37387700  0.37387700  0.87844600  1
  Fe  Fe2  1  0.87844600  0.37387700  0.37387700  1
  Fe  Fe3  1  0.37387700  0.87844600  0.37387700  1
  Fe  Fe4  1  0.75172400  0.75172400  0.75172400  1
  Cu  Cu5  1  0.37379000  0.37379000  0.37379000  1
  O  O6  1  0.13464200  0.13464200  0.13464200  1
  O  O7  1  0.13043300  0.13043300  0.59488600  1
  O  O8  1  0.59488600  0.13043300  0.13043300  1
  O  O9  1  0.13043300  0.59488600  0.13043300  1
  O  O10  1  0.61845100  0.61845100  0.61845100  1
  O  O11  1  0.62328500  0.62328500  0.14430800  1
  O  O12  1  0.14430800  0.62328500  0.62328500  1
  O  O13  1  0.62328500  0.14430800  0.62328500  1
