# generated using pymatgen
data_YbYCdS4
_symmetry_space_group_name_H-M   'P 1'
_cell_length_a   8.00362988
_cell_length_b   8.00362988
_cell_length_c   8.00362988
_cell_angle_alpha   120.95108660
_cell_angle_beta   119.15459388
_cell_angle_gamma   89.91555453
_symmetry_Int_Tables_number   1
_chemical_formula_structural   YbYCdS4
_chemical_formula_sum   'Yb2 Y2 Cd2 S8'
_cell_volume   362.13023280
_cell_formula_units_Z   2
loop_
 _symmetry_equiv_pos_site_id
 _symmetry_equiv_pos_as_xyz
  1  'x, y, z'
loop_
 _atom_site_type_symbol
 _atom_site_label
 _atom_site_symmetry_multiplicity
 _atom_site_fract_x
 _atom_site_fract_y
 _atom_site_fract_z
 _atom_site_occupancy
  Yb  Yb0  1  0.00000000  0.50000000  0.00000000  1
  Yb  Yb1  1  0.00000000  0.00000000  0.50000000  1
  Y  Y2  1  0.50000000  0.50000000  0.00000000  1
  Y  Y3  1  0.00000000  0.50000000  0.50000000  1
  Cd  Cd4  1  0.62155400  0.87155400  0.75000000  1
  Cd  Cd5  1  0.37844600  0.12844600  0.25000000  1
  S  S6  1  0.23311400  0.74129400  0.49182000  1
  S  S7  1  0.74947400  0.74129400  0.00818000  1
  S  S8  1  0.75389000  0.73810500  0.48421500  1
  S  S9  1  0.75389000  0.26967500  0.01578500  1
  S  S10  1  0.76688600  0.25870600  0.50818000  1
  S  S11  1  0.25052600  0.25870600  0.99182000  1
  S  S12  1  0.24611000  0.26189500  0.51578500  1
  S  S13  1  0.24611000  0.73032500  0.98421500  1
