# generated using pymatgen
data_Zn3CdGa2(AgS4)2
_symmetry_space_group_name_H-M   'P 1'
_cell_length_a   6.47597746
_cell_length_b   6.77137928
_cell_length_c   8.00445577
_cell_angle_alpha   90.20406418
_cell_angle_beta   89.97672515
_cell_angle_gamma   89.92567523
_symmetry_Int_Tables_number   1
_chemical_formula_structural   Zn3CdGa2(AgS4)2
_chemical_formula_sum   'Zn3 Cd1 Ga2 Ag2 S8'
_cell_volume   351.00323674
_cell_formula_units_Z   1
loop_
 _symmetry_equiv_pos_site_id
 _symmetry_equiv_pos_as_xyz
  1  'x, y, z'
loop_
 _atom_site_type_symbol
 _atom_site_label
 _atom_site_symmetry_multiplicity
 _atom_site_fract_x
 _atom_site_fract_y
 _atom_site_fract_z
 _atom_site_occupancy
  Zn  Zn0  1  0.00283400  0.16602800  0.75098900  1
  Zn  Zn1  1  0.50124600  0.82763600  0.25094200  1
  Zn  Zn2  1  0.50235200  0.83274000  0.74953100  1
  Cd  Cd3  1  0.00055900  0.16847300  0.24844900  1
  Ga  Ga4  1  0.50146000  0.32483600  0.50493000  1
  Ga  Ga5  1  0.00224300  0.67769400  0.99504300  1
  Ag  Ag6  1  0.00710400  0.66463000  0.50240300  1
  Ag  Ag7  1  0.50244400  0.33874800  0.99725100  1
  S  S8  1  0.85680100  0.31590300  0.51561500  1
  S  S9  1  0.36044000  0.69532100  0.99946100  1
  S  S10  1  0.40171800  0.65519400  0.50076200  1
  S  S11  1  0.89744000  0.35383900  0.98468500  1
  S  S12  1  0.39559600  0.16160400  0.26641100  1
  S  S13  1  0.36897500  0.16007200  0.73374700  1
  S  S14  1  0.86561000  0.81530200  0.23343900  1
  S  S15  1  0.87077900  0.84198100  0.76634100  1
