# generated using pymatgen
data_ZnCu2SnSeS3
_symmetry_space_group_name_H-M   'P 1'
_cell_length_a   5.53433200
_cell_length_b   5.53788693
_cell_length_c   6.75591067
_cell_angle_alpha   114.15268819
_cell_angle_beta   114.01109023
_cell_angle_gamma   90.03314905
_symmetry_Int_Tables_number   1
_chemical_formula_structural   ZnCu2SnSeS3
_chemical_formula_sum   'Zn1 Cu2 Sn1 Se1 S3'
_cell_volume   169.08060111
_cell_formula_units_Z   1
loop_
 _symmetry_equiv_pos_site_id
 _symmetry_equiv_pos_as_xyz
  1  'x, y, z'
loop_
 _atom_site_type_symbol
 _atom_site_label
 _atom_site_symmetry_multiplicity
 _atom_site_fract_x
 _atom_site_fract_y
 _atom_site_fract_z
 _atom_site_occupancy
  Zn  Zn0  1  0.24520800  0.76336900  0.50748900  1
  Cu  Cu1  1  0.98654400  0.98672900  0.99123300  1
  Cu  Cu2  1  0.76370800  0.24574500  0.50876700  1
  Sn  Sn3  1  0.50479000  0.50531700  0.99354800  1
  Se  Se4  1  0.37070400  0.36118200  0.26071100  1
  S  S5  1  0.88851000  0.89712400  0.25840400  1
  S  S6  1  0.10422200  0.62847000  0.73972000  1
  S  S7  1  0.63631400  0.11206500  0.74012800  1
