# generated using pymatgen
data_Yb(TmSe2)2
_symmetry_space_group_name_H-M   'P 1'
_cell_length_a   4.08588400
_cell_length_b   6.96251800
_cell_length_c   7.18219759
_cell_angle_alpha   71.95462436
_cell_angle_beta   90.00000000
_cell_angle_gamma   90.00000000
_symmetry_Int_Tables_number   1
_chemical_formula_structural   Yb(TmSe2)2
_chemical_formula_sum   'Yb1 Tm2 Se4'
_cell_volume   194.26928164
_cell_formula_units_Z   1
loop_
 _symmetry_equiv_pos_site_id
 _symmetry_equiv_pos_as_xyz
  1  'x, y, z'
loop_
 _atom_site_type_symbol
 _atom_site_label
 _atom_site_symmetry_multiplicity
 _atom_site_fract_x
 _atom_site_fract_y
 _atom_site_fract_z
 _atom_site_occupancy
  Yb  Yb0  1  0.00000000  0.50000000  0.50000000  1
  Tm  Tm1  1  0.00000000  0.00000000  0.00000000  1
  Tm  Tm2  1  0.50000000  0.50000000  0.00000000  1
  Se  Se3  1  0.50000000  0.75731900  0.24097800  1
  Se  Se4  1  0.00000000  0.25750100  0.23236300  1
  Se  Se5  1  0.50000000  0.24268100  0.75902200  1
  Se  Se6  1  0.00000000  0.74249900  0.76763700  1
