# generated using pymatgen
data_YbTaTiO6
_symmetry_space_group_name_H-M   'P 1'
_cell_length_a   14.96439400
_cell_length_b   5.20572200
_cell_length_c   5.63173984
_cell_angle_alpha   89.81348475
_cell_angle_beta   90.00000000
_cell_angle_gamma   90.00000000
_symmetry_Int_Tables_number   1
_chemical_formula_structural   YbTaTiO6
_chemical_formula_sum   'Yb4 Ta4 Ti4 O24'
_cell_volume   438.71288441
_cell_formula_units_Z   4
loop_
 _symmetry_equiv_pos_site_id
 _symmetry_equiv_pos_as_xyz
  1  'x, y, z'
loop_
 _atom_site_type_symbol
 _atom_site_label
 _atom_site_symmetry_multiplicity
 _atom_site_fract_x
 _atom_site_fract_y
 _atom_site_fract_z
 _atom_site_occupancy
  Yb  Yb0  1  0.99927000  0.74902800  0.23403700  1
  Yb  Yb1  1  0.49927000  0.25097200  0.26596300  1
  Yb  Yb2  1  0.00073000  0.25097200  0.76596300  1
  Yb  Yb3  1  0.50073000  0.74902800  0.73403700  1
  Ta  Ta4  1  0.66692200  0.81502400  0.17513700  1
  Ta  Ta5  1  0.16692200  0.18497600  0.32486300  1
  Ta  Ta6  1  0.33307800  0.18497600  0.82486300  1
  Ta  Ta7  1  0.83307800  0.81502400  0.67513700  1
  Ti  Ti8  1  0.83638100  0.31894600  0.31992000  1
  Ti  Ti9  1  0.33638100  0.68105400  0.18008000  1
  Ti  Ti10  1  0.16361900  0.68105400  0.68008000  1
  Ti  Ti11  1  0.66361900  0.31894600  0.81992000  1
  O  O12  1  0.09651000  0.96589000  0.56508300  1
  O  O13  1  0.40515200  0.47135200  0.93960900  1
  O  O14  1  0.59651000  0.03411000  0.93491700  1
  O  O15  1  0.90515200  0.52864800  0.56039100  1
  O  O16  1  0.90349000  0.03411000  0.43491700  1
  O  O17  1  0.59484800  0.52864800  0.06039100  1
  O  O18  1  0.40349000  0.96589000  0.06508300  1
  O  O19  1  0.09484800  0.47135200  0.43960900  1
  O  O20  1  0.91064400  0.41131500  0.08703800  1
  O  O21  1  0.58752300  0.90949800  0.41308900  1
  O  O22  1  0.41064400  0.58868500  0.41296200  1
  O  O23  1  0.08752300  0.09050200  0.08691100  1
  O  O24  1  0.08935600  0.58868500  0.91296200  1
  O  O25  1  0.41247700  0.09050200  0.58691100  1
  O  O26  1  0.58935600  0.41131500  0.58703800  1
  O  O27  1  0.91247700  0.90949800  0.91308900  1
  O  O28  1  0.74182500  0.14397900  0.14479900  1
  O  O29  1  0.76082300  0.64866000  0.36226000  1
  O  O30  1  0.24182500  0.85602100  0.35520100  1
  O  O31  1  0.26082300  0.35134000  0.13774000  1
  O  O32  1  0.25817500  0.85602100  0.85520100  1
  O  O33  1  0.23917700  0.35134000  0.63774000  1
  O  O34  1  0.75817500  0.14397900  0.64479900  1
  O  O35  1  0.73917700  0.64866000  0.86226000  1
