# generated using pymatgen
data_Yb3Y(Si2O7)2
_symmetry_space_group_name_H-M   'P 1'
_cell_length_a   4.86256100
_cell_length_b   5.75043793
_cell_length_c   11.30406996
_cell_angle_alpha   77.45644749
_cell_angle_beta   79.30736290
_cell_angle_gamma   82.96061806
_symmetry_Int_Tables_number   1
_chemical_formula_structural   Yb3Y(Si2O7)2
_chemical_formula_sum   'Yb3 Y1 Si4 O14'
_cell_volume   302.06412777
_cell_formula_units_Z   1
loop_
 _symmetry_equiv_pos_site_id
 _symmetry_equiv_pos_as_xyz
  1  'x, y, z'
loop_
 _atom_site_type_symbol
 _atom_site_label
 _atom_site_symmetry_multiplicity
 _atom_site_fract_x
 _atom_site_fract_y
 _atom_site_fract_z
 _atom_site_occupancy
  Yb  Yb0  1  0.99849000  0.96087100  0.34656100  1
  Yb  Yb1  1  0.99815000  0.03969400  0.65328500  1
  Yb  Yb2  1  0.00082500  0.53989300  0.15340500  1
  Y  Y3  1  0.00064000  0.46105600  0.84625700  1
  Si  Si4  1  0.39937300  0.89109700  0.89077700  1
  Si  Si5  1  0.40679100  0.39167900  0.39196800  1
  Si  Si6  1  0.59632700  0.60919200  0.61011000  1
  Si  Si7  1  0.60057400  0.10852500  0.10709400  1
  O  O8  1  0.49565500  0.99728100  0.00114000  1
  O  O9  1  0.50460200  0.49620900  0.50128200  1
  O  O10  1  0.21961000  0.10790900  0.81150400  1
  O  O11  1  0.21948000  0.59909100  0.31146700  1
  O  O12  1  0.21728400  0.66184600  0.95255100  1
  O  O13  1  0.22101200  0.16634700  0.45503200  1
  O  O14  1  0.78167200  0.40172000  0.69275500  1
  O  O15  1  0.78066200  0.89982500  0.18978100  1
  O  O16  1  0.77433600  0.83764200  0.54473600  1
  O  O17  1  0.78415400  0.33415300  0.03965600  1
  O  O18  1  0.70599400  0.81069100  0.81447900  1
  O  O19  1  0.70699800  0.31361500  0.31161000  1
  O  O20  1  0.29018900  0.68397300  0.68844000  1
  O  O21  1  0.29717900  0.18769100  0.18611000  1
