# generated using pymatgen
data_Yb5Se7
_symmetry_space_group_name_H-M   'P 1'
_cell_length_a   7.82297855
_cell_length_b   7.82297855
_cell_length_c   11.77883842
_cell_angle_alpha   64.02848343
_cell_angle_beta   64.02848343
_cell_angle_gamma   31.04630332
_symmetry_Int_Tables_number   1
_chemical_formula_structural   Yb5Se7
_chemical_formula_sum   'Yb5 Se7'
_cell_volume   331.14868765
_cell_formula_units_Z   1
loop_
 _symmetry_equiv_pos_site_id
 _symmetry_equiv_pos_as_xyz
  1  'x, y, z'
loop_
 _atom_site_type_symbol
 _atom_site_label
 _atom_site_symmetry_multiplicity
 _atom_site_fract_x
 _atom_site_fract_y
 _atom_site_fract_z
 _atom_site_occupancy
  Yb  Yb0  1  0.91405500  0.91405500  0.90424000  1
  Yb  Yb1  1  0.08594500  0.08594500  0.09576000  1
  Yb  Yb2  1  0.68032800  0.68032800  0.73810200  1
  Yb  Yb3  1  0.31967200  0.31967200  0.26189800  1
  Yb  Yb4  1  0.00000000  0.00000000  0.50000000  1
  Se  Se5  1  0.28662800  0.28662800  0.85924600  1
  Se  Se6  1  0.71337200  0.71337200  0.14075400  1
  Se  Se7  1  0.91644100  0.91644100  0.33118800  1
  Se  Se8  1  0.08355900  0.08355900  0.66881200  1
  Se  Se9  1  0.34348600  0.34348600  0.62841100  1
  Se  Se10  1  0.65651400  0.65651400  0.37158900  1
  Se  Se11  1  0.50000000  0.50000000  0.00000000  1
