# generated using pymatgen
data_Yb(CuS)3
_symmetry_space_group_name_H-M   'P 1'
_cell_length_a   7.48720269
_cell_length_b   7.48720269
_cell_length_c   7.48720317
_cell_angle_alpha   51.87501864
_cell_angle_beta   51.87501864
_cell_angle_gamma   51.87501729
_symmetry_Int_Tables_number   1
_chemical_formula_structural   Yb(CuS)3
_chemical_formula_sum   'Yb2 Cu6 S6'
_cell_volume   240.07277689
_cell_formula_units_Z   2
loop_
 _symmetry_equiv_pos_site_id
 _symmetry_equiv_pos_as_xyz
  1  'x, y, z'
loop_
 _atom_site_type_symbol
 _atom_site_label
 _atom_site_symmetry_multiplicity
 _atom_site_fract_x
 _atom_site_fract_y
 _atom_site_fract_z
 _atom_site_occupancy
  Yb  Yb0  1  0.66654200  0.66654200  0.66654200  1
  Yb  Yb1  1  0.33345800  0.33345800  0.33345800  1
  Cu  Cu2  1  0.87771600  0.54104200  0.21558000  1
  Cu  Cu3  1  0.54104200  0.21558000  0.87771600  1
  Cu  Cu4  1  0.21558000  0.87771600  0.54104200  1
  Cu  Cu5  1  0.78442000  0.12228400  0.45895800  1
  Cu  Cu6  1  0.45895800  0.78442000  0.12228400  1
  Cu  Cu7  1  0.12228400  0.45895800  0.78442000  1
  S  S8  1  0.08642100  0.75580900  0.41895400  1
  S  S9  1  0.41895400  0.08642100  0.75580900  1
  S  S10  1  0.75580900  0.41895400  0.08642100  1
  S  S11  1  0.24419100  0.58104600  0.91357900  1
  S  S12  1  0.58104600  0.91357900  0.24419100  1
  S  S13  1  0.91357900  0.24419100  0.58104600  1
