# generated using pymatgen
data_Yb4MgMnS8
_symmetry_space_group_name_H-M   'P 1'
_cell_length_a   7.82803835
_cell_length_b   7.82803835
_cell_length_c   7.82803835
_cell_angle_alpha   60.00000000
_cell_angle_beta   60.00000000
_cell_angle_gamma   60.00000000
_symmetry_Int_Tables_number   1
_chemical_formula_structural   Yb4MgMnS8
_chemical_formula_sum   'Yb4 Mg1 Mn1 S8'
_cell_volume   339.19062167
_cell_formula_units_Z   1
loop_
 _symmetry_equiv_pos_site_id
 _symmetry_equiv_pos_as_xyz
  1  'x, y, z'
loop_
 _atom_site_type_symbol
 _atom_site_label
 _atom_site_symmetry_multiplicity
 _atom_site_fract_x
 _atom_site_fract_y
 _atom_site_fract_z
 _atom_site_occupancy
  Yb  Yb0  1  0.63831600  0.12056100  0.12056100  1
  Yb  Yb1  1  0.12056100  0.63831600  0.12056100  1
  Yb  Yb2  1  0.12056100  0.12056100  0.63831600  1
  Yb  Yb3  1  0.12056100  0.12056100  0.12056100  1
  Mg  Mg4  1  0.75000000  0.75000000  0.75000000  1
  Mn  Mn5  1  0.50000000  0.50000000  0.50000000  1
  S  S6  1  0.36715100  0.87761600  0.87761600  1
  S  S7  1  0.87761600  0.36715100  0.87761600  1
  S  S8  1  0.87761600  0.87761600  0.36715100  1
  S  S9  1  0.87761600  0.87761600  0.87761600  1
  S  S10  1  0.83167600  0.38944100  0.38944100  1
  S  S11  1  0.38944100  0.83167600  0.38944100  1
  S  S12  1  0.38944100  0.38944100  0.83167600  1
  S  S13  1  0.38944100  0.38944100  0.38944100  1
