# generated using pymatgen
data_YbUTe6
_symmetry_space_group_name_H-M   'P 1'
_cell_length_a   12.93140323
_cell_length_b   12.93140323
_cell_length_c   4.39134900
_cell_angle_alpha   90.00000000
_cell_angle_beta   90.00000000
_cell_angle_gamma   160.53546748
_symmetry_Int_Tables_number   1
_chemical_formula_structural   YbUTe6
_chemical_formula_sum   'Yb1 U1 Te6'
_cell_volume   244.69471723
_cell_formula_units_Z   1
loop_
 _symmetry_equiv_pos_site_id
 _symmetry_equiv_pos_as_xyz
  1  'x, y, z'
loop_
 _atom_site_type_symbol
 _atom_site_label
 _atom_site_symmetry_multiplicity
 _atom_site_fract_x
 _atom_site_fract_y
 _atom_site_fract_z
 _atom_site_occupancy
  Yb  Yb0  1  0.17011000  0.82989000  0.50000000  1
  U  U1  1  0.83024100  0.16975900  0.00000000  1
  Te  Te2  1  0.42519000  0.57481000  0.00000000  1
  Te  Te3  1  0.57065100  0.42934900  0.50000000  1
  Te  Te4  1  0.70933900  0.29066100  0.00000000  1
  Te  Te5  1  0.29960500  0.70039500  0.50000000  1
  Te  Te6  1  0.06977500  0.93022500  0.00000000  1
  Te  Te7  1  0.92508900  0.07491100  0.50000000  1
