# generated using pymatgen
data_Zn2Cd(BO3)2
_symmetry_space_group_name_H-M   'P 1'
_cell_length_a   6.32457163
_cell_length_b   6.42773899
_cell_length_c   6.56637283
_cell_angle_alpha   80.25868903
_cell_angle_beta   81.58853351
_cell_angle_gamma   82.93062789
_symmetry_Int_Tables_number   1
_chemical_formula_structural   Zn2Cd(BO3)2
_chemical_formula_sum   'Zn4 Cd2 B4 O12'
_cell_volume   258.93514014
_cell_formula_units_Z   2
loop_
 _symmetry_equiv_pos_site_id
 _symmetry_equiv_pos_as_xyz
  1  'x, y, z'
loop_
 _atom_site_type_symbol
 _atom_site_label
 _atom_site_symmetry_multiplicity
 _atom_site_fract_x
 _atom_site_fract_y
 _atom_site_fract_z
 _atom_site_occupancy
  Zn  Zn0  1  0.04652500  0.33583900  0.72537400  1
  Zn  Zn1  1  0.22219400  0.84066100  0.54457800  1
  Zn  Zn2  1  0.83837500  0.54539700  0.22373200  1
  Zn  Zn3  1  0.54023800  0.22987700  0.83829600  1
  Cd  Cd4  1  0.34573000  0.72623200  0.04047000  1
  Cd  Cd5  1  0.70837300  0.04703800  0.33868500  1
  B  B6  1  0.40854300  0.41605600  0.43392000  1
  B  B7  1  0.90648800  0.91623000  0.90233900  1
  B  B8  1  0.16301500  0.16980000  0.16013200  1
  B  B9  1  0.66844100  0.64331900  0.64905200  1
  O  O10  1  0.52481700  0.48516000  0.24281500  1
  O  O11  1  0.48289000  0.22601200  0.54745100  1
  O  O12  1  0.21974100  0.52703500  0.50939400  1
  O  O13  1  0.01212700  0.01857300  0.71852300  1
  O  O14  1  0.99780900  0.72371400  0.99632000  1
  O  O15  1  0.71291300  0.00434900  0.99594400  1
  O  O16  1  0.27182400  0.98207600  0.24951200  1
  O  O17  1  0.97735200  0.25536300  0.26697300  1
  O  O18  1  0.23736100  0.26733800  0.96133600  1
  O  O19  1  0.47650300  0.75773900  0.71073900  1
  O  O20  1  0.78660700  0.71304700  0.46034500  1
  O  O21  1  0.74233600  0.45934400  0.77407200  1
