# generated using pymatgen
data_Zn4Cu11(SnSe4)5
_symmetry_space_group_name_H-M   'P 1'
_cell_length_a   10.77569957
_cell_length_b   10.77569957
_cell_length_c   10.77569957
_cell_angle_alpha   106.77280490
_cell_angle_beta   106.77280490
_cell_angle_gamma   115.01435036
_symmetry_Int_Tables_number   1
_chemical_formula_structural   Zn4Cu11(SnSe4)5
_chemical_formula_sum   'Zn4 Cu11 Sn5 Se20'
_cell_volume   956.36843027
_cell_formula_units_Z   1
loop_
 _symmetry_equiv_pos_site_id
 _symmetry_equiv_pos_as_xyz
  1  'x, y, z'
loop_
 _atom_site_type_symbol
 _atom_site_label
 _atom_site_symmetry_multiplicity
 _atom_site_fract_x
 _atom_site_fract_y
 _atom_site_fract_z
 _atom_site_occupancy
  Zn  Zn0  1  0.19963200  0.39979600  0.59973000  1
  Zn  Zn1  1  0.40009800  0.80036800  0.20016400  1
  Zn  Zn2  1  0.60020400  0.19993400  0.79983600  1
  Zn  Zn3  1  0.80006600  0.59990200  0.40027000  1
  Cu  Cu4  1  0.84964700  0.95082600  0.29890500  1
  Cu  Cu5  1  0.25000000  0.75000000  0.50000000  1
  Cu  Cu6  1  0.65192100  0.55074200  0.70109500  1
  Cu  Cu7  1  0.04917400  0.34807900  0.89882100  1
  Cu  Cu8  1  0.44925800  0.15035300  0.10117900  1
  Cu  Cu9  1  0.75000000  0.25000000  0.50000000  1
  Cu  Cu10  1  0.14867000  0.05025100  0.70033400  1
  Cu  Cu11  1  0.55166400  0.85133000  0.90158200  1
  Cu  Cu12  1  0.94974900  0.65008200  0.09841800  1
  Cu  Cu13  1  0.34991800  0.44833600  0.29966600  1
  Cu  Cu14  1  0.00000000  0.00000000  0.00000000  1
  Sn  Sn15  1  0.70333100  0.90238900  0.60214900  1
  Sn  Sn16  1  0.09761100  0.69976000  0.80094200  1
  Sn  Sn17  1  0.50000000  0.50000000  0.00000000  1
  Sn  Sn18  1  0.89881800  0.29666900  0.19905800  1
  Sn  Sn19  1  0.30024000  0.10118200  0.39785100  1
  Se  Se20  1  0.59137000  0.28733500  0.60826300  1
  Se  Se21  1  0.79108800  0.68744100  0.20733800  1
  Se  Se22  1  0.99092900  0.08543000  0.81119700  1
  Se  Se23  1  0.19114500  0.48727400  0.40750800  1
  Se  Se24  1  0.39071500  0.88720100  0.00706200  1
  Se  Se25  1  0.27423300  0.17973200  0.18880300  1
  Se  Se26  1  0.48010300  0.58375000  0.79266200  1
  Se  Se27  1  0.67907200  0.98310700  0.39173700  1
  Se  Se28  1  0.88013900  0.38365300  0.99293800  1
  Se  Se29  1  0.07976600  0.78363700  0.59249200  1
  Se  Se30  1  0.31255900  0.51989700  0.10364700  1
  Se  Se31  1  0.51272600  0.92023400  0.70387100  1
  Se  Se32  1  0.71266500  0.32092800  0.30403500  1
  Se  Se33  1  0.91457000  0.72576700  0.90549900  1
  Se  Se34  1  0.11279900  0.11986100  0.50351400  1
  Se  Se35  1  0.41625000  0.20891200  0.89635300  1
  Se  Se36  1  0.61634700  0.60928500  0.49648600  1
  Se  Se37  1  0.82026800  0.00907100  0.09450100  1
  Se  Se38  1  0.01689300  0.40863000  0.69596500  1
  Se  Se39  1  0.21636300  0.80885500  0.29612900  1
