# generated using pymatgen
data_ZnFe3(SnS4)2
_symmetry_space_group_name_H-M   'P 1'
_cell_length_a   7.15779570
_cell_length_b   7.15779570
_cell_length_c   7.15779570
_cell_angle_alpha   120.30526232
_cell_angle_beta   119.18632548
_cell_angle_gamma   90.44357523
_symmetry_Int_Tables_number   1
_chemical_formula_structural   ZnFe3(SnS4)2
_chemical_formula_sum   'Zn1 Fe3 Sn2 S8'
_cell_volume   260.26935248
_cell_formula_units_Z   1
loop_
 _symmetry_equiv_pos_site_id
 _symmetry_equiv_pos_as_xyz
  1  'x, y, z'
loop_
 _atom_site_type_symbol
 _atom_site_label
 _atom_site_symmetry_multiplicity
 _atom_site_fract_x
 _atom_site_fract_y
 _atom_site_fract_z
 _atom_site_occupancy
  Zn  Zn0  1  0.99153200  0.99153200  0.00000000  1
  Fe  Fe1  1  0.37616300  0.62600500  0.24984200  1
  Fe  Fe2  1  0.37616300  0.12632200  0.75015800  1
  Fe  Fe3  1  0.75572900  0.25572900  0.50000000  1
  Sn  Sn4  1  0.87262400  0.62399300  0.24863200  1
  Sn  Sn5  1  0.37536100  0.62399300  0.75136800  1
  S  S6  1  0.14923500  0.90124500  0.75201000  1
  S  S7  1  0.14923500  0.39722500  0.24799000  1
  S  S8  1  0.58440600  0.87649900  0.70790700  1
  S  S9  1  0.16859200  0.87649900  0.29209300  1
  S  S10  1  0.60404700  0.34269300  0.73864500  1
  S  S11  1  0.60404800  0.86540200  0.26135500  1
  S  S12  1  0.15743200  0.37143200  0.78600000  1
  S  S13  1  0.58543200  0.37143200  0.21400000  1
