# generated using pymatgen
data_Bi2TeO2
_symmetry_space_group_name_H-M   'P 1'
_cell_length_a   7.05118817
_cell_length_b   7.05089440
_cell_length_c   4.02394815
_cell_angle_alpha   73.42458207
_cell_angle_beta   73.41656392
_cell_angle_gamma   33.15885401
_symmetry_Int_Tables_number   1
_chemical_formula_structural   Bi2TeO2
_chemical_formula_sum   'Bi2 Te1 O2'
_cell_volume   104.46276933
_cell_formula_units_Z   1
loop_
 _symmetry_equiv_pos_site_id
 _symmetry_equiv_pos_as_xyz
  1  'x, y, z'
loop_
 _atom_site_type_symbol
 _atom_site_label
 _atom_site_symmetry_multiplicity
 _atom_site_fract_x
 _atom_site_fract_y
 _atom_site_fract_z
 _atom_site_occupancy
  Bi  Bi0  1  0.65292400  0.65533000  0.34467000  1
  Bi  Bi1  1  0.34467000  0.34707600  0.65292400  1
  Te  Te2  1  0.99171200  0.00828800  0.99171200  1
  O  O3  1  0.24742500  0.25257500  0.24742500  1
  O  O4  1  0.74742500  0.75257500  0.74742500  1
