# generated using pymatgen
data_YZr3F15
_symmetry_space_group_name_H-M   'P 1'
_cell_length_a   8.21676520
_cell_length_b   8.21676520
_cell_length_c   8.21033022
_cell_angle_alpha   79.85517340
_cell_angle_beta   79.85517340
_cell_angle_gamma   100.21517852
_symmetry_Int_Tables_number   1
_chemical_formula_structural   YZr3F15
_chemical_formula_sum   'Y2 Zr6 F30'
_cell_volume   524.55887576
_cell_formula_units_Z   2
loop_
 _symmetry_equiv_pos_site_id
 _symmetry_equiv_pos_as_xyz
  1  'x, y, z'
loop_
 _atom_site_type_symbol
 _atom_site_label
 _atom_site_symmetry_multiplicity
 _atom_site_fract_x
 _atom_site_fract_y
 _atom_site_fract_z
 _atom_site_occupancy
  Y  Y0  1  0.17745800  0.82254200  0.25000000  1
  Y  Y1  1  0.82254200  0.17745800  0.75000000  1
  Zr  Zr2  1  0.75058800  0.24941200  0.25000000  1
  Zr  Zr3  1  0.24941200  0.75058800  0.75000000  1
  Zr  Zr4  1  0.74930500  0.67747600  0.67533200  1
  Zr  Zr5  1  0.32252400  0.25069500  0.82466800  1
  Zr  Zr6  1  0.25069500  0.32252400  0.32466800  1
  Zr  Zr7  1  0.67747600  0.74930500  0.17533200  1
  F  F8  1  0.31637700  0.34900600  0.05245400  1
  F  F9  1  0.93586200  0.81458500  0.14995600  1
  F  F10  1  0.84640300  0.46189700  0.68201600  1
  F  F11  1  0.46189700  0.84640300  0.18201600  1
  F  F12  1  0.81458500  0.93586200  0.64995600  1
  F  F13  1  0.34900600  0.31637700  0.55245300  1
  F  F14  1  0.68362300  0.65099400  0.94754600  1
  F  F15  1  0.06413800  0.18541500  0.85004400  1
  F  F16  1  0.15359700  0.53810300  0.31798400  1
  F  F17  1  0.53810300  0.15359700  0.81798400  1
  F  F18  1  0.18541500  0.06413800  0.35004400  1
  F  F19  1  0.65099400  0.68362300  0.44754600  1
  F  F20  1  0.77456100  0.28241700  0.99633300  1
  F  F21  1  0.00744300  0.27570900  0.21957500  1
  F  F22  1  0.77676300  0.50761400  0.22415100  1
  F  F23  1  0.50761400  0.77676300  0.72415100  1
  F  F24  1  0.27570900  0.00744300  0.71957500  1
  F  F25  1  0.28241700  0.77456100  0.49633300  1
  F  F26  1  0.22543900  0.71758300  0.00366700  1
  F  F27  1  0.99255700  0.72429100  0.78042500  1
  F  F28  1  0.22323700  0.49238600  0.77584900  1
  F  F29  1  0.49238600  0.22323700  0.27584900  1
  F  F30  1  0.72429100  0.99255700  0.28042500  1
  F  F31  1  0.71758300  0.22543900  0.50366700  1
  F  F32  1  0.46585100  0.53414900  0.25000000  1
  F  F33  1  0.74714800  0.95487700  0.97230400  1
  F  F34  1  0.04512300  0.25285200  0.52769600  1
  F  F35  1  0.25285200  0.04512300  0.02769600  1
  F  F36  1  0.95487700  0.74714800  0.47230400  1
  F  F37  1  0.53414900  0.46585100  0.75000000  1
