# generated using pymatgen
data_Yb4CrS7
_symmetry_space_group_name_H-M   'P 1'
_cell_length_a   6.64135959
_cell_length_b   6.64135959
_cell_length_c   11.33298890
_cell_angle_alpha   76.03189859
_cell_angle_beta   76.03189859
_cell_angle_gamma   32.53736412
_symmetry_Int_Tables_number   1
_chemical_formula_structural   Yb4CrS7
_chemical_formula_sum   'Yb4 Cr1 S7'
_cell_volume   260.21741975
_cell_formula_units_Z   1
loop_
 _symmetry_equiv_pos_site_id
 _symmetry_equiv_pos_as_xyz
  1  'x, y, z'
loop_
 _atom_site_type_symbol
 _atom_site_label
 _atom_site_symmetry_multiplicity
 _atom_site_fract_x
 _atom_site_fract_y
 _atom_site_fract_z
 _atom_site_occupancy
  Yb  Yb0  1  0.69189400  0.69189400  0.19869200  1
  Yb  Yb1  1  0.30289000  0.30289000  0.79825700  1
  Yb  Yb2  1  0.99966600  0.99966600  0.00487500  1
  Yb  Yb3  1  0.11538200  0.11538200  0.56534500  1
  Cr  Cr4  1  0.88143700  0.88143700  0.42397800  1
  S  S5  1  0.75531100  0.75531100  0.62041200  1
  S  S6  1  0.28884900  0.28884900  0.35561600  1
  S  S7  1  0.33327000  0.33327000  0.06964800  1
  S  S8  1  0.66581900  0.66581900  0.95265500  1
  S  S9  1  0.01867300  0.01867300  0.24470400  1
  S  S10  1  0.96811600  0.96811600  0.77955100  1
  S  S11  1  0.47869300  0.47869300  0.48626600  1
