# generated using pymatgen
data_Yb9Y3Al20O48
_symmetry_space_group_name_H-M   'P 1'
_cell_length_a   10.48647143
_cell_length_b   10.48647143
_cell_length_c   12.10008428
_cell_angle_alpha   54.82151587
_cell_angle_beta   54.82151587
_cell_angle_gamma   70.55748805
_symmetry_Int_Tables_number   1
_chemical_formula_structural   Yb9Y3Al20O48
_chemical_formula_sum   'Yb9 Y3 Al20 O48'
_cell_volume   888.94495193
_cell_formula_units_Z   1
loop_
 _symmetry_equiv_pos_site_id
 _symmetry_equiv_pos_as_xyz
  1  'x, y, z'
loop_
 _atom_site_type_symbol
 _atom_site_label
 _atom_site_symmetry_multiplicity
 _atom_site_fract_x
 _atom_site_fract_y
 _atom_site_fract_z
 _atom_site_occupancy
  Yb  Yb0  1  0.12437300  0.87562700  0.00000000  1
  Yb  Yb1  1  0.25012800  0.24872900  0.87530800  1
  Yb  Yb2  1  0.75127100  0.74987200  0.12469200  1
  Yb  Yb3  1  0.62490700  0.12514800  0.37496100  1
  Yb  Yb4  1  0.87485200  0.37509300  0.62503900  1
  Yb  Yb5  1  0.62477800  0.37522200  0.00000000  1
  Yb  Yb6  1  0.87486700  0.12513300  0.50000000  1
  Yb  Yb7  1  0.75003300  0.74985000  0.62502000  1
  Yb  Yb8  1  0.25015000  0.24996700  0.37498000  1
  Y  Y9  1  0.37453300  0.87657400  0.12331800  1
  Y  Y10  1  0.12342600  0.62546700  0.87668200  1
  Y  Y11  1  0.37612100  0.62387900  0.50000000  1
  Al  Al12  1  0.12419800  0.62485400  0.37553700  1
  Al  Al13  1  0.37514600  0.87580200  0.62446300  1
  Al  Al14  1  0.62550400  0.37449600  0.50000000  1
  Al  Al15  1  0.87518400  0.12481600  0.00000000  1
  Al  Al16  1  0.24990400  0.25020200  0.12402800  1
  Al  Al17  1  0.74979800  0.75009600  0.87597200  1
  Al  Al18  1  0.87448100  0.37426900  0.12542700  1
  Al  Al19  1  0.62573100  0.12551900  0.87457300  1
  Al  Al20  1  0.37439100  0.62560900  0.00000000  1
  Al  Al21  1  0.12486400  0.87513600  0.50000000  1
  Al  Al22  1  0.75008800  0.74970100  0.37445200  1
  Al  Al23  1  0.25029900  0.24991200  0.62554800  1
  Al  Al24  1  0.50100700  0.00070100  0.24917600  1
  Al  Al25  1  0.49997300  0.00065700  0.74964900  1
  Al  Al26  1  0.99929900  0.49899300  0.75082400  1
  Al  Al27  1  0.99934300  0.50002700  0.25035100  1
  Al  Al28  1  0.50075600  0.49914600  0.24989400  1
  Al  Al29  1  0.50085400  0.49924400  0.75010600  1
  Al  Al30  1  0.99983300  0.00007700  0.24966500  1
  Al  Al31  1  0.99992300  0.00016700  0.75033500  1
  O  O32  1  0.32011600  0.61832100  0.33152100  1
  O  O33  1  0.11735900  0.82065500  0.23260500  1
  O  O34  1  0.38167900  0.67988400  0.66847900  1
  O  O35  1  0.17934500  0.88264100  0.76739500  1
  O  O36  1  0.48286100  0.42125800  0.64979100  1
  O  O37  1  0.57874200  0.51713900  0.35020900  1
  O  O38  1  0.01668900  0.08284100  0.05320800  1
  O  O39  1  0.91715900  0.98331100  0.94679200  1
  O  O40  1  0.19992200  0.09552800  0.13477700  1
  O  O41  1  0.30024900  0.40488700  0.93003700  1
  O  O42  1  0.59511300  0.69975100  0.06996300  1
  O  O43  1  0.90447200  0.80007800  0.86522300  1
  O  O44  1  0.68016300  0.38635900  0.16611400  1
  O  O45  1  0.88661700  0.17991300  0.26697600  1
  O  O46  1  0.61364100  0.31983700  0.83388600  1
  O  O47  1  0.82008700  0.11338300  0.73302400  1
  O  O48  1  0.51672400  0.58384100  0.84662300  1
  O  O49  1  0.41615900  0.48327600  0.15337700  1
  O  O50  1  0.98266600  0.91619300  0.44772000  1
  O  O51  1  0.08380700  0.01733400  0.55228000  1
  O  O52  1  0.80226600  0.90296900  0.36386600  1
  O  O53  1  0.69737800  0.59704700  0.56975600  1
  O  O54  1  0.40295300  0.30262200  0.43024400  1
  O  O55  1  0.09703100  0.19773400  0.63613400  1
  O  O56  1  0.68031900  0.11356200  0.15340000  1
  O  O57  1  0.88643800  0.31968100  0.84660000  1
  O  O58  1  0.61419400  0.18013900  0.55242400  1
  O  O59  1  0.81986100  0.38580600  0.44757600  1
  O  O60  1  0.51692400  0.91627600  0.63664700  1
  O  O61  1  0.41662000  0.01719100  0.42962700  1
  O  O62  1  0.98280900  0.58338000  0.57037300  1
  O  O63  1  0.08372400  0.48307600  0.36335300  1
  O  O64  1  0.80214200  0.59696300  0.83400100  1
  O  O65  1  0.69773200  0.90299400  0.73312400  1
  O  O66  1  0.40303700  0.19785800  0.16599900  1
  O  O67  1  0.09700600  0.30226800  0.26687600  1
  O  O68  1  0.32050000  0.88160100  0.34833200  1
  O  O69  1  0.11839900  0.67950000  0.65166800  1
  O  O70  1  0.38485800  0.81954800  0.95014300  1
  O  O71  1  0.18045200  0.61514200  0.04985700  1
  O  O72  1  0.48283600  0.07924200  0.86730500  1
  O  O73  1  0.57909100  0.98263900  0.07088400  1
  O  O74  1  0.01736100  0.42090900  0.92911600  1
  O  O75  1  0.92075800  0.51716400  0.13269500  1
  O  O76  1  0.19975700  0.40445700  0.66518900  1
  O  O77  1  0.30357800  0.09715100  0.76666900  1
  O  O78  1  0.59554300  0.80024300  0.33481100  1
  O  O79  1  0.90284900  0.69642200  0.23333100  1
