# generated using pymatgen
data_Yb3Y3Al10O24
_symmetry_space_group_name_H-M   'P 1'
_cell_length_a   10.49205712
_cell_length_b   10.49205712
_cell_length_c   10.49205712
_cell_angle_alpha   109.47122063
_cell_angle_beta   109.47122063
_cell_angle_gamma   109.47122063
_symmetry_Int_Tables_number   1
_chemical_formula_structural   Yb3Y3Al10O24
_chemical_formula_sum   'Yb6 Y6 Al20 O48'
_cell_volume   889.11932046
_cell_formula_units_Z   2
loop_
 _symmetry_equiv_pos_site_id
 _symmetry_equiv_pos_as_xyz
  1  'x, y, z'
loop_
 _atom_site_type_symbol
 _atom_site_label
 _atom_site_symmetry_multiplicity
 _atom_site_fract_x
 _atom_site_fract_y
 _atom_site_fract_z
 _atom_site_occupancy
  Yb  Yb0  1  0.87500000  0.62500000  0.25000000  1
  Yb  Yb1  1  0.62500000  0.87500000  0.75000000  1
  Yb  Yb2  1  0.62500000  0.25000000  0.87500000  1
  Yb  Yb3  1  0.87500000  0.75000000  0.62500000  1
  Yb  Yb4  1  0.25000000  0.87500000  0.62500000  1
  Yb  Yb5  1  0.75000000  0.62500000  0.87500000  1
  Y  Y6  1  0.12500000  0.37500000  0.75000000  1
  Y  Y7  1  0.37500000  0.12500000  0.25000000  1
  Y  Y8  1  0.37500000  0.75000000  0.12500000  1
  Y  Y9  1  0.12500000  0.25000000  0.37500000  1
  Y  Y10  1  0.75000000  0.12500000  0.37500000  1
  Y  Y11  1  0.25000000  0.37500000  0.12500000  1
  Al  Al12  1  0.37543000  0.62543000  0.75000000  1
  Al  Al13  1  0.12457000  0.87457000  0.25000000  1
  Al  Al14  1  0.62543000  0.75000000  0.37543000  1
  Al  Al15  1  0.87457000  0.25000000  0.12457000  1
  Al  Al16  1  0.75000000  0.37543000  0.62543000  1
  Al  Al17  1  0.25000000  0.12457000  0.87457000  1
  Al  Al18  1  0.62543000  0.37543000  0.25000000  1
  Al  Al19  1  0.87457000  0.12457000  0.75000000  1
  Al  Al20  1  0.37543000  0.25000000  0.62543000  1
  Al  Al21  1  0.12457000  0.75000000  0.87457000  1
  Al  Al22  1  0.25000000  0.62543000  0.37543000  1
  Al  Al23  1  0.75000000  0.87457000  0.12457000  1
  Al  Al24  1  0.99820100  0.50000000  0.00000000  1
  Al  Al25  1  0.00000000  0.99820100  0.50000000  1
  Al  Al26  1  0.50000000  0.00000000  0.99820100  1
  Al  Al27  1  0.50179900  0.50179900  0.50179900  1
  Al  Al28  1  0.50179900  0.50000000  0.00000000  1
  Al  Al29  1  0.50000000  0.00000000  0.50179900  1
  Al  Al30  1  0.00000000  0.50179900  0.50000000  1
  Al  Al31  1  0.99820100  0.99820100  0.99820100  1
  O  O32  1  0.38157900  0.58115500  0.90173300  1
  O  O33  1  0.17942100  0.47984600  0.59826700  1
  O  O34  1  0.32057900  0.91884500  0.30042400  1
  O  O35  1  0.11842100  0.02015400  0.19957600  1
  O  O36  1  0.58115500  0.90173300  0.38157900  1
  O  O37  1  0.47984600  0.59826700  0.17942100  1
  O  O38  1  0.91884500  0.30042400  0.32057900  1
  O  O39  1  0.02015400  0.19957600  0.11842100  1
  O  O40  1  0.90173300  0.38157900  0.58115500  1
  O  O41  1  0.59826700  0.17942100  0.47984600  1
  O  O42  1  0.30042400  0.32057900  0.91884500  1
  O  O43  1  0.19957600  0.11842100  0.02015400  1
  O  O44  1  0.61391300  0.41617900  0.09649200  1
  O  O45  1  0.81968700  0.51742100  0.40350800  1
  O  O46  1  0.68031300  0.08382100  0.69773500  1
  O  O47  1  0.88608700  0.98257900  0.80226500  1
  O  O48  1  0.41617900  0.09649200  0.61391300  1
  O  O49  1  0.51742100  0.40350800  0.81968700  1
  O  O50  1  0.08382100  0.69773500  0.68031300  1
  O  O51  1  0.98257900  0.80226500  0.88608700  1
  O  O52  1  0.09649200  0.61391300  0.41617900  1
  O  O53  1  0.40350800  0.81968700  0.51742100  1
  O  O54  1  0.69773500  0.68031300  0.08382100  1
  O  O55  1  0.80226500  0.88608700  0.98257900  1
  O  O56  1  0.88608700  0.40350800  0.08382100  1
  O  O57  1  0.68031300  0.09649200  0.98257900  1
  O  O58  1  0.81968700  0.80226500  0.41617900  1
  O  O59  1  0.61391300  0.69773500  0.51742100  1
  O  O60  1  0.08382100  0.88608700  0.40350800  1
  O  O61  1  0.98257900  0.68031300  0.09649200  1
  O  O62  1  0.41617900  0.81968700  0.80226500  1
  O  O63  1  0.51742100  0.61391300  0.69773500  1
  O  O64  1  0.40350800  0.08382100  0.88608700  1
  O  O65  1  0.09649200  0.98257900  0.68031300  1
  O  O66  1  0.80226500  0.41617900  0.81968700  1
  O  O67  1  0.69773500  0.51742100  0.61391300  1
  O  O68  1  0.11842100  0.59826700  0.91884500  1
  O  O69  1  0.32057900  0.90173300  0.02015400  1
  O  O70  1  0.17942100  0.19957600  0.58115500  1
  O  O71  1  0.38157900  0.30042400  0.47984600  1
  O  O72  1  0.91884500  0.11842100  0.59826700  1
  O  O73  1  0.02015400  0.32057900  0.90173300  1
  O  O74  1  0.58115500  0.17942100  0.19957600  1
  O  O75  1  0.47984600  0.38157900  0.30042400  1
  O  O76  1  0.59826700  0.91884500  0.11842100  1
  O  O77  1  0.90173300  0.02015400  0.32057900  1
  O  O78  1  0.19957600  0.58115500  0.17942100  1
  O  O79  1  0.30042400  0.47984600  0.38157900  1
