# generated using pymatgen
data_Yb2MnCoO6
_symmetry_space_group_name_H-M   'P 1'
_cell_length_a   5.41264800
_cell_length_b   5.25866000
_cell_length_c   9.12615103
_cell_angle_alpha   54.96443919
_cell_angle_beta   90.00000000
_cell_angle_gamma   90.00000000
_symmetry_Int_Tables_number   1
_chemical_formula_structural   Yb2MnCoO6
_chemical_formula_sum   'Yb4 Mn2 Co2 O12'
_cell_volume   212.69054556
_cell_formula_units_Z   2
loop_
 _symmetry_equiv_pos_site_id
 _symmetry_equiv_pos_as_xyz
  1  'x, y, z'
loop_
 _atom_site_type_symbol
 _atom_site_label
 _atom_site_symmetry_multiplicity
 _atom_site_fract_x
 _atom_site_fract_y
 _atom_site_fract_z
 _atom_site_occupancy
  Yb  Yb0  1  0.44087400  0.76430700  0.74971700  1
  Yb  Yb1  1  0.94087400  0.23569300  0.75028300  1
  Yb  Yb2  1  0.55912600  0.23569300  0.25028300  1
  Yb  Yb3  1  0.05912600  0.76430700  0.24971700  1
  Mn  Mn4  1  0.50000000  0.50000000  0.50000000  1
  Mn  Mn5  1  0.00000000  0.50000000  0.00000000  1
  Co  Co6  1  0.50000000  0.00000000  0.00000000  1
  Co  Co7  1  0.00000000  0.00000000  0.50000000  1
  O  O8  1  0.01650200  0.67006000  0.74896100  1
  O  O9  1  0.51650200  0.32994000  0.75103900  1
  O  O10  1  0.98349800  0.32994000  0.25103900  1
  O  O11  1  0.48349800  0.67006000  0.24896100  1
  O  O12  1  0.20380700  0.83794300  0.95730800  1
  O  O13  1  0.70380700  0.16205700  0.54269200  1
  O  O14  1  0.79334500  0.74363800  0.45798700  1
  O  O15  1  0.29334500  0.25636200  0.04201300  1
  O  O16  1  0.79619300  0.16205700  0.04269200  1
  O  O17  1  0.29619300  0.83794300  0.45730800  1
  O  O18  1  0.20665500  0.25636200  0.54201300  1
  O  O19  1  0.70665500  0.74363800  0.95798700  1
