# generated using pymatgen
data_YbIn7Cu5
_symmetry_space_group_name_H-M   'P 1'
_cell_length_a   7.26278321
_cell_length_b   7.26278321
_cell_length_c   7.26278321
_cell_angle_alpha   134.54386183
_cell_angle_beta   99.12399013
_cell_angle_gamma   98.04630899
_symmetry_Int_Tables_number   1
_chemical_formula_structural   YbIn7Cu5
_chemical_formula_sum   'Yb1 In7 Cu5'
_cell_volume   251.82197825
_cell_formula_units_Z   1
loop_
 _symmetry_equiv_pos_site_id
 _symmetry_equiv_pos_as_xyz
  1  'x, y, z'
loop_
 _atom_site_type_symbol
 _atom_site_label
 _atom_site_symmetry_multiplicity
 _atom_site_fract_x
 _atom_site_fract_y
 _atom_site_fract_z
 _atom_site_occupancy
  Yb  Yb0  1  0.00277900  0.00277900  0.00000000  1
  In  In1  1  0.65894800  0.65894800  0.00000000  1
  In  In2  1  0.33196300  0.33196300  0.00000000  1
  In  In3  1  0.32804000  0.98749800  0.34054200  1
  In  In4  1  0.64695500  0.98749800  0.65945800  1
  In  In5  1  0.77327700  0.27327700  0.50000000  1
  In  In6  1  0.81052900  0.51221400  0.29831600  1
  In  In7  1  0.21389800  0.51221400  0.70168400  1
  Cu  Cu8  1  0.49437500  0.49697000  0.48776200  1
  Cu  Cu9  1  0.49437500  0.00661300  0.99740400  1
  Cu  Cu10  1  0.00920800  0.49697000  0.00259600  1
  Cu  Cu11  1  0.00920800  0.00661300  0.51223800  1
  Cu  Cu12  1  0.22644400  0.72644400  0.50000000  1
