# generated using pymatgen
data_YSn2BiO7
_symmetry_space_group_name_H-M   'P 1'
_cell_length_a   7.51601460
_cell_length_b   7.51601460
_cell_length_c   7.51601460
_cell_angle_alpha   120.29045056
_cell_angle_beta   119.83973568
_cell_angle_gamma   89.88773640
_symmetry_Int_Tables_number   1
_chemical_formula_structural   YSn2BiO7
_chemical_formula_sum   'Y2 Sn4 Bi2 O14'
_cell_volume   299.92386307
_cell_formula_units_Z   2
loop_
 _symmetry_equiv_pos_site_id
 _symmetry_equiv_pos_as_xyz
  1  'x, y, z'
loop_
 _atom_site_type_symbol
 _atom_site_label
 _atom_site_symmetry_multiplicity
 _atom_site_fract_x
 _atom_site_fract_y
 _atom_site_fract_z
 _atom_site_occupancy
  Y  Y0  1  0.00000000  0.50000000  0.50000000  1
  Y  Y1  1  0.50000000  0.50000000  0.00000000  1
  Sn  Sn2  1  0.50000000  0.00000000  0.00000000  1
  Sn  Sn3  1  0.50000000  0.50000000  0.50000000  1
  Sn  Sn4  1  0.50000000  0.00000000  0.50000000  1
  Sn  Sn5  1  0.00000000  0.00000000  0.00000000  1
  Bi  Bi6  1  0.00000000  0.50000000  0.00000000  1
  Bi  Bi7  1  0.00000000  0.00000000  0.50000000  1
  O  O8  1  0.86616700  0.61616700  0.25000000  1
  O  O9  1  0.13383300  0.38383300  0.75000000  1
  O  O10  1  0.83386500  0.08386500  0.75000000  1
  O  O11  1  0.41330400  0.66330400  0.75000000  1
  O  O12  1  0.83564400  0.66390700  0.74505200  1
  O  O13  1  0.41885500  0.09059300  0.75494800  1
  O  O14  1  0.83564400  0.09059300  0.17173800  1
  O  O15  1  0.41885500  0.66390700  0.32826200  1
  O  O16  1  0.16613500  0.91613500  0.25000000  1
  O  O17  1  0.58669600  0.33669600  0.25000000  1
  O  O18  1  0.16435600  0.33609300  0.25494800  1
  O  O19  1  0.58114500  0.90940700  0.24505200  1
  O  O20  1  0.16435600  0.90940700  0.82826200  1
  O  O21  1  0.58114500  0.33609300  0.67173800  1
