# generated using pymatgen
data_ZrMnGa
_symmetry_space_group_name_H-M   'P 1'
_cell_length_a   5.09068644
_cell_length_b   5.09068644
_cell_length_c   8.46099100
_cell_angle_alpha   90.00000000
_cell_angle_beta   90.00000000
_cell_angle_gamma   119.36346859
_symmetry_Int_Tables_number   1
_chemical_formula_structural   ZrMnGa
_chemical_formula_sum   'Zr4 Mn4 Ga4'
_cell_volume   191.09731707
_cell_formula_units_Z   4
loop_
 _symmetry_equiv_pos_site_id
 _symmetry_equiv_pos_as_xyz
  1  'x, y, z'
loop_
 _atom_site_type_symbol
 _atom_site_label
 _atom_site_symmetry_multiplicity
 _atom_site_fract_x
 _atom_site_fract_y
 _atom_site_fract_z
 _atom_site_occupancy
  Zr  Zr0  1  0.33458700  0.66541300  0.19217500  1
  Zr  Zr1  1  0.67041100  0.32958900  0.32378300  1
  Zr  Zr2  1  0.67041100  0.32958900  0.67621700  1
  Zr  Zr3  1  0.33458700  0.66541300  0.80782500  1
  Mn  Mn4  1  0.83526400  0.16473600  0.00000000  1
  Mn  Mn5  1  0.18510800  0.37507000  0.50000000  1
  Mn  Mn6  1  0.62493000  0.81489200  0.50000000  1
  Mn  Mn7  1  0.17531200  0.82468800  0.50000000  1
  Ga  Ga8  1  0.99455100  0.00544900  0.26733400  1
  Ga  Ga9  1  0.99455100  0.00544900  0.73266600  1
  Ga  Ga10  1  0.83298900  0.65415800  0.00000000  1
  Ga  Ga11  1  0.34584200  0.16701100  0.00000000  1
