# generated using pymatgen
data_ZnCu7(CO5)4
_symmetry_space_group_name_H-M   'P 1'
_cell_length_a   3.10645802
_cell_length_b   8.98670763
_cell_length_c   12.33068210
_cell_angle_alpha   89.96064226
_cell_angle_beta   90.16944386
_cell_angle_gamma   96.31486787
_symmetry_Int_Tables_number   1
_chemical_formula_structural   ZnCu7(CO5)4
_chemical_formula_sum   'Zn1 Cu7 C4 O20'
_cell_volume   342.14338120
_cell_formula_units_Z   1
loop_
 _symmetry_equiv_pos_site_id
 _symmetry_equiv_pos_as_xyz
  1  'x, y, z'
loop_
 _atom_site_type_symbol
 _atom_site_label
 _atom_site_symmetry_multiplicity
 _atom_site_fract_x
 _atom_site_fract_y
 _atom_site_fract_z
 _atom_site_occupancy
  Zn  Zn0  1  0.40085700  0.72690800  0.10266400  1
  Cu  Cu1  1  0.92459200  0.99695400  0.22182900  1
  Cu  Cu2  1  0.08717900  0.49946100  0.71631300  1
  Cu  Cu3  1  0.08005300  0.00299300  0.77992300  1
  Cu  Cu4  1  0.91310000  0.49945200  0.28496800  1
  Cu  Cu5  1  0.59372800  0.76706900  0.61258200  1
  Cu  Cu6  1  0.59588500  0.26811700  0.88702600  1
  Cu  Cu7  1  0.40949900  0.23186800  0.38686700  1
  C  C8  1  0.47902700  0.77188800  0.37071800  1
  C  C9  1  0.52294200  0.73017200  0.86190800  1
  C  C10  1  0.51966000  0.22991800  0.63187900  1
  C  C11  1  0.47777600  0.27046900  0.13481900  1
  O  O12  1  0.31255400  0.63264100  0.37259000  1
  O  O13  1  0.67855600  0.87008300  0.86475300  1
  O  O14  1  0.67223100  0.37049700  0.63114800  1
  O  O15  1  0.32047800  0.13058800  0.13378700  1
  O  O16  1  0.93438200  0.86924300  0.10318300  1
  O  O17  1  0.07365200  0.63398800  0.59704100  1
  O  O18  1  0.07184600  0.13529300  0.90047500  1
  O  O19  1  0.92773100  0.36577200  0.40239100  1
  O  O20  1  0.64584300  0.83536700  0.45466700  1
  O  O21  1  0.35057400  0.66450800  0.94318500  1
  O  O22  1  0.35937800  0.16434300  0.54895400  1
  O  O23  1  0.64196400  0.33527800  0.05220100  1
  O  O24  1  0.88085800  0.60732300  0.16036900  1
  O  O25  1  0.10606300  0.88898600  0.65623700  1
  O  O26  1  0.10984500  0.38788500  0.84225200  1
  O  O27  1  0.89842100  0.11080200  0.34486200  1
  O  O28  1  0.48206500  0.84495100  0.27819300  1
  O  O29  1  0.53354400  0.65669200  0.76851500  1
  O  O30  1  0.52138300  0.15679500  0.72522200  1
  O  O31  1  0.47433600  0.34369700  0.22847700  1
