# generated using pymatgen
data_YErNi2
_symmetry_space_group_name_H-M   'P 1'
_cell_length_a   4.14186400
_cell_length_b   5.44216700
_cell_length_c   7.11764600
_cell_angle_alpha   90.00000000
_cell_angle_beta   90.00000000
_cell_angle_gamma   90.00000000
_symmetry_Int_Tables_number   1
_chemical_formula_structural   YErNi2
_chemical_formula_sum   'Y2 Er2 Ni4'
_cell_volume   160.43683408
_cell_formula_units_Z   2
loop_
 _symmetry_equiv_pos_site_id
 _symmetry_equiv_pos_as_xyz
  1  'x, y, z'
loop_
 _atom_site_type_symbol
 _atom_site_label
 _atom_site_symmetry_multiplicity
 _atom_site_fract_x
 _atom_site_fract_y
 _atom_site_fract_z
 _atom_site_occupancy
  Y  Y0  1  0.50000000  0.37778100  0.32053000  1
  Y  Y1  1  0.50000000  0.62221900  0.82053000  1
  Er  Er2  1  0.00000000  0.12124900  0.68009800  1
  Er  Er3  1  0.00000000  0.87875100  0.18009800  1
  Ni  Ni4  1  0.00000000  0.63210700  0.53709700  1
  Ni  Ni5  1  0.00000000  0.36789300  0.03709700  1
  Ni  Ni6  1  0.50000000  0.87017500  0.46227600  1
  Ni  Ni7  1  0.50000000  0.12982500  0.96227600  1
