# generated using pymatgen
data_Y3Sn4BiO14
_symmetry_space_group_name_H-M   'P 1'
_cell_length_a   7.46328880
_cell_length_b   7.46328880
_cell_length_c   7.46328830
_cell_angle_alpha   60.22215921
_cell_angle_beta   60.22215921
_cell_angle_gamma   60.22215919
_symmetry_Int_Tables_number   1
_chemical_formula_structural   Y3Sn4BiO14
_chemical_formula_sum   'Y3 Sn4 Bi1 O14'
_cell_volume   295.43004171
_cell_formula_units_Z   1
loop_
 _symmetry_equiv_pos_site_id
 _symmetry_equiv_pos_as_xyz
  1  'x, y, z'
loop_
 _atom_site_type_symbol
 _atom_site_label
 _atom_site_symmetry_multiplicity
 _atom_site_fract_x
 _atom_site_fract_y
 _atom_site_fract_z
 _atom_site_occupancy
  Y  Y0  1  0.00000000  0.50000000  0.50000000  1
  Y  Y1  1  0.50000000  0.50000000  0.00000000  1
  Y  Y2  1  0.50000000  0.00000000  0.50000000  1
  Sn  Sn3  1  0.00000000  0.00000000  0.00000000  1
  Sn  Sn4  1  0.50000000  0.00000000  0.00000000  1
  Sn  Sn5  1  0.00000000  0.00000000  0.50000000  1
  Sn  Sn6  1  0.00000000  0.50000000  0.00000000  1
  Bi  Bi7  1  0.50000000  0.50000000  0.50000000  1
  O  O8  1  0.37077100  0.37077100  0.37077100  1
  O  O9  1  0.62922900  0.62922900  0.62922900  1
  O  O10  1  0.91816800  0.33667600  0.33667600  1
  O  O11  1  0.33739000  0.91226200  0.91226200  1
  O  O12  1  0.33667600  0.33667600  0.91816800  1
  O  O13  1  0.91226200  0.91226200  0.33739000  1
  O  O14  1  0.91226200  0.33739000  0.91226200  1
  O  O15  1  0.33667600  0.91816800  0.33667600  1
  O  O16  1  0.08183200  0.66332400  0.66332400  1
  O  O17  1  0.66261000  0.08773800  0.08773800  1
  O  O18  1  0.66332400  0.66332400  0.08183200  1
  O  O19  1  0.08773800  0.08773800  0.66261000  1
  O  O20  1  0.08773800  0.66261000  0.08773800  1
  O  O21  1  0.66332400  0.08183200  0.66332400  1
