# generated using pymatgen
data_YTh(B2Ru3)2
_symmetry_space_group_name_H-M   'P 1'
_cell_length_a   3.05241900
_cell_length_b   5.54712460
_cell_length_c   9.57800779
_cell_angle_alpha   90.00000434
_cell_angle_beta   90.00000000
_cell_angle_gamma   90.00000000
_symmetry_Int_Tables_number   1
_chemical_formula_structural   YTh(B2Ru3)2
_chemical_formula_sum   'Y1 Th1 B4 Ru6'
_cell_volume   162.17625055
_cell_formula_units_Z   1
loop_
 _symmetry_equiv_pos_site_id
 _symmetry_equiv_pos_as_xyz
  1  'x, y, z'
loop_
 _atom_site_type_symbol
 _atom_site_label
 _atom_site_symmetry_multiplicity
 _atom_site_fract_x
 _atom_site_fract_y
 _atom_site_fract_z
 _atom_site_occupancy
  Y  Y0  1  0.00000000  0.50006400  0.50000000  1
  Th  Th1  1  0.00000000  0.99993900  0.00000000  1
  B  B2  1  0.00000000  0.99994500  0.33173900  1
  B  B3  1  0.00000000  0.49998900  0.83401900  1
  B  B4  1  0.00000000  0.49998900  0.16598100  1
  B  B5  1  0.00000000  0.99994500  0.66826100  1
  Ru  Ru6  1  0.50000000  0.00002500  0.50000000  1
  Ru  Ru7  1  0.50000000  0.49998400  0.00000000  1
  Ru  Ru8  1  0.50000000  0.25525200  0.25509100  1
  Ru  Ru9  1  0.50000000  0.74470800  0.74492400  1
  Ru  Ru10  1  0.50000000  0.74470800  0.25507600  1
  Ru  Ru11  1  0.50000000  0.25525200  0.74490900  1
