# generated using pymatgen
data_Y2NiGe3
_symmetry_space_group_name_H-M   'P 1'
_cell_length_a   4.04149400
_cell_length_b   4.18714258
_cell_length_c   7.02157029
_cell_angle_alpha   90.00543731
_cell_angle_beta   90.00000000
_cell_angle_gamma   90.00000000
_symmetry_Int_Tables_number   1
_chemical_formula_structural   Y2NiGe3
_chemical_formula_sum   'Y2 Ni1 Ge3'
_cell_volume   118.82119990
_cell_formula_units_Z   1
loop_
 _symmetry_equiv_pos_site_id
 _symmetry_equiv_pos_as_xyz
  1  'x, y, z'
loop_
 _atom_site_type_symbol
 _atom_site_label
 _atom_site_symmetry_multiplicity
 _atom_site_fract_x
 _atom_site_fract_y
 _atom_site_fract_z
 _atom_site_occupancy
  Y  Y0  1  0.00000000  0.99995500  0.00512300  1
  Y  Y1  1  0.00000000  0.49994400  0.49846700  1
  Ni  Ni2  1  0.50000000  0.99997500  0.32227600  1
  Ge  Ge3  1  0.50000000  0.49996200  0.83792100  1
  Ge  Ge4  1  0.50000000  0.50000300  0.18983900  1
  Ge  Ge5  1  0.50000000  0.99996000  0.64637400  1
