# generated using pymatgen
data_YTm3(SnPd2)4
_symmetry_space_group_name_H-M   'P 1'
_cell_length_a   15.78993038
_cell_length_b   15.78993038
_cell_length_c   15.78993068
_cell_angle_alpha   17.47844704
_cell_angle_beta   17.47844704
_cell_angle_gamma   17.47844448
_symmetry_Int_Tables_number   1
_chemical_formula_structural   YTm3(SnPd2)4
_chemical_formula_sum   'Y1 Tm3 Sn4 Pd8'
_cell_volume   309.93619684
_cell_formula_units_Z   1
loop_
 _symmetry_equiv_pos_site_id
 _symmetry_equiv_pos_as_xyz
  1  'x, y, z'
loop_
 _atom_site_type_symbol
 _atom_site_label
 _atom_site_symmetry_multiplicity
 _atom_site_fract_x
 _atom_site_fract_y
 _atom_site_fract_z
 _atom_site_occupancy
  Y  Y0  1  0.50000000  0.50000000  0.50000000  1
  Tm  Tm1  1  0.74999300  0.74999300  0.74999300  1
  Tm  Tm2  1  0.00000000  0.00000000  0.00000000  1
  Tm  Tm3  1  0.25000700  0.25000700  0.25000700  1
  Sn  Sn4  1  0.62500300  0.62500300  0.62500300  1
  Sn  Sn5  1  0.37499700  0.37499700  0.37499700  1
  Sn  Sn6  1  0.87510700  0.87510700  0.87510700  1
  Sn  Sn7  1  0.12489300  0.12489300  0.12489300  1
  Pd  Pd8  1  0.93751700  0.93751700  0.93751700  1
  Pd  Pd9  1  0.68747500  0.68747500  0.68747500  1
  Pd  Pd10  1  0.18799100  0.18799100  0.18799100  1
  Pd  Pd11  1  0.43696700  0.43696700  0.43696700  1
  Pd  Pd12  1  0.56303300  0.56303300  0.56303300  1
  Pd  Pd13  1  0.31252500  0.31252500  0.31252500  1
  Pd  Pd14  1  0.81200900  0.81200900  0.81200900  1
  Pd  Pd15  1  0.06248300  0.06248300  0.06248300  1
