# generated using pymatgen
data_YMn2Al(BO4)2
_symmetry_space_group_name_H-M   'P 1'
_cell_length_a   3.37380776
_cell_length_b   9.39237954
_cell_length_c   9.89152400
_cell_angle_alpha   90.00000000
_cell_angle_beta   90.00000000
_cell_angle_gamma   90.46378010
_symmetry_Int_Tables_number   1
_chemical_formula_structural   YMn2Al(BO4)2
_chemical_formula_sum   'Y2 Mn4 Al2 B4 O16'
_cell_volume   313.43316440
_cell_formula_units_Z   2
loop_
 _symmetry_equiv_pos_site_id
 _symmetry_equiv_pos_as_xyz
  1  'x, y, z'
loop_
 _atom_site_type_symbol
 _atom_site_label
 _atom_site_symmetry_multiplicity
 _atom_site_fract_x
 _atom_site_fract_y
 _atom_site_fract_z
 _atom_site_occupancy
  Y  Y0  1  0.26953100  0.08806200  0.39141800  1
  Y  Y1  1  0.76953100  0.58806200  0.10858200  1
  Mn  Mn2  1  0.27555400  0.68659000  0.41971100  1
  Mn  Mn3  1  0.77555400  0.18659000  0.08028900  1
  Mn  Mn4  1  0.74600800  0.32424700  0.60307200  1
  Mn  Mn5  1  0.24600800  0.82424700  0.89692800  1
  Al  Al6  1  0.80741800  0.92477200  0.61841800  1
  Al  Al7  1  0.30741800  0.42477200  0.88158200  1
  B  B8  1  0.27460700  0.37331300  0.31399200  1
  B  B9  1  0.77460700  0.87331300  0.18600800  1
  B  B10  1  0.68636200  0.62786400  0.66853200  1
  B  B11  1  0.18636200  0.12786400  0.83146800  1
  O  O12  1  0.27106600  0.51124800  0.26560700  1
  O  O13  1  0.77106600  0.01124800  0.23439300  1
  O  O14  1  0.56403800  0.50329400  0.73215600  1
  O  O15  1  0.06403800  0.00329400  0.76784400  1
  O  O16  1  0.29008000  0.88457600  0.52936900  1
  O  O17  1  0.79008000  0.38457600  0.97063100  1
  O  O18  1  0.76861000  0.10318900  0.53330600  1
  O  O19  1  0.26861000  0.60318900  0.96669400  1
  O  O20  1  0.30296100  0.26093300  0.22332600  1
  O  O21  1  0.80296100  0.76093300  0.27667400  1
  O  O22  1  0.71606300  0.76128300  0.73341000  1
  O  O23  1  0.21606300  0.26128300  0.76659000  1
  O  O24  1  0.24888800  0.33583700  0.45015700  1
  O  O25  1  0.74888800  0.83583700  0.04984300  1
  O  O26  1  0.77881600  0.61479400  0.53408900  1
  O  O27  1  0.27881600  0.11479400  0.96591100  1
