# generated using pymatgen
data_Zn3Co2(CN)12
_symmetry_space_group_name_H-M   'P 1'
_cell_length_a   7.30806100
_cell_length_b   7.30806100
_cell_length_c   10.33098900
_cell_angle_alpha   90.00000000
_cell_angle_beta   90.00000000
_cell_angle_gamma   90.00000000
_symmetry_Int_Tables_number   1
_chemical_formula_structural   Zn3Co2(CN)12
_chemical_formula_sum   'Zn3 Co2 C12 N12'
_cell_volume   551.75493541
_cell_formula_units_Z   1
loop_
 _symmetry_equiv_pos_site_id
 _symmetry_equiv_pos_as_xyz
  1  'x, y, z'
loop_
 _atom_site_type_symbol
 _atom_site_label
 _atom_site_symmetry_multiplicity
 _atom_site_fract_x
 _atom_site_fract_y
 _atom_site_fract_z
 _atom_site_occupancy
  Zn  Zn0  1  0.50000000  0.00000000  0.25393600  1
  Zn  Zn1  1  0.00000000  0.50000000  0.74606400  1
  Zn  Zn2  1  0.50000000  0.50000000  0.00000000  1
  Co  Co3  1  0.50000000  0.00000000  0.74936500  1
  Co  Co4  1  0.00000000  0.50000000  0.25063500  1
  C  C5  1  0.50000000  0.00000000  0.93033700  1
  C  C6  1  0.00000000  0.50000000  0.43197100  1
  C  C7  1  0.18128900  0.31889600  0.25032300  1
  C  C8  1  0.68110400  0.81871100  0.74967700  1
  C  C9  1  0.81871100  0.31889600  0.25032300  1
  C  C10  1  0.31889600  0.81871100  0.74967700  1
  C  C11  1  0.50000000  0.00000000  0.56802900  1
  C  C12  1  0.00000000  0.50000000  0.06966300  1
  C  C13  1  0.81871100  0.68110400  0.25032300  1
  C  C14  1  0.31889600  0.18128900  0.74967700  1
  C  C15  1  0.18128900  0.68110400  0.25032300  1
  C  C16  1  0.68110400  0.18128900  0.74967700  1
  N  N17  1  0.50000000  0.00000000  0.04373800  1
  N  N18  1  0.00000000  0.50000000  0.54488600  1
  N  N19  1  0.29603400  0.20755700  0.24742200  1
  N  N20  1  0.79244300  0.70396600  0.75257800  1
  N  N21  1  0.70396600  0.20755700  0.24742200  1
  N  N22  1  0.20755700  0.70396600  0.75257800  1
  N  N23  1  0.50000000  0.00000000  0.45511400  1
  N  N24  1  0.00000000  0.50000000  0.95626200  1
  N  N25  1  0.70396600  0.79244300  0.24742200  1
  N  N26  1  0.20755700  0.29603400  0.75257800  1
  N  N27  1  0.29603400  0.79244300  0.24742200  1
  N  N28  1  0.79244300  0.29603400  0.75257800  1
