# generated using pymatgen
data_VRu4
_symmetry_space_group_name_H-M   'P 1'
_cell_length_a   11.23357878
_cell_length_b   11.09267189
_cell_length_c   2.67473252
_cell_angle_alpha   86.12685242
_cell_angle_beta   80.13070685
_cell_angle_gamma   13.74244073
_symmetry_Int_Tables_number   1
_chemical_formula_structural   VRu4
_chemical_formula_sum   'V1 Ru4'
_cell_volume   70.69193872
_cell_formula_units_Z   1
loop_
 _symmetry_equiv_pos_site_id
 _symmetry_equiv_pos_as_xyz
  1  'x, y, z'
loop_
 _atom_site_type_symbol
 _atom_site_label
 _atom_site_symmetry_multiplicity
 _atom_site_fract_x
 _atom_site_fract_y
 _atom_site_fract_z
 _atom_site_occupancy
  V  V0  1  0.00000000  0.00000000  0.00000000  1
  Ru  Ru1  1  0.40668800  0.40668800  0.59331200  1
  Ru  Ru2  1  0.80030700  0.80030700  0.19969300  1
  Ru  Ru3  1  0.19969300  0.19969300  0.80030700  1
  Ru  Ru4  1  0.59331200  0.59331200  0.40668800  1
