# generated using pymatgen
data_Y3SOF5
_symmetry_space_group_name_H-M   'P 1'
_cell_length_a   3.68986800
_cell_length_b   9.42693800
_cell_length_c   9.48421238
_cell_angle_alpha   60.48205322
_cell_angle_beta   90.00000000
_cell_angle_gamma   90.00000000
_symmetry_Int_Tables_number   1
_chemical_formula_structural   Y3SOF5
_chemical_formula_sum   'Y6 S2 O2 F10'
_cell_volume   287.07973383
_cell_formula_units_Z   2
loop_
 _symmetry_equiv_pos_site_id
 _symmetry_equiv_pos_as_xyz
  1  'x, y, z'
loop_
 _atom_site_type_symbol
 _atom_site_label
 _atom_site_symmetry_multiplicity
 _atom_site_fract_x
 _atom_site_fract_y
 _atom_site_fract_z
 _atom_site_occupancy
  Y  Y0  1  0.00000000  0.58248900  0.13457100  1
  Y  Y1  1  0.00000000  0.13314100  0.27038100  1
  Y  Y2  1  0.00000000  0.29859100  0.58538900  1
  Y  Y3  1  0.50000000  0.40485400  0.89641000  1
  Y  Y4  1  0.50000000  0.87635300  0.71525700  1
  Y  Y5  1  0.50000000  0.70423900  0.40231100  1
  S  S6  1  0.00000000  0.67104600  0.66713400  1
  S  S7  1  0.50000000  0.32626900  0.33867900  1
  O  O8  1  0.00000000  0.56392000  0.38707100  1
  O  O9  1  0.00000000  0.38437900  0.05160400  1
  F  F10  1  0.00000000  0.84124000  0.88049900  1
  F  F11  1  0.00000000  0.88829500  0.27300800  1
  F  F12  1  0.00000000  0.27449100  0.83748000  1
  F  F13  1  0.50000000  0.14492100  0.11739000  1
  F  F14  1  0.50000000  0.12056900  0.71603500  1
  F  F15  1  0.50000000  0.72884900  0.14851100  1
  F  F16  1  0.00000000  0.04741400  0.56683400  1
  F  F17  1  0.50000000  0.43047700  0.62584100  1
  F  F18  1  0.50000000  0.62240000  0.95289500  1
  F  F19  1  0.50000000  0.95606200  0.43270100  1
