# generated using pymatgen
data_Y7(O2F3)3
_symmetry_space_group_name_H-M   'P 1'
_cell_length_a   19.72147983
_cell_length_b   19.72147983
_cell_length_c   5.50222141
_cell_angle_alpha   89.92818939
_cell_angle_beta   89.92818939
_cell_angle_gamma   16.36129289
_symmetry_Int_Tables_number   1
_chemical_formula_structural   Y7(O2F3)3
_chemical_formula_sum   'Y14 O12 F18'
_cell_volume   602.82776964
_cell_formula_units_Z   2
loop_
 _symmetry_equiv_pos_site_id
 _symmetry_equiv_pos_as_xyz
  1  'x, y, z'
loop_
 _atom_site_type_symbol
 _atom_site_label
 _atom_site_symmetry_multiplicity
 _atom_site_fract_x
 _atom_site_fract_y
 _atom_site_fract_z
 _atom_site_occupancy
  Y  Y0  1  0.67397600  0.11361900  0.29886100  1
  Y  Y1  1  0.88638100  0.32602400  0.70113900  1
  Y  Y2  1  0.16942900  0.61861300  0.70179800  1
  Y  Y3  1  0.38138700  0.83057100  0.29820200  1
  Y  Y4  1  0.54334600  0.10365700  0.70776700  1
  Y  Y5  1  0.89634300  0.45665400  0.29223300  1
  Y  Y6  1  0.06879800  0.57835900  0.28858100  1
  Y  Y7  1  0.42164100  0.93120200  0.71141900  1
  Y  Y8  1  0.54526400  0.95594400  0.27695900  1
  Y  Y9  1  0.04405600  0.45473600  0.72304100  1
  Y  Y10  1  0.70595300  0.22342600  0.70712700  1
  Y  Y11  1  0.77657400  0.29404700  0.29287300  1
  Y  Y12  1  0.20704000  0.72239700  0.29248800  1
  Y  Y13  1  0.27760300  0.79296000  0.70751200  1
  O  O14  1  0.44876800  0.40763300  0.47884800  1
  O  O15  1  0.59236700  0.55123200  0.52115200  1
  O  O16  1  0.94796300  0.90807800  0.52091800  1
  O  O17  1  0.09192200  0.05203700  0.47908200  1
  O  O18  1  0.97926200  0.02073800  0.50000000  1
  O  O19  1  0.47906700  0.52093300  0.50000000  1
  O  O20  1  0.35592700  0.35769200  0.46977300  1
  O  O21  1  0.64230800  0.64407300  0.53022700  1
  O  O22  1  0.85374900  0.85593800  0.52922300  1
  O  O23  1  0.14406200  0.14625100  0.47077700  1
  O  O24  1  0.29947400  0.26830900  0.46413000  1
  O  O25  1  0.73169100  0.70052600  0.53587000  1
  F  F26  1  0.84978700  0.02075900  0.03464600  1
  F  F27  1  0.97924100  0.15021300  0.96535400  1
  F  F28  1  0.34931800  0.52142400  0.96428100  1
  F  F29  1  0.47857600  0.65068200  0.03571900  1
  F  F30  1  0.48669100  0.25209400  0.94600600  1
  F  F31  1  0.74790600  0.51330900  0.05399400  1
  F  F32  1  0.99272600  0.74738500  0.05699300  1
  F  F33  1  0.25261500  0.00727400  0.94300700  1
  F  F34  1  0.68253900  0.92864100  0.08997200  1
  F  F35  1  0.07135900  0.31746100  0.91002800  1
  F  F36  1  0.17339000  0.43971800  0.90982600  1
  F  F37  1  0.56028200  0.82661000  0.09017400  1
  F  F38  1  0.41275800  0.08515400  0.89263400  1
  F  F39  1  0.91484600  0.58724200  0.10736600  1
  F  F40  1  0.80175800  0.76971000  0.54816500  1
  F  F41  1  0.23029000  0.19824200  0.45183500  1
  F  F42  1  0.58235300  0.41764700  0.00000000  1
  F  F43  1  0.08321000  0.91679000  0.00000000  1
