# generated using pymatgen
data_Y(InCu)6
_symmetry_space_group_name_H-M   'P 1'
_cell_length_a   7.04040871
_cell_length_b   7.04040871
_cell_length_c   7.04040871
_cell_angle_alpha   133.48093965
_cell_angle_beta   99.32281667
_cell_angle_gamma   98.62055021
_symmetry_Int_Tables_number   1
_chemical_formula_structural   Y(InCu)6
_chemical_formula_sum   'Y1 In6 Cu6'
_cell_volume   232.63095205
_cell_formula_units_Z   1
loop_
 _symmetry_equiv_pos_site_id
 _symmetry_equiv_pos_as_xyz
  1  'x, y, z'
loop_
 _atom_site_type_symbol
 _atom_site_label
 _atom_site_symmetry_multiplicity
 _atom_site_fract_x
 _atom_site_fract_y
 _atom_site_fract_z
 _atom_site_occupancy
  Y  Y0  1  0.00000000  0.00000000  0.00000000  1
  In  In1  1  0.33773000  0.00000000  0.33773000  1
  In  In2  1  0.66227000  0.00000000  0.66227000  1
  In  In3  1  0.34144900  0.34144900  0.00000000  1
  In  In4  1  0.65855100  0.65855100  0.00000000  1
  In  In5  1  0.81833100  0.31833100  0.50000000  1
  In  In6  1  0.18166900  0.68166900  0.50000000  1
  Cu  Cu7  1  0.00000000  0.50000000  0.00000000  1
  Cu  Cu8  1  0.00000000  0.00000000  0.50000000  1
  Cu  Cu9  1  0.50000000  0.00000000  0.00000000  1
  Cu  Cu10  1  0.50000000  0.50000000  0.50000000  1
  Cu  Cu11  1  0.76190500  0.50000000  0.26190500  1
  Cu  Cu12  1  0.23809500  0.50000000  0.73809500  1
