# generated using pymatgen
data_Y4MnS7
_symmetry_space_group_name_H-M   'P 1'
_cell_length_a   6.56851107
_cell_length_b   6.56851107
_cell_length_c   11.48399158
_cell_angle_alpha   75.63269183
_cell_angle_beta   75.63269183
_cell_angle_gamma   33.78983382
_symmetry_Int_Tables_number   1
_chemical_formula_structural   Y4MnS7
_chemical_formula_sum   'Y4 Mn1 S7'
_cell_volume   266.13340587
_cell_formula_units_Z   1
loop_
 _symmetry_equiv_pos_site_id
 _symmetry_equiv_pos_as_xyz
  1  'x, y, z'
loop_
 _atom_site_type_symbol
 _atom_site_label
 _atom_site_symmetry_multiplicity
 _atom_site_fract_x
 _atom_site_fract_y
 _atom_site_fract_z
 _atom_site_occupancy
  Y  Y0  1  0.69261700  0.69261700  0.20504600  1
  Y  Y1  1  0.30687800  0.30687800  0.80111400  1
  Y  Y2  1  0.99931300  0.99931300  0.00640300  1
  Y  Y3  1  0.11379500  0.11379500  0.56630200  1
  Mn  Mn4  1  0.88495300  0.88495300  0.42153500  1
  S  S5  1  0.74437300  0.74437300  0.63906100  1
  S  S6  1  0.26938700  0.26938700  0.35263400  1
  S  S7  1  0.33822400  0.33822400  0.05141100  1
  S  S8  1  0.65983400  0.65983400  0.94880600  1
  S  S9  1  0.03424200  0.03424200  0.22643400  1
  S  S10  1  0.96299100  0.96299100  0.78483100  1
  S  S11  1  0.49339000  0.49339000  0.49642400  1
