# generated using pymatgen
data_Zn4FeCu10(SnSe4)5
_symmetry_space_group_name_H-M   'P 1'
_cell_length_a   10.77752791
_cell_length_b   10.77752791
_cell_length_c   16.36140750
_cell_angle_alpha   79.10776665
_cell_angle_beta   79.10776665
_cell_angle_gamma   30.93863422
_symmetry_Int_Tables_number   1
_chemical_formula_structural   Zn4FeCu10(SnSe4)5
_chemical_formula_sum   'Zn4 Fe1 Cu10 Sn5 Se20'
_cell_volume   958.10055090
_cell_formula_units_Z   1
loop_
 _symmetry_equiv_pos_site_id
 _symmetry_equiv_pos_as_xyz
  1  'x, y, z'
loop_
 _atom_site_type_symbol
 _atom_site_label
 _atom_site_symmetry_multiplicity
 _atom_site_fract_x
 _atom_site_fract_y
 _atom_site_fract_z
 _atom_site_occupancy
  Zn  Zn0  1  0.99978900  0.80014500  0.90004200  1
  Zn  Zn1  1  0.39960400  0.20046500  0.29993600  1
  Zn  Zn2  1  0.79953500  0.60039600  0.70006400  1
  Zn  Zn3  1  0.19985500  0.00021100  0.09995800  1
  Fe  Fe4  1  0.59942000  0.40058000  0.50000000  1
  Cu  Cu5  1  0.80030800  0.59964400  0.45002400  1
  Cu  Cu6  1  0.59965000  0.40023700  0.25001400  1
  Cu  Cu7  1  0.40000700  0.19996600  0.04998300  1
  Cu  Cu8  1  0.20006000  0.99992200  0.85003100  1
  Cu  Cu9  1  0.00014700  0.79996800  0.64991200  1
  Cu  Cu10  1  0.20003200  0.99985300  0.35008800  1
  Cu  Cu11  1  0.00007800  0.79994000  0.14996900  1
  Cu  Cu12  1  0.80003400  0.59999300  0.95001700  1
  Cu  Cu13  1  0.59976300  0.40035000  0.74998600  1
  Cu  Cu14  1  0.40035600  0.19969200  0.54997600  1
  Sn  Sn15  1  0.79988200  0.60019100  0.19998300  1
  Sn  Sn16  1  0.60071300  0.39928700  0.00000000  1
  Sn  Sn17  1  0.39980900  0.20011800  0.80001700  1
  Sn  Sn18  1  0.19974200  0.00023200  0.60000800  1
  Sn  Sn19  1  0.99976800  0.80025800  0.39999200  1
  Se  Se20  1  0.55351500  0.83495800  0.82898700  1
  Se  Se21  1  0.95381500  0.23440700  0.22903900  1
  Se  Se22  1  0.35999800  0.62816500  0.62622200  1
  Se  Se23  1  0.75361900  0.03472900  0.02891000  1
  Se  Se24  1  0.15472400  0.43291100  0.42896900  1
  Se  Se25  1  0.13882600  0.45706200  0.93244000  1
  Se  Se26  1  0.53833400  0.85750800  0.33260100  1
  Se  Se27  1  0.93758400  0.25852900  0.73287800  1
  Se  Se28  1  0.33824000  0.65759500  0.13259500  1
  Se  Se29  1  0.73462400  0.06596600  0.53209400  1
  Se  Se30  1  0.54293800  0.86117400  0.06756000  1
  Se  Se31  1  0.93403400  0.26537600  0.46790600  1
  Se  Se32  1  0.34240500  0.66176000  0.86740500  1
  Se  Se33  1  0.74147100  0.06241600  0.26712200  1
  Se  Se34  1  0.14249200  0.46166600  0.66739900  1
  Se  Se35  1  0.16504200  0.44648500  0.17101300  1
  Se  Se36  1  0.56708900  0.84527600  0.57103100  1
  Se  Se37  1  0.96527100  0.24638100  0.97109000  1
  Se  Se38  1  0.37183500  0.64000200  0.37377800  1
  Se  Se39  1  0.76559300  0.04618500  0.77096100  1
