# generated using pymatgen
data_Yb7(MnS6)2
_symmetry_space_group_name_H-M   'P 1'
_cell_length_a   6.76907660
_cell_length_b   11.78619782
_cell_length_c   11.94695200
_cell_angle_alpha   90.00000000
_cell_angle_beta   90.00000000
_cell_angle_gamma   104.97709417
_symmetry_Int_Tables_number   1
_chemical_formula_structural   Yb7(MnS6)2
_chemical_formula_sum   'Yb14 Mn4 S24'
_cell_volume   920.76867692
_cell_formula_units_Z   2
loop_
 _symmetry_equiv_pos_site_id
 _symmetry_equiv_pos_as_xyz
  1  'x, y, z'
loop_
 _atom_site_type_symbol
 _atom_site_label
 _atom_site_symmetry_multiplicity
 _atom_site_fract_x
 _atom_site_fract_y
 _atom_site_fract_z
 _atom_site_occupancy
  Yb  Yb0  1  0.23488600  0.53063900  0.79698400  1
  Yb  Yb1  1  0.20260100  0.21193500  0.76759000  1
  Yb  Yb2  1  0.22814400  0.85386900  0.77977100  1
  Yb  Yb3  1  0.77185600  0.81279800  0.27977100  1
  Yb  Yb4  1  0.79739900  0.45473200  0.26759000  1
  Yb  Yb5  1  0.76511400  0.13602700  0.29698400  1
  Yb  Yb6  1  0.70949400  0.30335200  0.58513700  1
  Yb  Yb7  1  0.72889100  0.61235100  0.57651000  1
  Yb  Yb8  1  0.27110900  0.05431600  0.07651000  1
  Yb  Yb9  1  0.29050600  0.36331500  0.08513700  1
  Yb  Yb10  1  0.75747400  0.95117900  0.94387200  1
  Yb  Yb11  1  0.77372100  0.61820100  0.95828200  1
  Yb  Yb12  1  0.22627900  0.04846600  0.45828200  1
  Yb  Yb13  1  0.24252600  0.71548700  0.44387200  1
  Mn  Mn14  1  0.71067800  0.91433600  0.59606400  1
  Mn  Mn15  1  0.28932200  0.75233000  0.09606400  1
  Mn  Mn16  1  0.77246600  0.30170000  0.94759000  1
  Mn  Mn17  1  0.22753400  0.36496700  0.44759000  1
  S  S18  1  0.47371600  0.74975300  0.64227400  1
  S  S19  1  0.40510900  0.42010400  0.61860400  1
  S  S20  1  0.50975400  0.05481500  0.66569000  1
  S  S21  1  0.49024600  0.61185200  0.16569000  1
  S  S22  1  0.59489100  0.24656200  0.11860400  1
  S  S23  1  0.52628400  0.91691400  0.14227400  1
  S  S24  1  0.95356700  0.64993600  0.75901800  1
  S  S25  1  0.92416200  0.33510400  0.77831600  1
  S  S26  1  0.94398500  0.98397700  0.73176800  1
  S  S27  1  0.05601500  0.68269000  0.23176800  1
  S  S28  1  0.07583800  0.33156300  0.27831600  1
  S  S29  1  0.04643300  0.01673000  0.25901800  1
  S  S30  1  0.45623600  0.72932600  0.93041400  1
  S  S31  1  0.51655300  0.39769600  0.89122600  1
  S  S32  1  0.50202500  0.08459100  0.84363700  1
  S  S33  1  0.49797500  0.58207600  0.34363700  1
  S  S34  1  0.48344700  0.26897000  0.39122600  1
  S  S35  1  0.54376400  0.93734100  0.43041400  1
  S  S36  1  0.98213900  0.46302000  0.02418300  1
  S  S37  1  0.00438600  0.17598600  0.98728000  1
  S  S38  1  0.06141100  0.83515600  0.00068900  1
  S  S39  1  0.93858900  0.83151000  0.50068900  1
  S  S40  1  0.99561400  0.49068100  0.48728000  1
  S  S41  1  0.01786100  0.20364700  0.52418300  1
