# generated using pymatgen
data_W4NO12
_symmetry_space_group_name_H-M   'P 1'
_cell_length_a   7.52911314
_cell_length_b   7.52911314
_cell_length_c   15.40339100
_cell_angle_alpha   90.00000000
_cell_angle_beta   90.00000000
_cell_angle_gamma   119.99999245
_symmetry_Int_Tables_number   1
_chemical_formula_structural   W4NO12
_chemical_formula_sum   'W12 N3 O36'
_cell_volume   756.19647958
_cell_formula_units_Z   3
loop_
 _symmetry_equiv_pos_site_id
 _symmetry_equiv_pos_as_xyz
  1  'x, y, z'
loop_
 _atom_site_type_symbol
 _atom_site_label
 _atom_site_symmetry_multiplicity
 _atom_site_fract_x
 _atom_site_fract_y
 _atom_site_fract_z
 _atom_site_occupancy
  W  W0  1  0.00000000  0.51942100  0.37500300  1
  W  W1  1  0.00000000  0.51916400  0.87501100  1
  W  W2  1  0.48057900  0.48057900  0.37500300  1
  W  W3  1  0.48083600  0.48083600  0.87501100  1
  W  W4  1  0.51942100  0.00000000  0.37500300  1
  W  W5  1  0.51916400  0.00000000  0.87501100  1
  W  W6  1  0.00000000  0.48057900  0.62499700  1
  W  W7  1  0.00000000  0.48083600  0.12498900  1
  W  W8  1  0.51942100  0.51942100  0.62499700  1
  W  W9  1  0.51916400  0.51916400  0.12498900  1
  W  W10  1  0.48057900  0.00000000  0.62499700  1
  W  W11  1  0.48083600  0.00000000  0.12498900  1
  N  N12  1  0.00000000  0.00000000  0.00000000  1
  N  N13  1  0.00000000  0.00000000  0.74977100  1
  N  N14  1  0.00000000  0.00000000  0.25022900  1
  O  O15  1  0.00000000  0.50000000  0.50000000  1
  O  O16  1  0.00000000  0.50000000  0.00000000  1
  O  O17  1  0.50000000  0.50000000  0.50000000  1
  O  O18  1  0.50000000  0.50000000  0.00000000  1
  O  O19  1  0.50000000  0.00000000  0.50000000  1
  O  O20  1  0.50000000  0.00000000  0.00000000  1
  O  O21  1  0.00000000  0.50000900  0.74996400  1
  O  O22  1  0.00000000  0.49999100  0.25003600  1
  O  O23  1  0.49999100  0.49999100  0.74996400  1
  O  O24  1  0.50000900  0.50000900  0.25003600  1
  O  O25  1  0.49999100  0.00000000  0.25003600  1
  O  O26  1  0.50000900  0.00000000  0.74996400  1
  O  O27  1  0.78313200  0.57331500  0.37508000  1
  O  O28  1  0.78308900  0.57315200  0.87499900  1
  O  O29  1  0.42668500  0.20981800  0.37508000  1
  O  O30  1  0.42684800  0.20993600  0.87499900  1
  O  O31  1  0.79018200  0.21686800  0.37508000  1
  O  O32  1  0.79006400  0.21691100  0.87499900  1
  O  O33  1  0.21686800  0.79018200  0.37508000  1
  O  O34  1  0.21691100  0.79006400  0.87499900  1
  O  O35  1  0.57331500  0.78313200  0.37508000  1
  O  O36  1  0.57315200  0.78308900  0.87499900  1
  O  O37  1  0.20981800  0.42668500  0.37508000  1
  O  O38  1  0.20993600  0.42684800  0.87499900  1
  O  O39  1  0.21686800  0.42668500  0.62492000  1
  O  O40  1  0.21691100  0.42684800  0.12500100  1
  O  O41  1  0.57331500  0.79018200  0.62492000  1
  O  O42  1  0.57315200  0.79006400  0.12500100  1
  O  O43  1  0.20981800  0.78313200  0.62492000  1
  O  O44  1  0.20993600  0.78308900  0.12500100  1
  O  O45  1  0.78313200  0.20981800  0.62492000  1
  O  O46  1  0.78308900  0.20993600  0.12500100  1
  O  O47  1  0.42668500  0.21686800  0.62492000  1
  O  O48  1  0.42684800  0.21691100  0.12500100  1
  O  O49  1  0.79018200  0.57331500  0.62492000  1
  O  O50  1  0.79006400  0.57315200  0.12500100  1
