# generated using pymatgen
data_Yb2Mn(GeO3)4
_symmetry_space_group_name_H-M   'P 1'
_cell_length_a   4.89896100
_cell_length_b   9.96656274
_cell_length_c   9.96656274
_cell_angle_alpha   91.12434542
_cell_angle_beta   90.00000000
_cell_angle_gamma   90.00000000
_symmetry_Int_Tables_number   1
_chemical_formula_structural   Yb2Mn(GeO3)4
_chemical_formula_sum   'Yb4 Mn2 Ge8 O24'
_cell_volume   486.53172810
_cell_formula_units_Z   2
loop_
 _symmetry_equiv_pos_site_id
 _symmetry_equiv_pos_as_xyz
  1  'x, y, z'
loop_
 _atom_site_type_symbol
 _atom_site_label
 _atom_site_symmetry_multiplicity
 _atom_site_fract_x
 _atom_site_fract_y
 _atom_site_fract_z
 _atom_site_occupancy
  Yb  Yb0  1  0.50000000  0.00000000  0.50000000  1
  Yb  Yb1  1  0.50000000  0.50000000  0.00000000  1
  Yb  Yb2  1  0.50000000  0.75000000  0.75000000  1
  Yb  Yb3  1  0.50000000  0.25000000  0.25000000  1
  Mn  Mn4  1  0.50000000  0.50000000  0.50000000  1
  Mn  Mn5  1  0.50000000  0.00000000  0.00000000  1
  Ge  Ge6  1  0.98771200  0.74673300  0.47558500  1
  Ge  Ge7  1  0.01228800  0.25326700  0.52441500  1
  Ge  Ge8  1  0.01228800  0.24673300  0.97558500  1
  Ge  Ge9  1  0.98771200  0.75326700  0.02441500  1
  Ge  Ge10  1  0.01228800  0.47558500  0.74673300  1
  Ge  Ge11  1  0.98771200  0.52441500  0.25326700  1
  Ge  Ge12  1  0.98771200  0.97558500  0.24673300  1
  Ge  Ge13  1  0.01228800  0.02441500  0.75326700  1
  O  O14  1  0.28044500  0.55101800  0.65710100  1
  O  O15  1  0.23271400  0.07257200  0.32860300  1
  O  O16  1  0.23271400  0.42742800  0.17139700  1
  O  O17  1  0.28044500  0.94898200  0.84289900  1
  O  O18  1  0.71955500  0.44898200  0.34289900  1
  O  O19  1  0.76728600  0.92742800  0.67139700  1
  O  O20  1  0.76728600  0.57257200  0.82860300  1
  O  O21  1  0.71955500  0.05101800  0.15710100  1
  O  O22  1  0.71955500  0.65710100  0.55101800  1
  O  O23  1  0.76728600  0.32860300  0.07257200  1
  O  O24  1  0.76728600  0.17139700  0.42742800  1
  O  O25  1  0.71955500  0.84289900  0.94898200  1
  O  O26  1  0.28044500  0.34289900  0.44898200  1
  O  O27  1  0.23271400  0.67139700  0.92742800  1
  O  O28  1  0.23271400  0.82860300  0.57257200  1
  O  O29  1  0.28044500  0.15710100  0.05101800  1
  O  O30  1  0.82309800  0.36970300  0.63029700  1
  O  O31  1  0.82221500  0.86914200  0.36914200  1
  O  O32  1  0.82221500  0.63085800  0.13085800  1
  O  O33  1  0.82309800  0.13029700  0.86970300  1
  O  O34  1  0.17690200  0.63029700  0.36970300  1
  O  O35  1  0.17778500  0.13085800  0.63085800  1
  O  O36  1  0.17778500  0.36914200  0.86914200  1
  O  O37  1  0.17690200  0.86970300  0.13029700  1
