# generated using pymatgen
data_V4WC5
_symmetry_space_group_name_H-M   'P 1'
_cell_length_a   12.30170617
_cell_length_b   12.30170617
_cell_length_c   12.30170590
_cell_angle_alpha   13.87578789
_cell_angle_beta   13.87578789
_cell_angle_gamma   13.87578909
_symmetry_Int_Tables_number   1
_chemical_formula_structural   V4WC5
_chemical_formula_sum   'V4 W1 C5'
_cell_volume   93.17660846
_cell_formula_units_Z   1
loop_
 _symmetry_equiv_pos_site_id
 _symmetry_equiv_pos_as_xyz
  1  'x, y, z'
loop_
 _atom_site_type_symbol
 _atom_site_label
 _atom_site_symmetry_multiplicity
 _atom_site_fract_x
 _atom_site_fract_y
 _atom_site_fract_z
 _atom_site_occupancy
  V  V0  1  0.59768300  0.59768300  0.59768300  1
  V  V1  1  0.19971200  0.19971200  0.19971200  1
  V  V2  1  0.80028800  0.80028800  0.80028800  1
  V  V3  1  0.40231700  0.40231700  0.40231700  1
  W  W4  1  0.00000000  0.00000000  0.00000000  1
  C  C5  1  0.10118200  0.10118200  0.10118200  1
  C  C6  1  0.89881800  0.89881800  0.89881800  1
  C  C7  1  0.50000000  0.50000000  0.50000000  1
  C  C8  1  0.70259000  0.70259000  0.70259000  1
  C  C9  1  0.29741000  0.29741000  0.29741000  1
