# generated using pymatgen
data_V6AgO15
_symmetry_space_group_name_H-M   'P 1'
_cell_length_a   3.66399300
_cell_length_b   8.06628360
_cell_length_c   10.23897767
_cell_angle_alpha   109.16211349
_cell_angle_beta   90.00000000
_cell_angle_gamma   76.87256052
_symmetry_Int_Tables_number   1
_chemical_formula_structural   V6AgO15
_chemical_formula_sum   'V6 Ag1 O15'
_cell_volume   277.45892226
_cell_formula_units_Z   1
loop_
 _symmetry_equiv_pos_site_id
 _symmetry_equiv_pos_as_xyz
  1  'x, y, z'
loop_
 _atom_site_type_symbol
 _atom_site_label
 _atom_site_symmetry_multiplicity
 _atom_site_fract_x
 _atom_site_fract_y
 _atom_site_fract_z
 _atom_site_occupancy
  V  V0  1  0.88283900  0.23432100  0.11724100  1
  V  V1  1  0.11441500  0.77117000  0.88506100  1
  V  V2  1  0.66307100  0.67385900  0.09941000  1
  V  V3  1  0.33651600  0.32696800  0.89816900  1
  V  V4  1  0.71240900  0.57518100  0.40895500  1
  V  V5  1  0.28683000  0.42633900  0.59112600  1
  Ag  Ag6  1  0.00348100  0.99303800  0.40155700  1
  O  O7  1  0.24199700  0.51600600  0.42945800  1
  O  O8  1  0.75916900  0.48166200  0.57239100  1
  O  O9  1  0.60217600  0.79564800  0.46924300  1
  O  O10  1  0.39756500  0.20487000  0.52486800  1
  O  O11  1  0.36655700  0.26688700  0.07297800  1
  O  O12  1  0.63365100  0.73269800  0.92409600  1
  O  O13  1  0.73770700  0.52458600  0.22367700  1
  O  O14  1  0.26403400  0.47193200  0.77799800  1
  O  O15  1  0.00002700  0.99994700  0.99925700  1
  O  O16  1  0.89312600  0.21374900  0.27218500  1
  O  O17  1  0.10926900  0.78146200  0.72873600  1
  O  O18  1  0.56301300  0.87397400  0.22354700  1
  O  O19  1  0.43521800  0.12956500  0.78305100  1
  O  O20  1  0.18660400  0.62679100  0.05299100  1
  O  O21  1  0.81422600  0.37154800  0.94750400  1
