# generated using pymatgen
data_Zn7Cu8(MoO4)12
_symmetry_space_group_name_H-M   'P 1'
_cell_length_a   5.18846309
_cell_length_b   10.70676967
_cell_length_c   17.98980107
_cell_angle_alpha   90.17927493
_cell_angle_beta   89.98972890
_cell_angle_gamma   89.85578426
_symmetry_Int_Tables_number   1
_chemical_formula_structural   Zn7Cu8(MoO4)12
_chemical_formula_sum   'Zn7 Cu8 Mo12 O48'
_cell_volume   999.35558459
_cell_formula_units_Z   1
loop_
 _symmetry_equiv_pos_site_id
 _symmetry_equiv_pos_as_xyz
  1  'x, y, z'
loop_
 _atom_site_type_symbol
 _atom_site_label
 _atom_site_symmetry_multiplicity
 _atom_site_fract_x
 _atom_site_fract_y
 _atom_site_fract_z
 _atom_site_occupancy
  Zn  Zn0  1  0.60296500  0.24914900  0.00069800  1
  Zn  Zn1  1  0.39540000  0.74846500  0.49873200  1
  Zn  Zn2  1  0.89557000  0.75173000  0.50136800  1
  Zn  Zn3  1  0.76060100  0.59389400  0.21425300  1
  Zn  Zn4  1  0.23697600  0.10102900  0.28133400  1
  Zn  Zn5  1  0.74038800  0.39785000  0.71872400  1
  Zn  Zn6  1  0.25787100  0.90665000  0.78563300  1
  Cu  Cu7  1  0.74483200  0.94123800  0.22657600  1
  Cu  Cu8  1  0.25357200  0.43787200  0.27027400  1
  Cu  Cu9  1  0.75481100  0.06197700  0.72989900  1
  Cu  Cu10  1  0.24212100  0.55904300  0.77316500  1
  Cu  Cu11  1  0.72690300  0.23639200  0.56476700  1
  Cu  Cu12  1  0.27371500  0.73614700  0.93311600  1
  Cu  Cu13  1  0.78193200  0.76476300  0.06797000  1
  Cu  Cu14  1  0.22700200  0.26331200  0.43525300  1
  Mo  Mo15  1  0.73070400  0.48430600  0.39711400  1
  Mo  Mo16  1  0.27281500  0.98346800  0.10133700  1
  Mo  Mo17  1  0.76596400  0.51843300  0.89738000  1
  Mo  Mo18  1  0.23096700  0.01583800  0.60282100  1
  Mo  Mo19  1  0.71251700  0.03824300  0.41225700  1
  Mo  Mo20  1  0.28657400  0.53955400  0.08698700  1
  Mo  Mo21  1  0.77972600  0.95866300  0.91281500  1
  Mo  Mo22  1  0.21238900  0.46164900  0.58768200  1
  Mo  Mo23  1  0.76886800  0.26551600  0.19390900  1
  Mo  Mo24  1  0.22708000  0.76443300  0.30771700  1
  Mo  Mo25  1  0.72706200  0.73584000  0.69213400  1
  Mo  Mo26  1  0.27531800  0.23442600  0.80755100  1
  O  O27  1  0.92414200  0.53014200  0.31734500  1
  O  O28  1  0.07833100  0.02839100  0.18310600  1
  O  O29  1  0.57478800  0.47549400  0.81489000  1
  O  O30  1  0.42360300  0.96960800  0.68261200  1
  O  O31  1  0.91467600  0.00906800  0.33192800  1
  O  O32  1  0.08952300  0.50744300  0.16937900  1
  O  O33  1  0.58866700  0.98858000  0.82930300  1
  O  O34  1  0.41439900  0.49057900  0.66785300  1
  O  O35  1  0.56297100  0.13681800  0.22030200  1
  O  O36  1  0.43747700  0.63793400  0.28259300  1
  O  O37  1  0.93740600  0.86187200  0.71737000  1
  O  O38  1  0.06320600  0.36338400  0.78311600  1
  O  O39  1  0.92517600  0.37177700  0.61582800  1
  O  O40  1  0.07638700  0.87106300  0.88417100  1
  O  O41  1  0.57319400  0.63184000  0.11655200  1
  O  O42  1  0.42461400  0.12800900  0.38431900  1
  O  O43  1  0.94072700  0.38531100  0.44909600  1
  O  O44  1  0.05651600  0.88846200  0.04704700  1
  O  O45  1  0.55417400  0.61577900  0.95090600  1
  O  O46  1  0.43977200  0.11514800  0.55096200  1
  O  O47  1  0.83643500  0.25253400  0.09818100  1
  O  O48  1  0.14729100  0.75344900  0.40671200  1
  O  O49  1  0.64673000  0.74680400  0.59316900  1
  O  O50  1  0.37909100  0.24561300  0.90031300  1
  O  O51  1  0.64981700  0.62319700  0.45336500  1
  O  O52  1  0.37293400  0.11566100  0.05044900  1
  O  O53  1  0.83158900  0.38269300  0.95003100  1
  O  O54  1  0.14980800  0.87688400  0.54667400  1
  O  O55  1  0.41668300  0.90340100  0.29368800  1
  O  O56  1  0.58534600  0.40847300  0.20851900  1
  O  O57  1  0.08853300  0.09230200  0.79414800  1
  O  O58  1  0.91787400  0.59651300  0.70645500  1
  O  O59  1  0.64798300  0.88817000  0.45702500  1
  O  O60  1  0.37357200  0.39634600  0.04541100  1
  O  O61  1  0.83100300  0.10540300  0.95504700  1
  O  O62  1  0.14753900  0.61191700  0.54285800  1
  O  O63  1  0.91221800  0.13131200  0.47103700  1
  O  O64  1  0.07442500  0.63180500  0.02980200  1
  O  O65  1  0.57153700  0.86466300  0.96919900  1
  O  O66  1  0.41284100  0.36826100  0.52898400  1
  O  O67  1  0.44827100  0.39985100  0.36752200  1
  O  O68  1  0.55549400  0.89354000  0.13135700  1
  O  O69  1  0.05939700  0.60334900  0.86988700  1
  O  O70  1  0.94806100  0.10042200  0.63281100  1
  O  O71  1  0.95328400  0.76502200  0.24437200  1
  O  O72  1  0.04857500  0.26631300  0.25771300  1
  O  O73  1  0.54479800  0.23342100  0.74037700  1
  O  O74  1  0.45352800  0.73541600  0.75529900  1
