# generated using pymatgen
data_Yb16Sb8S45
_symmetry_space_group_name_H-M   'P 1'
_cell_length_a   13.58955121
_cell_length_b   13.58955121
_cell_length_c   14.20792824
_cell_angle_alpha   80.80231173
_cell_angle_beta   80.80231173
_cell_angle_gamma   131.24046752
_symmetry_Int_Tables_number   1
_chemical_formula_structural   Yb16Sb8S45
_chemical_formula_sum   'Yb16 Sb8 S45'
_cell_volume   1819.08457281
_cell_formula_units_Z   1
loop_
 _symmetry_equiv_pos_site_id
 _symmetry_equiv_pos_as_xyz
  1  'x, y, z'
loop_
 _atom_site_type_symbol
 _atom_site_label
 _atom_site_symmetry_multiplicity
 _atom_site_fract_x
 _atom_site_fract_y
 _atom_site_fract_z
 _atom_site_occupancy
  Yb  Yb0  1  0.50333700  0.65930800  0.83955700  1
  Yb  Yb1  1  0.00550600  0.16411400  0.83069400  1
  Yb  Yb2  1  0.83588600  0.99449400  0.16930600  1
  Yb  Yb3  1  0.34069200  0.49666300  0.16044300  1
  Yb  Yb4  1  0.90855200  0.25240400  0.33929100  1
  Yb  Yb5  1  0.40721100  0.75132300  0.33935700  1
  Yb  Yb6  1  0.24867700  0.59278900  0.66064300  1
  Yb  Yb7  1  0.74759600  0.09144800  0.66070900  1
  Yb  Yb8  1  0.99449400  0.83588600  0.16930600  1
  Yb  Yb9  1  0.49666300  0.34069200  0.16044300  1
  Yb  Yb10  1  0.65930800  0.50333700  0.83955700  1
  Yb  Yb11  1  0.16411400  0.00550600  0.83069400  1
  Yb  Yb12  1  0.59278900  0.24867700  0.66064300  1
  Yb  Yb13  1  0.09144800  0.74759600  0.66070900  1
  Yb  Yb14  1  0.25240400  0.90855200  0.33929100  1
  Yb  Yb15  1  0.75132300  0.40721100  0.33935700  1
  Sb  Sb16  1  0.81199400  0.31216000  0.81473500  1
  Sb  Sb17  1  0.31216000  0.81199400  0.81473500  1
  Sb  Sb18  1  0.18800600  0.68784000  0.18526500  1
  Sb  Sb19  1  0.68784000  0.18800600  0.18526500  1
  Sb  Sb20  1  0.12568500  0.12568500  0.31561200  1
  Sb  Sb21  1  0.62367000  0.62367000  0.31589000  1
  Sb  Sb22  1  0.37633000  0.37633000  0.68411000  1
  Sb  Sb23  1  0.87431500  0.87431500  0.68438800  1
  S  S24  1  0.95184500  0.22509600  0.00122100  1
  S  S25  1  0.44001200  0.73424300  0.00308300  1
  S  S26  1  0.26575700  0.55998800  0.99691700  1
  S  S27  1  0.77490400  0.04815500  0.99877900  1
  S  S28  1  0.80752900  0.01306500  0.50223700  1
  S  S29  1  0.30758100  0.51275900  0.50244900  1
  S  S30  1  0.48724100  0.69241900  0.49755100  1
  S  S31  1  0.98693500  0.19247100  0.49776300  1
  S  S32  1  0.55998800  0.26575700  0.99691700  1
  S  S33  1  0.04815500  0.77490400  0.99877900  1
  S  S34  1  0.22509600  0.95184500  0.00122100  1
  S  S35  1  0.73424300  0.44001200  0.00308300  1
  S  S36  1  0.69241900  0.48724100  0.49755100  1
  S  S37  1  0.19247100  0.98693500  0.49776300  1
  S  S38  1  0.01306500  0.80752900  0.50223700  1
  S  S39  1  0.51275900  0.30758100  0.50244900  1
  S  S40  1  0.81847600  0.47547900  0.70445000  1
  S  S41  1  0.32029600  0.97608000  0.70224600  1
  S  S42  1  0.02392000  0.67970400  0.29775400  1
  S  S43  1  0.52452100  0.18152400  0.29555000  1
  S  S44  1  0.22663000  0.06992600  0.20532300  1
  S  S45  1  0.72573100  0.56925400  0.20556900  1
  S  S46  1  0.43074600  0.27426900  0.79443100  1
  S  S47  1  0.93007400  0.77337000  0.79467700  1
  S  S48  1  0.67970400  0.02392000  0.29775400  1
  S  S49  1  0.18152400  0.52452100  0.29555000  1
  S  S50  1  0.47547900  0.81847600  0.70445000  1
  S  S51  1  0.97608000  0.32029600  0.70224600  1
  S  S52  1  0.27426900  0.43074600  0.79443100  1
  S  S53  1  0.77337000  0.93007400  0.79467700  1
  S  S54  1  0.06992600  0.22663000  0.20532300  1
  S  S55  1  0.56925400  0.72573100  0.20556900  1
  S  S56  1  0.59456300  0.09417700  0.81510600  1
  S  S57  1  0.09417700  0.59456300  0.81510600  1
  S  S58  1  0.40543700  0.90582300  0.18489400  1
  S  S59  1  0.90582300  0.40543700  0.18489400  1
  S  S60  1  0.84191100  0.84191100  0.31675100  1
  S  S61  1  0.34333700  0.34333700  0.31480300  1
  S  S62  1  0.65666300  0.65666300  0.68519700  1
  S  S63  1  0.15808900  0.15808900  0.68324900  1
  S  S64  1  0.90927000  0.90927000  0.00247400  1
  S  S65  1  0.09073000  0.09073000  0.99752600  1
  S  S66  1  0.50000000  0.50000000  0.00000000  1
  S  S67  1  0.74999500  0.25000500  0.50000000  1
  S  S68  1  0.25000500  0.74999500  0.50000000  1
