data_image0
_chemical_formula_structural       BaF6Ni
_chemical_formula_sum              "Ba1 F6 Ni1"
_cell_length_a       4.708
_cell_length_b       4.708
_cell_length_c       4.708
_cell_angle_alpha    98.5025
_cell_angle_beta     98.5025
_cell_angle_gamma    98.5025

_space_group_name_H-M_alt    "P 1"
_space_group_IT_number       1

loop_
  _space_group_symop_operation_xyz
  'x, y, z'

loop_
  _atom_site_type_symbol
  _atom_site_label
  _atom_site_symmetry_multiplicity
  _atom_site_fract_x
  _atom_site_fract_y
  _atom_site_fract_z
  _atom_site_occupancy
  Ba  Ba1       1.0  0.50000  0.50000  0.50000  1.0000
  F   F1        1.0  0.72700  0.72700  0.07630  1.0000
  F   F2        1.0  0.27300  0.92400  0.27300  1.0000
  F   F3        1.0  0.92400  0.27300  0.27300  1.0000
  F   F4        1.0  0.07630  0.72700  0.72700  1.0000
  F   F5        1.0  0.72700  0.07630  0.72700  1.0000
  F   F6        1.0  0.27300  0.27300  0.92400  1.0000
  Ni  Ni1       1.0  0.00000  0.00000  0.00000  1.0000
