# generated using pymatgen
data_ZrTi3(P2O9)4
_symmetry_space_group_name_H-M   'P 1'
_cell_length_a   5.28117300
_cell_length_b   8.62884049
_cell_length_c   16.04136016
_cell_angle_alpha   104.39798703
_cell_angle_beta   90.46152908
_cell_angle_gamma   90.48995403
_symmetry_Int_Tables_number   1
_chemical_formula_structural   ZrTi3(P2O9)4
_chemical_formula_sum   'Zr1 Ti3 P8 O36'
_cell_volume   707.98650768
_cell_formula_units_Z   1
loop_
 _symmetry_equiv_pos_site_id
 _symmetry_equiv_pos_as_xyz
  1  'x, y, z'
loop_
 _atom_site_type_symbol
 _atom_site_label
 _atom_site_symmetry_multiplicity
 _atom_site_fract_x
 _atom_site_fract_y
 _atom_site_fract_z
 _atom_site_occupancy
  Zr  Zr0  1  0.21266200  0.26235500  0.04647900  1
  Ti  Ti1  1  0.75527100  0.22603000  0.47161600  1
  Ti  Ti2  1  0.76287600  0.75086100  0.96028800  1
  Ti  Ti3  1  0.27720200  0.74464300  0.53017700  1
  P  P4  1  0.28534600  0.67262600  0.08441300  1
  P  P5  1  0.78572200  0.83477700  0.41530900  1
  P  P6  1  0.69732400  0.36082500  0.92183100  1
  P  P7  1  0.25144300  0.14543400  0.59238200  1
  P  P8  1  0.72349600  0.08841200  0.11362200  1
  P  P9  1  0.25210800  0.37958700  0.39051900  1
  P  P10  1  0.25803600  0.89677900  0.88383400  1
  P  P11  1  0.76774400  0.61110500  0.60585000  1
  O  O12  1  0.06495300  0.73217800  0.04096200  1
  O  O13  1  0.58239300  0.75514100  0.45612000  1
  O  O14  1  0.89033300  0.28973400  0.97129600  1
  O  O15  1  0.47052400  0.20324500  0.54386000  1
  O  O16  1  0.67023800  0.99638700  0.18842300  1
  O  O17  1  0.24129200  0.42645700  0.30508700  1
  O  O18  1  0.26984000  0.94517100  0.79887100  1
  O  O19  1  0.79657200  0.58211900  0.71129300  1
  O  O20  1  0.37268600  0.95484200  0.18253700  1
  O  O21  1  0.87748300  0.59627700  0.27477500  1
  O  O22  1  0.59083400  0.11657300  0.77945500  1
  O  O23  1  0.00564000  0.51691000  0.72841000  1
  O  O24  1  0.73045200  0.96594800  0.02625600  1
  O  O25  1  0.24306400  0.52992900  0.46851600  1
  O  O26  1  0.25627300  0.04216400  0.96321700  1
  O  O27  1  0.79014900  0.44818500  0.54656800  1
  O  O28  1  0.32891000  0.79600500  0.18495200  1
  O  O29  1  0.76144000  0.73058900  0.30289000  1
  O  O30  1  0.72458400  0.24377300  0.81261700  1
  O  O31  1  0.24382900  0.23922900  0.68584500  1
  O  O32  1  0.54252000  0.67727700  0.04316600  1
  O  O33  1  0.05312500  0.80390500  0.43924000  1
  O  O34  1  0.42818100  0.34032000  0.94708400  1
  O  O35  1  0.99638600  0.15734300  0.54512500  1
  O  O36  1  0.23097400  0.51190400  0.10607000  1
  O  O37  1  0.72270900  0.99864200  0.40372000  1
  O  O38  1  0.77822800  0.51603900  0.90217200  1
  O  O39  1  0.29933400  0.96375900  0.58405800  1
  O  O40  1  0.51579900  0.21208600  0.11492200  1
  O  O41  1  0.02416000  0.27146400  0.40185600  1
  O  O42  1  0.48313500  0.78546100  0.89395400  1
  O  O43  1  0.98325700  0.72628100  0.60168500  1
  O  O44  1  0.98020400  0.17441700  0.13214300  1
  O  O45  1  0.50323500  0.29161100  0.39693200  1
  O  O46  1  0.00944700  0.79840300  0.88423400  1
  O  O47  1  0.50859000  0.68679800  0.61537300  1
