# generated using pymatgen
data_V4C3
_symmetry_space_group_name_H-M   'P 1'
_cell_length_a   9.48988442
_cell_length_b   9.48988442
_cell_length_c   9.48988442
_cell_angle_alpha   17.77000079
_cell_angle_beta   17.77000079
_cell_angle_gamma   17.76999876
_symmetry_Int_Tables_number   1
_chemical_formula_structural   V4C3
_chemical_formula_sum   'V4 C3'
_cell_volume   69.49281682
_cell_formula_units_Z   1
loop_
 _symmetry_equiv_pos_site_id
 _symmetry_equiv_pos_as_xyz
  1  'x, y, z'
loop_
 _atom_site_type_symbol
 _atom_site_label
 _atom_site_symmetry_multiplicity
 _atom_site_fract_x
 _atom_site_fract_y
 _atom_site_fract_z
 _atom_site_occupancy
  V  V0  1  0.62637500  0.62637500  0.62637500  1
  V  V1  1  0.37547600  0.37547600  0.37547600  1
  V  V2  1  0.79083000  0.79083000  0.79083000  1
  V  V3  1  0.20604900  0.20604900  0.20604900  1
  C  C4  1  0.49527000  0.49527000  0.49527000  1
  C  C5  1  0.00508700  0.00508700  0.00508700  1
  C  C6  1  0.91591300  0.91591300  0.91591300  1
