# generated using pymatgen
data_V3Rh5
_symmetry_space_group_name_H-M   'P 1'
_cell_length_a   5.41576775
_cell_length_b   5.41576775
_cell_length_c   4.32682400
_cell_angle_alpha   90.00000000
_cell_angle_beta   90.00000000
_cell_angle_gamma   119.64019978
_symmetry_Int_Tables_number   1
_chemical_formula_structural   V3Rh5
_chemical_formula_sum   'V3 Rh5'
_cell_volume   110.30192885
_cell_formula_units_Z   1
loop_
 _symmetry_equiv_pos_site_id
 _symmetry_equiv_pos_as_xyz
  1  'x, y, z'
loop_
 _atom_site_type_symbol
 _atom_site_label
 _atom_site_symmetry_multiplicity
 _atom_site_fract_x
 _atom_site_fract_y
 _atom_site_fract_z
 _atom_site_occupancy
  V  V0  1  0.91065400  0.08934600  0.00000000  1
  V  V1  1  0.58247600  0.41752400  0.50000000  1
  V  V2  1  0.08635300  0.91364700  0.50000000  1
  Rh  Rh3  1  0.41686600  0.58313400  0.00000000  1
  Rh  Rh4  1  0.59136100  0.91036600  0.50000000  1
  Rh  Rh5  1  0.08963400  0.40863900  0.50000000  1
  Rh  Rh6  1  0.41136700  0.08871100  0.00000000  1
  Rh  Rh7  1  0.91128900  0.58863300  0.00000000  1
