# generated using pymatgen
data_Y4ZrMn5O15
_symmetry_space_group_name_H-M   'P 1'
_cell_length_a   6.24945200
_cell_length_b   9.55583805
_cell_length_c   12.04872835
_cell_angle_alpha   93.42627330
_cell_angle_beta   104.88957715
_cell_angle_gamma   109.06898596
_symmetry_Int_Tables_number   1
_chemical_formula_structural   Y4ZrMn5O15
_chemical_formula_sum   'Y8 Zr2 Mn10 O30'
_cell_volume   649.03094206
_cell_formula_units_Z   2
loop_
 _symmetry_equiv_pos_site_id
 _symmetry_equiv_pos_as_xyz
  1  'x, y, z'
loop_
 _atom_site_type_symbol
 _atom_site_label
 _atom_site_symmetry_multiplicity
 _atom_site_fract_x
 _atom_site_fract_y
 _atom_site_fract_z
 _atom_site_occupancy
  Y  Y0  1  0.85504700  0.95379000  0.75742900  1
  Y  Y1  1  0.24064900  0.74545800  0.73542200  1
  Y  Y2  1  0.66532200  0.55322900  0.77563400  1
  Y  Y3  1  0.06836800  0.35328000  0.77778200  1
  Y  Y4  1  0.74795000  0.24837000  0.24919600  1
  Y  Y5  1  0.14322000  0.04834800  0.24460800  1
  Y  Y6  1  0.96717100  0.65800500  0.27918400  1
  Y  Y7  1  0.37037900  0.45727100  0.27852200  1
  Zr  Zr8  1  0.43412500  0.14910600  0.72779400  1
  Zr  Zr9  1  0.53799500  0.84516200  0.22610400  1
  Mn  Mn10  1  0.58100500  0.30084700  0.50636300  1
  Mn  Mn11  1  0.16801500  0.48940600  0.50692400  1
  Mn  Mn12  1  0.76284300  0.71090200  0.50893900  1
  Mn  Mn13  1  0.38532300  0.90537200  0.50476600  1
  Mn  Mn14  1  0.95667800  0.09863900  0.50197600  1
  Mn  Mn15  1  0.92771400  0.20321900  0.00608600  1
  Mn  Mn16  1  0.54244700  0.39709300  0.01088800  1
  Mn  Mn17  1  0.13657400  0.59980600  0.00697800  1
  Mn  Mn18  1  0.73746900  0.79820700  0.00301900  1
  Mn  Mn19  1  0.33913600  0.00783500  0.00155800  1
  O  O20  1  0.68013900  0.33719500  0.67464200  1
  O  O21  1  0.27303400  0.52251800  0.67353400  1
  O  O22  1  0.85779400  0.72775800  0.67443900  1
  O  O23  1  0.46615500  0.94073500  0.67048400  1
  O  O24  1  0.08065200  0.14371700  0.68120000  1
  O  O25  1  0.05675800  0.24358200  0.17325400  1
  O  O26  1  0.63813000  0.44856300  0.18019500  1
  O  O27  1  0.23312800  0.63201600  0.17562700  1
  O  O28  1  0.83555300  0.82297700  0.17032500  1
  O  O29  1  0.42751400  0.02514800  0.17039700  1
  O  O30  1  0.45272300  0.34312700  0.84012100  1
  O  O31  1  0.05864500  0.58357200  0.84216200  1
  O  O32  1  0.62094200  0.77170000  0.83820900  1
  O  O33  1  0.25764900  0.97992300  0.83227800  1
  O  O34  1  0.79241200  0.16261300  0.83745300  1
  O  O35  1  0.46397400  0.25486600  0.34077700  1
  O  O36  1  0.06148300  0.46370000  0.34142100  1
  O  O37  1  0.66651000  0.69818500  0.34135000  1
  O  O38  1  0.30360800  0.87405100  0.33743100  1
  O  O39  1  0.84098200  0.04368500  0.32426400  1
  O  O40  1  0.62085000  0.20695600  0.03512000  1
  O  O41  1  0.00067300  0.00003100  0.00213400  1
  O  O42  1  0.42134400  0.80337300  0.03283400  1
  O  O43  1  0.79113600  0.59694300  0.98585500  1
  O  O44  1  0.18909800  0.39494400  0.98355000  1
  O  O45  1  0.71435300  0.90462500  0.53223300  1
  O  O46  1  0.09888600  0.70236500  0.50254600  1
  O  O47  1  0.49751600  0.50018300  0.48777900  1
  O  O48  1  0.89589000  0.30096100  0.49361300  1
  O  O49  1  0.32303500  0.10931300  0.52893000  1
