# generated using pymatgen
data_V9Te8
_symmetry_space_group_name_H-M   'P 1'
_cell_length_a   7.10134300
_cell_length_b   7.21015821
_cell_length_c   7.72877183
_cell_angle_alpha   105.61461950
_cell_angle_beta   105.84309603
_cell_angle_gamma   89.75445924
_symmetry_Int_Tables_number   1
_chemical_formula_structural   V9Te8
_chemical_formula_sum   'V9 Te8'
_cell_volume   365.62060189
_cell_formula_units_Z   1
loop_
 _symmetry_equiv_pos_site_id
 _symmetry_equiv_pos_as_xyz
  1  'x, y, z'
loop_
 _atom_site_type_symbol
 _atom_site_label
 _atom_site_symmetry_multiplicity
 _atom_site_fract_x
 _atom_site_fract_y
 _atom_site_fract_z
 _atom_site_occupancy
  V  V0  1  0.50434900  0.50197900  0.72553000  1
  V  V1  1  0.50023300  0.49806900  0.28026100  1
  V  V2  1  0.56161900  0.21677400  0.44482400  1
  V  V3  1  0.57495000  0.21647700  0.94650200  1
  V  V4  1  0.43000800  0.79402700  0.55740100  1
  V  V5  1  0.43819700  0.77566800  0.05107800  1
  V  V6  1  0.72339400  0.57190800  0.07524300  1
  V  V7  1  0.25193900  0.41475900  0.41987100  1
  V  V8  1  0.27865100  0.43816800  0.92307600  1
  Te  Te9  1  0.15427300  0.68663600  0.70875800  1
  Te  Te10  1  0.15556100  0.68910600  0.21074500  1
  Te  Te11  1  0.83711900  0.31025200  0.29102600  1
  Te  Te12  1  0.84209100  0.31760500  0.78676600  1
  Te  Te13  1  0.72050000  0.85388400  0.88872700  1
  Te  Te14  1  0.71419500  0.85084700  0.39764200  1
  Te  Te15  1  0.28023200  0.14484300  0.10079700  1
  Te  Te16  1  0.28199000  0.14369700  0.61025300  1
