# generated using pymatgen
data_Y2Fe17C
_symmetry_space_group_name_H-M   'P 1'
_cell_length_a   8.59385099
_cell_length_b   8.59385099
_cell_length_c   8.25380000
_cell_angle_alpha   90.00000000
_cell_angle_beta   90.00000000
_cell_angle_gamma   120.20817284
_symmetry_Int_Tables_number   1
_chemical_formula_structural   Y2Fe17C
_chemical_formula_sum   'Y4 Fe34 C2'
_cell_volume   526.79951852
_cell_formula_units_Z   2
loop_
 _symmetry_equiv_pos_site_id
 _symmetry_equiv_pos_as_xyz
  1  'x, y, z'
loop_
 _atom_site_type_symbol
 _atom_site_label
 _atom_site_symmetry_multiplicity
 _atom_site_fract_x
 _atom_site_fract_y
 _atom_site_fract_z
 _atom_site_occupancy
  Y  Y0  1  0.33080300  0.66919700  0.50000000  1
  Y  Y1  1  0.66672100  0.33327900  0.00000000  1
  Y  Y2  1  0.00438500  0.99561500  0.50000000  1
  Y  Y3  1  0.99927300  0.00072700  0.00000000  1
  Fe  Fe4  1  0.94916500  0.32763100  0.50000000  1
  Fe  Fe5  1  0.37641300  0.04762900  0.50000000  1
  Fe  Fe6  1  0.67183800  0.62057300  0.50000000  1
  Fe  Fe7  1  0.95237100  0.62358700  0.50000000  1
  Fe  Fe8  1  0.37942700  0.32816200  0.50000000  1
  Fe  Fe9  1  0.67236900  0.05083500  0.50000000  1
  Fe  Fe10  1  0.04304000  0.67157000  0.00000000  1
  Fe  Fe11  1  0.62548300  0.95440200  0.00000000  1
  Fe  Fe12  1  0.32786800  0.37154100  0.00000000  1
  Fe  Fe13  1  0.04559800  0.37451700  0.00000000  1
  Fe  Fe14  1  0.62845900  0.67213200  0.00000000  1
  Fe  Fe15  1  0.32843000  0.95696000  0.00000000  1
  Fe  Fe16  1  0.66547900  0.83309300  0.26772700  1
  Fe  Fe17  1  0.16690700  0.33452100  0.26772700  1
  Fe  Fe18  1  0.16600600  0.83399400  0.26980600  1
  Fe  Fe19  1  0.33456400  0.16627300  0.22957600  1
  Fe  Fe20  1  0.83372700  0.66543600  0.22957600  1
  Fe  Fe21  1  0.83208000  0.16792000  0.22767800  1
  Fe  Fe22  1  0.33456400  0.16627300  0.77042400  1
  Fe  Fe23  1  0.83372700  0.66543600  0.77042400  1
  Fe  Fe24  1  0.83208000  0.16792000  0.77232200  1
  Fe  Fe25  1  0.66547900  0.83309300  0.73227300  1
  Fe  Fe26  1  0.16690700  0.33452100  0.73227300  1
  Fe  Fe27  1  0.16600600  0.83399400  0.73019400  1
  Fe  Fe28  1  0.33266800  0.66733200  0.85611900  1
  Fe  Fe29  1  0.66689600  0.33310400  0.64466100  1
  Fe  Fe30  1  0.66689600  0.33310400  0.35533900  1
  Fe  Fe31  1  0.33266800  0.66733200  0.14388100  1
  Fe  Fe32  1  0.99807100  0.49957600  0.24794000  1
  Fe  Fe33  1  0.50042400  0.00192900  0.24794000  1
  Fe  Fe34  1  0.50181100  0.49818900  0.24668800  1
  Fe  Fe35  1  0.99807100  0.49957600  0.75206000  1
  Fe  Fe36  1  0.50042400  0.00192900  0.75206000  1
  Fe  Fe37  1  0.50181100  0.49818900  0.75331200  1
  C  C38  1  0.66996600  0.83521200  0.50000000  1
  C  C39  1  0.16478800  0.33003400  0.50000000  1
