# generated using pymatgen
data_V4Ir
_symmetry_space_group_name_H-M   'P 1'
_cell_length_a   10.53976471
_cell_length_b   10.41608656
_cell_length_c   2.67416069
_cell_angle_alpha   85.30549351
_cell_angle_beta   80.04710169
_cell_angle_gamma   14.64740480
_symmetry_Int_Tables_number   1
_chemical_formula_structural   V4Ir
_chemical_formula_sum   'V4 Ir1'
_cell_volume   68.68935874
_cell_formula_units_Z   1
loop_
 _symmetry_equiv_pos_site_id
 _symmetry_equiv_pos_as_xyz
  1  'x, y, z'
loop_
 _atom_site_type_symbol
 _atom_site_label
 _atom_site_symmetry_multiplicity
 _atom_site_fract_x
 _atom_site_fract_y
 _atom_site_fract_z
 _atom_site_occupancy
  V  V0  1  0.39714700  0.39714700  0.60285300  1
  V  V1  1  0.79948900  0.79948900  0.20051100  1
  V  V2  1  0.20051100  0.20051100  0.79948900  1
  V  V3  1  0.60285300  0.60285300  0.39714700  1
  Ir  Ir4  1  0.00000000  0.00000000  0.00000000  1
