# generated using pymatgen
data_ZnTe(H2N)4
_symmetry_space_group_name_H-M   'P 1'
_cell_length_a   7.25196200
_cell_length_b   8.54167060
_cell_length_c   10.89192425
_cell_angle_alpha   92.27043464
_cell_angle_beta   90.00000000
_cell_angle_gamma   90.00000000
_symmetry_Int_Tables_number   1
_chemical_formula_structural   ZnTe(H2N)4
_chemical_formula_sum   'Zn4 Te4 H32 N16'
_cell_volume   674.15829645
_cell_formula_units_Z   4
loop_
 _symmetry_equiv_pos_site_id
 _symmetry_equiv_pos_as_xyz
  1  'x, y, z'
loop_
 _atom_site_type_symbol
 _atom_site_label
 _atom_site_symmetry_multiplicity
 _atom_site_fract_x
 _atom_site_fract_y
 _atom_site_fract_z
 _atom_site_occupancy
  Zn  Zn0  1  0.56027500  0.44677000  0.23194900  1
  Zn  Zn1  1  0.43972500  0.94677000  0.73194900  1
  Zn  Zn2  1  0.78710000  0.18204900  0.48798900  1
  Zn  Zn3  1  0.21290000  0.68204900  0.98798900  1
  Te  Te4  1  0.44331100  0.12479200  0.54102800  1
  Te  Te5  1  0.55668900  0.62479200  0.04102800  1
  Te  Te6  1  0.88401400  0.36298400  0.30920700  1
  Te  Te7  1  0.11598600  0.86298400  0.80920700  1
  H  H8  1  0.63200100  0.10803400  0.18983100  1
  H  H9  1  0.36799900  0.60803400  0.68983100  1
  H  H10  1  0.40625100  0.74669400  0.29104300  1
  H  H11  1  0.59374900  0.24669400  0.79104300  1
  H  H12  1  0.07796700  0.24804200  0.63329300  1
  H  H13  1  0.92203300  0.74804200  0.13329300  1
  H  H14  1  0.96809300  0.92308300  0.56067000  1
  H  H15  1  0.03190700  0.42308300  0.06067000  1
  H  H16  1  0.31201500  0.26677600  0.12363900  1
  H  H17  1  0.68798500  0.76677600  0.62363900  1
  H  H18  1  0.92718700  0.48031900  0.55855500  1
  H  H19  1  0.07281300  0.98031900  0.05855500  1
  H  H20  1  0.32892700  0.20217900  0.26388800  1
  H  H21  1  0.67107300  0.70217900  0.76388800  1
  H  H22  1  0.70619300  0.86214700  0.41612500  1
  H  H23  1  0.29380700  0.36214700  0.91612500  1
  H  H24  1  0.44301300  0.00510700  0.15303000  1
  H  H25  1  0.55698700  0.50510700  0.65303000  1
  H  H26  1  0.02063600  0.49495000  0.69747800  1
  H  H27  1  0.97936400  0.99495000  0.19747800  1
  H  H28  1  0.88457400  0.73736500  0.41302600  1
  H  H29  1  0.11542600  0.23736500  0.91302600  1
  H  H30  1  0.89207900  0.23479500  0.72156000  1
  H  H31  1  0.10792100  0.73479500  0.22156000  1
  H  H32  1  0.25965900  0.47472300  0.37519500  1
  H  H33  1  0.74034100  0.97472300  0.87519500  1
  H  H34  1  0.43667400  0.53762400  0.45917700  1
  H  H35  1  0.56332600  0.03762400  0.95917700  1
  H  H36  1  0.33992000  0.76552600  0.43575200  1
  H  H37  1  0.66008000  0.26552600  0.93575200  1
  H  H38  1  0.06423700  0.98674800  0.43531500  1
  H  H39  1  0.93576300  0.48674800  0.93531500  1
  N  N40  1  0.94005400  0.27666100  0.63995000  1
  N  N41  1  0.05994600  0.77666100  0.13995000  1
  N  N42  1  0.51248900  0.10759700  0.13914100  1
  N  N43  1  0.48751100  0.60759700  0.63914100  1
  N  N44  1  0.31913200  0.70161600  0.35509900  1
  N  N45  1  0.68086800  0.20161600  0.85509900  1
  N  N46  1  0.93884800  0.96341700  0.47464500  1
  N  N47  1  0.06115200  0.46341700  0.97464500  1
  N  N48  1  0.37777100  0.54109700  0.37253900  1
  N  N49  1  0.62222900  0.04109700  0.87253900  1
  N  N50  1  0.40435300  0.23647700  0.18937900  1
  N  N51  1  0.59564700  0.73647700  0.68937900  1
  N  N52  1  0.91467200  0.44471600  0.64736800  1
  N  N53  1  0.08532800  0.94471600  0.14736800  1
  N  N54  1  0.84378100  0.85011000  0.39707800  1
  N  N55  1  0.15621900  0.35011000  0.89707800  1
