# generated using pymatgen
data_VCrCuS4
_symmetry_space_group_name_H-M   'P 1'
_cell_length_a   6.98942157
_cell_length_b   6.98942157
_cell_length_c   6.98942157
_cell_angle_alpha   121.28416338
_cell_angle_beta   119.13850395
_cell_angle_gamma   89.64445551
_symmetry_Int_Tables_number   1
_chemical_formula_structural   VCrCuS4
_chemical_formula_sum   'V2 Cr2 Cu2 S8'
_cell_volume   240.55716699
_cell_formula_units_Z   2
loop_
 _symmetry_equiv_pos_site_id
 _symmetry_equiv_pos_as_xyz
  1  'x, y, z'
loop_
 _atom_site_type_symbol
 _atom_site_label
 _atom_site_symmetry_multiplicity
 _atom_site_fract_x
 _atom_site_fract_y
 _atom_site_fract_z
 _atom_site_occupancy
  V  V0  1  0.00000000  0.00000000  0.50000000  1
  V  V1  1  0.00000000  0.50000000  0.00000000  1
  Cr  Cr2  1  0.50000000  0.00000000  0.50000000  1
  Cr  Cr3  1  0.00000000  0.00000000  0.00000000  1
  Cu  Cu4  1  0.62303200  0.37303200  0.25000000  1
  Cu  Cu5  1  0.37696800  0.62696800  0.75000000  1
  S  S6  1  0.22989300  0.24239000  0.98750300  1
  S  S7  1  0.75488700  0.24239000  0.51249700  1
  S  S8  1  0.75941100  0.24378100  0.98437000  1
  S  S9  1  0.75941100  0.77504100  0.51563000  1
  S  S10  1  0.77010700  0.75761000  0.01249700  1
  S  S11  1  0.24511300  0.75761000  0.48750300  1
  S  S12  1  0.24058900  0.75621900  0.01563000  1
  S  S13  1  0.24058900  0.22495900  0.48437000  1
