# generated using pymatgen
data_V8Ga3(MoS6)4
_symmetry_space_group_name_H-M   'P 1'
_cell_length_a   6.86194700
_cell_length_b   9.75543208
_cell_length_c   11.95411259
_cell_angle_alpha   113.68649307
_cell_angle_beta   106.31526913
_cell_angle_gamma   90.98892869
_symmetry_Int_Tables_number   1
_chemical_formula_structural   V8Ga3(MoS6)4
_chemical_formula_sum   'V8 Ga3 Mo4 S24'
_cell_volume   695.55040237
_cell_formula_units_Z   1
loop_
 _symmetry_equiv_pos_site_id
 _symmetry_equiv_pos_as_xyz
  1  'x, y, z'
loop_
 _atom_site_type_symbol
 _atom_site_label
 _atom_site_symmetry_multiplicity
 _atom_site_fract_x
 _atom_site_fract_y
 _atom_site_fract_z
 _atom_site_occupancy
  V  V0  1  0.41232600  0.80177400  0.80784100  1
  V  V1  1  0.74583100  0.13585000  0.47499200  1
  V  V2  1  0.93067000  0.32377600  0.85999000  1
  V  V3  1  0.27054800  0.66099500  0.52595400  1
  V  V4  1  0.60379500  0.99388300  0.19182500  1
  V  V5  1  0.79104200  0.60576700  0.00114200  1
  V  V6  1  0.12799900  0.94328200  0.66637700  1
  V  V7  1  0.46252500  0.27608900  0.33366500  1
  Ga  Ga8  1  0.00448700  0.00087700  0.99987900  1
  Ga  Ga9  1  0.33805200  0.33525500  0.66725200  1
  Ga  Ga10  1  0.67197500  0.67004300  0.33468400  1
  Mo  Mo11  1  0.20696600  0.60235200  0.00237700  1
  Mo  Mo12  1  0.52969500  0.93121100  0.66653300  1
  Mo  Mo13  1  0.86327500  0.26493800  0.33383000  1
  Mo  Mo14  1  0.07067000  0.46746600  0.13612700  1
  S  S15  1  0.72790300  0.86331600  0.99960200  1
  S  S16  1  0.06078500  0.19765200  0.66673700  1
  S  S17  1  0.39608200  0.53116300  0.33431100  1
  S  S18  1  0.57834600  0.71371700  0.15221000  1
  S  S19  1  0.90865500  0.04453300  0.81742100  1
  S  S20  1  0.24189600  0.37904900  0.48456300  1
  S  S21  1  0.42625200  0.56202500  0.84897900  1
  S  S22  1  0.75738000  0.89550100  0.51608300  1
  S  S23  1  0.09171300  0.22660200  0.18258200  1
  S  S24  1  0.27511600  0.86366200  0.99985200  1
  S  S25  1  0.60678800  0.19621900  0.66636200  1
  S  S26  1  0.93997500  0.53062100  0.33459400  1
  S  S27  1  0.73466800  0.36942300  0.99561700  1
  S  S28  1  0.08442100  0.70911300  0.66702100  1
  S  S29  1  0.41858300  0.04199300  0.33358100  1
  S  S30  1  0.90863300  0.54064300  0.82690800  1
  S  S31  1  0.23389500  0.87228800  0.48886000  1
  S  S32  1  0.56708900  0.20584000  0.15598800  1
  S  S33  1  0.08257200  0.72287600  0.17494900  1
  S  S34  1  0.41118100  0.04910200  0.84395000  1
  S  S35  1  0.74526400  0.38372800  0.51140900  1
  S  S36  1  0.26071100  0.36391000  0.99543400  1
  S  S37  1  0.58975300  0.69490100  0.66679000  1
  S  S38  1  0.92248200  0.02856500  0.33372800  1
