# generated using pymatgen
data_Yb9B5S21
_symmetry_space_group_name_H-M   'P 1'
_cell_length_a   11.30915500
_cell_length_b   11.35078433
_cell_length_c   11.46004318
_cell_angle_alpha   91.85083526
_cell_angle_beta   92.05181969
_cell_angle_gamma   90.66186396
_symmetry_Int_Tables_number   1
_chemical_formula_structural   Yb9B5S21
_chemical_formula_sum   'Yb18 B10 S42'
_cell_volume   1469.27119472
_cell_formula_units_Z   2
loop_
 _symmetry_equiv_pos_site_id
 _symmetry_equiv_pos_as_xyz
  1  'x, y, z'
loop_
 _atom_site_type_symbol
 _atom_site_label
 _atom_site_symmetry_multiplicity
 _atom_site_fract_x
 _atom_site_fract_y
 _atom_site_fract_z
 _atom_site_occupancy
  Yb  Yb0  1  0.43687000  0.27854300  0.06326100  1
  Yb  Yb1  1  0.81855600  0.57571500  0.42606600  1
  Yb  Yb2  1  0.13342900  0.92789600  0.72651900  1
  Yb  Yb3  1  0.57184100  0.41939000  0.81338900  1
  Yb  Yb4  1  0.92285100  0.73665500  0.13863300  1
  Yb  Yb5  1  0.28258900  0.06384100  0.43518700  1
  Yb  Yb6  1  0.74772700  0.13402900  0.92767800  1
  Yb  Yb7  1  0.05916900  0.43409800  0.27742000  1
  Yb  Yb8  1  0.42482700  0.82555100  0.58222100  1
  Yb  Yb9  1  0.90176400  0.10028400  0.29026300  1
  Yb  Yb10  1  0.22684500  0.42873600  0.62602500  1
  Yb  Yb11  1  0.55113100  0.78697200  0.90740800  1
  Yb  Yb12  1  0.78502400  0.90908400  0.55213300  1
  Yb  Yb13  1  0.09990300  0.28783300  0.90770600  1
  Yb  Yb14  1  0.42715200  0.62297500  0.22513600  1
  Yb  Yb15  1  0.62623700  0.23805700  0.43321500  1
  Yb  Yb16  1  0.90652700  0.54797100  0.78349200  1
  Yb  Yb17  1  0.29582700  0.90244700  0.11417900  1
  B  B18  1  0.56689400  0.91355100  0.27226900  1
  B  B19  1  0.91541100  0.26536100  0.56649900  1
  B  B20  1  0.26300600  0.57157800  0.91444500  1
  B  B21  1  0.08169900  0.74241400  0.40679300  1
  B  B22  1  0.41427800  0.07972500  0.74812400  1
  B  B23  1  0.74677800  0.41057200  0.07553100  1
  B  B24  1  0.80494500  0.80385500  0.80501700  1
  B  B25  1  0.12807200  0.12254200  0.12759000  1
  B  B26  1  0.30234400  0.30467900  0.30382600  1
  B  B27  1  0.61711100  0.62152100  0.62286400  1
  S  S28  1  0.92319900  0.80131000  0.37557000  1
  S  S29  1  0.27108900  0.15096700  0.68543000  1
  S  S30  1  0.58804400  0.47612600  0.05767100  1
  S  S31  1  0.15024000  0.69782300  0.25840400  1
  S  S32  1  0.48070000  0.06515500  0.59264400  1
  S  S33  1  0.80756000  0.37503900  0.92291500  1
  S  S34  1  0.07144300  0.58772500  0.47563500  1
  S  S35  1  0.37202000  0.92671500  0.80513000  1
  S  S36  1  0.69290600  0.26588300  0.14292000  1
  S  S37  1  0.63290000  0.79233000  0.17113800  1
  S  S38  1  0.95217500  0.09338300  0.55603400  1
  S  S39  1  0.31521200  0.42080100  0.87080700  1
  S  S40  1  0.42011900  0.86695600  0.32804700  1
  S  S41  1  0.79565000  0.16405200  0.63109800  1
  S  S42  1  0.09238500  0.57433200  0.95231100  1
  S  S43  1  0.55487000  0.94742800  0.10100800  1
  S  S44  1  0.87071200  0.32157000  0.41991400  1
  S  S45  1  0.16155400  0.64232700  0.79630400  1
  S  S46  1  0.92263800  0.77713600  0.70164500  1
  S  S47  1  0.24733600  0.12175000  0.02091900  1
  S  S48  1  0.58029200  0.46590500  0.34232200  1
  S  S49  1  0.12720800  0.01391500  0.24556900  1
  S  S50  1  0.45666900  0.35153300  0.57403500  1
  S  S51  1  0.78123200  0.70021800  0.92175500  1
  S  S52  1  0.46575000  0.49425100  0.47215700  1
  S  S53  1  0.69993600  0.92277600  0.78027400  1
  S  S54  1  0.01514000  0.23838400  0.12569800  1
  S  S55  1  0.85001300  0.96566700  0.07896000  1
  S  S56  1  0.19139700  0.28922700  0.41530800  1
  S  S57  1  0.49213800  0.63474600  0.72114300  1
  S  S58  1  0.63360800  0.72523100  0.50559400  1
  S  S59  1  0.97776800  0.07069300  0.84808000  1
  S  S60  1  0.28571200  0.41843900  0.19418100  1
  S  S61  1  0.41941100  0.19565200  0.29017700  1
  S  S62  1  0.71879600  0.49789900  0.63397500  1
  S  S63  1  0.00834500  0.97680100  0.99687600  1
  S  S64  1  0.35476100  0.68097700  0.00548100  1
  S  S65  1  0.67498600  0.01096400  0.35703200  1
  S  S66  1  0.00875300  0.34915300  0.67960200  1
  S  S67  1  0.18210800  0.84763100  0.50826000  1
  S  S68  1  0.51595200  0.17806900  0.85113100  1
  S  S69  1  0.84466900  0.51338900  0.18015500  1
