# generated using pymatgen
data_Y2Ga3(Fe7C)2
_symmetry_space_group_name_H-M   'P 1'
_cell_length_a   6.57895653
_cell_length_b   6.57895653
_cell_length_c   6.60395748
_cell_angle_alpha   83.64889842
_cell_angle_beta   83.64889842
_cell_angle_gamma   82.86064230
_symmetry_Int_Tables_number   1
_chemical_formula_structural   Y2Ga3(Fe7C)2
_chemical_formula_sum   'Y2 Ga3 Fe14 C2'
_cell_volume   280.51677646
_cell_formula_units_Z   1
loop_
 _symmetry_equiv_pos_site_id
 _symmetry_equiv_pos_as_xyz
  1  'x, y, z'
loop_
 _atom_site_type_symbol
 _atom_site_label
 _atom_site_symmetry_multiplicity
 _atom_site_fract_x
 _atom_site_fract_y
 _atom_site_fract_z
 _atom_site_occupancy
  Y  Y0  1  0.34673100  0.34673100  0.33964600  1
  Y  Y1  1  0.65326900  0.65326900  0.66035400  1
  Ga  Ga2  1  0.00000000  0.00000000  0.50000000  1
  Ga  Ga3  1  0.00000000  0.50000000  0.00000000  1
  Ga  Ga4  1  0.50000000  0.00000000  0.00000000  1
  Fe  Fe5  1  0.09264400  0.09264400  0.09485500  1
  Fe  Fe6  1  0.90735600  0.90735600  0.90514500  1
  Fe  Fe7  1  0.65440600  0.65440600  0.15179700  1
  Fe  Fe8  1  0.65341700  0.15114100  0.65585200  1
  Fe  Fe9  1  0.15114100  0.65341700  0.65585200  1
  Fe  Fe10  1  0.34559400  0.34559400  0.84820300  1
  Fe  Fe11  1  0.34658300  0.84885900  0.34414800  1
  Fe  Fe12  1  0.84885900  0.34658300  0.34414800  1
  Fe  Fe13  1  0.70909500  0.29090500  0.00000000  1
  Fe  Fe14  1  0.28605600  0.00007800  0.71407100  1
  Fe  Fe15  1  0.99992200  0.71394400  0.28592900  1
  Fe  Fe16  1  0.71394400  0.99992200  0.28592900  1
  Fe  Fe17  1  0.00007800  0.28605600  0.71407100  1
  Fe  Fe18  1  0.29090500  0.70909500  0.00000000  1
  C  C19  1  0.50000000  0.00000000  0.50000000  1
  C  C20  1  0.00000000  0.50000000  0.50000000  1
