# generated using pymatgen
data_Y6Cu15P16
_symmetry_space_group_name_H-M   'P 1'
_cell_length_a   4.10436800
_cell_length_b   7.15742900
_cell_length_c   19.60059647
_cell_angle_alpha   83.08874219
_cell_angle_beta   90.00000000
_cell_angle_gamma   90.00000000
_symmetry_Int_Tables_number   1
_chemical_formula_structural   Y6Cu15P16
_chemical_formula_sum   'Y6 Cu15 P16'
_cell_volume   571.61734955
_cell_formula_units_Z   1
loop_
 _symmetry_equiv_pos_site_id
 _symmetry_equiv_pos_as_xyz
  1  'x, y, z'
loop_
 _atom_site_type_symbol
 _atom_site_label
 _atom_site_symmetry_multiplicity
 _atom_site_fract_x
 _atom_site_fract_y
 _atom_site_fract_z
 _atom_site_occupancy
  Y  Y0  1  0.50000000  0.39211300  0.31922600  1
  Y  Y1  1  0.00000000  0.89352100  0.31668100  1
  Y  Y2  1  0.50000000  0.60535500  0.68296500  1
  Y  Y3  1  0.00000000  0.11139100  0.68185400  1
  Y  Y4  1  0.00000000  0.99992000  0.00020700  1
  Y  Y5  1  0.50000000  0.49998000  0.00056800  1
  Cu  Cu6  1  0.00000000  0.63426700  0.10075500  1
  Cu  Cu7  1  0.50000000  0.13352700  0.10079600  1
  Cu  Cu8  1  0.00000000  0.36578100  0.89917300  1
  Cu  Cu9  1  0.50000000  0.86630200  0.89935600  1
  Cu  Cu10  1  0.00000000  0.51983600  0.42905400  1
  Cu  Cu11  1  0.50000000  0.02927800  0.42269400  1
  Cu  Cu12  1  0.00000000  0.48281100  0.57792300  1
  Cu  Cu13  1  0.50000000  0.97045000  0.57108100  1
  Cu  Cu14  1  0.50000000  0.24014500  0.78412200  1
  Cu  Cu15  1  0.00000000  0.74145200  0.78220000  1
  Cu  Cu16  1  0.50000000  0.75894000  0.21708400  1
  Cu  Cu17  1  0.00000000  0.26062100  0.21749700  1
  Cu  Cu18  1  0.00000000  0.84539700  0.48042900  1
  Cu  Cu19  1  0.50000000  0.61779000  0.51765400  1
  Cu  Cu20  1  0.00000000  0.18671700  0.52140200  1
  P  P21  1  0.50000000  0.30381000  0.58737800  1
  P  P22  1  0.00000000  0.80248200  0.59755600  1
  P  P23  1  0.50000000  0.70289500  0.40346800  1
  P  P24  1  0.00000000  0.19615900  0.40555100  1
  P  P25  1  0.50000000  0.19423800  0.91457500  1
  P  P26  1  0.00000000  0.69462800  0.91374600  1
  P  P27  1  0.50000000  0.80521900  0.08633400  1
  P  P28  1  0.00000000  0.30543200  0.08654700  1
  P  P29  1  0.00000000  0.58680000  0.23360900  1
  P  P30  1  0.50000000  0.08883400  0.23211500  1
  P  P31  1  0.00000000  0.41221600  0.76709900  1
  P  P32  1  0.50000000  0.91410100  0.76632300  1
  P  P33  1  0.50000000  0.45567400  0.16162600  1
  P  P34  1  0.00000000  0.95573600  0.15862500  1
  P  P35  1  0.50000000  0.54594500  0.84157600  1
  P  P36  1  0.00000000  0.04094600  0.83902100  1
