# generated using pymatgen
data_Y9Ga5S21
_symmetry_space_group_name_H-M   'P 1'
_cell_length_a   11.50173182
_cell_length_b   11.50173182
_cell_length_c   11.50173173
_cell_angle_alpha   94.22756074
_cell_angle_beta   94.22756074
_cell_angle_gamma   94.22756354
_symmetry_Int_Tables_number   1
_chemical_formula_structural   Y9Ga5S21
_chemical_formula_sum   'Y18 Ga10 S42'
_cell_volume   1508.49349959
_cell_formula_units_Z   2
loop_
 _symmetry_equiv_pos_site_id
 _symmetry_equiv_pos_as_xyz
  1  'x, y, z'
loop_
 _atom_site_type_symbol
 _atom_site_label
 _atom_site_symmetry_multiplicity
 _atom_site_fract_x
 _atom_site_fract_y
 _atom_site_fract_z
 _atom_site_occupancy
  Y  Y0  1  0.11553500  0.88046000  0.74001600  1
  Y  Y1  1  0.45652300  0.22665000  0.07842300  1
  Y  Y2  1  0.77245500  0.54850100  0.39587600  1
  Y  Y3  1  0.39587600  0.77245500  0.54850100  1
  Y  Y4  1  0.74001600  0.11553500  0.88046000  1
  Y  Y5  1  0.07842300  0.45652300  0.22665000  1
  Y  Y6  1  0.22665000  0.07842300  0.45652300  1
  Y  Y7  1  0.54850100  0.39587600  0.77245500  1
  Y  Y8  1  0.88046000  0.74001600  0.11553500  1
  Y  Y9  1  0.20912300  0.43743600  0.58438600  1
  Y  Y10  1  0.55161900  0.78193500  0.93012100  1
  Y  Y11  1  0.87073300  0.10169100  0.24727300  1
  Y  Y12  1  0.93012100  0.55161900  0.78193500  1
  Y  Y13  1  0.24727300  0.87073300  0.10169100  1
  Y  Y14  1  0.58438600  0.20912300  0.43743600  1
  Y  Y15  1  0.10169100  0.24727300  0.87073300  1
  Y  Y16  1  0.43743600  0.58438600  0.20912300  1
  Y  Y17  1  0.78193500  0.93012100  0.55161900  1
  Ga  Ga18  1  0.72250400  0.39048800  0.05001600  1
  Ga  Ga19  1  0.05001600  0.72250400  0.39048800  1
  Ga  Ga20  1  0.39048800  0.05001600  0.72250400  1
  Ga  Ga21  1  0.88586200  0.22592500  0.55122600  1
  Ga  Ga22  1  0.22592500  0.55122600  0.88586200  1
  Ga  Ga23  1  0.55122600  0.88586200  0.22592500  1
  Ga  Ga24  1  0.85833600  0.85833600  0.85833600  1
  Ga  Ga25  1  0.15749200  0.15749200  0.15749200  1
  Ga  Ga26  1  0.65683800  0.65683800  0.65683800  1
  Ga  Ga27  1  0.35827000  0.35827000  0.35827000  1
  S  S28  1  0.53861600  0.44716000  0.01132200  1
  S  S29  1  0.86721500  0.78111700  0.35587700  1
  S  S30  1  0.20300600  0.10585600  0.69247000  1
  S  S31  1  0.69247000  0.20300600  0.10585600  1
  S  S32  1  0.01132200  0.53861600  0.44716000  1
  S  S33  1  0.35587700  0.86721500  0.78111700  1
  S  S34  1  0.78111700  0.35587700  0.86721500  1
  S  S35  1  0.10585600  0.69247000  0.20300600  1
  S  S36  1  0.44716000  0.01132200  0.53861600  1
  S  S37  1  0.96515100  0.06389500  0.47495100  1
  S  S38  1  0.29799800  0.38476900  0.81075700  1
  S  S39  1  0.63054800  0.71937200  0.15586200  1
  S  S40  1  0.81075700  0.29799800  0.38476900  1
  S  S41  1  0.15586200  0.63054800  0.71937200  1
  S  S42  1  0.47495100  0.96515100  0.06389500  1
  S  S43  1  0.71937200  0.15586200  0.63054800  1
  S  S44  1  0.06389500  0.47495100  0.96515100  1
  S  S45  1  0.38476900  0.81075700  0.29799800  1
  S  S46  1  0.84667800  0.51121900  0.17565100  1
  S  S47  1  0.17565100  0.84667800  0.51121900  1
  S  S48  1  0.51121900  0.17565100  0.84667800  1
  S  S49  1  0.67704900  0.00998500  0.34650000  1
  S  S50  1  0.00998500  0.34650000  0.67704900  1
  S  S51  1  0.34650000  0.67704900  0.00998500  1
  S  S52  1  0.56097500  0.41343000  0.31161100  1
  S  S53  1  0.89986300  0.76338800  0.66624900  1
  S  S54  1  0.24130600  0.09976200  0.99360300  1
  S  S55  1  0.99360300  0.24130600  0.09976200  1
  S  S56  1  0.31161100  0.56097500  0.41343000  1
  S  S57  1  0.66624900  0.89986300  0.76338800  1
  S  S58  1  0.76338800  0.66624900  0.89986300  1
  S  S59  1  0.09976200  0.99360300  0.24130600  1
  S  S60  1  0.41343000  0.31161100  0.56097500  1
  S  S61  1  0.15256800  0.28896300  0.38559300  1
  S  S62  1  0.48273700  0.62151200  0.73068500  1
  S  S63  1  0.79611900  0.94625600  0.04576400  1
  S  S64  1  0.73068500  0.48273700  0.62151200  1
  S  S65  1  0.04576400  0.79611900  0.94625600  1
  S  S66  1  0.38559300  0.15256800  0.28896300  1
  S  S67  1  0.94625600  0.04576400  0.79611900  1
  S  S68  1  0.28896300  0.38559300  0.15256800  1
  S  S69  1  0.62151200  0.73068500  0.48273700  1
