# generated using pymatgen
data_Tl5BrCl4
_symmetry_space_group_name_H-M   'P 1'
_cell_length_a   14.17504134
_cell_length_b   14.17504134
_cell_length_c   3.93641800
_cell_angle_alpha   90.00000000
_cell_angle_beta   90.00000000
_cell_angle_gamma   157.35061472
_symmetry_Int_Tables_number   1
_chemical_formula_structural   Tl5BrCl4
_chemical_formula_sum   'Tl5 Br1 Cl4'
_cell_volume   304.58826329
_cell_formula_units_Z   1
loop_
 _symmetry_equiv_pos_site_id
 _symmetry_equiv_pos_as_xyz
  1  'x, y, z'
loop_
 _atom_site_type_symbol
 _atom_site_label
 _atom_site_symmetry_multiplicity
 _atom_site_fract_x
 _atom_site_fract_y
 _atom_site_fract_z
 _atom_site_occupancy
  Tl  Tl0  1  0.79999000  0.20001000  0.00000000  1
  Tl  Tl1  1  0.39810000  0.60190000  0.00000000  1
  Tl  Tl2  1  0.00000000  0.00000000  0.00000000  1
  Tl  Tl3  1  0.60190000  0.39810000  0.00000000  1
  Tl  Tl4  1  0.20001000  0.79999000  0.00000000  1
  Br  Br5  1  0.50000000  0.50000000  0.50000000  1
  Cl  Cl6  1  0.10042200  0.89957800  0.50000000  1
  Cl  Cl7  1  0.70031700  0.29968300  0.50000000  1
  Cl  Cl8  1  0.29968300  0.70031700  0.50000000  1
  Cl  Cl9  1  0.89957800  0.10042200  0.50000000  1
