# generated using pymatgen
data_TiVCN
_symmetry_space_group_name_H-M   'P 1'
_cell_length_a   5.18806697
_cell_length_b   5.18806697
_cell_length_c   5.18806724
_cell_angle_alpha   33.32754107
_cell_angle_beta   33.32754107
_cell_angle_gamma   33.32753755
_symmetry_Int_Tables_number   1
_chemical_formula_structural   TiVCN
_chemical_formula_sum   'Ti1 V1 C1 N1'
_cell_volume   37.53290028
_cell_formula_units_Z   1
loop_
 _symmetry_equiv_pos_site_id
 _symmetry_equiv_pos_as_xyz
  1  'x, y, z'
loop_
 _atom_site_type_symbol
 _atom_site_label
 _atom_site_symmetry_multiplicity
 _atom_site_fract_x
 _atom_site_fract_y
 _atom_site_fract_z
 _atom_site_occupancy
  Ti  Ti0  1  0.74825900  0.74825900  0.74825900  1
  V  V1  1  0.25266800  0.25266800  0.25266800  1
  C  C2  1  0.99755600  0.99755600  0.99755600  1
  N  N3  1  0.50151700  0.50151700  0.50151700  1
