# generated using pymatgen
data_Tm5Te4Se
_symmetry_space_group_name_H-M   'P 1'
_cell_length_a   7.47926870
_cell_length_b   7.47926870
_cell_length_c   10.30154212
_cell_angle_alpha   62.08725520
_cell_angle_beta   62.08725520
_cell_angle_gamma   32.79951093
_symmetry_Int_Tables_number   1
_chemical_formula_structural   Tm5Te4Se
_chemical_formula_sum   'Tm5 Te4 Se1'
_cell_volume   272.47223759
_cell_formula_units_Z   1
loop_
 _symmetry_equiv_pos_site_id
 _symmetry_equiv_pos_as_xyz
  1  'x, y, z'
loop_
 _atom_site_type_symbol
 _atom_site_label
 _atom_site_symmetry_multiplicity
 _atom_site_fract_x
 _atom_site_fract_y
 _atom_site_fract_z
 _atom_site_occupancy
  Tm  Tm0  1  0.00000000  0.00000000  0.50000000  1
  Tm  Tm1  1  0.58375900  0.58375900  0.08817100  1
  Tm  Tm2  1  0.18414100  0.18414100  0.73021200  1
  Tm  Tm3  1  0.81585900  0.81585900  0.26978800  1
  Tm  Tm4  1  0.41624100  0.41624100  0.91182900  1
  Te  Te5  1  0.60946000  0.60946000  0.58915700  1
  Te  Te6  1  0.19355000  0.19355000  0.19198700  1
  Te  Te7  1  0.80645000  0.80645000  0.80801300  1
  Te  Te8  1  0.39054000  0.39054000  0.41084300  1
  Se  Se9  1  0.00000000  0.00000000  0.00000000  1
