# generated using pymatgen
data_Tm(AlCr)6
_symmetry_space_group_name_H-M   'P 1'
_cell_length_a   6.68008111
_cell_length_b   6.68008111
_cell_length_c   6.68008111
_cell_angle_alpha   135.57960220
_cell_angle_beta   98.89112167
_cell_angle_gamma   97.54004846
_symmetry_Int_Tables_number   1
_chemical_formula_structural   Tm(AlCr)6
_chemical_formula_sum   'Tm1 Al6 Cr6'
_cell_volume   193.13929130
_cell_formula_units_Z   1
loop_
 _symmetry_equiv_pos_site_id
 _symmetry_equiv_pos_as_xyz
  1  'x, y, z'
loop_
 _atom_site_type_symbol
 _atom_site_label
 _atom_site_symmetry_multiplicity
 _atom_site_fract_x
 _atom_site_fract_y
 _atom_site_fract_z
 _atom_site_occupancy
  Tm  Tm0  1  0.00000000  0.00000000  0.00000000  1
  Al  Al1  1  0.34575700  0.00000000  0.34575700  1
  Al  Al2  1  0.65424300  0.00000000  0.65424300  1
  Al  Al3  1  0.33225800  0.33225800  0.00000000  1
  Al  Al4  1  0.66774200  0.66774200  0.00000000  1
  Al  Al5  1  0.80706200  0.50000000  0.30706200  1
  Al  Al6  1  0.19293800  0.50000000  0.69293800  1
  Cr  Cr7  1  0.00000000  0.50000000  0.00000000  1
  Cr  Cr8  1  0.00000000  0.00000000  0.50000000  1
  Cr  Cr9  1  0.50000000  0.00000000  0.00000000  1
  Cr  Cr10  1  0.50000000  0.50000000  0.50000000  1
  Cr  Cr11  1  0.76083300  0.26083300  0.50000000  1
  Cr  Cr12  1  0.23916700  0.73916700  0.50000000  1
