# generated using pymatgen
data_Ce(SiIr)2
_symmetry_space_group_name_H-M   'P 1'
_cell_length_a   5.87228455
_cell_length_b   5.87228455
_cell_length_c   5.87228455
_cell_angle_alpha   138.18065769
_cell_angle_beta   138.18065769
_cell_angle_gamma   60.62642539
_symmetry_Int_Tables_number   1
_chemical_formula_structural   Ce(SiIr)2
_chemical_formula_sum   'Ce1 Si2 Ir2'
_cell_volume   89.06665082
_cell_formula_units_Z   1
loop_
 _symmetry_equiv_pos_site_id
 _symmetry_equiv_pos_as_xyz
  1  'x, y, z'
loop_
 _atom_site_type_symbol
 _atom_site_label
 _atom_site_symmetry_multiplicity
 _atom_site_fract_x
 _atom_site_fract_y
 _atom_site_fract_z
 _atom_site_occupancy
  Ce  Ce0  1  0.00000000  0.00000000  0.00000000  1
  Si  Si1  1  0.75000000  0.25000000  0.50000000  1
  Si  Si2  1  0.25000000  0.75000000  0.50000000  1
  Ir  Ir3  1  0.63327500  0.63327500  0.00000000  1
  Ir  Ir4  1  0.36672500  0.36672500  0.00000000  1
