# generated using pymatgen
data_Tl2SeS
_symmetry_space_group_name_H-M   'P 1'
_cell_length_a   6.75000699
_cell_length_b   6.73509809
_cell_length_c   6.73509809
_cell_angle_alpha   63.43709680
_cell_angle_beta   73.99033789
_cell_angle_gamma   106.00966211
_symmetry_Int_Tables_number   1
_chemical_formula_structural   Tl2SeS
_chemical_formula_sum   'Tl4 Se2 S2'
_cell_volume   233.16169716
_cell_formula_units_Z   2
loop_
 _symmetry_equiv_pos_site_id
 _symmetry_equiv_pos_as_xyz
  1  'x, y, z'
loop_
 _atom_site_type_symbol
 _atom_site_label
 _atom_site_symmetry_multiplicity
 _atom_site_fract_x
 _atom_site_fract_y
 _atom_site_fract_z
 _atom_site_occupancy
  Tl  Tl0  1  0.00000000  0.25000000  0.75000000  1
  Tl  Tl1  1  0.00000000  0.75000000  0.25000000  1
  Tl  Tl2  1  0.50000000  0.25555700  0.24444300  1
  Tl  Tl3  1  0.50000000  0.74444300  0.75555700  1
  Se  Se4  1  0.14589800  0.82294900  0.67705100  1
  Se  Se5  1  0.85410200  0.17705100  0.32294900  1
  S  S6  1  0.50000000  0.33061100  0.83061100  1
  S  S7  1  0.50000000  0.66938900  0.16938900  1
