# generated using pymatgen
data_Tm4MnS7
_symmetry_space_group_name_H-M   'P 1'
_cell_length_a   6.48001411
_cell_length_b   6.48001411
_cell_length_c   11.36318899
_cell_angle_alpha   75.95324064
_cell_angle_beta   75.95324064
_cell_angle_gamma   33.70463902
_symmetry_Int_Tables_number   1
_chemical_formula_structural   Tm4MnS7
_chemical_formula_sum   'Tm4 Mn1 S7'
_cell_volume   256.11843324
_cell_formula_units_Z   1
loop_
 _symmetry_equiv_pos_site_id
 _symmetry_equiv_pos_as_xyz
  1  'x, y, z'
loop_
 _atom_site_type_symbol
 _atom_site_label
 _atom_site_symmetry_multiplicity
 _atom_site_fract_x
 _atom_site_fract_y
 _atom_site_fract_z
 _atom_site_occupancy
  Tm  Tm0  1  0.69332400  0.69332400  0.20302000  1
  Tm  Tm1  1  0.30596200  0.30596200  0.80280700  1
  Tm  Tm2  1  0.99988500  0.99988500  0.00525000  1
  Tm  Tm3  1  0.11426800  0.11426800  0.56752800  1
  Mn  Mn4  1  0.88557000  0.88557000  0.42107500  1
  S  S5  1  0.74373800  0.74373800  0.64136700  1
  S  S6  1  0.26686500  0.26686500  0.35240200  1
  S  S7  1  0.33905700  0.33905700  0.05083700  1
  S  S8  1  0.65954400  0.65954400  0.94883500  1
  S  S9  1  0.03467200  0.03467200  0.22455100  1
  S  S10  1  0.96299200  0.96299200  0.78450300  1
  S  S11  1  0.49412200  0.49412200  0.49782400  1
