# generated using pymatgen
data_V2FeSe4
_symmetry_space_group_name_H-M   'P 1'
_cell_length_a   6.88487786
_cell_length_b   6.88487786
_cell_length_c   6.27690599
_cell_angle_alpha   63.56800235
_cell_angle_beta   63.56800235
_cell_angle_gamma   28.79523157
_symmetry_Int_Tables_number   1
_chemical_formula_structural   V2FeSe4
_chemical_formula_sum   'V2 Fe1 Se4'
_cell_volume   127.28577925
_cell_formula_units_Z   1
loop_
 _symmetry_equiv_pos_site_id
 _symmetry_equiv_pos_as_xyz
  1  'x, y, z'
loop_
 _atom_site_type_symbol
 _atom_site_label
 _atom_site_symmetry_multiplicity
 _atom_site_fract_x
 _atom_site_fract_y
 _atom_site_fract_z
 _atom_site_occupancy
  V  V0  1  0.99951500  0.99951500  0.99725900  1
  V  V1  1  0.25019800  0.25019800  0.68547500  1
  Fe  Fe2  1  0.74825800  0.74825800  0.32035500  1
  Se  Se3  1  0.88995900  0.88995900  0.45388100  1
  Se  Se4  1  0.11077900  0.11077900  0.54384700  1
  Se  Se5  1  0.63941100  0.63941100  0.02118600  1
  Se  Se6  1  0.36188000  0.36188000  0.97799700  1
