# generated using pymatgen
data_TmAlGa
_symmetry_space_group_name_H-M   'P 1'
_cell_length_a   5.68884136
_cell_length_b   5.68884136
_cell_length_c   6.89436111
_cell_angle_alpha   53.73023323
_cell_angle_beta   53.73023323
_cell_angle_gamma   44.68270271
_symmetry_Int_Tables_number   1
_chemical_formula_structural   TmAlGa
_chemical_formula_sum   'Tm2 Al2 Ga2'
_cell_volume   120.60632496
_cell_formula_units_Z   2
loop_
 _symmetry_equiv_pos_site_id
 _symmetry_equiv_pos_as_xyz
  1  'x, y, z'
loop_
 _atom_site_type_symbol
 _atom_site_label
 _atom_site_symmetry_multiplicity
 _atom_site_fract_x
 _atom_site_fract_y
 _atom_site_fract_z
 _atom_site_occupancy
  Tm  Tm0  1  0.54747600  0.54747600  0.19945100  1
  Tm  Tm1  1  0.45252400  0.45252400  0.80054900  1
  Al  Al2  1  0.16348300  0.16348300  0.38465200  1
  Al  Al3  1  0.83651700  0.83651700  0.61534800  1
  Ga  Ga4  1  0.83633100  0.83633100  0.20821400  1
  Ga  Ga5  1  0.16366900  0.16366900  0.79178600  1
