# generated using pymatgen
data_TmBeCu4
_symmetry_space_group_name_H-M   'P 1'
_cell_length_a   4.81012939
_cell_length_b   4.81012939
_cell_length_c   4.81012949
_cell_angle_alpha   62.13970604
_cell_angle_beta   62.13970604
_cell_angle_gamma   62.13971544
_symmetry_Int_Tables_number   1
_chemical_formula_structural   TmBeCu4
_chemical_formula_sum   'Tm1 Be1 Cu4'
_cell_volume   82.45906597
_cell_formula_units_Z   1
loop_
 _symmetry_equiv_pos_site_id
 _symmetry_equiv_pos_as_xyz
  1  'x, y, z'
loop_
 _atom_site_type_symbol
 _atom_site_label
 _atom_site_symmetry_multiplicity
 _atom_site_fract_x
 _atom_site_fract_y
 _atom_site_fract_z
 _atom_site_occupancy
  Tm  Tm0  1  0.99774900  0.99774900  0.99774900  1
  Be  Be1  1  0.37965100  0.37965100  0.37965100  1
  Cu  Cu2  1  0.37718600  0.37718600  0.87212300  1
  Cu  Cu3  1  0.87212300  0.37718600  0.37718600  1
  Cu  Cu4  1  0.37718600  0.87212300  0.37718600  1
  Cu  Cu5  1  0.74610600  0.74610600  0.74610600  1
