# generated using pymatgen
data_UMnCo
_symmetry_space_group_name_H-M   'P 1'
_cell_length_a   4.94592179
_cell_length_b   4.94592179
_cell_length_c   4.94592179
_cell_angle_alpha   90.14974460
_cell_angle_beta   60.20318475
_cell_angle_gamma   120.37702119
_symmetry_Int_Tables_number   1
_chemical_formula_structural   UMnCo
_chemical_formula_sum   'U2 Mn2 Co2'
_cell_volume   85.43586633
_cell_formula_units_Z   2
loop_
 _symmetry_equiv_pos_site_id
 _symmetry_equiv_pos_as_xyz
  1  'x, y, z'
loop_
 _atom_site_type_symbol
 _atom_site_label
 _atom_site_symmetry_multiplicity
 _atom_site_fract_x
 _atom_site_fract_y
 _atom_site_fract_z
 _atom_site_occupancy
  U  U0  1  0.50000000  0.75155400  0.74844600  1
  U  U1  1  0.00000000  0.99844600  0.00155400  1
  Mn  Mn2  1  0.25000000  0.87500000  0.37500000  1
  Mn  Mn3  1  0.75000000  0.37500000  0.37500000  1
  Co  Co4  1  0.75000000  0.37500000  0.87500000  1
  Co  Co5  1  0.25000000  0.37500000  0.37500000  1
