data_image0
_chemical_formula_structural       As2Li2Se4
_chemical_formula_sum              "As2 Li2 Se4"
_cell_length_a       5.57936
_cell_length_b       5.46727
_cell_length_c       5.69886
_cell_angle_alpha    90.5645
_cell_angle_beta     86.9381
_cell_angle_gamma    90.2996

_space_group_name_H-M_alt    "P 1"
_space_group_IT_number       1

loop_
  _space_group_symop_operation_xyz
  'x, y, z'

loop_
  _atom_site_type_symbol
  _atom_site_label
  _atom_site_symmetry_multiplicity
  _atom_site_fract_x
  _atom_site_fract_y
  _atom_site_fract_z
  _atom_site_occupancy
  As  As1       1.0  0.20800  0.25400  0.41100  1.0000
  As  As2       1.0  0.79200  0.74600  0.58900  1.0000
  Li  Li1       1.0  0.25700  0.74900  0.00188  1.0000
  Li  Li2       1.0  0.74300  0.25100  0.99800  1.0000
  Se  Se1       1.0  0.24900  0.25000  0.99800  1.0000
  Se  Se2       1.0  0.75100  0.75000  0.00196  1.0000
  Se  Se3       1.0  0.23700  0.75100  0.50000  1.0000
  Se  Se4       1.0  0.76300  0.24900  0.50000  1.0000
