# generated using pymatgen
data_V3Zn2FeO11
_symmetry_space_group_name_H-M   'P 1'
_cell_length_a   6.57876200
_cell_length_b   6.92374441
_cell_length_c   10.08545306
_cell_angle_alpha   97.75906175
_cell_angle_beta   102.33691909
_cell_angle_gamma   101.34561544
_symmetry_Int_Tables_number   1
_chemical_formula_structural   V3Zn2FeO11
_chemical_formula_sum   'V6 Zn4 Fe2 O22'
_cell_volume   432.42918633
_cell_formula_units_Z   2
loop_
 _symmetry_equiv_pos_site_id
 _symmetry_equiv_pos_as_xyz
  1  'x, y, z'
loop_
 _atom_site_type_symbol
 _atom_site_label
 _atom_site_symmetry_multiplicity
 _atom_site_fract_x
 _atom_site_fract_y
 _atom_site_fract_z
 _atom_site_occupancy
  V  V0  1  0.32659100  0.01432000  0.21077200  1
  V  V1  1  0.67340900  0.98568000  0.78922800  1
  V  V2  1  0.30498200  0.42667500  0.88234900  1
  V  V3  1  0.69501800  0.57332500  0.11765100  1
  V  V4  1  0.74821400  0.67430200  0.47164600  1
  V  V5  1  0.25178600  0.32569800  0.52835400  1
  Zn  Zn6  1  0.17533900  0.87800900  0.83683900  1
  Zn  Zn7  1  0.82466100  0.12199100  0.16316100  1
  Zn  Zn8  1  0.78202100  0.50597400  0.77930700  1
  Zn  Zn9  1  0.21797900  0.49402600  0.22069300  1
  Fe  Fe10  1  0.69199000  0.17582100  0.50409800  1
  Fe  Fe11  1  0.30801000  0.82417900  0.49590200  1
  O  O12  1  0.84466200  0.81727200  0.77682100  1
  O  O13  1  0.15533800  0.18272800  0.22317900  1
  O  O14  1  0.71627200  0.47153100  0.56037300  1
  O  O15  1  0.28372800  0.52846900  0.43962700  1
  O  O16  1  0.63626500  0.57202600  0.30162600  1
  O  O17  1  0.36373500  0.42797400  0.69837400  1
  O  O18  1  0.62523200  0.87652600  0.51216100  1
  O  O19  1  0.37476800  0.12347400  0.48783900  1
  O  O20  1  0.11038700  0.56504500  0.84478000  1
  O  O21  1  0.88961300  0.43495500  0.15522000  1
  O  O22  1  0.98917000  0.21803400  0.50416900  1
  O  O23  1  0.01083000  0.78196600  0.49583100  1
  O  O24  1  0.19028200  0.18346500  0.85349900  1
  O  O25  1  0.80971800  0.81653500  0.14650100  1
  O  O26  1  0.30355700  0.93067400  0.04331500  1
  O  O27  1  0.69644300  0.06932600  0.95668500  1
  O  O28  1  0.61727600  0.50707500  0.92489900  1
  O  O29  1  0.38272400  0.49292500  0.07510100  1
  O  O30  1  0.25885500  0.79963400  0.28475000  1
  O  O31  1  0.74114500  0.20036600  0.71525000  1
  O  O32  1  0.60868400  0.12621200  0.28777200  1
  O  O33  1  0.39131600  0.87378800  0.71222800  1
