# generated using pymatgen
data_Tl2BiSbTe4
_symmetry_space_group_name_H-M   'P 1'
_cell_length_a   4.54274700
_cell_length_b   7.87220700
_cell_length_c   8.43723011
_cell_angle_alpha   71.71574640
_cell_angle_beta   90.00000000
_cell_angle_gamma   90.00000000
_symmetry_Int_Tables_number   1
_chemical_formula_structural   Tl2BiSbTe4
_chemical_formula_sum   'Tl2 Bi1 Sb1 Te4'
_cell_volume   286.49383835
_cell_formula_units_Z   1
loop_
 _symmetry_equiv_pos_site_id
 _symmetry_equiv_pos_as_xyz
  1  'x, y, z'
loop_
 _atom_site_type_symbol
 _atom_site_label
 _atom_site_symmetry_multiplicity
 _atom_site_fract_x
 _atom_site_fract_y
 _atom_site_fract_z
 _atom_site_occupancy
  Tl  Tl0  1  0.00000000  0.50000000  0.50000000  1
  Tl  Tl1  1  0.50000000  0.00000000  0.50000000  1
  Bi  Bi2  1  0.00000000  0.00000000  0.00000000  1
  Sb  Sb3  1  0.50000000  0.50000000  0.00000000  1
  Te  Te4  1  0.50000000  0.75509800  0.21857200  1
  Te  Te5  1  0.00000000  0.26596700  0.21595700  1
  Te  Te6  1  0.50000000  0.24490200  0.78142800  1
  Te  Te7  1  0.00000000  0.73403300  0.78404300  1
