# generated using pymatgen
data_UNiGe
_symmetry_space_group_name_H-M   'P 1'
_cell_length_a   5.32923048
_cell_length_b   5.32923048
_cell_length_c   6.66906503
_cell_angle_alpha   53.90120744
_cell_angle_beta   53.90120744
_cell_angle_gamma   46.05195073
_symmetry_Int_Tables_number   1
_chemical_formula_structural   UNiGe
_chemical_formula_sum   'U2 Ni2 Ge2'
_cell_volume   104.75972112
_cell_formula_units_Z   2
loop_
 _symmetry_equiv_pos_site_id
 _symmetry_equiv_pos_as_xyz
  1  'x, y, z'
loop_
 _atom_site_type_symbol
 _atom_site_label
 _atom_site_symmetry_multiplicity
 _atom_site_fract_x
 _atom_site_fract_y
 _atom_site_fract_z
 _atom_site_occupancy
  U  U0  1  0.44898700  0.44898700  0.32572100  1
  U  U1  1  0.55101300  0.55101300  0.67427900  1
  Ni  Ni2  1  0.83675200  0.83675200  0.71360200  1
  Ni  Ni3  1  0.16324800  0.16324800  0.28639800  1
  Ge  Ge4  1  0.16421200  0.16421200  0.89950000  1
  Ge  Ge5  1  0.83578800  0.83578800  0.10050000  1
