# generated using pymatgen
data_TiMoO4
_symmetry_space_group_name_H-M   'P 1'
_cell_length_a   4.70962405
_cell_length_b   4.70962405
_cell_length_c   3.09756100
_cell_angle_alpha   90.00000000
_cell_angle_beta   90.00000000
_cell_angle_gamma   90.39815590
_symmetry_Int_Tables_number   1
_chemical_formula_structural   TiMoO4
_chemical_formula_sum   'Ti1 Mo1 O4'
_cell_volume   68.70397464
_cell_formula_units_Z   1
loop_
 _symmetry_equiv_pos_site_id
 _symmetry_equiv_pos_as_xyz
  1  'x, y, z'
loop_
 _atom_site_type_symbol
 _atom_site_label
 _atom_site_symmetry_multiplicity
 _atom_site_fract_x
 _atom_site_fract_y
 _atom_site_fract_z
 _atom_site_occupancy
  Ti  Ti0  1  0.50000000  0.50000000  0.50000000  1
  Mo  Mo1  1  0.00000000  0.00000000  0.00000000  1
  O  O2  1  0.20682400  0.79317600  0.50000000  1
  O  O3  1  0.79317600  0.20682400  0.50000000  1
  O  O4  1  0.30776700  0.30776700  0.00000000  1
  O  O5  1  0.69223300  0.69223300  0.00000000  1
