# generated using pymatgen
data_TiS2
_symmetry_space_group_name_H-M   'P 1'
_cell_length_a   7.26012444
_cell_length_b   7.26012444
_cell_length_c   7.26012453
_cell_angle_alpha   58.49836880
_cell_angle_beta   58.49836880
_cell_angle_gamma   58.49837154
_symmetry_Int_Tables_number   1
_chemical_formula_structural   TiS2
_chemical_formula_sum   'Ti4 S8'
_cell_volume   261.29814028
_cell_formula_units_Z   4
loop_
 _symmetry_equiv_pos_site_id
 _symmetry_equiv_pos_as_xyz
  1  'x, y, z'
loop_
 _atom_site_type_symbol
 _atom_site_label
 _atom_site_symmetry_multiplicity
 _atom_site_fract_x
 _atom_site_fract_y
 _atom_site_fract_z
 _atom_site_occupancy
  Ti  Ti0  1  0.37891600  0.37891600  0.37891600  1
  Ti  Ti1  1  0.99167900  0.99167900  0.53421700  1
  Ti  Ti2  1  0.53421700  0.99167900  0.99167900  1
  Ti  Ti3  1  0.99167900  0.53421700  0.99167900  1
  S  S4  1  0.75548300  0.75548300  0.75548300  1
  S  S5  1  0.74669600  0.74669600  0.22815600  1
  S  S6  1  0.22815600  0.74669600  0.74669600  1
  S  S7  1  0.74669600  0.22815600  0.74669600  1
  S  S8  1  0.24249100  0.24249100  0.24249100  1
  S  S9  1  0.24581000  0.24581000  0.76736800  1
  S  S10  1  0.76736800  0.24581000  0.24581000  1
  S  S11  1  0.24581000  0.76736800  0.24581000  1
