# generated using pymatgen
data_TlCu7Se4
_symmetry_space_group_name_H-M   'P 1'
_cell_length_a   7.67469742
_cell_length_b   7.67469742
_cell_length_c   10.45533518
_cell_angle_alpha   47.25215385
_cell_angle_beta   47.25215385
_cell_angle_gamma   29.69914436
_symmetry_Int_Tables_number   1
_chemical_formula_structural   TlCu7Se4
_chemical_formula_sum   'Tl1 Cu7 Se4'
_cell_volume   217.22434533
_cell_formula_units_Z   1
loop_
 _symmetry_equiv_pos_site_id
 _symmetry_equiv_pos_as_xyz
  1  'x, y, z'
loop_
 _atom_site_type_symbol
 _atom_site_label
 _atom_site_symmetry_multiplicity
 _atom_site_fract_x
 _atom_site_fract_y
 _atom_site_fract_z
 _atom_site_occupancy
  Tl  Tl0  1  0.00294600  0.00294600  0.99805000  1
  Cu  Cu1  1  0.02380800  0.02380800  0.60189000  1
  Cu  Cu2  1  0.97698100  0.97698100  0.39788000  1
  Cu  Cu3  1  0.36812300  0.36812300  0.65140800  1
  Cu  Cu4  1  0.62648000  0.62648000  0.34921900  1
  Cu  Cu5  1  0.68008800  0.68008800  0.53322000  1
  Cu  Cu6  1  0.21314200  0.21314200  0.11618000  1
  Cu  Cu7  1  0.78151200  0.78151200  0.89416000  1
  Se  Se8  1  0.24848700  0.24848700  0.32510700  1
  Se  Se9  1  0.75950300  0.75950300  0.67042900  1
  Se  Se10  1  0.43420600  0.43420600  0.81425900  1
  Se  Se11  1  0.56342500  0.56342500  0.18819800  1
