# generated using pymatgen
data_Tm2FeGe4
_symmetry_space_group_name_H-M   'P 1'
_cell_length_a   4.13431600
_cell_length_b   4.16611200
_cell_length_c   7.96375665
_cell_angle_alpha   74.83693680
_cell_angle_beta   90.00000000
_cell_angle_gamma   90.00000000
_symmetry_Int_Tables_number   1
_chemical_formula_structural   Tm2FeGe4
_chemical_formula_sum   'Tm2 Fe1 Ge4'
_cell_volume   132.39247385
_cell_formula_units_Z   1
loop_
 _symmetry_equiv_pos_site_id
 _symmetry_equiv_pos_as_xyz
  1  'x, y, z'
loop_
 _atom_site_type_symbol
 _atom_site_label
 _atom_site_symmetry_multiplicity
 _atom_site_fract_x
 _atom_site_fract_y
 _atom_site_fract_z
 _atom_site_occupancy
  Tm  Tm0  1  0.25000000  0.89805100  0.20389900  1
  Tm  Tm1  1  0.75000000  0.10312300  0.79375500  1
  Fe  Fe2  1  0.25000000  0.69470100  0.61059700  1
  Ge  Ge3  1  0.25000000  0.54613800  0.90772400  1
  Ge  Ge4  1  0.75000000  0.43384700  0.13230600  1
  Ge  Ge5  1  0.25000000  0.26148800  0.47702500  1
  Ge  Ge6  1  0.75000000  0.75965300  0.48069500  1
