# generated using pymatgen
data_TiNbSbO6
_symmetry_space_group_name_H-M   'P 1'
_cell_length_a   4.91700200
_cell_length_b   5.61360476
_cell_length_c   8.73393985
_cell_angle_alpha   91.68443905
_cell_angle_beta   106.32204944
_cell_angle_gamma   90.64506010
_symmetry_Int_Tables_number   1
_chemical_formula_structural   TiNbSbO6
_chemical_formula_sum   'Ti2 Nb2 Sb2 O12'
_cell_volume   231.21127814
_cell_formula_units_Z   2
loop_
 _symmetry_equiv_pos_site_id
 _symmetry_equiv_pos_as_xyz
  1  'x, y, z'
loop_
 _atom_site_type_symbol
 _atom_site_label
 _atom_site_symmetry_multiplicity
 _atom_site_fract_x
 _atom_site_fract_y
 _atom_site_fract_z
 _atom_site_occupancy
  Ti  Ti0  1  0.93269000  0.67998200  0.34817700  1
  Ti  Ti1  1  0.06731000  0.32001800  0.65182300  1
  Nb  Nb2  1  0.58722900  0.81616800  0.65057000  1
  Nb  Nb3  1  0.41277100  0.18383200  0.34943000  1
  Sb  Sb4  1  0.30541800  0.74388400  0.00120200  1
  Sb  Sb5  1  0.69458200  0.25611600  0.99879800  1
  O  O6  1  0.65490100  0.58424300  0.13759100  1
  O  O7  1  0.51968800  0.91490000  0.86504400  1
  O  O8  1  0.34509900  0.41575700  0.86241000  1
  O  O9  1  0.48031200  0.08510000  0.13495600  1
  O  O10  1  0.66026000  0.84444800  0.43691700  1
  O  O11  1  0.21952500  0.65457000  0.56007700  1
  O  O12  1  0.33974000  0.15555200  0.56308300  1
  O  O13  1  0.78047500  0.34543000  0.43992300  1
  O  O14  1  0.09422000  0.92449200  0.27937700  1
  O  O15  1  0.82157600  0.56563100  0.72243000  1
  O  O16  1  0.90578000  0.07550800  0.72062300  1
  O  O17  1  0.17842400  0.43436900  0.27757000  1
