data_image0
_chemical_formula_structural       GeLi2PbS4
_chemical_formula_sum              "Ge1 Li2 Pb1 S4"
_cell_length_a       6.05624
_cell_length_b       6.05624
_cell_length_c       6.05624
_cell_angle_alpha    114.592
_cell_angle_beta     99.6545
_cell_angle_gamma    114.592

_space_group_name_H-M_alt    "P 1"
_space_group_IT_number       1

loop_
  _space_group_symop_operation_xyz
  'x, y, z'

loop_
  _atom_site_type_symbol
  _atom_site_label
  _atom_site_symmetry_multiplicity
  _atom_site_fract_x
  _atom_site_fract_y
  _atom_site_fract_z
  _atom_site_occupancy
  Ge  Ge1       1.0  0.50000  0.00000  0.50000  1.0000
  Li  Li1       1.0  0.75000  0.50000  0.25000  1.0000
  Li  Li2       1.0  0.25000  0.50000  0.75000  1.0000
  Pb  Pb1       1.0  0.00000  0.00000  0.00000  1.0000
  S   S1        1.0  0.53500  0.00000  0.13900  1.0000
  S   S2        1.0  0.46500  0.60400  0.46500  1.0000
  S   S3        1.0  0.13900  0.00000  0.53500  1.0000
  S   S4        1.0  0.86100  0.39600  0.86100  1.0000
