# generated using pymatgen
data_K2Te2Pd
_symmetry_space_group_name_H-M   'P 1'
_cell_length_a   7.25343999
_cell_length_b   7.25343999
_cell_length_c   7.25343999
_cell_angle_alpha   147.22096046
_cell_angle_beta   106.54612237
_cell_angle_gamma   82.78737678
_symmetry_Int_Tables_number   1
_chemical_formula_structural   K2Te2Pd
_chemical_formula_sum   'K2 Te2 Pd1'
_cell_volume   193.22669706
_cell_formula_units_Z   1
loop_
 _symmetry_equiv_pos_site_id
 _symmetry_equiv_pos_as_xyz
  1  'x, y, z'
loop_
 _atom_site_type_symbol
 _atom_site_label
 _atom_site_symmetry_multiplicity
 _atom_site_fract_x
 _atom_site_fract_y
 _atom_site_fract_z
 _atom_site_occupancy
  K  K0  1  0.71750000  0.71750000  0.00000000  1
  K  K1  1  0.28250000  0.28250000  0.00000000  1
  Te  Te2  1  0.80161100  0.50000000  0.30161100  1
  Te  Te3  1  0.19838900  0.50000000  0.69838900  1
  Pd  Pd4  1  0.00000000  0.00000000  0.00000000  1
