# generated using pymatgen
data_TiMoAs2
_symmetry_space_group_name_H-M   'P 1'
_cell_length_a   3.41950000
_cell_length_b   6.11190500
_cell_length_c   6.44743800
_cell_angle_alpha   90.00000000
_cell_angle_beta   90.00000000
_cell_angle_gamma   90.00000000
_symmetry_Int_Tables_number   1
_chemical_formula_structural   TiMoAs2
_chemical_formula_sum   'Ti2 Mo2 As4'
_cell_volume   134.74925657
_cell_formula_units_Z   2
loop_
 _symmetry_equiv_pos_site_id
 _symmetry_equiv_pos_as_xyz
  1  'x, y, z'
loop_
 _atom_site_type_symbol
 _atom_site_label
 _atom_site_symmetry_multiplicity
 _atom_site_fract_x
 _atom_site_fract_y
 _atom_site_fract_z
 _atom_site_occupancy
  Ti  Ti0  1  0.00000000  0.50450200  0.43522900  1
  Ti  Ti1  1  0.00000000  0.00450200  0.56477100  1
  Mo  Mo2  1  0.50000000  0.49215100  0.06083300  1
  Mo  Mo3  1  0.50000000  0.99215100  0.93916700  1
  As  As4  1  0.50000000  0.30391400  0.68039100  1
  As  As5  1  0.50000000  0.80391400  0.31960900  1
  As  As6  1  0.00000000  0.69943200  0.82520800  1
  As  As7  1  0.00000000  0.19943200  0.17479200  1
