# generated using pymatgen
data_V6CuO15
_symmetry_space_group_name_H-M   'P 1'
_cell_length_a   7.37201700
_cell_length_b   7.96432542
_cell_length_c   10.32272749
_cell_angle_alpha   106.91707466
_cell_angle_beta   89.99879555
_cell_angle_gamma   103.33108694
_symmetry_Int_Tables_number   1
_chemical_formula_structural   V6CuO15
_chemical_formula_sum   'V12 Cu2 O30'
_cell_volume   562.76166619
_cell_formula_units_Z   2
loop_
 _symmetry_equiv_pos_site_id
 _symmetry_equiv_pos_as_xyz
  1  'x, y, z'
loop_
 _atom_site_type_symbol
 _atom_site_label
 _atom_site_symmetry_multiplicity
 _atom_site_fract_x
 _atom_site_fract_y
 _atom_site_fract_z
 _atom_site_occupancy
  V  V0  1  0.35730600  0.42614200  0.59388700  1
  V  V1  1  0.85731700  0.43356000  0.59488400  1
  V  V2  1  0.64269400  0.57385800  0.40611300  1
  V  V3  1  0.14268300  0.56644000  0.40511600  1
  V  V4  1  0.44247000  0.77235300  0.88143100  1
  V  V5  1  0.94359000  0.77232200  0.88408500  1
  V  V6  1  0.55753000  0.22764700  0.11856900  1
  V  V7  1  0.05641000  0.22767800  0.11591500  1
  V  V8  1  0.33415500  0.33695200  0.90872500  1
  V  V9  1  0.83384300  0.33221000  0.90355000  1
  V  V10  1  0.66584500  0.66304800  0.09127500  1
  V  V11  1  0.16615700  0.66779000  0.09645000  1
  Cu  Cu12  1  0.23663400  0.94495500  0.63658000  1
  Cu  Cu13  1  0.76336600  0.05504500  0.36342000  1
  O  O14  1  0.68359900  0.73455000  0.91651000  1
  O  O15  1  0.18467400  0.73629100  0.92114800  1
  O  O16  1  0.31640100  0.26545000  0.08349000  1
  O  O17  1  0.81532600  0.26370900  0.07885200  1
  O  O18  1  0.30228800  0.20721200  0.54192600  1
  O  O19  1  0.80198800  0.20956100  0.53541900  1
  O  O20  1  0.69771200  0.79278800  0.45807400  1
  O  O21  1  0.19801200  0.79043900  0.46458100  1
  O  O22  1  0.37105200  0.48524500  0.77601100  1
  O  O23  1  0.87088500  0.48142400  0.77930900  1
  O  O24  1  0.62894800  0.51475500  0.22398900  1
  O  O25  1  0.12911500  0.51857600  0.22069100  1
  O  O26  1  0.43746900  0.80270700  0.73086200  1
  O  O27  1  0.96218400  0.79654900  0.73084900  1
  O  O28  1  0.56253100  0.19729300  0.26913800  1
  O  O29  1  0.03781600  0.20345100  0.26915100  1
  O  O30  1  0.50000000  0.00000000  0.00000000  1
  O  O31  1  0.00000000  0.00000000  0.00000000  1
  O  O32  1  0.28517900  0.13311400  0.79239000  1
  O  O33  1  0.78117800  0.13603100  0.79214500  1
  O  O34  1  0.71482100  0.86688600  0.20761000  1
  O  O35  1  0.21882200  0.86396900  0.20785500  1
  O  O36  1  0.37645500  0.51099100  0.42657900  1
  O  O37  1  0.87964400  0.51339200  0.42743900  1
  O  O38  1  0.62354500  0.48900900  0.57342100  1
  O  O39  1  0.12035600  0.48660800  0.57256100  1
  O  O40  1  0.60355800  0.38357100  0.95925400  1
  O  O41  1  0.08453400  0.36914900  0.95451700  1
  O  O42  1  0.39644200  0.61642900  0.04074600  1
  O  O43  1  0.91546600  0.63085100  0.04548300  1
