# generated using pymatgen
data_TlNCl4
_symmetry_space_group_name_H-M   'P 1'
_cell_length_a   7.25901289
_cell_length_b   7.25901289
_cell_length_c   5.20789300
_cell_angle_alpha   90.00000000
_cell_angle_beta   90.00000000
_cell_angle_gamma   95.56688971
_symmetry_Int_Tables_number   1
_chemical_formula_structural   TlNCl4
_chemical_formula_sum   'Tl1 N1 Cl4'
_cell_volume   273.12663045
_cell_formula_units_Z   1
loop_
 _symmetry_equiv_pos_site_id
 _symmetry_equiv_pos_as_xyz
  1  'x, y, z'
loop_
 _atom_site_type_symbol
 _atom_site_label
 _atom_site_symmetry_multiplicity
 _atom_site_fract_x
 _atom_site_fract_y
 _atom_site_fract_z
 _atom_site_occupancy
  Tl  Tl0  1  0.05914900  0.94085100  0.00000000  1
  N  N1  1  0.42732100  0.57267900  0.50000000  1
  Cl  Cl2  1  0.91634600  0.63111000  0.00000000  1
  Cl  Cl3  1  0.36889000  0.08365400  0.00000000  1
  Cl  Cl4  1  0.84889700  0.15110300  0.25828900  1
  Cl  Cl5  1  0.84889700  0.15110300  0.74171100  1
