# generated using pymatgen
data_TiFeSbO6
_symmetry_space_group_name_H-M   'P 1'
_cell_length_a   4.71811400
_cell_length_b   4.71811400
_cell_length_c   9.04728800
_cell_angle_alpha   90.00000000
_cell_angle_beta   90.00000000
_cell_angle_gamma   90.00000000
_symmetry_Int_Tables_number   1
_chemical_formula_structural   TiFeSbO6
_chemical_formula_sum   'Ti2 Fe2 Sb2 O12'
_cell_volume   201.39805669
_cell_formula_units_Z   2
loop_
 _symmetry_equiv_pos_site_id
 _symmetry_equiv_pos_as_xyz
  1  'x, y, z'
loop_
 _atom_site_type_symbol
 _atom_site_label
 _atom_site_symmetry_multiplicity
 _atom_site_fract_x
 _atom_site_fract_y
 _atom_site_fract_z
 _atom_site_occupancy
  Ti  Ti0  1  0.50000000  0.50000000  0.49686300  1
  Ti  Ti1  1  0.00000000  0.00000000  0.99686300  1
  Fe  Fe2  1  0.50000000  0.50000000  0.16657600  1
  Fe  Fe3  1  0.00000000  0.00000000  0.66657600  1
  Sb  Sb4  1  0.50000000  0.50000000  0.83238100  1
  Sb  Sb5  1  0.00000000  0.00000000  0.33238100  1
  O  O6  1  0.19016700  0.80983300  0.16398600  1
  O  O7  1  0.19364200  0.80635800  0.50164600  1
  O  O8  1  0.19283100  0.80716900  0.83645800  1
  O  O9  1  0.80983300  0.19016700  0.16398600  1
  O  O10  1  0.80635800  0.19364200  0.50164600  1
  O  O11  1  0.80716900  0.19283100  0.83645800  1
  O  O12  1  0.30635800  0.30635800  0.00164600  1
  O  O13  1  0.30716900  0.30716900  0.33645800  1
  O  O14  1  0.30983300  0.30983300  0.66398600  1
  O  O15  1  0.69364200  0.69364200  0.00164600  1
  O  O16  1  0.69283100  0.69283100  0.33645800  1
  O  O17  1  0.69016700  0.69016700  0.66398600  1
