# generated using pymatgen
data_Tl8SnTe6Pb
_symmetry_space_group_name_H-M   'P 1'
_cell_length_a   9.21899781
_cell_length_b   9.21899781
_cell_length_c   9.21899781
_cell_angle_alpha   121.90842472
_cell_angle_beta   121.90842472
_cell_angle_gamma   86.72511998
_symmetry_Int_Tables_number   1
_chemical_formula_structural   Tl8SnTe6Pb
_chemical_formula_sum   'Tl8 Sn1 Te6 Pb1'
_cell_volume   537.09745281
_cell_formula_units_Z   1
loop_
 _symmetry_equiv_pos_site_id
 _symmetry_equiv_pos_as_xyz
  1  'x, y, z'
loop_
 _atom_site_type_symbol
 _atom_site_label
 _atom_site_symmetry_multiplicity
 _atom_site_fract_x
 _atom_site_fract_y
 _atom_site_fract_z
 _atom_site_occupancy
  Tl  Tl0  1  0.51191700  0.30428300  0.49927200  1
  Tl  Tl1  1  0.80501100  0.01264500  0.50072800  1
  Tl  Tl2  1  0.01264500  0.51191700  0.20763400  1
  Tl  Tl3  1  0.30428300  0.80501100  0.79236600  1
  Tl  Tl4  1  0.48808300  0.69571700  0.50072800  1
  Tl  Tl5  1  0.19499000  0.98735500  0.49927200  1
  Tl  Tl6  1  0.98735500  0.48808300  0.79236600  1
  Tl  Tl7  1  0.69571700  0.19499000  0.20763400  1
  Sn  Sn8  1  0.00000000  0.00000000  0.00000000  1
  Te  Te9  1  0.16208100  0.33214700  0.49422900  1
  Te  Te10  1  0.83791900  0.66785300  0.50577100  1
  Te  Te11  1  0.66785300  0.16208100  0.82993400  1
  Te  Te12  1  0.33214700  0.83791900  0.17006600  1
  Te  Te13  1  0.75283100  0.75283100  0.00000000  1
  Te  Te14  1  0.24716900  0.24716900  0.00000000  1
  Pb  Pb15  1  0.50000000  0.50000000  0.00000000  1
