# generated using pymatgen
data_V2PH8(NO4)2
_symmetry_space_group_name_H-M   'P 1'
_cell_length_a   5.75596023
_cell_length_b   8.73117000
_cell_length_c   8.72064709
_cell_angle_alpha   89.99582313
_cell_angle_beta   90.39959164
_cell_angle_gamma   89.70300117
_symmetry_Int_Tables_number   1
_chemical_formula_structural   V2PH8(NO4)2
_chemical_formula_sum   'V4 P2 H16 N4 O16'
_cell_volume   438.25062182
_cell_formula_units_Z   2
loop_
 _symmetry_equiv_pos_site_id
 _symmetry_equiv_pos_as_xyz
  1  'x, y, z'
loop_
 _atom_site_type_symbol
 _atom_site_label
 _atom_site_symmetry_multiplicity
 _atom_site_fract_x
 _atom_site_fract_y
 _atom_site_fract_z
 _atom_site_occupancy
  V  V0  1  0.00478100  0.00848900  0.99586800  1
  V  V1  1  0.00845400  0.49062000  0.49542100  1
  V  V2  1  0.00949600  0.87114300  0.37152300  1
  V  V3  1  0.00950900  0.62820800  0.87076100  1
  P  P4  1  0.01672100  0.13519800  0.63587600  1
  P  P5  1  0.01666600  0.36336000  0.13456100  1
  H  H6  1  0.56704300  0.56683900  0.21691800  1
  H  H7  1  0.55859600  0.42836500  0.78188100  1
  H  H8  1  0.56215300  0.78487700  0.56890300  1
  H  H9  1  0.56321100  0.21956500  0.43055700  1
  H  H10  1  0.43732300  0.73996100  0.24587800  1
  H  H11  1  0.42767700  0.25562500  0.75493000  1
  H  H12  1  0.43766100  0.75726300  0.74192700  1
  H  H13  1  0.42708700  0.24794800  0.25730600  1
  H  H14  1  0.43253800  0.65387500  0.06794900  1
  H  H15  1  0.42884900  0.34267300  0.93276300  1
  H  H16  1  0.42758100  0.93525700  0.65527000  1
  H  H17  1  0.43346000  0.07049300  0.34391100  1
  H  H18  1  0.67963500  0.72769800  0.14086200  1
  H  H19  1  0.67671500  0.26937600  0.85773400  1
  H  H20  1  0.67896100  0.86281000  0.72833600  1
  H  H21  1  0.67711300  0.14577600  0.26956900  1
  N  N22  1  0.52873700  0.67097300  0.16783700  1
  N  N23  1  0.52244100  0.32491000  0.83224300  1
  N  N24  1  0.52604300  0.83548700  0.67244400  1
  N  N25  1  0.52494800  0.17094000  0.32622000  1
  O  O26  1  0.30028400  0.86788900  0.36347900  1
  O  O27  1  0.28024300  0.12763500  0.63704700  1
  O  O28  1  0.30036500  0.63581600  0.86876200  1
  O  O29  1  0.28016100  0.36291300  0.12936900  1
  O  O30  1  0.29207200  0.49600100  0.49857100  1
  O  O31  1  0.91753500  0.00934100  0.51874300  1
  O  O32  1  0.91763600  0.48916300  0.01658300  1
  O  O33  1  0.89747200  0.69357700  0.41750300  1
  O  O34  1  0.91052500  0.28821200  0.58036600  1
  O  O35  1  0.89631300  0.57046700  0.69649300  1
  O  O36  1  0.91105700  0.40797500  0.29082900  1
  O  O37  1  0.28774100  0.00293200  0.99873700  1
  O  O38  1  0.89203200  0.92642800  0.19596800  1
  O  O39  1  0.90462600  0.09575000  0.79238200  1
  O  O40  1  0.89350200  0.80754500  0.91404600  1
  O  O41  1  0.90343300  0.21062700  0.08367500  1
