# generated using pymatgen
data_TiNbCrO6
_symmetry_space_group_name_H-M   'P 1'
_cell_length_a   4.70436200
_cell_length_b   9.40811500
_cell_length_c   9.08635200
_cell_angle_alpha   89.99991954
_cell_angle_beta   90.00079917
_cell_angle_gamma   89.99834965
_symmetry_Int_Tables_number   1
_chemical_formula_structural   TiNbCrO6
_chemical_formula_sum   'Ti4 Nb4 Cr4 O24'
_cell_volume   402.15447677
_cell_formula_units_Z   4
loop_
 _symmetry_equiv_pos_site_id
 _symmetry_equiv_pos_as_xyz
  1  'x, y, z'
loop_
 _atom_site_type_symbol
 _atom_site_label
 _atom_site_symmetry_multiplicity
 _atom_site_fract_x
 _atom_site_fract_y
 _atom_site_fract_z
 _atom_site_occupancy
  Ti  Ti0  1  0.49998500  0.25001100  0.49817100  1
  Ti  Ti1  1  0.49998200  0.75000800  0.49816900  1
  Ti  Ti2  1  0.99998100  0.99999200  0.99815600  1
  Ti  Ti3  1  0.99997400  0.49998700  0.99815500  1
  Nb  Nb4  1  0.49999400  0.25000500  0.83430400  1
  Nb  Nb5  1  0.49998500  0.75001200  0.83430700  1
  Nb  Nb6  1  0.99999200  0.99999400  0.33428700  1
  Nb  Nb7  1  0.99998900  0.49998700  0.33428800  1
  Cr  Cr8  1  0.50000300  0.74999500  0.16721100  1
  Cr  Cr9  1  0.00000900  0.50001000  0.66721600  1
  Cr  Cr10  1  0.49998200  0.24998700  0.16721600  1
  Cr  Cr11  1  0.99999500  0.00001000  0.66720400  1
  O  O12  1  0.19425200  0.40264800  0.16490500  1
  O  O13  1  0.19425600  0.90265000  0.16490500  1
  O  O14  1  0.80575000  0.09735300  0.16490000  1
  O  O15  1  0.80574600  0.59735200  0.16490000  1
  O  O16  1  0.30580000  0.15291000  0.66484100  1
  O  O17  1  0.30579800  0.65291300  0.66484300  1
  O  O18  1  0.69420500  0.34708600  0.66484600  1
  O  O19  1  0.69420100  0.84708700  0.66484700  1
  O  O20  1  0.20035800  0.40026800  0.49810800  1
  O  O21  1  0.20036200  0.90026800  0.49810600  1
  O  O22  1  0.79965600  0.09972200  0.49810900  1
  O  O23  1  0.79965700  0.59972300  0.49811000  1
  O  O24  1  0.30047900  0.15023900  0.99813700  1
  O  O25  1  0.30048300  0.65024000  0.99813800  1
  O  O26  1  0.69953900  0.34977100  0.99813500  1
  O  O27  1  0.69953800  0.84977200  0.99813600  1
  O  O28  1  0.19361300  0.40312000  0.83722700  1
  O  O29  1  0.19361400  0.90312200  0.83722600  1
  O  O30  1  0.80640100  0.09687000  0.83722800  1
  O  O31  1  0.80639800  0.59687100  0.83722900  1
  O  O32  1  0.30611800  0.15319600  0.33711200  1
  O  O33  1  0.30612500  0.65319700  0.33711100  1
  O  O34  1  0.69389000  0.34681100  0.33710800  1
  O  O35  1  0.69389200  0.84681300  0.33710900  1
