# generated using pymatgen
data_Sr(BN)2
_symmetry_space_group_name_H-M   'P 1'
_cell_length_a   4.01983681
_cell_length_b   4.01983681
_cell_length_c   6.70335424
_cell_angle_alpha   80.74421791
_cell_angle_beta   80.74421791
_cell_angle_gamma   61.13184016
_symmetry_Int_Tables_number   1
_chemical_formula_structural   Sr(BN)2
_chemical_formula_sum   'Sr1 B2 N2'
_cell_volume   93.18977414
_cell_formula_units_Z   1
loop_
 _symmetry_equiv_pos_site_id
 _symmetry_equiv_pos_as_xyz
  1  'x, y, z'
loop_
 _atom_site_type_symbol
 _atom_site_label
 _atom_site_symmetry_multiplicity
 _atom_site_fract_x
 _atom_site_fract_y
 _atom_site_fract_z
 _atom_site_occupancy
  Sr  Sr0  1  0.50000000  0.50000000  0.00000000  1
  B  B1  1  0.94625900  0.94625900  0.61829900  1
  B  B2  1  0.05374100  0.05374100  0.38170100  1
  N  N3  1  0.86654700  0.86654700  0.80621000  1
  N  N4  1  0.13345300  0.13345300  0.19379000  1
