# generated using pymatgen
data_TmTaTiO6
_symmetry_space_group_name_H-M   'P 1'
_cell_length_a   14.63997500
_cell_length_b   5.20077900
_cell_length_c   5.59296844
_cell_angle_alpha   89.65833167
_cell_angle_beta   90.00000000
_cell_angle_gamma   90.00000000
_symmetry_Int_Tables_number   1
_chemical_formula_structural   TmTaTiO6
_chemical_formula_sum   'Tm4 Ta4 Ti4 O24'
_cell_volume   425.83698826
_cell_formula_units_Z   4
loop_
 _symmetry_equiv_pos_site_id
 _symmetry_equiv_pos_as_xyz
  1  'x, y, z'
loop_
 _atom_site_type_symbol
 _atom_site_label
 _atom_site_symmetry_multiplicity
 _atom_site_fract_x
 _atom_site_fract_y
 _atom_site_fract_z
 _atom_site_occupancy
  Tm  Tm0  1  0.00022900  0.74657400  0.77066400  1
  Tm  Tm1  1  0.50022900  0.25342600  0.72933600  1
  Tm  Tm2  1  0.99977100  0.25342600  0.22933600  1
  Tm  Tm3  1  0.49977100  0.74657400  0.27066400  1
  Ta  Ta4  1  0.33220500  0.82313600  0.82303000  1
  Ta  Ta5  1  0.83220500  0.17686400  0.67697000  1
  Ta  Ta6  1  0.66779500  0.17686400  0.17697000  1
  Ta  Ta7  1  0.16779500  0.82313600  0.32303000  1
  Ti  Ti8  1  0.16419200  0.31858700  0.68607900  1
  Ti  Ti9  1  0.66419200  0.68141300  0.81392100  1
  Ti  Ti10  1  0.83580800  0.68141300  0.31392100  1
  Ti  Ti11  1  0.33580800  0.31858700  0.18607900  1
  O  O12  1  0.90845400  0.96836800  0.43148300  1
  O  O13  1  0.59119400  0.46955600  0.06504600  1
  O  O14  1  0.40845400  0.03163200  0.06851700  1
  O  O15  1  0.09119400  0.53044400  0.43495400  1
  O  O16  1  0.09154600  0.03163200  0.56851700  1
  O  O17  1  0.40880600  0.53044400  0.93495400  1
  O  O18  1  0.59154600  0.96836800  0.93148300  1
  O  O19  1  0.90880600  0.46955600  0.56504600  1
  O  O20  1  0.25904800  0.14775300  0.86030800  1
  O  O21  1  0.23888800  0.65153700  0.63417500  1
  O  O22  1  0.75904800  0.85224700  0.63969200  1
  O  O23  1  0.73888800  0.34846300  0.86582500  1
  O  O24  1  0.74095200  0.85224700  0.13969200  1
  O  O25  1  0.76111200  0.34846300  0.36582500  1
  O  O26  1  0.24095200  0.14775300  0.36030800  1
  O  O27  1  0.26111200  0.65153700  0.13417500  1
  O  O28  1  0.08488300  0.41967600  0.90850400  1
  O  O29  1  0.41647200  0.91998400  0.58868100  1
  O  O30  1  0.58488300  0.58032400  0.59149600  1
  O  O31  1  0.91647200  0.08001600  0.91131900  1
  O  O32  1  0.91511700  0.58032400  0.09149600  1
  O  O33  1  0.58352800  0.08001600  0.41131900  1
  O  O34  1  0.41511700  0.41967600  0.40850400  1
  O  O35  1  0.08352800  0.91998400  0.08868100  1
