# generated using pymatgen
data_Tl6Si2O7
_symmetry_space_group_name_H-M   'P 1'
_cell_length_a   9.44360763
_cell_length_b   9.44360763
_cell_length_c   4.88120800
_cell_angle_alpha   90.00000000
_cell_angle_beta   90.00000000
_cell_angle_gamma   119.99999738
_symmetry_Int_Tables_number   1
_chemical_formula_structural   Tl6Si2O7
_chemical_formula_sum   'Tl6 Si2 O7'
_cell_volume   376.99346847
_cell_formula_units_Z   1
loop_
 _symmetry_equiv_pos_site_id
 _symmetry_equiv_pos_as_xyz
  1  'x, y, z'
loop_
 _atom_site_type_symbol
 _atom_site_label
 _atom_site_symmetry_multiplicity
 _atom_site_fract_x
 _atom_site_fract_y
 _atom_site_fract_z
 _atom_site_occupancy
  Tl  Tl0  1  0.29178700  0.31661600  0.74257300  1
  Tl  Tl1  1  0.68338400  0.97517200  0.74257300  1
  Tl  Tl2  1  0.02482800  0.70821300  0.74257300  1
  Tl  Tl3  1  0.42523200  0.06026500  0.20569000  1
  Tl  Tl4  1  0.93973500  0.36496700  0.20569000  1
  Tl  Tl5  1  0.63503300  0.57476800  0.20569000  1
  Si  Si6  1  0.00000000  0.00000000  0.23341100  1
  Si  Si7  1  0.66666700  0.33333300  0.67041500  1
  O  O8  1  0.86381700  0.05295900  0.23218200  1
  O  O9  1  0.94704100  0.81085800  0.23218200  1
  O  O10  1  0.18914200  0.13618300  0.23218200  1
  O  O11  1  0.78585100  0.26084300  0.77027700  1
  O  O12  1  0.73915700  0.52500800  0.77027700  1
  O  O13  1  0.47499200  0.21414900  0.77027700  1
  O  O14  1  0.66666700  0.33333300  0.32995700  1
