# generated using pymatgen
data_UGeAu
_symmetry_space_group_name_H-M   'P 1'
_cell_length_a   5.71118094
_cell_length_b   5.71118094
_cell_length_c   6.82093263
_cell_angle_alpha   54.80325991
_cell_angle_beta   54.80325991
_cell_angle_gamma   46.18127905
_symmetry_Int_Tables_number   1
_chemical_formula_structural   UGeAu
_chemical_formula_sum   'U2 Ge2 Au2'
_cell_volume   125.10855756
_cell_formula_units_Z   2
loop_
 _symmetry_equiv_pos_site_id
 _symmetry_equiv_pos_as_xyz
  1  'x, y, z'
loop_
 _atom_site_type_symbol
 _atom_site_label
 _atom_site_symmetry_multiplicity
 _atom_site_fract_x
 _atom_site_fract_y
 _atom_site_fract_z
 _atom_site_occupancy
  U  U0  1  0.45444900  0.45444900  0.79746000  1
  U  U1  1  0.54555100  0.54555100  0.20254000  1
  Ge  Ge2  1  0.15890900  0.15890900  0.81218700  1
  Ge  Ge3  1  0.84109100  0.84109100  0.18781300  1
  Au  Au4  1  0.83406300  0.83406300  0.60387800  1
  Au  Au5  1  0.16593700  0.16593700  0.39612200  1
