# generated using pymatgen
data_U3TiS6
_symmetry_space_group_name_H-M   'P 1'
_cell_length_a   3.70045400
_cell_length_b   10.32417100
_cell_length_c   10.49471300
_cell_angle_alpha   90.00000000
_cell_angle_beta   90.00000000
_cell_angle_gamma   90.00000000
_symmetry_Int_Tables_number   1
_chemical_formula_structural   U3TiS6
_chemical_formula_sum   'U6 Ti2 S12'
_cell_volume   400.94127349
_cell_formula_units_Z   2
loop_
 _symmetry_equiv_pos_site_id
 _symmetry_equiv_pos_as_xyz
  1  'x, y, z'
loop_
 _atom_site_type_symbol
 _atom_site_label
 _atom_site_symmetry_multiplicity
 _atom_site_fract_x
 _atom_site_fract_y
 _atom_site_fract_z
 _atom_site_occupancy
  U  U0  1  0.00000000  0.31598600  0.25753400  1
  U  U1  1  0.00000000  0.81598600  0.74246600  1
  U  U2  1  0.00000000  0.48384200  0.92596200  1
  U  U3  1  0.00000000  0.98384200  0.07403800  1
  U  U4  1  0.50000000  0.51554300  0.56247200  1
  U  U5  1  0.50000000  0.01554300  0.43752800  1
  Ti  Ti6  1  0.50000000  0.67369700  0.21872700  1
  Ti  Ti7  1  0.50000000  0.17369700  0.78127300  1
  S  S8  1  0.00000000  0.71879200  0.05531000  1
  S  S9  1  0.00000000  0.21879200  0.94469000  1
  S  S10  1  0.50000000  0.28102900  0.44763100  1
  S  S11  1  0.50000000  0.78102900  0.55236900  1
  S  S12  1  0.50000000  0.62795700  0.80533000  1
  S  S13  1  0.50000000  0.12795700  0.19467000  1
  S  S14  1  0.00000000  0.36905500  0.69286700  1
  S  S15  1  0.00000000  0.86905500  0.30713300  1
  S  S16  1  0.00000000  0.56301900  0.36747100  1
  S  S17  1  0.00000000  0.06301900  0.63252900  1
  S  S18  1  0.50000000  0.45108200  0.11692300  1
  S  S19  1  0.50000000  0.95108200  0.88307700  1
