# generated using pymatgen
data_TiNbHO5
_symmetry_space_group_name_H-M   'P 1'
_cell_length_a   3.81773800
_cell_length_b   6.58120100
_cell_length_c   16.93368400
_cell_angle_alpha   90.00000000
_cell_angle_beta   90.00000000
_cell_angle_gamma   90.00000000
_symmetry_Int_Tables_number   1
_chemical_formula_structural   TiNbHO5
_chemical_formula_sum   'Ti4 Nb4 H4 O20'
_cell_volume   425.46390997
_cell_formula_units_Z   4
loop_
 _symmetry_equiv_pos_site_id
 _symmetry_equiv_pos_as_xyz
  1  'x, y, z'
loop_
 _atom_site_type_symbol
 _atom_site_label
 _atom_site_symmetry_multiplicity
 _atom_site_fract_x
 _atom_site_fract_y
 _atom_site_fract_z
 _atom_site_occupancy
  Ti  Ti0  1  0.25000000  0.31788200  0.96603600  1
  Ti  Ti1  1  0.25000000  0.81788200  0.53396400  1
  Ti  Ti2  1  0.75000000  0.68211800  0.03396400  1
  Ti  Ti3  1  0.75000000  0.18211800  0.46603600  1
  Nb  Nb4  1  0.25000000  0.79078200  0.87756500  1
  Nb  Nb5  1  0.25000000  0.29078200  0.62243500  1
  Nb  Nb6  1  0.75000000  0.20921800  0.12243500  1
  Nb  Nb7  1  0.75000000  0.70921800  0.37756500  1
  H  H8  1  0.25000000  0.40394200  0.81241600  1
  H  H9  1  0.25000000  0.90394200  0.68758400  1
  H  H10  1  0.75000000  0.59605800  0.18758400  1
  H  H11  1  0.75000000  0.09605800  0.31241600  1
  O  O12  1  0.25000000  0.46988000  0.86726600  1
  O  O13  1  0.25000000  0.96988000  0.63273400  1
  O  O14  1  0.75000000  0.53012000  0.13273400  1
  O  O15  1  0.75000000  0.03012000  0.36726600  1
  O  O16  1  0.25000000  0.07179400  0.92325000  1
  O  O17  1  0.25000000  0.57179400  0.57675000  1
  O  O18  1  0.75000000  0.92820600  0.07675000  1
  O  O19  1  0.75000000  0.42820600  0.42325000  1
  O  O20  1  0.25000000  0.63961100  0.00770700  1
  O  O21  1  0.25000000  0.13961100  0.49229300  1
  O  O22  1  0.75000000  0.36038900  0.99229300  1
  O  O23  1  0.75000000  0.86038900  0.50770700  1
  O  O24  1  0.25000000  0.83474800  0.77484000  1
  O  O25  1  0.25000000  0.33474800  0.72516000  1
  O  O26  1  0.75000000  0.16525200  0.22516000  1
  O  O27  1  0.75000000  0.66525200  0.27484000  1
  O  O28  1  0.25000000  0.23521300  0.08671600  1
  O  O29  1  0.25000000  0.73521300  0.41328400  1
  O  O30  1  0.75000000  0.76478700  0.91328400  1
  O  O31  1  0.75000000  0.26478700  0.58671600  1
