# generated using pymatgen
data_TmScGe
_symmetry_space_group_name_H-M   'P 1'
_cell_length_a   6.11750201
_cell_length_b   8.67726062
_cell_length_c   9.09550533
_cell_angle_alpha   58.39963408
_cell_angle_beta   90.00032653
_cell_angle_gamma   90.00560102
_symmetry_Int_Tables_number   1
_chemical_formula_structural   TmScGe
_chemical_formula_sum   'Tm6 Sc6 Ge6'
_cell_volume   411.22761149
_cell_formula_units_Z   6
loop_
 _symmetry_equiv_pos_site_id
 _symmetry_equiv_pos_as_xyz
  1  'x, y, z'
loop_
 _atom_site_type_symbol
 _atom_site_label
 _atom_site_symmetry_multiplicity
 _atom_site_fract_x
 _atom_site_fract_y
 _atom_site_fract_z
 _atom_site_occupancy
  Tm  Tm0  1  0.75001200  0.26193300  0.71195400  1
  Tm  Tm1  1  0.74995400  0.73789100  0.97418800  1
  Tm  Tm2  1  0.74998800  0.99988700  0.30031300  1
  Tm  Tm3  1  0.24993800  0.74145600  0.26314200  1
  Tm  Tm4  1  0.25003000  0.25851400  0.00444300  1
  Tm  Tm5  1  0.24999900  0.00000800  0.74628800  1
  Sc  Sc6  1  0.50104100  0.31291600  0.34517300  1
  Sc  Sc7  1  0.50087400  0.68719600  0.65783200  1
  Sc  Sc8  1  0.99915000  0.68721400  0.65781200  1
  Sc  Sc9  1  0.99904100  0.31294100  0.34516900  1
  Sc  Sc10  1  0.74994000  0.62332500  0.37059700  1
  Sc  Sc11  1  0.75010400  0.37649200  0.99406000  1
  Ge  Ge12  1  0.53953500  0.00011600  0.01935400  1
  Ge  Ge13  1  0.96047800  0.00013200  0.01932500  1
  Ge  Ge14  1  0.74998000  0.99990500  0.61238200  1
  Ge  Ge15  1  0.25002200  0.40147200  0.58806300  1
  Ge  Ge16  1  0.24992600  0.59851400  0.98934600  1
  Ge  Ge17  1  0.24998700  0.00008800  0.40056000  1
