# generated using pymatgen
data_UTeSe
_symmetry_space_group_name_H-M   'P 1'
_cell_length_a   5.25197300
_cell_length_b   6.01388800
_cell_length_c   9.38496000
_cell_angle_alpha   90.00000000
_cell_angle_beta   90.00000000
_cell_angle_gamma   90.00000000
_symmetry_Int_Tables_number   1
_chemical_formula_structural   UTeSe
_chemical_formula_sum   'U4 Te4 Se4'
_cell_volume   296.42187252
_cell_formula_units_Z   4
loop_
 _symmetry_equiv_pos_site_id
 _symmetry_equiv_pos_as_xyz
  1  'x, y, z'
loop_
 _atom_site_type_symbol
 _atom_site_label
 _atom_site_symmetry_multiplicity
 _atom_site_fract_x
 _atom_site_fract_y
 _atom_site_fract_z
 _atom_site_occupancy
  U  U0  1  0.25000000  0.26271700  0.90951400  1
  U  U1  1  0.25000000  0.76271700  0.59048600  1
  U  U2  1  0.75000000  0.73728300  0.09048600  1
  U  U3  1  0.75000000  0.23728300  0.40951400  1
  Te  Te4  1  0.25000000  0.98006300  0.26283000  1
  Te  Te5  1  0.25000000  0.48006300  0.23717000  1
  Te  Te6  1  0.75000000  0.01993700  0.73717000  1
  Te  Te7  1  0.75000000  0.51993700  0.76283000  1
  Se  Se8  1  0.25000000  0.76838400  0.92215400  1
  Se  Se9  1  0.25000000  0.26838400  0.57784600  1
  Se  Se10  1  0.75000000  0.23161600  0.07784600  1
  Se  Se11  1  0.75000000  0.73161600  0.42215400  1
