# generated using pymatgen
data_U2(PdAu)5
_symmetry_space_group_name_H-M   'P 1'
_cell_length_a   5.43585877
_cell_length_b   5.43585877
_cell_length_c   9.41404868
_cell_angle_alpha   73.47283737
_cell_angle_beta   73.47283737
_cell_angle_gamma   59.72774293
_symmetry_Int_Tables_number   1
_chemical_formula_structural   U2(PdAu)5
_chemical_formula_sum   'U2 Pd5 Au5'
_cell_volume   226.94703796
_cell_formula_units_Z   1
loop_
 _symmetry_equiv_pos_site_id
 _symmetry_equiv_pos_as_xyz
  1  'x, y, z'
loop_
 _atom_site_type_symbol
 _atom_site_label
 _atom_site_symmetry_multiplicity
 _atom_site_fract_x
 _atom_site_fract_y
 _atom_site_fract_z
 _atom_site_occupancy
  U  U0  1  0.00137600  0.00137600  0.00156500  1
  U  U1  1  0.50199100  0.50199100  0.49956400  1
  Pd  Pd2  1  0.31236900  0.31236900  0.06222200  1
  Pd  Pd3  1  0.56197200  0.56197200  0.81285800  1
  Pd  Pd4  1  0.06275900  0.06275900  0.31204300  1
  Pd  Pd5  1  0.12460100  0.12460100  0.62458900  1
  Pd  Pd6  1  0.62424800  0.62424800  0.12564500  1
  Au  Au7  1  0.06197400  0.56203000  0.81396300  1
  Au  Au8  1  0.56074800  0.06384600  0.31022900  1
  Au  Au9  1  0.56203000  0.06197400  0.81396300  1
  Au  Au10  1  0.06384600  0.56074800  0.31022900  1
  Au  Au11  1  0.81208600  0.81208600  0.56312900  1
