# generated using pymatgen
data_Ti2C
_symmetry_space_group_name_H-M   'P 1'
_cell_length_a   5.13310304
_cell_length_b   5.13310304
_cell_length_c   5.13310342
_cell_angle_alpha   34.97848654
_cell_angle_beta   34.97848654
_cell_angle_gamma   34.97849265
_symmetry_Int_Tables_number   1
_chemical_formula_structural   Ti2C
_chemical_formula_sum   'Ti2 C1'
_cell_volume   39.68570815
_cell_formula_units_Z   1
loop_
 _symmetry_equiv_pos_site_id
 _symmetry_equiv_pos_as_xyz
  1  'x, y, z'
loop_
 _atom_site_type_symbol
 _atom_site_label
 _atom_site_symmetry_multiplicity
 _atom_site_fract_x
 _atom_site_fract_y
 _atom_site_fract_z
 _atom_site_occupancy
  Ti  Ti0  1  0.24590900  0.24590900  0.24590900  1
  Ti  Ti1  1  0.75409100  0.75409100  0.75409100  1
  C  C2  1  0.50000000  0.50000000  0.50000000  1
