# generated using pymatgen
data_Ti2CuS4
_symmetry_space_group_name_H-M   'P 1'
_cell_length_a   3.39479751
_cell_length_b   6.19391790
_cell_length_c   5.67336393
_cell_angle_alpha   91.03675955
_cell_angle_beta   89.99034070
_cell_angle_gamma   89.99204858
_symmetry_Int_Tables_number   1
_chemical_formula_structural   Ti2CuS4
_chemical_formula_sum   'Ti2 Cu1 S4'
_cell_volume   119.27484144
_cell_formula_units_Z   1
loop_
 _symmetry_equiv_pos_site_id
 _symmetry_equiv_pos_as_xyz
  1  'x, y, z'
loop_
 _atom_site_type_symbol
 _atom_site_label
 _atom_site_symmetry_multiplicity
 _atom_site_fract_x
 _atom_site_fract_y
 _atom_site_fract_z
 _atom_site_occupancy
  Ti  Ti0  1  0.50000000  0.50000000  0.50000000  1
  Ti  Ti1  1  0.00000000  0.00000000  0.00000000  1
  Cu  Cu2  1  0.00000000  0.00000000  0.50000000  1
  S  S3  1  0.50004800  0.16849800  0.75724300  1
  S  S4  1  0.99994200  0.66646700  0.74398900  1
  S  S5  1  0.00005800  0.33353300  0.25601100  1
  S  S6  1  0.49995200  0.83150200  0.24275700  1
