# generated using pymatgen
data_Ti3Bi6WO18
_symmetry_space_group_name_H-M   'P 1'
_cell_length_a   5.40779000
_cell_length_b   5.45382886
_cell_length_c   13.06682664
_cell_angle_alpha   90.40964054
_cell_angle_beta   101.78953406
_cell_angle_gamma   89.93185012
_symmetry_Int_Tables_number   1
_chemical_formula_structural   Ti3Bi6WO18
_chemical_formula_sum   'Ti3 Bi6 W1 O18'
_cell_volume   377.24262850
_cell_formula_units_Z   1
loop_
 _symmetry_equiv_pos_site_id
 _symmetry_equiv_pos_as_xyz
  1  'x, y, z'
loop_
 _atom_site_type_symbol
 _atom_site_label
 _atom_site_symmetry_multiplicity
 _atom_site_fract_x
 _atom_site_fract_y
 _atom_site_fract_z
 _atom_site_occupancy
  Ti  Ti0  1  0.33556800  0.95760000  0.17594600  1
  Ti  Ti1  1  0.15761000  0.95393800  0.82219600  1
  Ti  Ti2  1  0.66216200  0.44884000  0.81920700  1
  Bi  Bi3  1  0.57680100  0.99877000  0.60180600  1
  Bi  Bi4  1  0.98003600  0.98797900  0.39800200  1
  Bi  Bi5  1  0.43434600  0.49312500  0.39966800  1
  Bi  Bi6  1  0.03011400  0.49633600  0.60219400  1
  Bi  Bi7  1  0.24390300  0.50859500  0.98346300  1
  Bi  Bi8  1  0.72867800  0.99611000  0.98401700  1
  W  W9  1  0.83184300  0.44720400  0.17093300  1
  O  O10  1  0.74562700  0.72863800  0.49855900  1
  O  O11  1  0.24778100  0.72879300  0.50256300  1
  O  O12  1  0.25696700  0.23051800  0.50152900  1
  O  O13  1  0.75687100  0.23021400  0.49853900  1
  O  O14  1  0.36746000  0.63180000  0.83302900  1
  O  O15  1  0.54644500  0.63895200  0.17862100  1
  O  O16  1  0.63652900  0.14226700  0.17908600  1
  O  O17  1  0.46887300  0.13472200  0.83331700  1
  O  O18  1  0.32633300  0.91262200  0.00400100  1
  O  O19  1  0.68341000  0.41217800  0.01008400  1
  O  O20  1  0.90242200  0.71370200  0.86771500  1
  O  O21  1  0.02891300  0.71200700  0.13599300  1
  O  O22  1  0.10036200  0.21865600  0.13894400  1
  O  O23  1  0.96270300  0.21697400  0.86443300  1
  O  O24  1  0.33780000  0.93598900  0.31459200  1
  O  O25  1  0.03206300  0.94109400  0.68455900  1
  O  O26  1  0.64917900  0.44428100  0.68205500  1
  O  O27  1  0.96919900  0.44509900  0.31494600  1
