# generated using pymatgen
data_Ti5InS8
_symmetry_space_group_name_H-M   'P 1'
_cell_length_a   9.10581712
_cell_length_b   9.10581712
_cell_length_c   8.86014978
_cell_angle_alpha   76.02613494
_cell_angle_beta   76.02613494
_cell_angle_gamma   21.58340974
_symmetry_Int_Tables_number   1
_chemical_formula_structural   Ti5InS8
_chemical_formula_sum   'Ti5 In1 S8'
_cell_volume   261.95115700
_cell_formula_units_Z   1
loop_
 _symmetry_equiv_pos_site_id
 _symmetry_equiv_pos_as_xyz
  1  'x, y, z'
loop_
 _atom_site_type_symbol
 _atom_site_label
 _atom_site_symmetry_multiplicity
 _atom_site_fract_x
 _atom_site_fract_y
 _atom_site_fract_z
 _atom_site_occupancy
  Ti  Ti0  1  0.79314300  0.79314300  0.84756700  1
  Ti  Ti1  1  0.20752700  0.20752700  0.15291800  1
  Ti  Ti2  1  0.49952700  0.49952700  0.49886100  1
  Ti  Ti3  1  0.16021500  0.16021500  0.50536100  1
  Ti  Ti4  1  0.84112800  0.84112800  0.49350100  1
  In  In5  1  0.01200100  0.01200100  0.97776300  1
  S  S6  1  0.25928300  0.25928300  0.66566900  1
  S  S7  1  0.74097800  0.74097800  0.33396300  1
  S  S8  1  0.92454300  0.92454300  0.66853900  1
  S  S9  1  0.07582700  0.07582700  0.33127700  1
  S  S10  1  0.58753700  0.58753700  0.67506000  1
  S  S11  1  0.41203000  0.41203000  0.32501400  1
  S  S12  1  0.66241500  0.66241500  0.00094400  1
  S  S13  1  0.33709700  0.33709700  0.99866400  1
