# generated using pymatgen
data_Zn7Cd2(PO4)6
_symmetry_space_group_name_H-M   'P 1'
_cell_length_a   5.99759402
_cell_length_b   27.33589316
_cell_length_c   11.59541324
_cell_angle_alpha   90.58364990
_cell_angle_beta   90.12236756
_cell_angle_gamma   86.17748865
_symmetry_Int_Tables_number   1
_chemical_formula_structural   Zn7Cd2(PO4)6
_chemical_formula_sum   'Zn28 Cd8 P24 O96'
_cell_volume   1896.73360845
_cell_formula_units_Z   4
loop_
 _symmetry_equiv_pos_site_id
 _symmetry_equiv_pos_as_xyz
  1  'x, y, z'
loop_
 _atom_site_type_symbol
 _atom_site_label
 _atom_site_symmetry_multiplicity
 _atom_site_fract_x
 _atom_site_fract_y
 _atom_site_fract_z
 _atom_site_occupancy
  Zn  Zn0  1  0.49585947  0.12416217  0.30319252  1
  Zn  Zn1  1  0.16612451  0.45729360  0.30237639  1
  Zn  Zn2  1  0.83320822  0.79092351  0.30217096  1
  Zn  Zn3  1  0.66836071  0.20925943  0.80568098  1
  Zn  Zn4  1  0.33435393  0.54297047  0.80589427  1
  Zn  Zn5  1  0.00430355  0.87602095  0.80367854  1
  Zn  Zn6  1  0.16834012  0.20976169  0.69730375  1
  Zn  Zn7  1  0.83475326  0.54346286  0.69746584  1
  Zn  Zn8  1  0.50113815  0.87699625  0.69641872  1
  Zn  Zn9  1  0.99732417  0.12255146  0.19606327  1
  Zn  Zn10  1  0.66947315  0.45645851  0.19347510  1
  Zn  Zn11  1  0.33654982  0.79029536  0.19299936  1
  Zn  Zn12  1  0.59186481  0.22799248  0.44821230  1
  Zn  Zn13  1  0.25872763  0.56206218  0.44674930  1
  Zn  Zn14  1  0.92590129  0.89613259  0.44865580  1
  Zn  Zn15  1  0.57364440  0.10381066  0.94969209  1
  Zn  Zn16  1  0.24101011  0.43687422  0.94902065  1
  Zn  Zn17  1  0.90741717  0.77027485  0.94881367  1
  Zn  Zn18  1  0.07464286  0.09999930  0.55306470  1
  Zn  Zn19  1  0.74076943  0.43564837  0.54788566  1
  Zn  Zn20  1  0.40794921  0.76890190  0.54772033  1
  Zn  Zn21  1  0.09248757  0.23141534  0.05850897  1
  Zn  Zn22  1  0.75811855  0.56522602  0.05851101  1
  Zn  Zn23  1  0.42485970  0.90094561  0.05258908  1
  Zn  Zn24  1  0.54740151  0.31262882  0.11699406  1
  Zn  Zn25  1  0.21389632  0.64600720  0.11706184  1
  Zn  Zn26  1  0.87838429  0.97939162  0.11716509  1
  Zn  Zn27  1  0.62427506  0.01949177  0.61745760  1
  Cd  Cd28  1  0.32687191  0.35109373  0.62198336  1
  Cd  Cd29  1  0.99354291  0.68445003  0.62197042  1
  Cd  Cd30  1  0.15123216  0.01854325  0.88004534  1
  Cd  Cd31  1  0.82395398  0.35171529  0.88013110  1
  Cd  Cd32  1  0.49033496  0.68526259  0.88025743  1
  Cd  Cd33  1  0.00969834  0.31479677  0.37689102  1
  Cd  Cd34  1  0.67636086  0.64843945  0.37684946  1
  Cd  Cd35  1  0.34823968  0.98147572  0.37913197  1
  P  P36  1  0.85950120  0.03519486  0.36270026  1
  P  P37  1  0.52542717  0.36917276  0.35662088  1
  P  P38  1  0.19206635  0.70268633  0.35624796  1
  P  P39  1  0.30173967  0.29700933  0.87079607  1
  P  P40  1  0.96811146  0.63068994  0.87096235  1
  P  P41  1  0.63992841  0.96506529  0.86287218  1
  P  P42  1  0.80448622  0.29643802  0.63573476  1
  P  P43  1  0.47118887  0.62992226  0.63575837  1
  P  P44  1  0.13837911  0.96495765  0.63617220  1
  P  P45  1  0.36137454  0.03520100  0.13598136  1
  P  P46  1  0.03064190  0.36838825  0.13560170  1
  P  P47  1  0.69728965  0.70187840  0.13557332  1
  P  P48  1  0.60408526  0.20320440  0.09274638  1
  P  P49  1  0.26971727  0.53684293  0.09225088  1
  P  P50  1  0.93656682  0.87074990  0.09057326  1
  P  P51  1  0.56274799  0.12958504  0.59166166  1
  P  P52  1  0.22777855  0.46439871  0.59009224  1
  P  P53  1  0.89504042  0.79761317  0.58926243  1
  P  P54  1  0.06157763  0.13162868  0.91043525  1
  P  P55  1  0.72831375  0.46518721  0.90974780  1
  P  P56  1  0.39469589  0.79889843  0.90986185  1
  P  P57  1  0.10435878  0.20141530  0.41093853  1
  P  P58  1  0.77116824  0.53530719  0.40956881  1
  P  P59  1  0.43775505  0.86875892  0.40962326  1
  O  O60  1  0.57696763  0.15221612  0.46746705  1
  O  O61  1  0.24518061  0.48639215  0.46537069  1
  O  O62  1  0.91220466  0.81986185  0.46485037  1
  O  O63  1  0.58847069  0.18093540  0.96707033  1
  O  O64  1  0.25465117  0.51435821  0.96665001  1
  O  O65  1  0.92240551  0.84751852  0.96604838  1
  O  O66  1  0.08695185  0.17901061  0.53537871  1
  O  O67  1  0.75277697  0.51321276  0.53433641  1
  O  O68  1  0.41940666  0.84648076  0.53426744  1
  O  O69  1  0.07946372  0.15394687  0.03616764  1
  O  O70  1  0.74595033  0.48745984  0.03564125  1
  O  O71  1  0.41231774  0.82160495  0.03524438  1
  O  O72  1  0.65909940  0.02661477  0.44316145  1
  O  O73  1  0.31547036  0.36099688  0.42895250  1
  O  O74  1  0.98226706  0.69449976  0.42866030  1
  O  O75  1  0.51032326  0.30490371  0.94672875  1
  O  O76  1  0.17672843  0.63851350  0.94684452  1
  O  O77  1  0.84113419  0.97376548  0.94328146  1
  O  O78  1  0.02114983  0.30448866  0.56847371  1
  O  O79  1  0.68795768  0.63788522  0.56850321  1
  O  O80  1  0.35985024  0.97399240  0.57130552  1
  O  O81  1  0.13885061  0.02605224  0.07153629  1
  O  O82  1  0.80806100  0.35987749  0.07035474  1
  O  O83  1  0.47463425  0.69338336  0.07043897  1
  O  O84  1  0.28214627  0.23963134  0.40543968  1
  O  O85  1  0.94881036  0.57345660  0.40431894  1
  O  O86  1  0.61559191  0.90687138  0.40504798  1
  O  O87  1  0.88309291  0.09356465  0.90454663  1
  O  O88  1  0.55078135  0.42681349  0.90359156  1
  O  O89  1  0.21752543  0.76041717  0.90386398  1
  O  O90  1  0.38663405  0.09059088  0.59660399  1
  O  O91  1  0.05034793  0.42599651  0.59481348  1
  O  O92  1  0.71751213  0.75919351  0.59404480  1
  O  O93  1  0.78041474  0.24214979  0.09999675  1
  O  O94  1  0.44615117  0.57576774  0.09937081  1
  O  O95  1  0.11328842  0.90980645  0.09635253  1
  O  O96  1  0.38463738  0.23193495  0.12900611  1
  O  O97  1  0.05053597  0.56574409  0.12815077  1
  O  O98  1  0.71702748  0.90040160  0.12424627  1
  O  O99  1  0.78349448  0.10087505  0.62563298  1
  O  O100  1  0.45107586  0.43645663  0.62478380  1
  O  O101  1  0.11817540  0.76955272  0.62405113  1
  O  O102  1  0.28278505  0.10314990  0.87412096  1
  O  O103  1  0.95008114  0.43705512  0.87340880  1
  O  O104  1  0.61633882  0.77072382  0.87341418  1
  O  O105  1  0.88245040  0.22961577  0.37471108  1
  O  O106  1  0.54940516  0.56339219  0.37316303  1
  O  O107  1  0.21651488  0.89700776  0.37355832  1
  O  O108  1  0.66397105  0.15991675  0.17629410  1
  O  O109  1  0.32942140  0.49380957  0.17602350  1
  O  O110  1  0.99461027  0.82838358  0.17648862  1
  O  O111  1  0.50264447  0.17264872  0.67799157  1
  O  O112  1  0.16853806  0.50748407  0.67628229  1
  O  O113  1  0.83622280  0.84052502  0.67557535  1
  O  O114  1  0.00334954  0.17435409  0.82501732  1
  O  O115  1  0.66914084  0.50797518  0.82494255  1
  O  O116  1  0.33537050  0.84163107  0.82463352  1
  O  O117  1  0.16338405  0.15866814  0.32407930  1
  O  O118  1  0.83070370  0.49211672  0.32387775  1
  O  O119  1  0.49732911  0.82564911  0.32365680  1
  O  O120  1  0.78878482  0.08068888  0.28587018  1
  O  O121  1  0.46323803  0.41471966  0.27908495  1
  O  O122  1  0.13038284  0.74829354  0.27858020  1
  O  O123  1  0.37483948  0.25415841  0.78409888  1
  O  O124  1  0.04111838  0.58786176  0.78431656  1
  O  O125  1  0.71089511  0.91930864  0.78515886  1
  O  O126  1  0.86914330  0.25346494  0.72082574  1
  O  O127  1  0.53571862  0.58696915  0.72089103  1
  O  O128  1  0.20428657  0.92104780  0.71926033  1
  O  O129  1  0.29470249  0.07930028  0.22020698  1
  O  O130  1  0.96475955  0.41219943  0.22088793  1
  O  O131  1  0.63173906  0.74574473  0.22081677  1
  O  O132  1  0.06923016  0.04669221  0.43498650  1
  O  O133  1  0.72704649  0.38016151  0.43587917  1
  O  O134  1  0.39384965  0.71353744  0.43552366  1
  O  O135  1  0.09799255  0.28282188  0.94180762  1
  O  O136  1  0.76407053  0.61649686  0.94170400  1
  O  O137  1  0.43081457  0.95368330  0.93479253  1
  O  O138  1  0.60816953  0.28287045  0.55709788  1
  O  O139  1  0.27495415  0.61639005  0.55703086  1
  O  O140  1  0.94729648  0.95097568  0.55559254  1
  O  O141  1  0.55059655  0.04944716  0.05566786  1
  O  O142  1  0.22014623  0.38277246  0.05567228  1
  O  O143  1  0.88676484  0.71623652  0.05556369  1
  O  O144  1  0.60444151  0.32390691  0.28194049  1
  O  O145  1  0.27082145  0.65732354  0.28184101  1
  O  O146  1  0.92805844  0.99028106  0.28500861  1
  O  O147  1  0.57188413  0.00964421  0.78581892  1
  O  O148  1  0.22039563  0.34362301  0.80369318  1
  O  O149  1  0.88696126  0.67731178  0.80383987  1
  O  O150  1  0.04711325  0.01138480  0.70187867  1
  O  O151  1  0.71274418  0.34326177  0.70170607  1
  O  O152  1  0.37950337  0.67672255  0.70177428  1
  O  O153  1  0.12071479  0.32194350  0.19932371  1
  O  O154  1  0.78726064  0.65540858  0.19920268  1
  O  O155  1  0.45246908  0.98911293  0.20095448  1
