# generated using pymatgen
data_ThUH8(C2O5)4
_symmetry_space_group_name_H-M   'P 1'
_cell_length_a   6.97822259
_cell_length_b   6.97822259
_cell_length_c   9.61195300
_cell_angle_alpha   90.00000000
_cell_angle_beta   90.00000000
_cell_angle_gamma   103.06768934
_symmetry_Int_Tables_number   1
_chemical_formula_structural   ThUH8(C2O5)4
_chemical_formula_sum   'Th1 U1 H8 C8 O20'
_cell_volume   455.93867854
_cell_formula_units_Z   1
loop_
 _symmetry_equiv_pos_site_id
 _symmetry_equiv_pos_as_xyz
  1  'x, y, z'
loop_
 _atom_site_type_symbol
 _atom_site_label
 _atom_site_symmetry_multiplicity
 _atom_site_fract_x
 _atom_site_fract_y
 _atom_site_fract_z
 _atom_site_occupancy
  Th  Th0  1  0.00000000  0.00000000  0.00000000  1
  U  U1  1  0.50000000  0.50000000  0.50000000  1
  H  H2  1  0.86143000  0.28998700  0.45271000  1
  H  H3  1  0.13857000  0.71001300  0.45271000  1
  H  H4  1  0.28998700  0.86143000  0.54729000  1
  H  H5  1  0.71001300  0.13857000  0.54729000  1
  H  H6  1  0.63684100  0.21110100  0.04712500  1
  H  H7  1  0.36315900  0.78889900  0.04712500  1
  H  H8  1  0.21110100  0.63684100  0.95287500  1
  H  H9  1  0.78889900  0.36315900  0.95287500  1
  C  C10  1  0.65285400  0.76457300  0.21866200  1
  C  C11  1  0.34714600  0.23542700  0.21866200  1
  C  C12  1  0.76457300  0.65285400  0.78133800  1
  C  C13  1  0.23542700  0.34714600  0.78133800  1
  C  C14  1  0.84391400  0.73285000  0.28375900  1
  C  C15  1  0.15608600  0.26715000  0.28375900  1
  C  C16  1  0.73285000  0.84391400  0.71624100  1
  C  C17  1  0.26715000  0.15608600  0.71624100  1
  O  O18  1  0.82666600  0.63818500  0.39815100  1
  O  O19  1  0.17333400  0.36181500  0.39815100  1
  O  O20  1  0.63818500  0.82666600  0.60184900  1
  O  O21  1  0.36181500  0.17333400  0.60184900  1
  O  O22  1  0.66597200  0.85714200  0.10374600  1
  O  O23  1  0.33402800  0.14285800  0.10374600  1
  O  O24  1  0.85714200  0.66597200  0.89625400  1
  O  O25  1  0.14285800  0.33402800  0.89625400  1
  O  O26  1  0.73406500  0.26593500  0.50000000  1
  O  O27  1  0.26593500  0.73406500  0.50000000  1
  O  O28  1  0.76464700  0.23535300  0.00000000  1
  O  O29  1  0.23535300  0.76464700  0.00000000  1
  O  O30  1  0.49668600  0.69491100  0.28469500  1
  O  O31  1  0.50331400  0.30508900  0.28469500  1
  O  O32  1  0.69491100  0.49668600  0.71530500  1
  O  O33  1  0.30508900  0.50331400  0.71530500  1
  O  O34  1  0.00178000  0.80216400  0.22014900  1
  O  O35  1  0.99822000  0.19783600  0.22014900  1
  O  O36  1  0.80216400  0.00178000  0.77985100  1
  O  O37  1  0.19783600  0.99822000  0.77985100  1
