# generated using pymatgen
data_TbZnAgAs2
_symmetry_space_group_name_H-M   'P 1'
_cell_length_a   4.26512336
_cell_length_b   4.26512336
_cell_length_c   6.89136900
_cell_angle_alpha   90.00000000
_cell_angle_beta   90.00000000
_cell_angle_gamma   119.99999014
_symmetry_Int_Tables_number   1
_chemical_formula_structural   TbZnAgAs2
_chemical_formula_sum   'Tb1 Zn1 Ag1 As2'
_cell_volume   108.56738420
_cell_formula_units_Z   1
loop_
 _symmetry_equiv_pos_site_id
 _symmetry_equiv_pos_as_xyz
  1  'x, y, z'
loop_
 _atom_site_type_symbol
 _atom_site_label
 _atom_site_symmetry_multiplicity
 _atom_site_fract_x
 _atom_site_fract_y
 _atom_site_fract_z
 _atom_site_occupancy
  Tb  Tb0  1  0.33333300  0.66666700  0.98412100  1
  Zn  Zn1  1  0.00000000  0.00000000  0.37656200  1
  Ag  Ag2  1  0.66666700  0.33333300  0.63358500  1
  As  As3  1  0.66666700  0.33333300  0.24032300  1
  As  As4  1  0.00000000  0.00000000  0.76540900  1
