# generated using pymatgen
data_Ti10CuSn6
_symmetry_space_group_name_H-M   'P 1'
_cell_length_a   8.15994418
_cell_length_b   8.15994418
_cell_length_c   5.50324500
_cell_angle_alpha   90.00000000
_cell_angle_beta   90.00000000
_cell_angle_gamma   120.00000142
_symmetry_Int_Tables_number   1
_chemical_formula_structural   Ti10CuSn6
_chemical_formula_sum   'Ti10 Cu1 Sn6'
_cell_volume   317.33929195
_cell_formula_units_Z   1
loop_
 _symmetry_equiv_pos_site_id
 _symmetry_equiv_pos_as_xyz
  1  'x, y, z'
loop_
 _atom_site_type_symbol
 _atom_site_label
 _atom_site_symmetry_multiplicity
 _atom_site_fract_x
 _atom_site_fract_y
 _atom_site_fract_z
 _atom_site_occupancy
  Ti  Ti0  1  0.66666700  0.33333300  0.50000000  1
  Ti  Ti1  1  0.33333300  0.66666700  0.50000000  1
  Ti  Ti2  1  0.33333300  0.66666700  0.00000000  1
  Ti  Ti3  1  0.66666700  0.33333300  0.00000000  1
  Ti  Ti4  1  0.73770000  0.73770000  0.24048900  1
  Ti  Ti5  1  0.26230000  0.00000000  0.24048900  1
  Ti  Ti6  1  0.00000000  0.26230000  0.24048900  1
  Ti  Ti7  1  0.26230000  0.26230000  0.75951100  1
  Ti  Ti8  1  0.73770000  0.00000000  0.75951100  1
  Ti  Ti9  1  0.00000000  0.73770000  0.75951100  1
  Cu  Cu10  1  0.00000000  0.00000000  0.50000000  1
  Sn  Sn11  1  0.38558100  0.38558100  0.25474000  1
  Sn  Sn12  1  0.61441900  0.00000000  0.25474000  1
  Sn  Sn13  1  0.00000000  0.61441900  0.25474000  1
  Sn  Sn14  1  0.61441900  0.61441900  0.74526000  1
  Sn  Sn15  1  0.38558100  0.00000000  0.74526000  1
  Sn  Sn16  1  0.00000000  0.38558100  0.74526000  1
