# generated using pymatgen
data_ThCo2Ni3
_symmetry_space_group_name_H-M   'P 1'
_cell_length_a   4.98926686
_cell_length_b   4.98926686
_cell_length_c   4.02136300
_cell_angle_alpha   90.00000000
_cell_angle_beta   90.00000000
_cell_angle_gamma   122.10563250
_symmetry_Int_Tables_number   1
_chemical_formula_structural   ThCo2Ni3
_chemical_formula_sum   'Th1 Co2 Ni3'
_cell_volume   84.79414801
_cell_formula_units_Z   1
loop_
 _symmetry_equiv_pos_site_id
 _symmetry_equiv_pos_as_xyz
  1  'x, y, z'
loop_
 _atom_site_type_symbol
 _atom_site_label
 _atom_site_symmetry_multiplicity
 _atom_site_fract_x
 _atom_site_fract_y
 _atom_site_fract_z
 _atom_site_occupancy
  Th  Th0  1  0.50000000  0.50000000  0.00000000  1
  Co  Co1  1  0.00000000  0.50000000  0.50000000  1
  Co  Co2  1  0.50000000  0.00000000  0.50000000  1
  Ni  Ni3  1  0.00000000  0.00000000  0.50000000  1
  Ni  Ni4  1  0.16818000  0.83182000  0.00000000  1
  Ni  Ni5  1  0.83182000  0.16818000  0.00000000  1
