# generated using pymatgen
data_ThV2PbO8
_symmetry_space_group_name_H-M   'P 1'
_cell_length_a   7.04286395
_cell_length_b   7.04286395
_cell_length_c   7.04286395
_cell_angle_alpha   136.10480199
_cell_angle_beta   136.10480199
_cell_angle_gamma   63.81835127
_symmetry_Int_Tables_number   1
_chemical_formula_structural   ThV2PbO8
_chemical_formula_sum   'Th1 V2 Pb1 O8'
_cell_volume   165.70662243
_cell_formula_units_Z   1
loop_
 _symmetry_equiv_pos_site_id
 _symmetry_equiv_pos_as_xyz
  1  'x, y, z'
loop_
 _atom_site_type_symbol
 _atom_site_label
 _atom_site_symmetry_multiplicity
 _atom_site_fract_x
 _atom_site_fract_y
 _atom_site_fract_z
 _atom_site_occupancy
  Th  Th0  1  0.50000000  0.50000000  0.00000000  1
  V  V1  1  0.25000000  0.75000000  0.50000000  1
  V  V2  1  0.00000000  0.00000000  0.00000000  1
  Pb  Pb3  1  0.75000000  0.25000000  0.50000000  1
  O  O4  1  0.21631300  0.58643100  0.13501500  1
  O  O5  1  0.45141600  0.08129800  0.86498500  1
  O  O6  1  0.32410400  0.92858400  0.10900400  1
  O  O7  1  0.81958000  0.21510000  0.89099600  1
  O  O8  1  0.07141600  0.18042000  0.39552000  1
  O  O9  1  0.78490000  0.67589600  0.60448000  1
  O  O10  1  0.91870200  0.78368700  0.37011800  1
  O  O11  1  0.41356900  0.54858400  0.62988200  1
