# generated using pymatgen
data_ThSiGe
_symmetry_space_group_name_H-M   'P 1'
_cell_length_a   4.11496500
_cell_length_b   4.05911300
_cell_length_c   8.41320617
_cell_angle_alpha   76.04058407
_cell_angle_beta   75.84452350
_cell_angle_gamma   90.00000000
_symmetry_Int_Tables_number   1
_chemical_formula_structural   ThSiGe
_chemical_formula_sum   'Th2 Si2 Ge2'
_cell_volume   131.97538139
_cell_formula_units_Z   2
loop_
 _symmetry_equiv_pos_site_id
 _symmetry_equiv_pos_as_xyz
  1  'x, y, z'
loop_
 _atom_site_type_symbol
 _atom_site_label
 _atom_site_symmetry_multiplicity
 _atom_site_fract_x
 _atom_site_fract_y
 _atom_site_fract_z
 _atom_site_occupancy
  Th  Th0  1  0.74320200  0.24320200  0.51359600  1
  Th  Th1  1  0.00679800  0.00679800  0.98640400  1
  Si  Si2  1  0.16214500  0.66214500  0.67570900  1
  Si  Si3  1  0.58785500  0.58785500  0.82429100  1
  Ge  Ge4  1  0.32326200  0.82326200  0.35347600  1
  Ge  Ge5  1  0.42673800  0.42673800  0.14652400  1
