# generated using pymatgen
data_ThNb4O12
_symmetry_space_group_name_H-M   'P 1'
_cell_length_a   5.57615400
_cell_length_b   5.60465800
_cell_length_c   7.90657800
_cell_angle_alpha   90.00000000
_cell_angle_beta   90.00000000
_cell_angle_gamma   90.00000000
_symmetry_Int_Tables_number   1
_chemical_formula_structural   ThNb4O12
_chemical_formula_sum   'Th1 Nb4 O12'
_cell_volume   247.09982391
_cell_formula_units_Z   1
loop_
 _symmetry_equiv_pos_site_id
 _symmetry_equiv_pos_as_xyz
  1  'x, y, z'
loop_
 _atom_site_type_symbol
 _atom_site_label
 _atom_site_symmetry_multiplicity
 _atom_site_fract_x
 _atom_site_fract_y
 _atom_site_fract_z
 _atom_site_occupancy
  Th  Th0  1  0.75670700  0.50000000  0.00000000  1
  Nb  Nb1  1  0.25540800  0.50000000  0.25900600  1
  Nb  Nb2  1  0.75488100  0.00000000  0.25883800  1
  Nb  Nb3  1  0.75488100  0.00000000  0.74116200  1
  Nb  Nb4  1  0.25540800  0.50000000  0.74099400  1
  O  O5  1  0.51322600  0.26705700  0.19759800  1
  O  O6  1  0.51322600  0.73294300  0.19759800  1
  O  O7  1  0.51322600  0.26705700  0.80240200  1
  O  O8  1  0.51322600  0.73294300  0.80240200  1
  O  O9  1  0.99156300  0.25748400  0.26376600  1
  O  O10  1  0.99156300  0.74251600  0.26376600  1
  O  O11  1  0.99156300  0.25748400  0.73623400  1
  O  O12  1  0.99156300  0.74251600  0.73623400  1
  O  O13  1  0.16770300  0.50000000  0.00000000  1
  O  O14  1  0.80262600  0.00000000  0.00000000  1
  O  O15  1  0.30995600  0.50000000  0.50000000  1
  O  O16  1  0.67957300  0.00000000  0.50000000  1
