data_image0
_chemical_formula_structural       Nb2S4Sn2
_chemical_formula_sum              "Nb2 S4 Sn2"
_cell_length_a       3.35153
_cell_length_b       3.35157
_cell_length_c       17.5144
_cell_angle_alpha    90
_cell_angle_beta     90
_cell_angle_gamma    120

_space_group_name_H-M_alt    "P 1"
_space_group_IT_number       1

loop_
  _space_group_symop_operation_xyz
  'x, y, z'

loop_
  _atom_site_type_symbol
  _atom_site_label
  _atom_site_symmetry_multiplicity
  _atom_site_fract_x
  _atom_site_fract_y
  _atom_site_fract_z
  _atom_site_occupancy
  Nb  Nb1       1.0  0.33300  0.66700  0.25000  1.0000
  Nb  Nb2       1.0  0.66700  0.33300  0.75000  1.0000
  S   S1        1.0  0.00000  0.00000  0.16100  1.0000
  S   S2        1.0  0.00000  0.00000  0.33900  1.0000
  S   S3        1.0  0.00002  0.00003  0.66100  1.0000
  S   S4        1.0  0.00002  0.00003  0.83900  1.0000
  Sn  Sn1       1.0  0.00000  0.00000  0.00000  1.0000
  Sn  Sn2       1.0  0.00000  0.00000  0.50000  1.0000
