# generated using pymatgen
data_V20Ga(GeS10)4
_symmetry_space_group_name_H-M   'P 1'
_cell_length_a   11.86013608
_cell_length_b   11.86013608
_cell_length_c   11.86013608
_cell_angle_alpha   99.61794910
_cell_angle_beta   99.61794910
_cell_angle_gamma   131.74716539
_symmetry_Int_Tables_number   1
_chemical_formula_structural   V20Ga(GeS10)4
_chemical_formula_sum   'V20 Ga1 Ge4 S40'
_cell_volume   1135.95907471
_cell_formula_units_Z   1
loop_
 _symmetry_equiv_pos_site_id
 _symmetry_equiv_pos_as_xyz
  1  'x, y, z'
loop_
 _atom_site_type_symbol
 _atom_site_label
 _atom_site_symmetry_multiplicity
 _atom_site_fract_x
 _atom_site_fract_y
 _atom_site_fract_z
 _atom_site_occupancy
  V  V0  1  0.96145500  0.88603500  0.64744400  1
  V  V1  1  0.35642300  0.07560400  0.23777400  1
  V  V2  1  0.56424200  0.68888400  0.04172200  1
  V  V3  1  0.15791000  0.48482600  0.43825700  1
  V  V4  1  0.76744100  0.29058800  0.84147200  1
  V  V5  1  0.88135200  0.64357700  0.71918100  1
  V  V6  1  0.28034600  0.84209000  0.32691500  1
  V  V7  1  0.47748000  0.43575800  0.12464100  1
  V  V8  1  0.07403000  0.23255800  0.52314600  1
  V  V9  1  0.68598900  0.03854500  0.92458000  1
  V  V10  1  0.70941200  0.55088400  0.47685400  1
  V  V11  1  0.11396500  0.76140900  0.07542000  1
  V  V12  1  0.31111600  0.35283800  0.87535900  1
  V  V13  1  0.92439600  0.16217100  0.28081900  1
  V  V14  1  0.51517400  0.95343100  0.67308500  1
  V  V15  1  0.04656900  0.71965400  0.56174300  1
  V  V16  1  0.44911600  0.92597000  0.15852800  1
  V  V17  1  0.64716200  0.52252000  0.95827800  1
  V  V18  1  0.23859100  0.31401100  0.35255600  1
  V  V19  1  0.83782900  0.11864800  0.76222600  1
  Ga  Ga20  1  0.00000000  0.00000000  0.00000000  1
  Ge  Ge21  1  0.19980200  0.59928100  0.80029700  1
  Ge  Ge22  1  0.40071900  0.20101600  0.60052100  1
  Ge  Ge23  1  0.60049500  0.80019800  0.39947900  1
  Ge  Ge24  1  0.79898400  0.39950500  0.19970300  1
  S  S25  1  0.82214000  0.46658000  0.54684900  1
  S  S26  1  0.22413400  0.67481700  0.14914700  1
  S  S27  1  0.42489300  0.26781600  0.94756100  1
  S  S28  1  0.02301900  0.06446800  0.34977500  1
  S  S29  1  0.61759300  0.86171800  0.74776200  1
  S  S30  1  0.92501400  0.77586600  0.45068300  1
  S  S31  1  0.32675600  0.97698100  0.04144900  1
  S  S32  1  0.52266800  0.57510700  0.84292200  1
  S  S33  1  0.13016800  0.38240700  0.24412500  1
  S  S34  1  0.72470900  0.17786000  0.64444000  1
  S  S35  1  0.13828200  0.88604400  0.75587500  1
  S  S36  1  0.53342000  0.08026900  0.35556000  1
  S  S37  1  0.73218400  0.67974600  0.15707800  1
  S  S38  1  0.32518300  0.47433000  0.54931700  1
  S  S39  1  0.93553200  0.28530700  0.95855100  1
  S  S40  1  0.71469300  0.67324400  0.65022500  1
  S  S41  1  0.11395600  0.86983200  0.25223800  1
  S  S42  1  0.32025400  0.47733200  0.05243900  1
  S  S43  1  0.91973100  0.27529100  0.45315100  1
  S  S44  1  0.52567000  0.07498600  0.85085300  1
  S  S45  1  0.72240900  0.15725700  0.14663700  1
  S  S46  1  0.91627600  0.75194300  0.94265000  1
  S  S47  1  0.11641200  0.35357300  0.74626000  1
  S  S48  1  0.31836200  0.95483500  0.54649200  1
  S  S49  1  0.51714500  0.55395700  0.34489300  1
  S  S50  1  0.62984800  0.88358800  0.23716100  1
  S  S51  1  0.82774700  0.48285500  0.03681200  1
  S  S52  1  0.02637300  0.08372400  0.83566700  1
  S  S53  1  0.22812900  0.68163800  0.63647300  1
  S  S54  1  0.42422800  0.27759100  0.43484800  1
  S  S55  1  0.44604300  0.79093500  0.96318800  1
  S  S56  1  0.64642700  0.39268700  0.76283900  1
  S  S57  1  0.84274300  0.98938000  0.56515200  1
  S  S58  1  0.04516500  0.59165700  0.36352700  1
  S  S59  1  0.24805700  0.19070600  0.16433300  1
  S  S60  1  0.80929400  0.97362700  0.05735000  1
  S  S61  1  0.01062000  0.57577200  0.85336300  1
  S  S62  1  0.20906500  0.17225300  0.65510700  1
  S  S63  1  0.40834300  0.77187100  0.45350800  1
  S  S64  1  0.60731300  0.37015200  0.25374000  1
