# generated using pymatgen
data_Th3(SbAs)2
_symmetry_space_group_name_H-M   'P 1'
_cell_length_a   7.94968539
_cell_length_b   7.94968539
_cell_length_c   7.94968539
_cell_angle_alpha   109.47122063
_cell_angle_beta   109.47122063
_cell_angle_gamma   109.47122063
_symmetry_Int_Tables_number   1
_chemical_formula_structural   Th3(SbAs)2
_chemical_formula_sum   'Th6 Sb4 As4'
_cell_volume   386.74787351
_cell_formula_units_Z   2
loop_
 _symmetry_equiv_pos_site_id
 _symmetry_equiv_pos_as_xyz
  1  'x, y, z'
loop_
 _atom_site_type_symbol
 _atom_site_label
 _atom_site_symmetry_multiplicity
 _atom_site_fract_x
 _atom_site_fract_y
 _atom_site_fract_z
 _atom_site_occupancy
  Th  Th0  1  0.75000000  0.39009300  0.64009300  1
  Th  Th1  1  0.25000000  0.10990700  0.85990700  1
  Th  Th2  1  0.10990700  0.85990700  0.25000000  1
  Th  Th3  1  0.39009300  0.64009300  0.75000000  1
  Th  Th4  1  0.64009300  0.75000000  0.39009300  1
  Th  Th5  1  0.85990700  0.25000000  0.10990700  1
  Sb  Sb6  1  0.17003400  0.50000000  0.00000000  1
  Sb  Sb7  1  0.32996600  0.32996600  0.32996600  1
  Sb  Sb8  1  0.00000000  0.17003400  0.50000000  1
  Sb  Sb9  1  0.50000000  0.00000000  0.17003400  1
  As  As10  1  0.84887100  0.84887100  0.84887100  1
  As  As11  1  0.65112900  0.50000000  0.00000000  1
  As  As12  1  0.00000000  0.65112900  0.50000000  1
  As  As13  1  0.50000000  0.00000000  0.65112900  1
