data_image0
_chemical_formula_structural       Ga2Se2
_chemical_formula_sum              "Ga2 Se2"
_cell_length_a       3.80664
_cell_length_b       3.80664
_cell_length_c       8.38684
_cell_angle_alpha    76.8829
_cell_angle_beta     103.117
_cell_angle_gamma    120

_space_group_name_H-M_alt    "P 1"
_space_group_IT_number       1

loop_
  _space_group_symop_operation_xyz
  'x, y, z'

loop_
  _atom_site_type_symbol
  _atom_site_label
  _atom_site_symmetry_multiplicity
  _atom_site_fract_x
  _atom_site_fract_y
  _atom_site_fract_z
  _atom_site_occupancy
  Ga  Ga1       1.0  0.05060  0.94900  0.15200  1.0000
  Ga  Ga2       1.0  0.94900  0.05100  0.84700  1.0000
  Se  Se1       1.0  0.43200  0.56800  0.29700  1.0000
  Se  Se2       1.0  0.23400  0.76600  0.70200  1.0000
