# generated using pymatgen
data_ThV2PbO8
_symmetry_space_group_name_H-M   'P 1'
_cell_length_a   6.88764000
_cell_length_b   7.09782494
_cell_length_c   7.38643932
_cell_angle_alpha   88.76074861
_cell_angle_beta   87.49814401
_cell_angle_gamma   75.79367062
_symmetry_Int_Tables_number   1
_chemical_formula_structural   ThV2PbO8
_chemical_formula_sum   'Th2 V4 Pb2 O16'
_cell_volume   349.70376098
_cell_formula_units_Z   2
loop_
 _symmetry_equiv_pos_site_id
 _symmetry_equiv_pos_as_xyz
  1  'x, y, z'
loop_
 _atom_site_type_symbol
 _atom_site_label
 _atom_site_symmetry_multiplicity
 _atom_site_fract_x
 _atom_site_fract_y
 _atom_site_fract_z
 _atom_site_occupancy
  Th  Th0  1  0.08532400  0.72606800  0.14410600  1
  Th  Th1  1  0.91467600  0.27393200  0.85589400  1
  V  V2  1  0.11467700  0.20351600  0.34010200  1
  V  V3  1  0.60814000  0.69853000  0.16087600  1
  V  V4  1  0.88532300  0.79648400  0.65989800  1
  V  V5  1  0.39186000  0.30147000  0.83912400  1
  Pb  Pb6  1  0.60229200  0.21258200  0.35479100  1
  Pb  Pb7  1  0.39770800  0.78741800  0.64520900  1
  O  O8  1  0.59778500  0.24272200  0.98180600  1
  O  O9  1  0.05345500  0.76712200  0.47089500  1
  O  O10  1  0.40221500  0.75727800  0.01819400  1
  O  O11  1  0.94654500  0.23287800  0.52910500  1
  O  O12  1  0.01497400  0.10954800  0.15207100  1
  O  O13  1  0.50692800  0.61997900  0.35203200  1
  O  O14  1  0.98502600  0.89045200  0.84792900  1
  O  O15  1  0.49307200  0.38002100  0.64796800  1
  O  O16  1  0.33119800  0.03420300  0.38926600  1
  O  O17  1  0.82232100  0.51800300  0.09095600  1
  O  O18  1  0.66880200  0.96579700  0.61073400  1
  O  O19  1  0.17767900  0.48199700  0.90904400  1
  O  O20  1  0.19533200  0.40954400  0.27953900  1
  O  O21  1  0.73911500  0.87427600  0.20313000  1
  O  O22  1  0.80466800  0.59045600  0.72046100  1
  O  O23  1  0.26088500  0.12572400  0.79687000  1
