# generated using pymatgen
data_Tb2HfAl9
_symmetry_space_group_name_H-M   'P 1'
_cell_length_a   4.21761500
_cell_length_b   4.21761500
_cell_length_c   12.61050100
_cell_angle_alpha   90.00000000
_cell_angle_beta   90.00000000
_cell_angle_gamma   90.00000000
_symmetry_Int_Tables_number   1
_chemical_formula_structural   Tb2HfAl9
_chemical_formula_sum   'Tb2 Hf1 Al9'
_cell_volume   224.31907592
_cell_formula_units_Z   1
loop_
 _symmetry_equiv_pos_site_id
 _symmetry_equiv_pos_as_xyz
  1  'x, y, z'
loop_
 _atom_site_type_symbol
 _atom_site_label
 _atom_site_symmetry_multiplicity
 _atom_site_fract_x
 _atom_site_fract_y
 _atom_site_fract_z
 _atom_site_occupancy
  Tb  Tb0  1  0.00000000  0.00000000  0.32857100  1
  Tb  Tb1  1  0.00000000  0.00000000  0.67142900  1
  Hf  Hf2  1  0.00000000  0.00000000  0.00000000  1
  Al  Al3  1  0.50000000  0.50000000  0.00000000  1
  Al  Al4  1  0.50000000  0.50000000  0.33220800  1
  Al  Al5  1  0.50000000  0.50000000  0.66779200  1
  Al  Al6  1  0.50000000  0.00000000  0.15792700  1
  Al  Al7  1  0.50000000  0.00000000  0.50000000  1
  Al  Al8  1  0.50000000  0.00000000  0.84207300  1
  Al  Al9  1  0.00000000  0.50000000  0.15792700  1
  Al  Al10  1  0.00000000  0.50000000  0.50000000  1
  Al  Al11  1  0.00000000  0.50000000  0.84207300  1
