# generated using pymatgen
data_Tb5Te9
_symmetry_space_group_name_H-M   'P 1'
_cell_length_a   9.66588700
_cell_length_b   9.66588700
_cell_length_c   18.11971800
_cell_angle_alpha   90.00000000
_cell_angle_beta   90.00000000
_cell_angle_gamma   90.00000000
_symmetry_Int_Tables_number   1
_chemical_formula_structural   Tb5Te9
_chemical_formula_sum   'Tb20 Te36'
_cell_volume   1692.91386444
_cell_formula_units_Z   4
loop_
 _symmetry_equiv_pos_site_id
 _symmetry_equiv_pos_as_xyz
  1  'x, y, z'
loop_
 _atom_site_type_symbol
 _atom_site_label
 _atom_site_symmetry_multiplicity
 _atom_site_fract_x
 _atom_site_fract_y
 _atom_site_fract_z
 _atom_site_occupancy
  Tb  Tb0  1  0.19892400  0.09644200  0.11789100  1
  Tb  Tb1  1  0.80107600  0.90355800  0.11789100  1
  Tb  Tb2  1  0.40571700  0.69830200  0.11632200  1
  Tb  Tb3  1  0.59428300  0.30169800  0.11632200  1
  Tb  Tb4  1  0.20292900  0.09192200  0.61436200  1
  Tb  Tb5  1  0.79707100  0.90807800  0.61436200  1
  Tb  Tb6  1  0.40073300  0.69818100  0.61131400  1
  Tb  Tb7  1  0.59926700  0.30181900  0.61131400  1
  Tb  Tb8  1  0.00000000  0.50000000  0.62712600  1
  Tb  Tb9  1  0.30181900  0.40073300  0.38868600  1
  Tb  Tb10  1  0.69818100  0.59926700  0.38868600  1
  Tb  Tb11  1  0.09192200  0.79707100  0.38563800  1
  Tb  Tb12  1  0.90807800  0.20292900  0.38563800  1
  Tb  Tb13  1  0.50000000  0.00000000  0.89502600  1
  Tb  Tb14  1  0.50000000  0.00000000  0.37287400  1
  Tb  Tb15  1  0.00000000  0.50000000  0.10497400  1
  Tb  Tb16  1  0.30169800  0.40571700  0.88367800  1
  Tb  Tb17  1  0.69830200  0.59428300  0.88367800  1
  Tb  Tb18  1  0.09644200  0.80107600  0.88210900  1
  Tb  Tb19  1  0.90355800  0.19892400  0.88210900  1
  Te  Te20  1  0.38286400  0.20786300  0.24886100  1
  Te  Te21  1  0.61713600  0.79213700  0.24886100  1
  Te  Te22  1  0.28372400  0.86696600  0.24942000  1
  Te  Te23  1  0.71627600  0.13303400  0.24942000  1
  Te  Te24  1  0.00000000  0.00000000  0.24743500  1
  Te  Te25  1  0.50000000  0.50000000  0.24876700  1
  Te  Te26  1  0.50000000  0.00000000  0.06941900  1
  Te  Te27  1  0.00000000  0.00000000  0.75256500  1
  Te  Te28  1  0.50000000  0.50000000  0.75123300  1
  Te  Te29  1  0.40141100  0.70165900  0.93652300  1
  Te  Te30  1  0.59858900  0.29834100  0.93652300  1
  Te  Te31  1  0.79811900  0.89895400  0.93620400  1
  Te  Te32  1  0.20188100  0.10104600  0.93620400  1
  Te  Te33  1  0.00000000  0.50000000  0.44784600  1
  Te  Te34  1  0.30068000  0.39626200  0.56665400  1
  Te  Te35  1  0.69932000  0.60373800  0.56665400  1
  Te  Te36  1  0.09993600  0.79937700  0.56498300  1
  Te  Te37  1  0.90006400  0.20062300  0.56498300  1
  Te  Te38  1  0.39626200  0.69932000  0.43334600  1
  Te  Te39  1  0.60373800  0.30068000  0.43334600  1
  Te  Te40  1  0.79937700  0.90006400  0.43501700  1
  Te  Te41  1  0.20062300  0.09993600  0.43501700  1
  Te  Te42  1  0.29834100  0.40141100  0.06347700  1
  Te  Te43  1  0.70165900  0.59858900  0.06347700  1
  Te  Te44  1  0.10104600  0.79811900  0.06379600  1
  Te  Te45  1  0.89895400  0.20188100  0.06379600  1
  Te  Te46  1  0.50000000  0.00000000  0.55215400  1
  Te  Te47  1  0.00000000  0.50000000  0.93058100  1
  Te  Te48  1  0.20786300  0.61713600  0.75113900  1
  Te  Te49  1  0.79213700  0.38286400  0.75113900  1
  Te  Te50  1  0.86696600  0.71627600  0.75058000  1
  Te  Te51  1  0.13303400  0.28372400  0.75058000  1
  Te  Te52  1  0.62454700  0.08317600  0.73945100  1
  Te  Te53  1  0.37545300  0.91682400  0.73945100  1
  Te  Te54  1  0.08317600  0.37545300  0.26054900  1
  Te  Te55  1  0.91682400  0.62454700  0.26054900  1
