# generated using pymatgen
data_Tb7Mg3Ge8
_symmetry_space_group_name_H-M   'P 1'
_cell_length_a   7.17971000
_cell_length_b   7.84535200
_cell_length_c   14.49944511
_cell_angle_alpha   89.99281997
_cell_angle_beta   90.00000000
_cell_angle_gamma   90.00000000
_symmetry_Int_Tables_number   1
_chemical_formula_structural   Tb7Mg3Ge8
_chemical_formula_sum   'Tb14 Mg6 Ge16'
_cell_volume   816.71534533
_cell_formula_units_Z   2
loop_
 _symmetry_equiv_pos_site_id
 _symmetry_equiv_pos_as_xyz
  1  'x, y, z'
loop_
 _atom_site_type_symbol
 _atom_site_label
 _atom_site_symmetry_multiplicity
 _atom_site_fract_x
 _atom_site_fract_y
 _atom_site_fract_z
 _atom_site_occupancy
  Tb  Tb0  1  0.49003400  0.93385800  0.65318900  1
  Tb  Tb1  1  0.99003400  0.06614200  0.34681100  1
  Tb  Tb2  1  0.51276000  0.56631400  0.15559100  1
  Tb  Tb3  1  0.01276000  0.43368600  0.84440900  1
  Tb  Tb4  1  0.51053600  0.56592200  0.84360200  1
  Tb  Tb5  1  0.01053600  0.43407800  0.15639800  1
  Tb  Tb6  1  0.48833700  0.93502900  0.34742600  1
  Tb  Tb7  1  0.98833700  0.06497100  0.65257400  1
  Tb  Tb8  1  0.67128100  0.07238100  0.12473800  1
  Tb  Tb9  1  0.17128100  0.92761900  0.87526200  1
  Tb  Tb10  1  0.67040700  0.07373300  0.87623600  1
  Tb  Tb11  1  0.17040700  0.92626700  0.12376400  1
  Tb  Tb12  1  0.32959200  0.43076900  0.37963200  1
  Tb  Tb13  1  0.82959200  0.56923100  0.62036800  1
  Mg  Mg14  1  0.15763300  0.76695400  0.49942300  1
  Mg  Mg15  1  0.65763300  0.23304600  0.50057700  1
  Mg  Mg16  1  0.84028500  0.73030500  0.99996500  1
  Mg  Mg17  1  0.34028500  0.26969500  0.00003500  1
  Mg  Mg18  1  0.32721400  0.42770200  0.62564300  1
  Mg  Mg19  1  0.82721400  0.57229800  0.37435700  1
  Ge  Ge20  1  0.28488400  0.11249400  0.49982600  1
  Ge  Ge21  1  0.78488400  0.88750600  0.50017400  1
  Ge  Ge22  1  0.71330600  0.38723800  0.99971300  1
  Ge  Ge23  1  0.21330600  0.61276200  0.00028700  1
  Ge  Ge24  1  0.52705600  0.65816100  0.49941600  1
  Ge  Ge25  1  0.02705600  0.34183900  0.50058400  1
  Ge  Ge26  1  0.47796400  0.83687500  0.99930700  1
  Ge  Ge27  1  0.97796400  0.16312500  0.00069300  1
  Ge  Ge28  1  0.33181500  0.21851400  0.78466700  1
  Ge  Ge29  1  0.83181500  0.78148600  0.21533300  1
  Ge  Ge30  1  0.67065600  0.28614800  0.28935400  1
  Ge  Ge31  1  0.17065600  0.71385200  0.71064600  1
  Ge  Ge32  1  0.66535300  0.28512200  0.71226400  1
  Ge  Ge33  1  0.16535300  0.71487800  0.28773600  1
  Ge  Ge34  1  0.33089000  0.21737800  0.21518100  1
  Ge  Ge35  1  0.83089000  0.78262200  0.78481900  1
