# generated using pymatgen
data_U2(Mo3Se4)5
_symmetry_space_group_name_H-M   'P 1'
_cell_length_a   9.68917200
_cell_length_b   11.65903590
_cell_length_c   15.04881355
_cell_angle_alpha   105.15814378
_cell_angle_beta   107.14936902
_cell_angle_gamma   90.96099341
_symmetry_Int_Tables_number   1
_chemical_formula_structural   U2(Mo3Se4)5
_chemical_formula_sum   'U4 Mo30 Se40'
_cell_volume   1559.76652908
_cell_formula_units_Z   2
loop_
 _symmetry_equiv_pos_site_id
 _symmetry_equiv_pos_as_xyz
  1  'x, y, z'
loop_
 _atom_site_type_symbol
 _atom_site_label
 _atom_site_symmetry_multiplicity
 _atom_site_fract_x
 _atom_site_fract_y
 _atom_site_fract_z
 _atom_site_occupancy
  U  U0  1  0.89953400  0.60043200  0.80161500  1
  U  U1  1  0.30029000  0.19925700  0.59968200  1
  U  U2  1  0.69971000  0.80074300  0.40031800  1
  U  U3  1  0.10046600  0.39956800  0.19838500  1
  Mo  Mo4  1  0.54887700  0.39104700  0.07954700  1
  Mo  Mo5  1  0.94867800  0.99276300  0.87902900  1
  Mo  Mo6  1  0.34677300  0.59210700  0.67981200  1
  Mo  Mo7  1  0.74789900  0.19192900  0.47950400  1
  Mo  Mo8  1  0.14781200  0.79202900  0.27978600  1
  Mo  Mo9  1  0.63956000  0.43478600  0.93702200  1
  Mo  Mo10  1  0.04152600  0.03523300  0.73920000  1
  Mo  Mo11  1  0.44057600  0.63528200  0.53782200  1
  Mo  Mo12  1  0.83976600  0.23663400  0.33760800  1
  Mo  Mo13  1  0.24212700  0.83574300  0.13821400  1
  Mo  Mo14  1  0.65089400  0.61599800  0.09624200  1
  Mo  Mo15  1  0.05358000  0.21437300  0.89594500  1
  Mo  Mo16  1  0.45318200  0.81583800  0.69718900  1
  Mo  Mo17  1  0.85188300  0.41596800  0.49592100  1
  Mo  Mo18  1  0.25192200  0.01677700  0.29571800  1
  Mo  Mo19  1  0.45112300  0.60895300  0.92045300  1
  Mo  Mo20  1  0.85218800  0.20797100  0.72021400  1
  Mo  Mo21  1  0.25210100  0.80807100  0.52049600  1
  Mo  Mo22  1  0.65322700  0.40789300  0.32018800  1
  Mo  Mo23  1  0.05132200  0.00723700  0.12097100  1
  Mo  Mo24  1  0.36044000  0.56521400  0.06297800  1
  Mo  Mo25  1  0.75787300  0.16425700  0.86178600  1
  Mo  Mo26  1  0.16023400  0.76336600  0.66239200  1
  Mo  Mo27  1  0.55942400  0.36471800  0.46217800  1
  Mo  Mo28  1  0.95847400  0.96476700  0.26080000  1
  Mo  Mo29  1  0.34910600  0.38400200  0.90375800  1
  Mo  Mo30  1  0.74807800  0.98322300  0.70428200  1
  Mo  Mo31  1  0.14811700  0.58403200  0.50407900  1
  Mo  Mo32  1  0.54681800  0.18416200  0.30281100  1
  Mo  Mo33  1  0.94642000  0.78562700  0.10405500  1
  Se  Se34  1  0.01420500  0.24730100  0.50494800  1
  Se  Se35  1  0.41448600  0.84811800  0.30555200  1
  Se  Se36  1  0.81447200  0.44722300  0.10419500  1
  Se  Se37  1  0.21714100  0.04782900  0.90576600  1
  Se  Se38  1  0.61396800  0.64706400  0.70496500  1
  Se  Se39  1  0.38603200  0.35293600  0.29503500  1
  Se  Se40  1  0.78285900  0.95217100  0.09423400  1
  Se  Se41  1  0.18552800  0.55277700  0.89580500  1
  Se  Se42  1  0.58551400  0.15188200  0.69444800  1
  Se  Se43  1  0.98579500  0.75269900  0.49505200  1
  Se  Se44  1  0.71986200  0.01917700  0.32293200  1
  Se  Se45  1  0.11997100  0.61868100  0.12444000  1
  Se  Se46  1  0.52461400  0.22289400  0.92538400  1
  Se  Se47  1  0.92133800  0.81860100  0.72413900  1
  Se  Se48  1  0.32084500  0.41842300  0.52374500  1
  Se  Se49  1  0.92724100  0.45183700  0.34585500  1
  Se  Se50  1  0.32660200  0.04982100  0.14939600  1
  Se  Se51  1  0.72577300  0.65339500  0.94621700  1
  Se  Se52  1  0.12694600  0.25155500  0.74601400  1
  Se  Se53  1  0.52624800  0.85087900  0.54520700  1
  Se  Se54  1  0.74943900  0.38045800  0.62900600  1
  Se  Se55  1  0.14896000  0.98023700  0.42916000  1
  Se  Se56  1  0.54953900  0.58096400  0.22946800  1
  Se  Se57  1  0.94681700  0.17978600  0.02851200  1
  Se  Se58  1  0.35104700  0.77671500  0.82640900  1
  Se  Se59  1  0.67915500  0.58157700  0.47625500  1
  Se  Se60  1  0.07866200  0.18139900  0.27586100  1
  Se  Se61  1  0.47538600  0.77710600  0.07461600  1
  Se  Se62  1  0.88002900  0.38131900  0.87556000  1
  Se  Se63  1  0.28013800  0.98082300  0.67706800  1
  Se  Se64  1  0.47375200  0.14912100  0.45479300  1
  Se  Se65  1  0.87305400  0.74844500  0.25398600  1
  Se  Se66  1  0.27422700  0.34660500  0.05378300  1
  Se  Se67  1  0.67339800  0.95017900  0.85060400  1
  Se  Se68  1  0.07275900  0.54816300  0.65414500  1
  Se  Se69  1  0.64895300  0.22328500  0.17359100  1
  Se  Se70  1  0.05318300  0.82021400  0.97148800  1
  Se  Se71  1  0.45046100  0.41903600  0.77053200  1
  Se  Se72  1  0.85104000  0.01976300  0.57084000  1
  Se  Se73  1  0.25056100  0.61954200  0.37099400  1
