# generated using pymatgen
data_Tb2Pr
_symmetry_space_group_name_H-M   'P 1'
_cell_length_a   9.10015541
_cell_length_b   9.10015541
_cell_length_c   9.10015607
_cell_angle_alpha   22.96542772
_cell_angle_beta   22.96542772
_cell_angle_gamma   22.96543153
_symmetry_Int_Tables_number   1
_chemical_formula_structural   Tb2Pr
_chemical_formula_sum   'Tb2 Pr1'
_cell_volume   100.68631839
_cell_formula_units_Z   1
loop_
 _symmetry_equiv_pos_site_id
 _symmetry_equiv_pos_as_xyz
  1  'x, y, z'
loop_
 _atom_site_type_symbol
 _atom_site_label
 _atom_site_symmetry_multiplicity
 _atom_site_fract_x
 _atom_site_fract_y
 _atom_site_fract_z
 _atom_site_occupancy
  Tb  Tb0  1  0.22425000  0.22425000  0.22425000  1
  Tb  Tb1  1  0.99806000  0.99806000  0.99806000  1
  Pr  Pr2  1  0.77769100  0.77769100  0.77769100  1
