# generated using pymatgen
data_Te2W2N2O15
_symmetry_space_group_name_H-M   'P 1'
_cell_length_a   7.34313568
_cell_length_b   7.34313568
_cell_length_c   7.34313568
_cell_angle_alpha   120.08081572
_cell_angle_beta   119.49211742
_cell_angle_gamma   90.37100158
_symmetry_Int_Tables_number   1
_chemical_formula_structural   Te2W2N2O15
_chemical_formula_sum   'Te2 W2 N2 O15'
_cell_volume   280.86979613
_cell_formula_units_Z   1
loop_
 _symmetry_equiv_pos_site_id
 _symmetry_equiv_pos_as_xyz
  1  'x, y, z'
loop_
 _atom_site_type_symbol
 _atom_site_label
 _atom_site_symmetry_multiplicity
 _atom_site_fract_x
 _atom_site_fract_y
 _atom_site_fract_z
 _atom_site_occupancy
  Te  Te0  1  0.78545600  0.53620300  0.75074700  1
  Te  Te1  1  0.78545600  0.03471000  0.24925300  1
  W  W2  1  0.28431400  0.53415600  0.75015700  1
  W  W3  1  0.78399900  0.53415600  0.24984300  1
  N  N4  1  0.71307100  0.00616000  0.70691200  1
  N  N5  1  0.29924800  0.00616000  0.29308800  1
  O  O6  1  0.85564800  0.85564800  0.00000000  1
  O  O7  1  0.23185200  0.23185200  0.00000000  1
  O  O8  1  0.84591000  0.84639200  0.37230000  1
  O  O9  1  0.47409200  0.47361000  0.62770000  1
  O  O10  1  0.47409200  0.84639200  0.00048200  1
  O  O11  1  0.84591000  0.47361000  0.99951800  1
  O  O12  1  0.71693800  0.21693800  0.50000000  1
  O  O13  1  0.08798800  0.58798800  0.50000000  1
  O  O14  1  0.71607300  0.22083900  0.12416600  1
  O  O15  1  0.09667300  0.59190700  0.87583400  1
  O  O16  1  0.09667300  0.22083900  0.50476600  1
  O  O17  1  0.71607300  0.59190700  0.49523400  1
  O  O18  1  0.16811900  0.01837300  0.85025400  1
  O  O19  1  0.16811900  0.31786400  0.14974600  1
  O  O20  1  0.47929600  0.47929600  0.00000000  1
