# generated using pymatgen
data_Th2(Mo3S4)5
_symmetry_space_group_name_H-M   'P 1'
_cell_length_a   9.30057000
_cell_length_b   11.20737450
_cell_length_c   14.46104528
_cell_angle_alpha   105.13612225
_cell_angle_beta   107.35737379
_cell_angle_gamma   90.85248666
_symmetry_Int_Tables_number   1
_chemical_formula_structural   Th2(Mo3S4)5
_chemical_formula_sum   'Th4 Mo30 S40'
_cell_volume   1381.73571038
_cell_formula_units_Z   2
loop_
 _symmetry_equiv_pos_site_id
 _symmetry_equiv_pos_as_xyz
  1  'x, y, z'
loop_
 _atom_site_type_symbol
 _atom_site_label
 _atom_site_symmetry_multiplicity
 _atom_site_fract_x
 _atom_site_fract_y
 _atom_site_fract_z
 _atom_site_occupancy
  Th  Th0  1  0.89951700  0.60048300  0.80180700  1
  Th  Th1  1  0.30015700  0.19949700  0.59958400  1
  Th  Th2  1  0.69984300  0.80050300  0.40041600  1
  Th  Th3  1  0.10048300  0.39951700  0.19819300  1
  Mo  Mo4  1  0.55053100  0.38661600  0.08191200  1
  Mo  Mo5  1  0.95062800  0.98851800  0.88169000  1
  Mo  Mo6  1  0.34854700  0.58800800  0.68209600  1
  Mo  Mo7  1  0.74925500  0.18769800  0.48133500  1
  Mo  Mo8  1  0.14928900  0.78853500  0.28173900  1
  Mo  Mo9  1  0.64534300  0.43356400  0.93477100  1
  Mo  Mo10  1  0.04676200  0.03359200  0.73747400  1
  Mo  Mo11  1  0.44533000  0.63456200  0.53624300  1
  Mo  Mo12  1  0.84468600  0.23500200  0.33538600  1
  Mo  Mo13  1  0.24851200  0.83462500  0.13603800  1
  Mo  Mo14  1  0.65438800  0.61886100  0.09926700  1
  Mo  Mo15  1  0.05813200  0.21746600  0.89957100  1
  Mo  Mo16  1  0.45793500  0.81971200  0.70116100  1
  Mo  Mo17  1  0.85581300  0.41933200  0.49921200  1
  Mo  Mo18  1  0.25624600  0.02039000  0.29972800  1
  Mo  Mo19  1  0.44946900  0.61338400  0.91808800  1
  Mo  Mo20  1  0.85071100  0.21146500  0.71826100  1
  Mo  Mo21  1  0.25074500  0.81230200  0.51866500  1
  Mo  Mo22  1  0.65145300  0.41199200  0.31790400  1
  Mo  Mo23  1  0.04937200  0.01148200  0.11831000  1
  Mo  Mo24  1  0.35465700  0.56643600  0.06522900  1
  Mo  Mo25  1  0.75148800  0.16537500  0.86396200  1
  Mo  Mo26  1  0.15531400  0.76499800  0.66461400  1
  Mo  Mo27  1  0.55467000  0.36543800  0.46375700  1
  Mo  Mo28  1  0.95323800  0.96640800  0.26252600  1
  Mo  Mo29  1  0.34561200  0.38113900  0.90073300  1
  Mo  Mo30  1  0.74375400  0.97961000  0.70027200  1
  Mo  Mo31  1  0.14418700  0.58066800  0.50078800  1
  Mo  Mo32  1  0.54206500  0.18028800  0.29883900  1
  Mo  Mo33  1  0.94186800  0.78253400  0.10042900  1
  S  S34  1  0.72101000  0.02355200  0.32501200  1
  S  S35  1  0.12154600  0.62335100  0.12694100  1
  S  S36  1  0.52819800  0.22909800  0.92769500  1
  S  S37  1  0.92233100  0.82313900  0.72651500  1
  S  S38  1  0.32242200  0.42275200  0.52610600  1
  S  S39  1  0.92517600  0.44826700  0.34674900  1
  S  S40  1  0.32459100  0.04711800  0.15270300  1
  S  S41  1  0.72319800  0.65068000  0.94742700  1
  S  S42  1  0.12466200  0.24831200  0.74734400  1
  S  S43  1  0.52406300  0.84777600  0.54588800  1
  S  S44  1  0.75055700  0.37899800  0.62576800  1
  S  S45  1  0.15034100  0.97882200  0.42609700  1
  S  S46  1  0.55072300  0.58040700  0.22678600  1
  S  S47  1  0.94699900  0.17858800  0.02518500  1
  S  S48  1  0.35219300  0.77343800  0.82242100  1
  S  S49  1  0.67757800  0.57724800  0.47389400  1
  S  S50  1  0.07766900  0.17686100  0.27348500  1
  S  S51  1  0.47180200  0.77090200  0.07230500  1
  S  S52  1  0.87845400  0.37664900  0.87305900  1
  S  S53  1  0.27899000  0.97644800  0.67498800  1
  S  S54  1  0.47593700  0.15222400  0.45411200  1
  S  S55  1  0.87533800  0.75168800  0.25265600  1
  S  S56  1  0.27680200  0.34932000  0.05257300  1
  S  S57  1  0.67540900  0.95288200  0.84729700  1
  S  S58  1  0.07482400  0.55173300  0.65325100  1
  S  S59  1  0.64780700  0.22656200  0.17757900  1
  S  S60  1  0.05300100  0.82141200  0.97481500  1
  S  S61  1  0.44927700  0.41959300  0.77321400  1
  S  S62  1  0.84965900  0.02117800  0.57390300  1
  S  S63  1  0.24944300  0.62100200  0.37423200  1
  S  S64  1  0.00932500  0.24793400  0.50315200  1
  S  S65  1  0.41015700  0.84875800  0.30367800  1
  S  S66  1  0.80970800  0.44749500  0.10229400  1
  S  S67  1  0.21307000  0.04852700  0.90429700  1
  S  S68  1  0.60950300  0.64795400  0.70355700  1
  S  S69  1  0.39049700  0.35204600  0.29644300  1
  S  S70  1  0.78693000  0.95147300  0.09570300  1
  S  S71  1  0.19029200  0.55250500  0.89770600  1
  S  S72  1  0.58984300  0.15124200  0.69632200  1
  S  S73  1  0.99067500  0.75206600  0.49684800  1
