# generated using pymatgen
data_TbInGe2O7
_symmetry_space_group_name_H-M   'P 1'
_cell_length_a   5.71397867
_cell_length_b   5.71397867
_cell_length_c   9.92339753
_cell_angle_alpha   82.99373401
_cell_angle_beta   82.99373401
_cell_angle_gamma   105.01551552
_symmetry_Int_Tables_number   1
_chemical_formula_structural   TbInGe2O7
_chemical_formula_sum   'Tb2 In2 Ge4 O14'
_cell_volume   306.58345462
_cell_formula_units_Z   2
loop_
 _symmetry_equiv_pos_site_id
 _symmetry_equiv_pos_as_xyz
  1  'x, y, z'
loop_
 _atom_site_type_symbol
 _atom_site_label
 _atom_site_symmetry_multiplicity
 _atom_site_fract_x
 _atom_site_fract_y
 _atom_site_fract_z
 _atom_site_occupancy
  Tb  Tb0  1  0.70552900  0.29639600  0.25276800  1
  Tb  Tb1  1  0.70360400  0.29447100  0.74723200  1
  In  In2  1  0.31640400  0.68448900  0.24820000  1
  In  In3  1  0.31551100  0.68359600  0.75180000  1
  Ge  Ge4  1  0.77511800  0.76885600  0.95561500  1
  Ge  Ge5  1  0.23114400  0.22488200  0.04438500  1
  Ge  Ge6  1  0.22177000  0.22824000  0.54410900  1
  Ge  Ge7  1  0.77176000  0.77823000  0.45589100  1
  O  O8  1  0.61209800  0.59184500  0.11329500  1
  O  O9  1  0.40815500  0.38790200  0.88670500  1
  O  O10  1  0.40259000  0.38642200  0.38687600  1
  O  O11  1  0.61357800  0.59741000  0.61312400  1
  O  O12  1  0.59246400  0.90117500  0.85331900  1
  O  O13  1  0.09882500  0.40753600  0.14668100  1
  O  O14  1  0.37768300  0.05707500  0.64232400  1
  O  O15  1  0.94292500  0.62231700  0.35767600  1
  O  O16  1  0.95796800  0.04203200  0.00000000  1
  O  O17  1  0.93614300  0.06385700  0.50000000  1
  O  O18  1  0.94014700  0.60583200  0.85919800  1
  O  O19  1  0.39416800  0.05985300  0.14080200  1
  O  O20  1  0.09906600  0.41665300  0.64564600  1
  O  O21  1  0.58334700  0.90093400  0.35435400  1
