# generated using pymatgen
data_Ti12Se16O3
_symmetry_space_group_name_H-M   'P 1'
_cell_length_a   10.83670148
_cell_length_b   10.83670148
_cell_length_c   9.99580907
_cell_angle_alpha   62.63684552
_cell_angle_beta   62.63684552
_cell_angle_gamma   41.30781329
_symmetry_Int_Tables_number   1
_chemical_formula_structural   Ti12Se16O3
_chemical_formula_sum   'Ti12 Se16 O3'
_cell_volume   674.94187354
_cell_formula_units_Z   1
loop_
 _symmetry_equiv_pos_site_id
 _symmetry_equiv_pos_as_xyz
  1  'x, y, z'
loop_
 _atom_site_type_symbol
 _atom_site_label
 _atom_site_symmetry_multiplicity
 _atom_site_fract_x
 _atom_site_fract_y
 _atom_site_fract_z
 _atom_site_occupancy
  Ti  Ti0  1  0.30936500  0.30936500  0.48417500  1
  Ti  Ti1  1  0.82059800  0.82059800  0.36440700  1
  Ti  Ti2  1  0.13338400  0.13338400  0.63733000  1
  Ti  Ti3  1  0.54134200  0.54134200  0.73344600  1
  Ti  Ti4  1  0.23647500  0.23647500  0.89803100  1
  Ti  Ti5  1  0.70274800  0.70274800  0.86216300  1
  Ti  Ti6  1  0.71628500  0.17708700  0.50486400  1
  Ti  Ti7  1  0.17708700  0.71628500  0.50486400  1
  Ti  Ti8  1  0.89444600  0.35834000  0.35966000  1
  Ti  Ti9  1  0.35834000  0.89444600  0.35966000  1
  Ti  Ti10  1  0.81291200  0.30310000  0.13407200  1
  Ti  Ti11  1  0.30310000  0.81291200  0.13407200  1
  Se  Se12  1  0.04294000  0.04294000  0.32796900  1
  Se  Se13  1  0.54200800  0.54200800  0.34158700  1
  Se  Se14  1  0.97421000  0.45974500  0.66151200  1
  Se  Se15  1  0.45974500  0.97421000  0.66151200  1
  Se  Se16  1  0.22337400  0.22337400  0.34637900  1
  Se  Se17  1  0.67958200  0.67958200  0.42852700  1
  Se  Se18  1  0.07167700  0.07167700  0.94907300  1
  Se  Se19  1  0.56212400  0.56212400  0.96130800  1
  Se  Se20  1  0.36953400  0.36953400  0.65580400  1
  Se  Se21  1  0.85239700  0.85239700  0.66973600  1
  Se  Se22  1  0.82729500  0.22728400  0.64515100  1
  Se  Se23  1  0.22728400  0.82729500  0.64515100  1
  Se  Se24  1  0.90941400  0.48359500  0.06058200  1
  Se  Se25  1  0.48359500  0.90941400  0.06058200  1
  Se  Se26  1  0.63583600  0.17946300  0.29793400  1
  Se  Se27  1  0.17946300  0.63583600  0.29793400  1
  O  O28  1  0.44927400  0.44927400  0.84448700  1
  O  O29  1  0.28875400  0.28875400  0.98362000  1
  O  O30  1  0.84041400  0.84041400  0.18441100  1
