# generated using pymatgen
data_V4(PO5)3
_symmetry_space_group_name_H-M   'P 1'
_cell_length_a   7.38917934
_cell_length_b   11.69752648
_cell_length_c   19.95737775
_cell_angle_alpha   93.35201004
_cell_angle_beta   79.33163784
_cell_angle_gamma   108.41175277
_symmetry_Int_Tables_number   1
_chemical_formula_structural   V4(PO5)3
_chemical_formula_sum   'V24 P18 O90'
_cell_volume   1608.42644300
_cell_formula_units_Z   6
loop_
 _symmetry_equiv_pos_site_id
 _symmetry_equiv_pos_as_xyz
  1  'x, y, z'
loop_
 _atom_site_type_symbol
 _atom_site_label
 _atom_site_symmetry_multiplicity
 _atom_site_fract_x
 _atom_site_fract_y
 _atom_site_fract_z
 _atom_site_occupancy
  V  V0  1  0.87507202  0.39415826  0.73688174  1
  V  V1  1  0.21779550  0.60584174  0.26311826  1
  V  V2  1  0.86195376  0.89415826  0.76311826  1
  V  V3  1  0.73091376  0.10584174  0.23688174  1
  V  V4  1  0.42157180  0.72903311  0.59365039  1
  V  V5  1  0.28618908  0.27096689  0.40634961  1
  V  V6  1  0.26522219  0.22903311  0.90634961  1
  V  V7  1  0.94253869  0.77096689  0.09365039  1
  V  V8  1  0.92476534  0.23341235  0.56567240  1
  V  V9  1  0.25702539  0.76658765  0.43432760  1
  V  V10  1  0.74043774  0.73341235  0.93432760  1
  V  V11  1  0.94135300  0.26658765  0.06567240  1
  V  V12  1  0.25954357  0.58512388  0.75135803  1
  V  V13  1  0.42577772  0.41487612  0.24864197  1
  V  V14  1  0.26090160  0.08512388  0.74864197  1
  V  V15  1  0.92441969  0.91487612  0.25135803  1
  V  V16  1  0.89602737  0.07517082  0.40492372  1
  V  V17  1  0.22578027  0.92482918  0.59507628  1
  V  V18  1  0.55095109  0.57517082  0.09507628  1
  V  V19  1  0.07085656  0.42482918  0.90492372  1
  V  V20  1  0.72322547  0.43022005  0.57871217  1
  V  V21  1  0.87171759  0.56977995  0.42128783  1
  V  V22  1  0.55193764  0.93022005  0.92128783  1
  V  V23  1  0.54300542  0.06977995  0.07871217  1
  P  P24  1  0.87205151  0.16295457  0.82924491  1
  P  P25  1  0.53834186  0.83704543  0.17075509  1
  P  P26  1  0.95129643  0.66295457  0.67075509  1
  P  P27  1  0.95909695  0.33704543  0.32924491  1
  P  P28  1  0.62357360  0.99751042  0.66416870  1
  P  P29  1  0.29023188  0.00248958  0.33583130  1
  P  P30  1  0.53774230  0.49751042  0.83583130  1
  P  P31  1  0.87606318  0.50248958  0.16416870  1
  P  P32  1  0.26899001  0.32640713  0.66354136  1
  P  P33  1  0.60612423  0.67359287  0.33645864  1
  P  P34  1  0.18253136  0.82640713  0.83645864  1
  P  P35  1  0.19258288  0.17359287  0.16354136  1
  P  P36  1  0.86959640  0.83692551  0.50082592  1
  P  P37  1  0.53349681  0.16307449  0.49917408  1
  P  P38  1  0.62042232  0.33692551  0.99917408  1
  P  P39  1  0.28267089  0.66307449  0.00082592  1
  P  P40  1  0.19111613  0.50000000  0.50000000  1
  P  P41  1  0.94111613  0.00000000  0.00000000  1
  O  O42  1  0.97002565  0.07465680  0.78491861  1
  O  O43  1  0.68028747  0.92534320  0.21508139  1
  O  O44  1  0.00494427  0.57465680  0.71508139  1
  O  O45  1  0.14536885  0.42534320  0.28491861  1
  O  O46  1  0.14088512  0.98179986  0.67109671  1
  O  O47  1  0.83018196  0.01820014  0.32890329  1
  O  O48  1  0.06198183  0.48179986  0.82890329  1
  O  O49  1  0.40908526  0.51820014  0.17109671  1
  O  O50  1  0.79713997  0.35221107  0.66099505  1
  O  O51  1  0.10592395  0.64778893  0.33900495  1
  O  O52  1  0.70813502  0.85221107  0.83900495  1
  O  O53  1  0.69492890  0.14778893  0.16099505  1
  O  O54  1  0.77952859  0.08962332  0.61605339  1
  O  O55  1  0.30595866  0.91037668  0.38394661  1
  O  O56  1  0.64558198  0.58962332  0.88394661  1
  O  O57  1  0.93990527  0.41037668  0.11605339  1
  O  O58  1  0.02665223  0.24630901  0.87011636  1
  O  O59  1  0.65045959  0.75369099  0.12988364  1
  O  O60  1  0.14676859  0.74630901  0.62988364  1
  O  O61  1  0.03034323  0.25369099  0.37011636  1
  O  O62  1  0.82483428  0.24390545  0.78250274  1
  O  O63  1  0.36343157  0.75609455  0.21749726  1
  O  O64  1  0.85733702  0.74390545  0.71749726  1
  O  O65  1  0.83092883  0.25609455  0.28250274  1
  O  O66  1  0.02047656  0.18525987  0.48880070  1
  O  O67  1  0.32401739  0.81474013  0.51119930  1
  O  O68  1  0.75927726  0.68525987  0.01119930  1
  O  O69  1  0.08521669  0.31474013  0.98880070  1
  O  O70  1  0.99885344  0.41432903  0.54233306  1
  O  O71  1  0.12685746  0.58567097  0.45766694  1
  O  O72  1  0.79118650  0.91432903  0.95766694  1
  O  O73  1  0.83452440  0.08567097  0.04233306  1
  O  O74  1  0.00333169  0.89788154  0.55129371  1
  O  O75  1  0.65674386  0.10211846  0.44870629  1
  O  O76  1  0.80462541  0.39788154  0.94870629  1
  O  O77  1  0.35545015  0.60211846  0.05129371  1
  O  O78  1  0.69428607  0.08917259  0.87665078  1
  O  O79  1  0.48176426  0.91082741  0.12334922  1
  O  O80  1  0.82093684  0.58917259  0.62334922  1
  O  O81  1  0.85511348  0.41082741  0.37665078  1
  O  O82  1  0.16524244  0.41261849  0.70725602  1
  O  O83  1  0.45987998  0.58738151  0.29274398  1
  O  O84  1  0.12249847  0.91261849  0.79274398  1
  O  O85  1  0.00262396  0.08738151  0.20725602  1
  O  O86  1  0.32101847  0.57779798  0.54616414  1
  O  O87  1  0.28938463  0.42220202  0.45383586  1
  O  O88  1  0.11718261  0.07779798  0.95383586  1
  O  O89  1  0.99322049  0.92220202  0.04616414  1
  O  O90  1  0.46202473  0.40714651  0.62498863  1
  O  O91  1  0.67986685  0.59285349  0.37501137  1
  O  O92  1  0.33701336  0.90714651  0.87501137  1
  O  O93  1  0.30487822  0.09285349  0.12498863  1
  O  O94  1  0.13069956  0.25562365  0.61631892  1
  O  O95  1  0.49139483  0.74437635  0.38368108  1
  O  O96  1  0.99701848  0.75562365  0.88368108  1
  O  O97  1  0.12507591  0.24437635  0.11631892  1
  O  O98  1  0.47983863  0.90892906  0.61995253  1
  O  O99  1  0.19086210  0.09107094  0.38004747  1
  O  O100  1  0.34979116  0.40892906  0.88004747  1
  O  O101  1  0.82090957  0.59107094  0.11995253  1
  O  O102  1  0.67222404  0.75646603  0.53548749  1
  O  O103  1  0.45124550  0.24353397  0.46451251  1
  O  O104  1  0.45771153  0.25646603  0.96451251  1
  O  O105  1  0.16575801  0.74353397  0.03548749  1
  O  O106  1  0.50868795  0.06079916  0.71680399  1
  O  O107  1  0.16469278  0.93920084  0.28319601  1
  O  O108  1  0.47549194  0.56079916  0.78319601  1
  O  O109  1  0.69788879  0.43920084  0.21680399  1
  O  O110  1  0.27014776  0.74333134  0.78860820  1
  O  O111  1  0.31542462  0.25666866  0.21139180  1
  O  O112  1  0.30875596  0.24333134  0.71139180  1
  O  O113  1  0.77681642  0.75666866  0.28860820  1
  O  O114  1  0.72934116  0.50000000  0.50000000  1
  O  O115  1  0.47934116  -0.00000000  0.00000000  1
  O  O116  1  0.96851794  0.75011490  0.45418141  1
  O  O117  1  0.67258445  0.24988510  0.54581859  1
  O  O118  1  0.67269935  0.25011490  0.04581859  1
  O  O119  1  0.46840304  0.74988510  0.95418141  1
  O  O120  1  0.71211051  0.92046655  0.69918799  1
  O  O121  1  0.49083195  0.07953345  0.30081201  1
  O  O122  1  0.66129850  0.42046655  0.80081201  1
  O  O123  1  0.04164396  0.57953345  0.19918799  1
  O  O124  1  0.42938078  0.66819546  0.66625669  1
  O  O125  1  0.42744202  0.33180454  0.33374331  1
  O  O126  1  0.34563748  0.16819546  0.83374331  1
  O  O127  1  0.01118533  0.83180454  0.16625669  1
  O  O128  1  0.84569253  0.93088822  0.45580615  1
  O  O129  1  0.37061046  0.06911178  0.54419385  1
  O  O130  1  0.55149868  0.43088822  0.04419385  1
  O  O131  1  0.16480431  0.56911178  0.95580615  1
