# generated using pymatgen
data_Ti3NiBi2(PbO6)2
_symmetry_space_group_name_H-M   'P 1'
_cell_length_a   5.70481219
_cell_length_b   19.10909657
_cell_length_c   9.84849477
_cell_angle_alpha   91.19119710
_cell_angle_beta   90.36270470
_cell_angle_gamma   81.69515882
_symmetry_Int_Tables_number   1
_chemical_formula_structural   Ti3NiBi2(PbO6)2
_chemical_formula_sum   'Ti12 Ni4 Bi8 Pb8 O48'
_cell_volume   1062.12787021
_cell_formula_units_Z   4
loop_
 _symmetry_equiv_pos_site_id
 _symmetry_equiv_pos_as_xyz
  1  'x, y, z'
loop_
 _atom_site_type_symbol
 _atom_site_label
 _atom_site_symmetry_multiplicity
 _atom_site_fract_x
 _atom_site_fract_y
 _atom_site_fract_z
 _atom_site_occupancy
  Ti  Ti0  1  0.45710600  0.06058000  0.84417800  1
  Ti  Ti1  1  0.95706800  0.06060200  0.34422300  1
  Ti  Ti2  1  0.70709100  0.56058600  0.09428200  1
  Ti  Ti3  1  0.20699900  0.56061100  0.59428800  1
  Ti  Ti4  1  0.39203400  0.18505500  0.52051400  1
  Ti  Ti5  1  0.89200100  0.18505000  0.02052600  1
  Ti  Ti6  1  0.64208700  0.68505700  0.77060200  1
  Ti  Ti7  1  0.14203500  0.68506800  0.27061100  1
  Ti  Ti8  1  0.33087000  0.30820400  0.20211900  1
  Ti  Ti9  1  0.83085500  0.30819400  0.70213700  1
  Ti  Ti10  1  0.58080600  0.80817200  0.45211100  1
  Ti  Ti11  1  0.08080700  0.80816800  0.95212100  1
  Ni  Ni12  1  0.77599800  0.42391800  0.38791000  1
  Ni  Ni13  1  0.52583000  0.92391200  0.13794300  1
  Ni  Ni14  1  0.27594700  0.42394500  0.88789700  1
  Ni  Ni15  1  0.02591400  0.92389600  0.63790200  1
  Bi  Bi16  1  0.48247100  0.00280300  0.53857100  1
  Bi  Bi17  1  0.98247800  0.00283400  0.03861400  1
  Bi  Bi18  1  0.73235300  0.50285100  0.78872000  1
  Bi  Bi19  1  0.23237900  0.50287400  0.28872500  1
  Bi  Bi20  1  0.29834500  0.39254400  0.56894200  1
  Bi  Bi21  1  0.79833800  0.39252400  0.06897700  1
  Bi  Bi22  1  0.54833700  0.89253300  0.81890100  1
  Bi  Bi23  1  0.04830900  0.89256000  0.31889300  1
  Pb  Pb24  1  0.41992200  0.12842000  0.19341300  1
  Pb  Pb25  1  0.91990900  0.12841600  0.69344500  1
  Pb  Pb26  1  0.66989100  0.62838700  0.44369100  1
  Pb  Pb27  1  0.16997300  0.62838500  0.94373800  1
  Pb  Pb28  1  0.35322900  0.25579700  0.87301600  1
  Pb  Pb29  1  0.85335300  0.25580400  0.37303600  1
  Pb  Pb30  1  0.60322500  0.75573500  0.12303200  1
  Pb  Pb31  1  0.10324900  0.75572100  0.62305400  1
  O  O32  1  0.30116400  0.35000100  0.03211600  1
  O  O33  1  0.80115000  0.34998800  0.53214200  1
  O  O34  1  0.55088300  0.84993800  0.28208000  1
  O  O35  1  0.05089900  0.84994100  0.78207100  1
  O  O36  1  0.37586600  0.23124400  0.34861500  1
  O  O37  1  0.87588000  0.23124700  0.84864800  1
  O  O38  1  0.62576000  0.73122900  0.59867700  1
  O  O39  1  0.12575500  0.73123100  0.09869600  1
  O  O40  1  0.25638000  0.48128000  0.71423600  1
  O  O41  1  0.75641100  0.48127100  0.21426900  1
  O  O42  1  0.50638000  0.98125900  0.96419800  1
  O  O43  1  0.00639500  0.98127100  0.46422700  1
  O  O44  1  0.43646900  0.10249900  0.65797900  1
  O  O45  1  0.93642900  0.10252800  0.15804100  1
  O  O46  1  0.68656200  0.60252300  0.90816600  1
  O  O47  1  0.18656700  0.60254400  0.40818500  1
  O  O48  1  0.55653400  0.35789300  0.77543400  1
  O  O49  1  0.05656800  0.35788300  0.27545400  1
  O  O50  1  0.80657500  0.85786000  0.02541600  1
  O  O51  1  0.30655900  0.85785700  0.52541700  1
  O  O52  1  0.62182900  0.22961400  0.10027700  1
  O  O53  1  0.12184100  0.22960600  0.60024900  1
  O  O54  1  0.87199000  0.72963100  0.35035200  1
  O  O55  1  0.37202500  0.72962100  0.85035100  1
  O  O56  1  0.97592500  0.47927000  0.96765400  1
  O  O57  1  0.47594300  0.47926800  0.46767300  1
  O  O58  1  0.22592700  0.97929200  0.21761700  1
  O  O59  1  0.72592100  0.97927200  0.71757400  1
  O  O60  1  0.18403500  0.10630800  0.91669900  1
  O  O61  1  0.68403500  0.10633500  0.41674900  1
  O  O62  1  0.43395200  0.60633800  0.16672100  1
  O  O63  1  0.93388900  0.60635900  0.66676000  1
  O  O64  1  0.52438600  0.47903400  0.97041900  1
  O  O65  1  0.02438000  0.47903700  0.47042200  1
  O  O66  1  0.77440300  0.97902100  0.22031500  1
  O  O67  1  0.27443400  0.97900800  0.72027600  1
  O  O68  1  0.69071600  0.10705900  0.91528100  1
  O  O69  1  0.19067500  0.10706600  0.41531100  1
  O  O70  1  0.94067500  0.60705800  0.16544300  1
  O  O71  1  0.44062300  0.60706000  0.66543700  1
  O  O72  1  0.12328900  0.22855500  0.10313900  1
  O  O73  1  0.62331700  0.22854600  0.60312400  1
  O  O74  1  0.37347500  0.72851900  0.35314900  1
  O  O75  1  0.87349900  0.72851800  0.85315000  1
  O  O76  1  0.05937000  0.35849000  0.77169400  1
  O  O77  1  0.55937500  0.35849300  0.27167700  1
  O  O78  1  0.30933500  0.85847200  0.02164500  1
  O  O79  1  0.80933900  0.85846800  0.52164400  1
