# generated using pymatgen
data_TbGaAg
_symmetry_space_group_name_H-M   'P 1'
_cell_length_a   5.72594995
_cell_length_b   5.72594995
_cell_length_c   7.23778234
_cell_angle_alpha   52.03278156
_cell_angle_beta   52.03278156
_cell_angle_gamma   47.41987104
_symmetry_Int_Tables_number   1
_chemical_formula_structural   TbGaAg
_chemical_formula_sum   'Tb2 Ga2 Ag2'
_cell_volume   129.41025190
_cell_formula_units_Z   2
loop_
 _symmetry_equiv_pos_site_id
 _symmetry_equiv_pos_as_xyz
  1  'x, y, z'
loop_
 _atom_site_type_symbol
 _atom_site_label
 _atom_site_symmetry_multiplicity
 _atom_site_fract_x
 _atom_site_fract_y
 _atom_site_fract_z
 _atom_site_occupancy
  Tb  Tb0  1  0.46422800  0.46422800  0.29154000  1
  Tb  Tb1  1  0.53577200  0.53577200  0.70846000  1
  Ga  Ga2  1  0.15936200  0.15936200  0.88537800  1
  Ga  Ga3  1  0.84063800  0.84063800  0.11462200  1
  Ag  Ag4  1  0.82680600  0.82680600  0.72266300  1
  Ag  Ag5  1  0.17319400  0.17319400  0.27733700  1
