# generated using pymatgen
data_SrSmCoO4
_symmetry_space_group_name_H-M   'P 1'
_cell_length_a   6.78125536
_cell_length_b   6.78125536
_cell_length_c   5.39887600
_cell_angle_alpha   90.00000000
_cell_angle_beta   90.00000000
_cell_angle_gamma   133.30604039
_symmetry_Int_Tables_number   1
_chemical_formula_structural   SrSmCoO4
_chemical_formula_sum   'Sr2 Sm2 Co2 O8'
_cell_volume   180.66590249
_cell_formula_units_Z   2
loop_
 _symmetry_equiv_pos_site_id
 _symmetry_equiv_pos_as_xyz
  1  'x, y, z'
loop_
 _atom_site_type_symbol
 _atom_site_label
 _atom_site_symmetry_multiplicity
 _atom_site_fract_x
 _atom_site_fract_y
 _atom_site_fract_z
 _atom_site_occupancy
  Sr  Sr0  1  0.89557900  0.10442100  0.25000000  1
  Sr  Sr1  1  0.10442100  0.89557900  0.75000000  1
  Sm  Sm2  1  0.38614300  0.61385700  0.75000000  1
  Sm  Sm3  1  0.61385700  0.38614300  0.25000000  1
  Co  Co4  1  0.24960900  0.75039100  0.25000000  1
  Co  Co5  1  0.75039100  0.24960900  0.75000000  1
  O  O6  1  0.50000000  0.00000000  0.50000000  1
  O  O7  1  0.00000000  0.50000000  0.00000000  1
  O  O8  1  0.50000000  0.00000000  0.00000000  1
  O  O9  1  0.00000000  0.50000000  0.50000000  1
  O  O10  1  0.57133500  0.42866500  0.75000000  1
  O  O11  1  0.08924800  0.91075200  0.25000000  1
  O  O12  1  0.42866500  0.57133500  0.25000000  1
  O  O13  1  0.91075200  0.08924800  0.75000000  1
