# generated using pymatgen
data_VSi3Bi61O100
_symmetry_space_group_name_H-M   'P 1'
_cell_length_a   14.59092978
_cell_length_b   14.59092978
_cell_length_c   17.09863474
_cell_angle_alpha   64.74362072
_cell_angle_beta   90.00000000
_cell_angle_gamma   60.00000000
_symmetry_Int_Tables_number   1
_chemical_formula_structural   VSi3Bi61O100
_chemical_formula_sum   'V1 Si3 Bi61 O100'
_cell_volume   2743.36530102
_cell_formula_units_Z   1
loop_
 _symmetry_equiv_pos_site_id
 _symmetry_equiv_pos_as_xyz
  1  'x, y, z'
loop_
 _atom_site_type_symbol
 _atom_site_label
 _atom_site_symmetry_multiplicity
 _atom_site_fract_x
 _atom_site_fract_y
 _atom_site_fract_z
 _atom_site_occupancy
  V  V0  1  0.59991149  0.80017703  0.79973446  1
  Si  Si1  1  0.20030999  0.59938002  0.60092998  1
  Si  Si2  1  0.39994945  0.20010109  0.19984836  1
  Si  Si3  1  0.79988263  0.40023474  0.39964790  1
  Bi  Bi4  1  0.99992027  0.00015946  0.99976081  1
  Bi  Bi5  1  0.00306320  0.49041392  0.34904033  1
  Bi  Bi6  1  0.20345051  0.09012864  0.94776476  1
  Bi  Bi7  1  0.40173700  0.69047667  0.55051895  1
  Bi  Bi8  1  0.60053423  0.29032715  0.15109564  1
  Bi  Bi9  1  0.80346001  0.89313923  0.74866319  1
  Bi  Bi10  1  0.82565547  0.68758610  0.99363450  1
  Bi  Bi11  1  0.02071149  0.29106327  0.59019577  1
  Bi  Bi12  1  0.22186599  0.88578185  0.19544506  1
  Bi  Bi13  1  0.42110025  0.48932934  0.79201806  1
  Bi  Bi14  1  0.62233698  0.09051778  0.38920765  1
  Bi  Bi15  1  0.38457977  0.42408018  0.26303323  1
  Bi  Bi16  1  0.58431881  0.02595243  0.86424271  1
  Bi  Bi17  1  0.78591877  0.62121114  0.46220384  1
  Bi  Bi18  1  0.98058957  0.22710865  0.06162328  1
  Bi  Bi19  1  0.18416246  0.82414485  0.66181441  1
  Bi  Bi20  1  0.38972875  0.72007610  0.86424271  1
  Bi  Bi21  1  0.59287009  0.32371493  0.46220384  1
  Bi  Bi22  1  0.79230178  0.91896629  0.06162328  1
  Bi  Bi23  1  0.99169269  0.52234805  0.66181441  1
  Bi  Bi24  1  0.19134005  0.12154654  0.26303323  1
  Bi  Bi25  1  0.10913862  0.44943858  0.15109564  1
  Bi  Bi26  1  0.30340076  0.05479681  0.74866319  1
  Bi  Bi27  1  0.50652288  0.65402287  0.34904033  1
  Bi  Bi28  1  0.70642085  0.25568575  0.94776476  1
  Bi  Bi29  1  0.90778633  0.85121805  0.55051895  1
  Bi  Bi30  1  0.08957041  0.62908219  0.79201806  1
  Bi  Bi31  1  0.28714524  0.23312933  0.38920765  1
  Bi  Bi32  1  0.48675843  0.83202097  0.99363450  1
  Bi  Bi33  1  0.68822523  0.43051572  0.59019577  1
  Bi  Bi34  1  0.89235215  0.02642093  0.19544506  1
  Bi  Bi35  1  0.32557784  0.48814580  0.99694343  1
  Bi  Bi36  1  0.52475267  0.09436757  0.59126813  1
  Bi  Bi37  1  0.72478932  0.69018993  0.19659213  1
  Bi  Bi38  1  0.92440839  0.29343196  0.79690735  1
  Bi  Bi39  1  0.12562096  0.88946449  0.39768663  1
  Bi  Bi40  1  0.58502075  0.52819719  0.19659213  1
  Bi  Bi41  1  0.78215965  0.12750104  0.79690735  1
  Bi  Bi42  1  0.98491454  0.72793434  0.39768663  1
  Bi  Bi43  1  0.18627636  0.32863441  0.99694343  1
  Bi  Bi44  1  0.38087975  0.93348454  0.59126813  1
  Bi  Bi45  1  0.28715112  0.58722792  0.39768663  1
  Bi  Bi46  1  0.48508923  0.18933293  0.99694343  1
  Bi  Bi47  1  0.68563570  0.78961162  0.59126813  1
  Bi  Bi48  1  0.88678206  0.38842862  0.19659213  1
  Bi  Bi49  1  0.09033931  0.98525230  0.79690735  1
  Bi  Bi50  1  0.08122692  0.69690709  0.19544506  1
  Bi  Bi51  1  0.28134740  0.29755235  0.79201806  1
  Bi  Bi52  1  0.47972543  0.89793759  0.38920765  1
  Bi  Bi53  1  0.68122060  0.49312393  0.99363450  1
  Bi  Bi54  1  0.88125904  0.09802947  0.59019577  1
  Bi  Bi55  1  0.28873193  0.73067850  0.06162328  1
  Bi  Bi56  1  0.48595926  0.32987828  0.66181441  1
  Bi  Bi57  1  0.68711341  0.92830683  0.26303323  1
  Bi  Bi58  1  0.89019514  0.52548605  0.86424271  1
  Bi  Bi59  1  0.08341498  0.13066625  0.46220384  1
  Bi  Bi60  1  0.03789340  0.75865609  0.94776476  1
  Bi  Bi61  1  0.24099562  0.35726738  0.55051895  1
  Bi  Bi62  1  0.44142280  0.95804297  0.15109564  1
  Bi  Bi63  1  0.64180242  0.55473757  0.74866319  1
  Bi  Bi64  1  0.83945425  0.15748254  0.34904033  1
  O  O65  1  0.05851381  0.26746469  0.14822903  1
  O  O66  1  0.65433051  0.06592375  0.94999762  1
  O  O67  1  0.25656115  0.86547184  0.74891281  1
  O  O68  1  0.85662460  0.66643265  0.54740221  1
  O  O69  1  0.45784086  0.46596615  0.34787584  1
  O  O70  1  0.67100818  0.39547122  0.15720674  1
  O  O71  1  0.27344600  0.19566002  0.95802430  1
  O  O72  1  0.86843895  0.99960423  0.75288586  1
  O  O73  1  0.46963980  0.79643868  0.55642060  1
  O  O74  1  0.07081732  0.59580558  0.35736033  1
  O  O75  1  0.56770745  0.48458750  0.84200734  1
  O  O76  1  0.16662178  0.28572321  0.64226685  1
  O  O77  1  0.76656074  0.08578763  0.44231478  1
  O  O78  1  0.36825267  0.88654253  0.24439214  1
  O  O79  1  0.96994046  0.68052269  0.04295475  1
  O  O80  1  0.54765501  0.52435493  0.64226685  1
  O  O81  1  0.14765163  0.32424596  0.44231478  1
  O  O82  1  0.74520479  0.12386053  0.24439214  1
  O  O83  1  0.34953685  0.92698571  0.04295475  1
  O  O84  1  0.94770505  0.72570010  0.84200734  1
  O  O85  1  0.87796701  0.50764834  0.74891281  1
  O  O86  1  0.47694276  0.30922239  0.54740221  1
  O  O87  1  0.07619299  0.10996502  0.34787584  1
  O  O88  1  0.67402149  0.91028478  0.14822903  1
  O  O89  1  0.27974575  0.70433289  0.94999762  1
  O  O90  1  0.53089398  0.31542169  0.95802430  1
  O  O91  1  0.13195682  0.11555309  0.75288586  1
  O  O92  1  0.73392152  0.91321921  0.55642060  1
  O  O93  1  0.33337710  0.71345699  0.35736033  1
  O  O94  1  0.93352060  0.51380144  0.15720674  1
  O  O95  1  0.84220467  0.43183187  0.05297320  1
  O  O96  1  0.44276596  0.23295352  0.85268934  1
  O  O97  1  0.04208876  0.03553638  0.64952985  1
  O  O98  1  0.64109035  0.83501960  0.45085777  1
  O  O99  1  0.24459436  0.62668192  0.25606212  1
  O  O100  1  0.92237486  0.39255891  0.64952985  1
  O  O101  1  0.52389006  0.19023257  0.45085777  1
  O  O102  1  0.12872372  0.98853224  0.25606212  1
  O  O103  1  0.72596346  0.78923147  0.05297320  1
  O  O104  1  0.32428053  0.59007662  0.85268934  1
  O  O105  1  0.08564286  0.47159119  0.85268934  1
  O  O106  1  0.68506623  0.27284500  0.64952985  1
  O  O107  1  0.28587737  0.07303228  0.45085777  1
  O  O108  1  0.88274404  0.87266160  0.25606212  1
  O  O109  1  0.48480507  0.67299026  0.05297320  1
  O  O110  1  0.75249009  0.37907097  0.75288586  1
  O  O111  1  0.35285927  0.17750093  0.55642060  1
  O  O112  1  0.95316591  0.97601677  0.35736033  1
  O  O113  1  0.55267796  0.77631386  0.15720674  1
  O  O114  1  0.15368433  0.57286968  0.95802430  1
  O  O115  1  0.72347744  0.30658210  0.04295475  1
  O  O116  1  0.32659485  0.10569770  0.84200734  1
  O  O117  1  0.92799006  0.90538816  0.64226685  1
  O  O118  1  0.52810242  0.70533684  0.44231478  1
  O  O119  1  0.13093468  0.50081265  0.24439214  1
  O  O120  1  0.01592137  0.32974813  0.94999762  1
  O  O121  1  0.61438465  0.12905420  0.74891281  1
  O  O122  1  0.21383486  0.92954055  0.54740221  1
  O  O123  1  0.81384199  0.72831715  0.34787584  1
  O  O124  1  0.41569373  0.52579246  0.14822903  1
  O  O125  1  0.14915874  0.07429872  0.07491548  1
  O  O126  1  0.75390774  0.87695760  0.87684919  1
  O  O127  1  0.35708379  0.67862924  0.67880709  1
  O  O128  1  0.95802733  0.47976246  0.47738804  1
  O  O129  1  0.55796873  0.27874211  0.27981645  1
  O  O130  1  0.16328915  0.27815228  0.27981645  1
  O  O131  1  0.77654254  0.07424326  0.07491548  1
  O  O132  1  0.36913466  0.87705855  0.87684919  1
  O  O133  1  0.96428696  0.67827670  0.67880709  1
  O  O134  1  0.56221022  0.48063928  0.47738804  1
  O  O135  1  0.32075930  0.35848139  0.96227791  1
  O  O136  1  0.92549586  0.14900829  0.77648757  1
  O  O137  1  0.52180634  0.95638732  0.56541902  1
  O  O138  1  0.12256995  0.75486010  0.36770985  1
  O  O139  1  0.72139834  0.55720331  0.16419503  1
  O  O140  1  0.75380679  0.49228547  0.87684919  1
  O  O141  1  0.35743633  0.28547988  0.67880709  1
  O  O142  1  0.95715050  0.08482218  0.47738804  1
  O  O143  1  0.55855857  0.88347270  0.27981645  1
  O  O144  1  0.14921421  0.70162705  0.07491548  1
  O  O145  1  0.32574904  0.16217871  0.16220881  1
  O  O146  1  0.89877309  0.94963417  0.94916288  1
  O  O147  1  0.52147209  0.76110105  0.76036408  1
  O  O148  1  0.12538582  0.56177445  0.56378171  1
  O  O149  1  0.72451771  0.36315312  0.36240129  1
  O  O150  1  0.51207225  0.16354023  0.16220881  1
  O  O151  1  0.15159273  0.94961021  0.94916288  1
  O  O152  1  0.71742686  0.76110800  0.76036408  1
  O  O153  1  0.31283973  0.56160410  0.56378171  1
  O  O154  1  0.91232917  0.36211642  0.36240129  1
  O  O155  1  0.63915568  0.72168865  0.91746703  1
  O  O156  1  0.23780394  0.52439213  0.71341181  1
  O  O157  1  0.83732603  0.32534794  0.51197809  1
  O  O158  1  0.43736865  0.12526269  0.31210596  1
  O  O159  1  0.05038450  0.89923100  0.15115350  1
  O  O160  1  0.89879705  0.20242985  0.94916288  1
  O  O161  1  0.52146513  0.95706278  0.76036408  1
  O  O162  1  0.12555617  0.74905802  0.56378171  1
  O  O163  1  0.72555441  0.54992788  0.36240129  1
  O  O164  1  0.32438752  0.34986344  0.16220881  1
