# generated using pymatgen
data_Ta11Al4
_symmetry_space_group_name_H-M   'P 1'
_cell_length_a   5.21941600
_cell_length_b   10.03052100
_cell_length_c   10.09300357
_cell_angle_alpha   89.61104095
_cell_angle_beta   90.00000000
_cell_angle_gamma   90.00000000
_symmetry_Int_Tables_number   1
_chemical_formula_structural   Ta11Al4
_chemical_formula_sum   'Ta22 Al8'
_cell_volume   528.39150096
_cell_formula_units_Z   2
loop_
 _symmetry_equiv_pos_site_id
 _symmetry_equiv_pos_as_xyz
  1  'x, y, z'
loop_
 _atom_site_type_symbol
 _atom_site_label
 _atom_site_symmetry_multiplicity
 _atom_site_fract_x
 _atom_site_fract_y
 _atom_site_fract_z
 _atom_site_occupancy
  Ta  Ta0  1  0.25004800  0.31830000  0.68441600  1
  Ta  Ta1  1  0.25004800  0.68170000  0.31558400  1
  Ta  Ta2  1  0.74583200  0.81794000  0.82058300  1
  Ta  Ta3  1  0.74583200  0.18206000  0.17941700  1
  Ta  Ta4  1  0.74995200  0.68170000  0.31558400  1
  Ta  Ta5  1  0.74995200  0.31830000  0.68441600  1
  Ta  Ta6  1  0.25416800  0.18206000  0.17941700  1
  Ta  Ta7  1  0.25416800  0.81794000  0.82058300  1
  Ta  Ta8  1  0.50000000  0.10289600  0.89678300  1
  Ta  Ta9  1  0.50000000  0.89710400  0.10321700  1
  Ta  Ta10  1  0.00000000  0.60213000  0.60226600  1
  Ta  Ta11  1  0.00000000  0.39787000  0.39773400  1
  Ta  Ta12  1  0.50000000  0.03601800  0.62994900  1
  Ta  Ta13  1  0.50000000  0.96398200  0.37005100  1
  Ta  Ta14  1  0.00000000  0.53542700  0.87363500  1
  Ta  Ta15  1  0.00000000  0.46457300  0.12636500  1
  Ta  Ta16  1  0.50000000  0.62868200  0.03550200  1
  Ta  Ta17  1  0.50000000  0.37131800  0.96449800  1
  Ta  Ta18  1  0.00000000  0.87071200  0.53606700  1
  Ta  Ta19  1  0.00000000  0.12928800  0.46393300  1
  Ta  Ta20  1  0.50000000  0.75779600  0.56613600  1
  Ta  Ta21  1  0.50000000  0.24220400  0.43386400  1
  Al  Al22  1  0.00000000  0.26286900  0.93411700  1
  Al  Al23  1  0.00000000  0.73713100  0.06588300  1
  Al  Al24  1  0.50000000  0.56627000  0.76435200  1
  Al  Al25  1  0.50000000  0.43373000  0.23564800  1
  Al  Al26  1  0.00000000  0.93273000  0.26064800  1
  Al  Al27  1  0.00000000  0.06727000  0.73935200  1
  Al  Al28  1  0.50000000  0.50000000  0.50000000  1
  Al  Al29  1  0.00000000  0.00000000  0.00000000  1
