# generated using pymatgen
data_TaTiGaO6
_symmetry_space_group_name_H-M   'P 1'
_cell_length_a   4.67834600
_cell_length_b   4.67834600
_cell_length_c   9.08080300
_cell_angle_alpha   90.00000000
_cell_angle_beta   90.00000000
_cell_angle_gamma   90.00000000
_symmetry_Int_Tables_number   1
_chemical_formula_structural   TaTiGaO6
_chemical_formula_sum   'Ta2 Ti2 Ga2 O12'
_cell_volume   198.75082056
_cell_formula_units_Z   2
loop_
 _symmetry_equiv_pos_site_id
 _symmetry_equiv_pos_as_xyz
  1  'x, y, z'
loop_
 _atom_site_type_symbol
 _atom_site_label
 _atom_site_symmetry_multiplicity
 _atom_site_fract_x
 _atom_site_fract_y
 _atom_site_fract_z
 _atom_site_occupancy
  Ta  Ta0  1  0.50000000  0.50000000  0.83343800  1
  Ta  Ta1  1  0.00000000  0.00000000  0.33343800  1
  Ti  Ti2  1  0.50000000  0.50000000  0.49936700  1
  Ti  Ti3  1  0.00000000  0.00000000  0.99936700  1
  Ga  Ga4  1  0.50000000  0.50000000  0.16734200  1
  Ga  Ga5  1  0.00000000  0.00000000  0.66734200  1
  O  O6  1  0.19481600  0.80518400  0.16577700  1
  O  O7  1  0.19931200  0.80068800  0.49899600  1
  O  O8  1  0.19540200  0.80459800  0.83515300  1
  O  O9  1  0.80518400  0.19481600  0.16577700  1
  O  O10  1  0.80068800  0.19931200  0.49899600  1
  O  O11  1  0.80459800  0.19540200  0.83515300  1
  O  O12  1  0.30068800  0.30068800  0.99899600  1
  O  O13  1  0.30459800  0.30459800  0.33515300  1
  O  O14  1  0.30518400  0.30518400  0.66577700  1
  O  O15  1  0.69931200  0.69931200  0.99899600  1
  O  O16  1  0.69540200  0.69540200  0.33515300  1
  O  O17  1  0.69481600  0.69481600  0.66577700  1
