# generated using pymatgen
data_TaTiWC3
_symmetry_space_group_name_H-M   'P 1'
_cell_length_a   3.11241349
_cell_length_b   3.11241349
_cell_length_c   7.63864100
_cell_angle_alpha   90.00000000
_cell_angle_beta   90.00000000
_cell_angle_gamma   119.99998912
_symmetry_Int_Tables_number   1
_chemical_formula_structural   TaTiWC3
_chemical_formula_sum   'Ta1 Ti1 W1 C3'
_cell_volume   64.08278185
_cell_formula_units_Z   1
loop_
 _symmetry_equiv_pos_site_id
 _symmetry_equiv_pos_as_xyz
  1  'x, y, z'
loop_
 _atom_site_type_symbol
 _atom_site_label
 _atom_site_symmetry_multiplicity
 _atom_site_fract_x
 _atom_site_fract_y
 _atom_site_fract_z
 _atom_site_occupancy
  Ta  Ta0  1  0.33333300  0.66666700  0.16975000  1
  Ti  Ti1  1  0.00000000  0.00000000  0.50200500  1
  W  W2  1  0.66666700  0.33333300  0.82895200  1
  C  C3  1  0.33333300  0.66666700  0.66698300  1
  C  C4  1  0.00000000  0.00000000  0.99539800  1
  C  C5  1  0.66666700  0.33333300  0.33691300  1
