# generated using pymatgen
data_TaOs3
_symmetry_space_group_name_H-M   'P 1'
_cell_length_a   2.78764578
_cell_length_b   2.78764578
_cell_length_c   9.08698700
_cell_angle_alpha   90.00000000
_cell_angle_beta   90.00000000
_cell_angle_gamma   119.99999480
_symmetry_Int_Tables_number   1
_chemical_formula_structural   TaOs3
_chemical_formula_sum   'Ta1 Os3'
_cell_volume   61.15412234
_cell_formula_units_Z   1
loop_
 _symmetry_equiv_pos_site_id
 _symmetry_equiv_pos_as_xyz
  1  'x, y, z'
loop_
 _atom_site_type_symbol
 _atom_site_label
 _atom_site_symmetry_multiplicity
 _atom_site_fract_x
 _atom_site_fract_y
 _atom_site_fract_z
 _atom_site_occupancy
  Ta  Ta0  1  0.66666700  0.33333300  0.00000000  1
  Os  Os1  1  0.66666700  0.33333300  0.50000000  1
  Os  Os2  1  0.33333300  0.66666700  0.26478600  1
  Os  Os3  1  0.33333300  0.66666700  0.73521400  1
