# generated using pymatgen
data_TaWNO6
_symmetry_space_group_name_H-M   'P 1'
_cell_length_a   7.45588058
_cell_length_b   7.45588058
_cell_length_c   7.45588058
_cell_angle_alpha   120.28791795
_cell_angle_beta   119.66064187
_cell_angle_gamma   90.04541204
_symmetry_Int_Tables_number   1
_chemical_formula_structural   TaWNO6
_chemical_formula_sum   'Ta2 W2 N2 O12'
_cell_volume   293.17993004
_cell_formula_units_Z   2
loop_
 _symmetry_equiv_pos_site_id
 _symmetry_equiv_pos_as_xyz
  1  'x, y, z'
loop_
 _atom_site_type_symbol
 _atom_site_label
 _atom_site_symmetry_multiplicity
 _atom_site_fract_x
 _atom_site_fract_y
 _atom_site_fract_z
 _atom_site_occupancy
  Ta  Ta0  1  0.00000000  0.00000000  0.00000000  1
  Ta  Ta1  1  0.50000000  0.00000000  0.50000000  1
  W  W2  1  0.50000000  0.00000000  0.00000000  1
  W  W3  1  0.50000000  0.50000000  0.50000000  1
  N  N4  1  0.87571900  0.62571900  0.25000000  1
  N  N5  1  0.12428100  0.37428100  0.75000000  1
  O  O6  1  0.18941600  0.93941600  0.25000000  1
  O  O7  1  0.55591700  0.30591700  0.25000000  1
  O  O8  1  0.19684300  0.93969800  0.88442000  1
  O  O9  1  0.55527800  0.31242300  0.61558000  1
  O  O10  1  0.55527800  0.93969800  0.24285500  1
  O  O11  1  0.19684300  0.31242300  0.25714500  1
  O  O12  1  0.81058400  0.06058400  0.75000000  1
  O  O13  1  0.44408300  0.69408300  0.75000000  1
  O  O14  1  0.80315700  0.06030200  0.11558000  1
  O  O15  1  0.44472200  0.68757700  0.38442000  1
  O  O16  1  0.44472200  0.06030200  0.75714500  1
  O  O17  1  0.80315700  0.68757700  0.74285500  1
