# generated using pymatgen
data_Ba(NiAs)2
_symmetry_space_group_name_H-M   'P 1'
_cell_length_a   6.47823184
_cell_length_b   6.47823184
_cell_length_c   4.18833608
_cell_angle_alpha   71.73793905
_cell_angle_beta   71.73793905
_cell_angle_gamma   37.58223259
_symmetry_Int_Tables_number   1
_chemical_formula_structural   Ba(NiAs)2
_chemical_formula_sum   'Ba1 Ni2 As2'
_cell_volume   101.16114835
_cell_formula_units_Z   1
loop_
 _symmetry_equiv_pos_site_id
 _symmetry_equiv_pos_as_xyz
  1  'x, y, z'
loop_
 _atom_site_type_symbol
 _atom_site_label
 _atom_site_symmetry_multiplicity
 _atom_site_fract_x
 _atom_site_fract_y
 _atom_site_fract_z
 _atom_site_occupancy
  Ba  Ba0  1  0.00000000  0.00000000  0.00000000  1
  Ni  Ni1  1  0.74974900  0.74974900  0.77889500  1
  Ni  Ni2  1  0.25025100  0.25025100  0.22110500  1
  As  As3  1  0.34517800  0.34517800  0.63395500  1
  As  As4  1  0.65482200  0.65482200  0.36604500  1
