# generated using pymatgen
data_Ta2Cr3Cu
_symmetry_space_group_name_H-M   'P 1'
_cell_length_a   4.79264807
_cell_length_b   4.79264807
_cell_length_c   8.32320900
_cell_angle_alpha   90.00000000
_cell_angle_beta   90.00000000
_cell_angle_gamma   120.00000096
_symmetry_Int_Tables_number   1
_chemical_formula_structural   Ta2Cr3Cu
_chemical_formula_sum   'Ta4 Cr6 Cu2'
_cell_volume   165.56651458
_cell_formula_units_Z   2
loop_
 _symmetry_equiv_pos_site_id
 _symmetry_equiv_pos_as_xyz
  1  'x, y, z'
loop_
 _atom_site_type_symbol
 _atom_site_label
 _atom_site_symmetry_multiplicity
 _atom_site_fract_x
 _atom_site_fract_y
 _atom_site_fract_z
 _atom_site_occupancy
  Ta  Ta0  1  0.33333300  0.66666700  0.43388200  1
  Ta  Ta1  1  0.66666700  0.33333300  0.56611800  1
  Ta  Ta2  1  0.66666700  0.33333300  0.93388200  1
  Ta  Ta3  1  0.33333300  0.66666700  0.06611800  1
  Cr  Cr4  1  0.82880800  0.17119200  0.25000000  1
  Cr  Cr5  1  0.82880800  0.65761600  0.25000000  1
  Cr  Cr6  1  0.34238400  0.17119200  0.25000000  1
  Cr  Cr7  1  0.17119200  0.82880800  0.75000000  1
  Cr  Cr8  1  0.17119200  0.34238400  0.75000000  1
  Cr  Cr9  1  0.65761600  0.82880800  0.75000000  1
  Cu  Cu10  1  0.00000000  0.00000000  0.50000000  1
  Cu  Cu11  1  0.00000000  0.00000000  0.00000000  1
