# generated using pymatgen
data_SrU3(SeO9)2
_symmetry_space_group_name_H-M   'P 1'
_cell_length_a   9.35534372
_cell_length_b   9.35534372
_cell_length_c   6.94699109
_cell_angle_alpha   81.67959152
_cell_angle_beta   81.67959152
_cell_angle_gamma   44.85560457
_symmetry_Int_Tables_number   1
_chemical_formula_structural   SrU3(SeO9)2
_chemical_formula_sum   'Sr1 U3 Se2 O18'
_cell_volume   423.56089861
_cell_formula_units_Z   1
loop_
 _symmetry_equiv_pos_site_id
 _symmetry_equiv_pos_as_xyz
  1  'x, y, z'
loop_
 _atom_site_type_symbol
 _atom_site_label
 _atom_site_symmetry_multiplicity
 _atom_site_fract_x
 _atom_site_fract_y
 _atom_site_fract_z
 _atom_site_occupancy
  Sr  Sr0  1  0.33434700  0.66565300  0.50000000  1
  U  U1  1  0.39249100  0.39370600  0.04676900  1
  U  U2  1  0.60629400  0.60750900  0.95323100  1
  U  U3  1  0.00212700  0.99787300  0.00000000  1
  Se  Se4  1  0.20469100  0.20725900  0.88532000  1
  Se  Se5  1  0.79274100  0.79530900  0.11468000  1
  O  O6  1  0.31743700  0.68256300  0.00000000  1
  O  O7  1  0.68519600  0.31480400  0.00000000  1
  O  O8  1  0.02168100  0.97747200  0.26484400  1
  O  O9  1  0.02252800  0.97831900  0.73515600  1
  O  O10  1  0.38359200  0.40792700  0.77817900  1
  O  O11  1  0.59207300  0.61640800  0.22182100  1
  O  O12  1  0.38398000  0.40868400  0.31317900  1
  O  O13  1  0.59131600  0.61602000  0.68682100  1
  O  O14  1  0.96142800  0.30981400  0.93929600  1
  O  O15  1  0.30661200  0.96422600  0.94240600  1
  O  O16  1  0.03577400  0.69338800  0.05759400  1
  O  O17  1  0.69018600  0.03857200  0.06070400  1
  O  O18  1  0.25253300  0.25707700  0.08153500  1
  O  O19  1  0.74292300  0.74746700  0.91846500  1
  O  O20  1  0.96260200  0.65064100  0.53498200  1
  O  O21  1  0.34935900  0.03739800  0.46501800  1
  O  O22  1  0.49725800  0.00106900  0.50325200  1
  O  O23  1  0.99893100  0.50274200  0.49674800  1
