# generated using pymatgen
data_SrTiNb2Bi2PbO12
_symmetry_space_group_name_H-M   'P 1'
_cell_length_a   3.94930592
_cell_length_b   3.94930592
_cell_length_c   16.75051455
_cell_angle_alpha   83.22988050
_cell_angle_beta   83.22988050
_cell_angle_gamma   90.00000000
_symmetry_Int_Tables_number   1
_chemical_formula_structural   SrTiNb2Bi2PbO12
_chemical_formula_sum   'Sr1 Ti1 Nb2 Bi2 Pb1 O12'
_cell_volume   257.60174118
_cell_formula_units_Z   1
loop_
 _symmetry_equiv_pos_site_id
 _symmetry_equiv_pos_as_xyz
  1  'x, y, z'
loop_
 _atom_site_type_symbol
 _atom_site_label
 _atom_site_symmetry_multiplicity
 _atom_site_fract_x
 _atom_site_fract_y
 _atom_site_fract_z
 _atom_site_occupancy
  Sr  Sr0  1  0.94034400  0.94034400  0.11931300  1
  Ti  Ti1  1  0.49914400  0.49914400  0.00171300  1
  Nb  Nb2  1  0.62861800  0.62861800  0.74276500  1
  Nb  Nb3  1  0.37271000  0.37271000  0.25458100  1
  Bi  Bi4  1  0.21238000  0.21238000  0.57524000  1
  Bi  Bi5  1  0.78667300  0.78667300  0.42665500  1
  Pb  Pb6  1  0.05757000  0.05757000  0.88485900  1
  O  O7  1  0.55987100  0.55987100  0.88025800  1
  O  O8  1  0.43961900  0.43961900  0.12076300  1
  O  O9  1  0.24986100  0.74986100  0.50027800  1
  O  O10  1  0.74986100  0.24986100  0.50027800  1
  O  O11  1  0.12179500  0.62179500  0.75641100  1
  O  O12  1  0.38070500  0.88070500  0.23858900  1
  O  O13  1  0.88070500  0.38070500  0.23858900  1
  O  O14  1  0.62179500  0.12179500  0.75641100  1
  O  O15  1  0.68627200  0.68627200  0.62745600  1
  O  O16  1  0.31517300  0.31517300  0.36965400  1
  O  O17  1  0.99845300  0.49845300  0.00309400  1
  O  O18  1  0.49845300  0.99845300  0.00309400  1
