# generated using pymatgen
data_V30Cu34O95
_symmetry_space_group_name_H-M   'P 1'
_cell_length_a   12.95880380
_cell_length_b   12.95880381
_cell_length_c   14.22983553
_cell_angle_alpha   117.08675945
_cell_angle_beta   62.91324057
_cell_angle_gamma   119.99999482
_symmetry_Int_Tables_number   1
_chemical_formula_structural   V30Cu34O95
_chemical_formula_sum   'V30 Cu34 O95'
_cell_volume   1760.33826263
_cell_formula_units_Z   1
loop_
 _symmetry_equiv_pos_site_id
 _symmetry_equiv_pos_as_xyz
  1  'x, y, z'
loop_
 _atom_site_type_symbol
 _atom_site_label
 _atom_site_symmetry_multiplicity
 _atom_site_fract_x
 _atom_site_fract_y
 _atom_site_fract_z
 _atom_site_occupancy
  V  V0  1  0.08404337  0.79900287  0.80345122  1
  V  V1  1  0.68401439  0.19876124  0.00324599  1
  V  V2  1  0.28546906  0.59713383  0.20098262  1
  V  V3  1  0.88417464  0.99892296  0.40334361  1
  V  V4  1  0.48086662  0.40468842  0.60932361  1
  V  V5  1  0.31449819  0.51913338  0.60932361  1
  V  V6  1  0.91150828  0.91595663  0.80345122  1
  V  V7  1  0.51150086  0.31598561  0.00324599  1
  V  V8  1  0.11068215  0.71453094  0.20098262  1
  V  V9  1  0.71140471  0.11582536  0.40334361  1
  V  V10  1  0.00107704  0.28859529  0.40334361  1
  V  V11  1  0.59531158  0.68550181  0.60932361  1
  V  V12  1  0.20099713  0.08849172  0.80345122  1
  V  V13  1  0.80123876  0.48849914  0.00324599  1
  V  V14  1  0.40286617  0.88931785  0.20098262  1
  V  V15  1  0.91582536  0.20107704  0.19665639  1
  V  V16  1  0.51453094  0.60286617  0.39901738  1
  V  V17  1  0.11598561  0.00123876  0.59675401  1
  V  V18  1  0.71595663  0.40099713  0.79654878  1
  V  V19  1  0.31913338  0.79531158  0.99067639  1
  V  V20  1  0.68931785  0.48546906  0.39901738  1
  V  V21  1  0.28849914  0.88401439  0.59675401  1
  V  V22  1  0.88849172  0.28404337  0.79654878  1
  V  V23  1  0.48550181  0.68086662  0.99067639  1
  V  V24  1  0.08859529  0.08417464  0.19665639  1
  V  V25  1  0.99876124  0.71150086  0.59675401  1
  V  V26  1  0.59900287  0.11150828  0.79654878  1
  V  V27  1  0.20468842  0.51449819  0.99067639  1
  V  V28  1  0.79892296  0.91140471  0.19665639  1
  V  V29  1  0.39713383  0.31068215  0.39901738  1
  Cu  Cu30  1  0.99987751  0.00012249  0.00036747  1
  Cu  Cu31  1  0.59950085  0.40049915  0.20149745  1
  Cu  Cu32  1  0.20049915  0.79950085  0.39850255  1
  Cu  Cu33  1  0.80012249  0.19987751  0.59963253  1
  Cu  Cu34  1  0.50258301  0.17939367  0.65687208  1
  Cu  Cu35  1  0.10415994  0.57901884  0.85701073  1
  Cu  Cu36  1  0.70140118  0.97781186  0.05725391  1
  Cu  Cu37  1  0.30343516  0.37914972  0.25775295  1
  Cu  Cu38  1  0.90189378  0.77813493  0.45729681  1
  Cu  Cu39  1  0.21915677  0.29859882  0.05725391  1
  Cu  Cu40  1  0.81796161  0.69656484  0.25775295  1
  Cu  Cu41  1  0.41894434  0.09810622  0.45729681  1
  Cu  Cu42  1  0.01993858  0.49741699  0.65687208  1
  Cu  Cu43  1  0.61784816  0.89584006  0.85701073  1
  Cu  Cu44  1  0.42098116  0.38215184  0.85701073  1
  Cu  Cu45  1  0.02218814  0.78084323  0.05725391  1
  Cu  Cu46  1  0.62085028  0.18203839  0.25775295  1
  Cu  Cu47  1  0.22186507  0.58105566  0.45729681  1
  Cu  Cu48  1  0.82060633  0.98006142  0.65687208  1
  Cu  Cu49  1  0.89810622  0.42186507  0.14270319  1
  Cu  Cu50  1  0.49656484  0.82085028  0.34224705  1
  Cu  Cu51  1  0.09859882  0.22218814  0.54274609  1
  Cu  Cu52  1  0.69584006  0.62098116  0.74298927  1
  Cu  Cu53  1  0.29741699  0.02060633  0.94312792  1
  Cu  Cu54  1  0.18215184  0.30415994  0.74298927  1
  Cu  Cu55  1  0.78006142  0.70258301  0.94312792  1
  Cu  Cu56  1  0.38105566  0.10189378  0.14270319  1
  Cu  Cu57  1  0.98203839  0.50343516  0.34224705  1
  Cu  Cu58  1  0.58084323  0.90140118  0.54274609  1
  Cu  Cu59  1  0.97939367  0.21993858  0.94312792  1
  Cu  Cu60  1  0.57813493  0.61894434  0.14270319  1
  Cu  Cu61  1  0.17914972  0.01796161  0.34224705  1
  Cu  Cu62  1  0.77781186  0.41915677  0.54274609  1
  Cu  Cu63  1  0.37901884  0.81784816  0.74298927  1
  O  O64  1  0.90000000  0.10000000  0.30000000  1
  O  O65  1  0.50028095  0.49971905  0.49915714  1
  O  O66  1  0.10002264  0.89997736  0.69993208  1
  O  O67  1  0.69997736  0.30002264  0.90006792  1
  O  O68  1  0.29971905  0.70028095  0.10084286  1
  O  O69  1  0.82122922  0.26964753  0.48314833  1
  O  O70  1  0.42323778  0.67067595  0.67807886  1
  O  O71  1  0.02136382  0.06950413  0.88289324  1
  O  O72  1  0.62111018  0.46946950  0.08375465  1
  O  O73  1  0.22039441  0.86892227  0.28493699  1
  O  O74  1  0.56935931  0.57676222  0.67807886  1
  O  O75  1  0.16524707  0.97863618  0.88289324  1
  O  O76  1  0.76460467  0.37888982  0.08375465  1
  O  O77  1  0.36359086  0.77960559  0.28493699  1
  O  O78  1  0.96526998  0.17877078  0.48314833  1
  O  O79  1  0.93049587  0.83475293  0.88289324  1
  O  O80  1  0.53053050  0.23539533  0.08375465  1
  O  O81  1  0.13107773  0.63640914  0.28493699  1
  O  O82  1  0.73035247  0.03473002  0.48314833  1
  O  O83  1  0.32932405  0.43064069  0.67807886  1
  O  O84  1  0.17888982  0.73053050  0.51624535  1
  O  O85  1  0.77863618  0.13049587  0.71710676  1
  O  O86  1  0.37676222  0.52932405  0.92192114  1
  O  O87  1  0.97877078  0.93035247  0.11685167  1
  O  O88  1  0.57960559  0.33107773  0.31506301  1
  O  O89  1  0.43640914  0.42039441  0.31506301  1
  O  O90  1  0.03539533  0.82111018  0.51624535  1
  O  O91  1  0.63475293  0.22136382  0.71710676  1
  O  O92  1  0.23064069  0.62323778  0.92192114  1
  O  O93  1  0.83473002  0.02122922  0.11685167  1
  O  O94  1  0.06964753  0.16526998  0.11685167  1
  O  O95  1  0.66892227  0.56359086  0.31506301  1
  O  O96  1  0.26946950  0.96460467  0.51624535  1
  O  O97  1  0.86950413  0.36524707  0.71710676  1
  O  O98  1  0.47067595  0.76935931  0.92192114  1
  O  O99  1  0.98752775  0.33892120  0.30334646  1
  O  O100  1  0.58909607  0.73796941  0.50167732  1
  O  O101  1  0.18750293  0.13891361  0.70326800  1
  O  O102  1  0.78747336  0.53880518  0.90342621  1
  O  O103  1  0.38551187  0.93745417  0.10395234  1
  O  O104  1  0.64719602  0.41090393  0.50167732  1
  O  O105  1  0.24814269  0.81249707  0.70326800  1
  O  O106  1  0.84790561  0.21252664  0.90342621  1
  O  O107  1  0.44798997  0.61448813  0.10395234  1
  O  O108  1  0.04804698  0.01247225  0.30334646  1
  O  O109  1  0.86108639  0.75185731  0.70326800  1
  O  O110  1  0.46119482  0.15209439  0.90342621  1
  O  O111  1  0.06254583  0.55201003  0.10395234  1
  O  O112  1  0.66107880  0.95195302  0.30334646  1
  O  O113  1  0.26203059  0.35280398  0.50167732  1
  O  O114  1  0.01252664  0.66119482  0.69657379  1
  O  O115  1  0.61249707  0.06108639  0.89673200  1
  O  O116  1  0.21090393  0.46203059  0.09832268  1
  O  O117  1  0.81247225  0.86107880  0.29665354  1
  O  O118  1  0.41448813  0.26254583  0.49604766  1
  O  O119  1  0.35201003  0.58551187  0.49604766  1
  O  O120  1  0.95209439  0.98747336  0.69657379  1
  O  O121  1  0.55185731  0.38750293  0.89673200  1
  O  O122  1  0.15280398  0.78909607  0.09832268  1
  O  O123  1  0.75195302  0.18752775  0.29665354  1
  O  O124  1  0.13892120  0.24804698  0.29665354  1
  O  O125  1  0.73745417  0.64798997  0.49604766  1
  O  O126  1  0.33880518  0.04790561  0.69657379  1
  O  O127  1  0.93891361  0.44814269  0.89673200  1
  O  O128  1  0.53796941  0.84719602  0.09832268  1
  O  O129  1  0.27102034  0.53073795  0.28976283  1
  O  O130  1  0.87112726  0.93136168  0.49011676  1
  O  O131  1  0.47051794  0.33189739  0.69075057  1
  O  O132  1  0.07060018  0.73098954  0.89003350  1
  O  O133  1  0.67115675  0.13092312  0.08966978  1
  O  O134  1  0.17062888  0.52948206  0.69075057  1
  O  O135  1  0.77035586  0.92939982  0.89003350  1
  O  O136  1  0.37009659  0.32884325  0.08966978  1
  O  O137  1  0.96995478  0.72897966  0.28976283  1
  O  O138  1  0.57011766  0.12887274  0.49011676  1
  O  O139  1  0.06863832  0.42988234  0.49011676  1
  O  O140  1  0.66810261  0.82937112  0.69075057  1
  O  O141  1  0.26901046  0.22964414  0.89003350  1
  O  O142  1  0.86907688  0.62990341  0.08966978  1
  O  O143  1  0.46926205  0.03004522  0.28976283  1
  O  O144  1  0.72939982  0.46901046  0.70996650  1
  O  O145  1  0.32948206  0.86810261  0.90924943  1
  O  O146  1  0.92887274  0.26863832  0.10988324  1
  O  O147  1  0.52897966  0.66926205  0.31023717  1
  O  O148  1  0.12884325  0.06907688  0.51033022  1
  O  O149  1  0.83004522  0.47102034  0.31023717  1
  O  O150  1  0.42990341  0.87115675  0.51033022  1
  O  O151  1  0.02964414  0.27060018  0.70996650  1
  O  O152  1  0.62937112  0.67051794  0.90924943  1
  O  O153  1  0.22988234  0.07112726  0.10988324  1
  O  O154  1  0.93092312  0.57009659  0.51033022  1
  O  O155  1  0.53098954  0.97035586  0.70996650  1
  O  O156  1  0.13189739  0.37062888  0.90924943  1
  O  O157  1  0.73136168  0.77011766  0.10988324  1
  O  O158  1  0.33073795  0.16995478  0.31023717  1
