# generated using pymatgen
data_TbAgH18C20(NO2)6
_symmetry_space_group_name_H-M   'P 1'
_cell_length_a   7.08999007
_cell_length_b   12.20257757
_cell_length_c   14.65189224
_cell_angle_alpha   80.32345845
_cell_angle_beta   76.80907275
_cell_angle_gamma   83.82283453
_symmetry_Int_Tables_number   1
_chemical_formula_structural   TbAgH18C20(NO2)6
_chemical_formula_sum   'Tb2 Ag2 H36 C40 N12 O24'
_cell_volume   1213.44895776
_cell_formula_units_Z   2
loop_
 _symmetry_equiv_pos_site_id
 _symmetry_equiv_pos_as_xyz
  1  'x, y, z'
loop_
 _atom_site_type_symbol
 _atom_site_label
 _atom_site_symmetry_multiplicity
 _atom_site_fract_x
 _atom_site_fract_y
 _atom_site_fract_z
 _atom_site_occupancy
  Tb  Tb0  1  0.16473900  0.01957800  0.19542100  1
  Tb  Tb1  1  0.83526100  0.98042200  0.80457900  1
  Ag  Ag2  1  0.26305400  0.42253700  0.50912800  1
  Ag  Ag3  1  0.73694600  0.57746300  0.49087200  1
  H  H4  1  0.13557200  0.85399800  0.05998400  1
  H  H5  1  0.86442800  0.14600200  0.94001700  1
  H  H6  1  0.12863600  0.39052400  0.75212100  1
  H  H7  1  0.87136400  0.60947600  0.24787900  1
  H  H8  1  0.82085400  0.17031600  0.10755100  1
  H  H9  1  0.17914600  0.82968400  0.89244900  1
  H  H10  1  0.84423300  0.28873000  0.58003200  1
  H  H11  1  0.15576700  0.71127000  0.41996800  1
  H  H12  1  0.58450400  0.93128500  0.15062500  1
  H  H13  1  0.41549600  0.06871500  0.84937500  1
  H  H14  1  0.70932900  0.09401400  0.19695600  1
  H  H15  1  0.29067100  0.90598600  0.80304400  1
  H  H16  1  0.14539700  0.06157100  0.53445600  1
  H  H17  1  0.85460300  0.93842900  0.46554400  1
  H  H18  1  0.55309500  0.92431000  0.04946700  1
  H  H19  1  0.44690500  0.07569000  0.95053300  1
  H  H20  1  0.17657800  0.43596000  0.15310700  1
  H  H21  1  0.82342200  0.56404000  0.84689300  1
  H  H22  1  0.30885100  0.64086100  0.88002500  1
  H  H23  1  0.69114900  0.35913900  0.11997500  1
  H  H24  1  0.30814100  0.28416500  0.89975500  1
  H  H25  1  0.69185900  0.71583500  0.10024500  1
  H  H26  1  0.41385500  0.80915500  0.24425100  1
  H  H27  1  0.58614500  0.19084500  0.75574900  1
  H  H28  1  0.57079700  0.23009800  0.61356200  1
  H  H29  1  0.42920300  0.76990200  0.38643800  1
  H  H30  1  0.89366900  0.27697700  0.28778800  1
  H  H31  1  0.10633100  0.72302300  0.71221200  1
  H  H32  1  0.64576000  0.17166800  0.32421200  1
  H  H33  1  0.35424000  0.82833200  0.67578800  1
  H  H34  1  0.24112900  0.76101800  0.21326400  1
  H  H35  1  0.75887100  0.23898200  0.78673600  1
  H  H36  1  0.62965000  0.55955200  0.73848500  1
  H  H37  1  0.37035000  0.44044800  0.26151500  1
  H  H38  1  0.93556400  0.90332600  0.11704800  1
  H  H39  1  0.06443600  0.09667400  0.88295200  1
  C  C40  1  0.31484300  0.07426900  0.34505000  1
  C  C41  1  0.68515700  0.92573100  0.65495000  1
  C  C42  1  0.28966700  0.35831000  0.93394300  1
  C  C43  1  0.71033300  0.64169000  0.06605700  1
  C  C44  1  0.24195500  0.34864300  0.03256900  1
  C  C45  1  0.75804500  0.65135700  0.96743100  1
  C  C46  1  0.26230100  0.43252900  0.72450000  1
  C  C47  1  0.73769900  0.56747100  0.27550000  1
  C  C48  1  0.21637000  0.44480900  0.07608600  1
  C  C49  1  0.78363000  0.55519100  0.92391400  1
  C  C50  1  0.24020000  0.55070300  0.02204900  1
  C  C51  1  0.75980000  0.44929700  0.97795100  1
  C  C52  1  0.38609200  0.11579900  0.42119000  1
  C  C53  1  0.61390800  0.88420100  0.57881000  1
  C  C54  1  0.29034400  0.55930400  0.92317100  1
  C  C55  1  0.70965600  0.44069600  0.07682900  1
  C  C56  1  0.21310700  0.65652600  0.06711000  1
  C  C57  1  0.78689300  0.34347400  0.93289000  1
  C  C58  1  0.91563300  0.29762000  0.35360000  1
  C  C59  1  0.08436700  0.70238000  0.64640000  1
  C  C60  1  0.28020600  0.10349600  0.51519500  1
  C  C61  1  0.71979400  0.89650400  0.48480500  1
  C  C62  1  0.51692000  0.52114600  0.71831600  1
  C  C63  1  0.48308000  0.47885400  0.28168400  1
  C  C64  1  0.31386300  0.46347800  0.88076800  1
  C  C65  1  0.68613700  0.53652200  0.11923200  1
  C  C66  1  0.56226800  0.16661200  0.39675600  1
  C  C67  1  0.43773200  0.83338800  0.60324400  1
  C  C68  1  0.88993800  0.30341600  0.50327400  1
  C  C69  1  0.11006200  0.69658400  0.49672600  1
  C  C70  1  0.62729600  0.20914000  0.46563400  1
  C  C71  1  0.37270400  0.79086000  0.53436600  1
  C  C72  1  0.22078800  0.23460300  0.08949900  1
  C  C73  1  0.77921200  0.76539700  0.91050100  1
  C  C74  1  0.34975400  0.14300400  0.58507300  1
  C  C75  1  0.65024600  0.85699600  0.41492700  1
  C  C76  1  0.52076800  0.19838700  0.55900100  1
  C  C77  1  0.47923200  0.80161300  0.44099900  1
  C  C78  1  0.24853600  0.12337900  0.68900300  1
  C  C79  1  0.75146400  0.87662100  0.31099700  1
  N  N80  1  0.35064200  0.45553800  0.63466300  1
  N  N81  1  0.64935800  0.54446200  0.36533700  1
  N  N82  1  0.06038700  0.35305800  0.35980700  1
  N  N83  1  0.93961300  0.64694100  0.64019300  1
  N  N84  1  0.51220200  0.51152800  0.63060700  1
  N  N85  1  0.48779800  0.48847200  0.36939300  1
  N  N86  1  0.36220200  0.47273500  0.77954000  1
  N  N87  1  0.63779800  0.52726500  0.22046000  1
  N  N88  1  0.80275700  0.26533900  0.44180500  1
  N  N89  1  0.19724300  0.73466100  0.55819500  1
  N  N90  1  0.04320200  0.35635100  0.45496800  1
  N  N91  1  0.95679800  0.64364900  0.54503200  1
  O  O92  1  0.13627900  0.05686800  0.35788300  1
  O  O93  1  0.86372100  0.94313200  0.64211700  1
  O  O94  1  0.24731800  0.14884900  0.04653000  1
  O  O95  1  0.75268200  0.85115100  0.95347000  1
  O  O96  1  0.10057400  0.06687300  0.70815800  1
  O  O97  1  0.89942600  0.93312700  0.29184200  1
  O  O98  1  0.27178100  0.81477600  0.25164100  1
  O  O99  1  0.72821900  0.18522400  0.74835900  1
  O  O100  1  0.83508600  0.12584700  0.16888300  1
  O  O101  1  0.16491400  0.87415300  0.83111700  1
  O  O102  1  0.31676500  0.16172100  0.74974600  1
  O  O103  1  0.68323500  0.83827900  0.25025400  1
  O  O104  1  0.43438300  0.05772100  0.26746700  1
  O  O105  1  0.56561700  0.94227900  0.73253300  1
  O  O106  1  0.19326800  0.64711200  0.15631900  1
  O  O107  1  0.80673200  0.35288800  0.84368100  1
  O  O108  1  0.17466200  0.22421800  0.17940300  1
  O  O109  1  0.82533800  0.77578200  0.82059700  1
  O  O110  1  0.21325700  0.74871500  0.01046300  1
  O  O111  1  0.78674300  0.25128500  0.98953700  1
  O  O112  1  0.07028400  0.92101000  0.09150900  1
  O  O113  1  0.92971600  0.07899000  0.90849100  1
  O  O114  1  0.50129600  0.96188900  0.10536800  1
  O  O115  1  0.49870400  0.03811100  0.89463200  1
