# generated using pymatgen
data_Tb24Fe3CoBi8
_symmetry_space_group_name_H-M   'P 1'
_cell_length_a   4.18406800
_cell_length_b   8.40304838
_cell_length_c   29.18045953
_cell_angle_alpha   89.95261703
_cell_angle_beta   90.00000000
_cell_angle_gamma   90.00000000
_symmetry_Int_Tables_number   1
_chemical_formula_structural   Tb24Fe3CoBi8
_chemical_formula_sum   'Tb24 Fe3 Co1 Bi8'
_cell_volume   1025.95326082
_cell_formula_units_Z   1
loop_
 _symmetry_equiv_pos_site_id
 _symmetry_equiv_pos_as_xyz
  1  'x, y, z'
loop_
 _atom_site_type_symbol
 _atom_site_label
 _atom_site_symmetry_multiplicity
 _atom_site_fract_x
 _atom_site_fract_y
 _atom_site_fract_z
 _atom_site_occupancy
  Tb  Tb0  1  0.00000000  0.37224900  0.19159900  1
  Tb  Tb1  1  0.00000000  0.87171900  0.44171300  1
  Tb  Tb2  1  0.00000000  0.37162900  0.69176200  1
  Tb  Tb3  1  0.00000000  0.87268300  0.94235600  1
  Tb  Tb4  1  0.50000000  0.09803100  0.25049100  1
  Tb  Tb5  1  0.50000000  0.59776100  0.50042200  1
  Tb  Tb6  1  0.50000000  0.09754000  0.75031500  1
  Tb  Tb7  1  0.50000000  0.59751400  0.00005000  1
  Tb  Tb8  1  0.50000000  0.68713900  0.15294100  1
  Tb  Tb9  1  0.50000000  0.18713000  0.40288200  1
  Tb  Tb10  1  0.50000000  0.68709900  0.65273200  1
  Tb  Tb11  1  0.50000000  0.18622200  0.90232700  1
  Tb  Tb12  1  0.50000000  0.19300800  0.10201000  1
  Tb  Tb13  1  0.50000000  0.69066900  0.35079400  1
  Tb  Tb14  1  0.50000000  0.19044700  0.60061300  1
  Tb  Tb15  1  0.50000000  0.68960400  0.85045000  1
  Tb  Tb16  1  0.00000000  0.21505400  0.00140500  1
  Tb  Tb17  1  0.00000000  0.71362000  0.25108600  1
  Tb  Tb18  1  0.00000000  0.21453500  0.50102900  1
  Tb  Tb19  1  0.00000000  0.71408700  0.75117400  1
  Tb  Tb20  1  0.00000000  0.87574200  0.05820700  1
  Tb  Tb21  1  0.00000000  0.37472400  0.30824500  1
  Tb  Tb22  1  0.00000000  0.87444700  0.55833300  1
  Tb  Tb23  1  0.00000000  0.37438500  0.80827400  1
  Fe  Fe24  1  0.50000000  0.47860900  0.24876000  1
  Fe  Fe25  1  0.50000000  0.98008700  0.49835100  1
  Fe  Fe26  1  0.50000000  0.47954000  0.74881100  1
  Co  Co27  1  0.50000000  0.98098400  0.99724800  1
  Bi  Bi28  1  0.00000000  0.98765600  0.16761800  1
  Bi  Bi29  1  0.00000000  0.48767200  0.41734100  1
  Bi  Bi30  1  0.00000000  0.98827500  0.66752000  1
  Bi  Bi31  1  0.00000000  0.48777800  0.91734100  1
  Bi  Bi32  1  0.00000000  0.49266900  0.08356100  1
  Bi  Bi33  1  0.00000000  0.99105500  0.33345300  1
  Bi  Bi34  1  0.00000000  0.49113200  0.58353600  1
  Bi  Bi35  1  0.00000000  0.99006400  0.83358600  1
