# generated using pymatgen
data_Y2V10O53
_symmetry_space_group_name_H-M   'P 1'
_cell_length_a   8.68219068
_cell_length_b   10.60357816
_cell_length_c   12.28741504
_cell_angle_alpha   69.40531630
_cell_angle_beta   70.44991744
_cell_angle_gamma   91.12589951
_symmetry_Int_Tables_number   1
_chemical_formula_structural   Y2V10O53
_chemical_formula_sum   'Y2 V10 O53'
_cell_volume   985.69596541
_cell_formula_units_Z   1
loop_
 _symmetry_equiv_pos_site_id
 _symmetry_equiv_pos_as_xyz
  1  'x, y, z'
loop_
 _atom_site_type_symbol
 _atom_site_label
 _atom_site_symmetry_multiplicity
 _atom_site_fract_x
 _atom_site_fract_y
 _atom_site_fract_z
 _atom_site_occupancy
  Y  Y0  1  0.98546100  0.22304300  0.10574300  1
  Y  Y1  1  0.91010800  0.83958600  0.84015400  1
  V  V2  1  0.47699000  0.21025700  0.61464800  1
  V  V3  1  0.51909000  0.78494900  0.38699000  1
  V  V4  1  0.37911400  0.34327200  0.82381700  1
  V  V5  1  0.61851100  0.66687000  0.17926900  1
  V  V6  1  0.24117700  0.63627900  0.33283000  1
  V  V7  1  0.75567100  0.35573900  0.66664300  1
  V  V8  1  0.59569400  0.63239400  0.63695800  1
  V  V9  1  0.39918000  0.36135500  0.36703200  1
  V  V10  1  0.30072200  0.48705800  0.58477200  1
  V  V11  1  0.69675400  0.50409300  0.41244300  1
  O  O12  1  0.51739800  0.44039300  0.59905500  1
  O  O13  1  0.48576700  0.56145100  0.37972400  1
  O  O14  1  0.08513400  0.96759700  0.37430600  1
  O  O15  1  0.90379300  0.01504000  0.64782200  1
  O  O16  1  0.58565700  0.11783700  0.16235300  1
  O  O17  1  0.51459400  0.86403900  0.86489100  1
  O  O18  1  0.42708900  0.06155200  0.61646800  1
  O  O19  1  0.56423100  0.93329200  0.38900300  1
  O  O20  1  0.81979700  0.18661500  0.36373000  1
  O  O21  1  0.20001400  0.79308500  0.60362200  1
  O  O22  1  0.64423600  0.77586000  0.64698100  1
  O  O23  1  0.36118200  0.21858700  0.35325300  1
  O  O24  1  0.57711400  0.30538800  0.82419600  1
  O  O25  1  0.41978300  0.69236100  0.17573500  1
  O  O26  1  0.43873600  0.52527700  0.78855900  1
  O  O27  1  0.56328000  0.46833300  0.20701400  1
  O  O28  1  0.07736200  0.28616900  0.23836500  1
  O  O29  1  0.95058500  0.68735400  0.75431600  1
  O  O30  1  0.74541300  0.09948300  0.11385500  1
  O  O31  1  0.12798000  0.81212800  0.88972300  1
  O  O32  1  0.31151800  0.32246000  0.54763300  1
  O  O33  1  0.67917500  0.67116100  0.45224400  1
  O  O34  1  0.16047700  0.55320600  0.51497900  1
  O  O35  1  0.83811300  0.44238000  0.48158300  1
  O  O36  1  0.95690300  0.95089900  0.35528900  1
  O  O37  1  0.03682800  0.06397500  0.65107600  1
  O  O38  1  0.34859400  0.20476500  0.77057400  1
  O  O39  1  0.65381400  0.80483500  0.22386700  1
  O  O40  1  0.04463500  0.87805200  0.10744500  1
  O  O41  1  0.98982600  0.14544100  0.89377600  1
  O  O42  1  0.08326600  0.68761400  0.29889200  1
  O  O43  1  0.91323600  0.30594100  0.70245300  1
  O  O44  1  0.48699500  0.07213800  0.12560100  1
  O  O45  1  0.52359800  0.94988700  0.91018600  1
  O  O46  1  0.20720000  0.62603200  0.00849700  1
  O  O47  1  0.75203400  0.46223400  0.00420300  1
  O  O48  1  0.96113400  0.23969300  0.35513900  1
  O  O49  1  0.05553300  0.73916900  0.62634400  1
  O  O50  1  0.39616700  0.66711800  0.56702400  1
  O  O51  1  0.59771900  0.32880500  0.43113200  1
  O  O52  1  0.23503700  0.27946000  0.97574500  1
  O  O53  1  0.74079700  0.72670000  0.02127100  1
  O  O54  1  0.66745000  0.20741100  0.64524900  1
  O  O55  1  0.33388200  0.78825400  0.35239900  1
  O  O56  1  0.88286600  0.39598900  0.03781700  1
  O  O57  1  0.17646200  0.67674300  0.91101200  1
  O  O58  1  0.20528400  0.42167700  0.74123500  1
  O  O59  1  0.79106200  0.57902700  0.25365100  1
  O  O60  1  0.75962200  0.53821400  0.65667100  1
  O  O61  1  0.23631500  0.45451000  0.34078800  1
  O  O62  1  0.10274600  0.99015900  0.09798400  1
  O  O63  1  0.90460000  0.04454800  0.90308900  1
  O  O64  1  0.60679400  0.40836500  0.08628100  1
