# generated using pymatgen
data_TaWC2
_symmetry_space_group_name_H-M   'P 1'
_cell_length_a   5.41487081
_cell_length_b   5.41487081
_cell_length_c   5.41487146
_cell_angle_alpha   33.75002590
_cell_angle_beta   33.75002590
_cell_angle_gamma   33.75002152
_symmetry_Int_Tables_number   1
_chemical_formula_structural   TaWC2
_chemical_formula_sum   'Ta1 W1 C2'
_cell_volume   43.66402541
_cell_formula_units_Z   1
loop_
 _symmetry_equiv_pos_site_id
 _symmetry_equiv_pos_as_xyz
  1  'x, y, z'
loop_
 _atom_site_type_symbol
 _atom_site_label
 _atom_site_symmetry_multiplicity
 _atom_site_fract_x
 _atom_site_fract_y
 _atom_site_fract_z
 _atom_site_occupancy
  Ta  Ta0  1  0.50000000  0.50000000  0.50000000  1
  W  W1  1  0.00000000  0.00000000  0.00000000  1
  C  C2  1  0.25093300  0.25093300  0.25093300  1
  C  C3  1  0.74906700  0.74906700  0.74906700  1
