# generated using pymatgen
data_Tb2F15
_symmetry_space_group_name_H-M   'P 1'
_cell_length_a   8.55616853
_cell_length_b   8.55616853
_cell_length_c   8.56445887
_cell_angle_alpha   105.17947185
_cell_angle_beta   105.17947185
_cell_angle_gamma   88.37707811
_symmetry_Int_Tables_number   1
_chemical_formula_structural   Tb2F15
_chemical_formula_sum   'Tb4 F30'
_cell_volume   583.45434619
_cell_formula_units_Z   2
loop_
 _symmetry_equiv_pos_site_id
 _symmetry_equiv_pos_as_xyz
  1  'x, y, z'
loop_
 _atom_site_type_symbol
 _atom_site_label
 _atom_site_symmetry_multiplicity
 _atom_site_fract_x
 _atom_site_fract_y
 _atom_site_fract_z
 _atom_site_occupancy
  Tb  Tb0  1  0.23730500  0.26269500  0.25000000  1
  Tb  Tb1  1  0.76269500  0.73730500  0.75000000  1
  Tb  Tb2  1  0.67478100  0.82521900  0.25000000  1
  Tb  Tb3  1  0.32521900  0.17478100  0.75000000  1
  F  F4  1  0.93311800  0.56688200  0.25000000  1
  F  F5  1  0.57323600  0.26659600  0.91577700  1
  F  F6  1  0.23340400  0.92676400  0.58422300  1
  F  F7  1  0.42676400  0.73340400  0.08422300  1
  F  F8  1  0.76659600  0.07323600  0.41577700  1
  F  F9  1  0.06688200  0.43311800  0.75000000  1
  F  F10  1  0.02575400  0.81554500  0.78588600  1
  F  F11  1  0.72396300  0.80502400  0.00565300  1
  F  F12  1  0.78539200  0.01670500  0.81391400  1
  F  F13  1  0.51670500  0.28539200  0.31391400  1
  F  F14  1  0.30502400  0.22396300  0.50565300  1
  F  F15  1  0.31554500  0.52575400  0.28588600  1
  F  F16  1  0.97424600  0.18445500  0.21411400  1
  F  F17  1  0.27603700  0.19497600  0.99434700  1
  F  F18  1  0.21460800  0.98329500  0.18608600  1
  F  F19  1  0.48329500  0.71460800  0.68608600  1
  F  F20  1  0.69497600  0.77603700  0.49434700  1
  F  F21  1  0.68445500  0.47424600  0.71411400  1
  F  F22  1  0.30028800  0.45074000  0.82002200  1
  F  F23  1  0.40450600  0.88118900  0.29508400  1
  F  F24  1  0.82491500  0.49817500  0.57608000  1
  F  F25  1  0.99817500  0.32491500  0.07608000  1
  F  F26  1  0.38118900  0.90450600  0.79508400  1
  F  F27  1  0.95074000  0.80028800  0.32002200  1
  F  F28  1  0.69971200  0.54926000  0.17997800  1
  F  F29  1  0.59549400  0.11881100  0.70491600  1
  F  F30  1  0.17508500  0.50182500  0.42392000  1
  F  F31  1  0.00182500  0.67508500  0.92392000  1
  F  F32  1  0.61881100  0.09549400  0.20491600  1
  F  F33  1  0.04926000  0.19971200  0.67997800  1
