# generated using pymatgen
data_Ta4FeCoO12
_symmetry_space_group_name_H-M   'P 1'
_cell_length_a   6.80292873
_cell_length_b   6.82089202
_cell_length_c   10.42035422
_cell_angle_alpha   70.89766562
_cell_angle_beta   70.93542227
_cell_angle_gamma   90.00037062
_symmetry_Int_Tables_number   1
_chemical_formula_structural   Ta4FeCoO12
_chemical_formula_sum   'Ta8 Fe2 Co2 O24'
_cell_volume   428.73555799
_cell_formula_units_Z   2
loop_
 _symmetry_equiv_pos_site_id
 _symmetry_equiv_pos_as_xyz
  1  'x, y, z'
loop_
 _atom_site_type_symbol
 _atom_site_label
 _atom_site_symmetry_multiplicity
 _atom_site_fract_x
 _atom_site_fract_y
 _atom_site_fract_z
 _atom_site_occupancy
  Ta  Ta0  1  0.41578000  0.91581700  0.16845200  1
  Ta  Ta1  1  0.91574700  0.41580200  0.16847000  1
  Ta  Ta2  1  0.08423600  0.58418900  0.83153400  1
  Ta  Ta3  1  0.58423000  0.08417900  0.83155200  1
  Ta  Ta4  1  0.16482900  0.16475800  0.67034600  1
  Ta  Ta5  1  0.66488200  0.66480100  0.67037300  1
  Ta  Ta6  1  0.33512400  0.33520500  0.32963300  1
  Ta  Ta7  1  0.83517600  0.83524400  0.32963800  1
  Fe  Fe8  1  0.25014100  0.75004600  0.49988500  1
  Fe  Fe9  1  0.74986200  0.24996400  0.50015400  1
  Co  Co10  1  0.49999700  0.49999700  0.00000100  1
  Co  Co11  1  0.00000200  0.00000400  0.99999400  1
  O  O12  1  0.56235900  0.74996600  0.50007400  1
  O  O13  1  0.06233900  0.25003800  0.50000300  1
  O  O14  1  0.93765300  0.74998300  0.49998600  1
  O  O15  1  0.43765200  0.25001100  0.49993300  1
  O  O16  1  0.49999300  0.18800100  0.99998700  1
  O  O17  1  0.00000900  0.68798900  0.00004400  1
  O  O18  1  0.50001100  0.81200000  0.99999900  1
  O  O19  1  0.99998500  0.31200900  0.99996300  1
  O  O20  1  0.70664700  0.91167100  0.17689300  1
  O  O21  1  0.20672100  0.41157000  0.17679600  1
  O  O22  1  0.11649900  0.91165000  0.17683400  1
  O  O23  1  0.61649000  0.41156000  0.17680700  1
  O  O24  1  0.79326800  0.58843400  0.82319500  1
  O  O25  1  0.29336500  0.08832500  0.82310700  1
  O  O26  1  0.38352500  0.58843900  0.82318300  1
  O  O27  1  0.88348600  0.08835100  0.82316400  1
  O  O28  1  0.15972700  0.86647700  0.68062500  1
  O  O29  1  0.65977000  0.36648600  0.68058400  1
  O  O30  1  0.15976200  0.45288300  0.68063800  1
  O  O31  1  0.65978900  0.95295500  0.68053300  1
  O  O32  1  0.34025000  0.63348800  0.31936600  1
  O  O33  1  0.84024900  0.13355200  0.31942500  1
  O  O34  1  0.34018600  0.04710300  0.31942200  1
  O  O35  1  0.84025900  0.54705300  0.31940600  1
