# generated using pymatgen
data_TaNb3V4O20
_symmetry_space_group_name_H-M   'P 1'
_cell_length_a   5.65737300
_cell_length_b   7.06982900
_cell_length_c   12.07391623
_cell_angle_alpha   89.92914615
_cell_angle_beta   90.00000000
_cell_angle_gamma   90.00000000
_symmetry_Int_Tables_number   1
_chemical_formula_structural   TaNb3V4O20
_chemical_formula_sum   'Ta1 Nb3 V4 O20'
_cell_volume   482.91594952
_cell_formula_units_Z   1
loop_
 _symmetry_equiv_pos_site_id
 _symmetry_equiv_pos_as_xyz
  1  'x, y, z'
loop_
 _atom_site_type_symbol
 _atom_site_label
 _atom_site_symmetry_multiplicity
 _atom_site_fract_x
 _atom_site_fract_y
 _atom_site_fract_z
 _atom_site_occupancy
  Ta  Ta0  1  0.50000000  0.83895700  0.55787900  1
  Nb  Nb1  1  0.50000000  0.65751500  0.05743500  1
  Nb  Nb2  1  0.00000000  0.15423400  0.44397700  1
  Nb  Nb3  1  0.00000000  0.34176500  0.94322200  1
  V  V4  1  0.50000000  0.03187400  0.84330000  1
  V  V5  1  0.50000000  0.46814600  0.34465000  1
  V  V6  1  0.00000000  0.96775500  0.15610900  1
  V  V7  1  0.00000000  0.53305500  0.65551000  1
  O  O8  1  0.50000000  0.82296800  0.92186900  1
  O  O9  1  0.50000000  0.67820900  0.42342600  1
  O  O10  1  0.00000000  0.17762500  0.07783800  1
  O  O11  1  0.00000000  0.32426500  0.57848100  1
  O  O12  1  0.50000000  0.97462600  0.70165900  1
  O  O13  1  0.50000000  0.52487400  0.20245600  1
  O  O14  1  0.00000000  0.02458100  0.29744300  1
  O  O15  1  0.00000000  0.47624800  0.79645300  1
  O  O16  1  0.25072000  0.99978300  0.50033500  1
  O  O17  1  0.75024200  0.49992400  0.99974700  1
  O  O18  1  0.74928000  0.99978300  0.50033500  1
  O  O19  1  0.24975800  0.49992400  0.99974700  1
  O  O20  1  0.25142700  0.66195000  0.62418900  1
  O  O21  1  0.75008000  0.83963800  0.12495900  1
  O  O22  1  0.74952200  0.33998900  0.37515700  1
  O  O23  1  0.25019400  0.16036700  0.87476100  1
  O  O24  1  0.25047800  0.33998900  0.37515700  1
  O  O25  1  0.74980600  0.16036700  0.87476100  1
  O  O26  1  0.74857300  0.66195000  0.62418900  1
  O  O27  1  0.24992000  0.83963800  0.12495900  1
