# generated using pymatgen
data_TaTiCrO6
_symmetry_space_group_name_H-M   'P 1'
_cell_length_a   4.69157300
_cell_length_b   10.22035060
_cell_length_c   9.38048500
_cell_angle_alpha   62.67964137
_cell_angle_beta   90.00000611
_cell_angle_gamma   89.99993381
_symmetry_Int_Tables_number   1
_chemical_formula_structural   TaTiCrO6
_chemical_formula_sum   'Ta4 Ti4 Cr4 O24'
_cell_volume   399.61760632
_cell_formula_units_Z   4
loop_
 _symmetry_equiv_pos_site_id
 _symmetry_equiv_pos_as_xyz
  1  'x, y, z'
loop_
 _atom_site_type_symbol
 _atom_site_label
 _atom_site_symmetry_multiplicity
 _atom_site_fract_x
 _atom_site_fract_y
 _atom_site_fract_z
 _atom_site_occupancy
  Ta  Ta0  1  0.50001300  0.83405700  0.83295500  1
  Ta  Ta1  1  0.50000700  0.83405200  0.33295200  1
  Ta  Ta2  1  0.99998600  0.33405500  0.33295400  1
  Ta  Ta3  1  0.99998500  0.33405700  0.83295500  1
  Ti  Ti4  1  0.49998500  0.49814200  0.00089800  1
  Ti  Ti5  1  0.49999400  0.49814700  0.50089500  1
  Ti  Ti6  1  0.00001000  0.99815000  0.00089300  1
  Ti  Ti7  1  0.00000100  0.99815100  0.50089500  1
  Cr  Cr8  1  0.49998500  0.16714000  0.16643300  1
  Cr  Cr9  1  0.99997300  0.66713600  0.16640400  1
  Cr  Cr10  1  0.50002900  0.16714000  0.66642300  1
  Cr  Cr11  1  0.00003000  0.66714800  0.66642200  1
  O  O12  1  0.19387500  0.16575100  0.01391800  1
  O  O13  1  0.19385300  0.16575800  0.51391800  1
  O  O14  1  0.80634100  0.16589800  0.32039600  1
  O  O15  1  0.80635900  0.16590500  0.82038800  1
  O  O16  1  0.30613700  0.66575700  0.01391700  1
  O  O17  1  0.30614400  0.66575900  0.51391900  1
  O  O18  1  0.69363900  0.66590400  0.82038700  1
  O  O19  1  0.69365600  0.66589900  0.32039600  1
  O  O20  1  0.19911200  0.49728000  0.85078000  1
  O  O21  1  0.19911100  0.49727700  0.35078200  1
  O  O22  1  0.80089800  0.49733100  0.15190200  1
  O  O23  1  0.80089500  0.49733000  0.65190500  1
  O  O24  1  0.30088700  0.99727700  0.85078100  1
  O  O25  1  0.30090100  0.99727400  0.35078800  1
  O  O26  1  0.69910100  0.99732900  0.65190400  1
  O  O27  1  0.69909800  0.99732800  0.15190500  1
  O  O28  1  0.19573200  0.83729400  0.67912400  1
  O  O29  1  0.19573500  0.83727400  0.17910000  1
  O  O30  1  0.80458600  0.83711600  0.98359600  1
  O  O31  1  0.80458100  0.83710800  0.48362700  1
  O  O32  1  0.30426800  0.33727300  0.17909900  1
  O  O33  1  0.30426600  0.33729300  0.67912500  1
  O  O34  1  0.69541300  0.33710300  0.98363200  1
  O  O35  1  0.69541500  0.33710700  0.48363000  1
