# generated using pymatgen
data_Ta3WS8
_symmetry_space_group_name_H-M   'P 1'
_cell_length_a   13.43971124
_cell_length_b   13.43971124
_cell_length_c   13.43971124
_cell_angle_alpha   165.86034257
_cell_angle_beta   155.33928407
_cell_angle_gamma   28.53833853
_symmetry_Int_Tables_number   1
_chemical_formula_structural   Ta3WS8
_chemical_formula_sum   'Ta3 W1 S8'
_cell_volume   247.34285098
_cell_formula_units_Z   1
loop_
 _symmetry_equiv_pos_site_id
 _symmetry_equiv_pos_as_xyz
  1  'x, y, z'
loop_
 _atom_site_type_symbol
 _atom_site_label
 _atom_site_symmetry_multiplicity
 _atom_site_fract_x
 _atom_site_fract_y
 _atom_site_fract_z
 _atom_site_occupancy
  Ta  Ta0  1  0.00421400  0.00000000  0.00421400  1
  Ta  Ta1  1  0.74930300  0.75002000  0.99928200  1
  Ta  Ta2  1  0.24926200  0.24998000  0.99928200  1
  W  W3  1  0.49750700  0.50000000  0.99750700  1
  S  S4  1  0.23105300  0.55984400  0.67120900  1
  S  S5  1  0.72096900  0.05872800  0.66224100  1
  S  S6  1  0.52340700  0.18950200  0.33390600  1
  S  S7  1  0.02320100  0.68948300  0.33371700  1
  S  S8  1  0.64423400  0.31051700  0.33371700  1
  S  S9  1  0.14440400  0.81049800  0.33390600  1
  S  S10  1  0.11136500  0.44015600  0.67120900  1
  S  S11  1  0.60351400  0.94127200  0.66224100  1
