# generated using pymatgen
data_TaNb2FeSe10
_symmetry_space_group_name_H-M   'P 1'
_cell_length_a   3.54135600
_cell_length_b   9.69201800
_cell_length_c   10.17358540
_cell_angle_alpha   67.67380271
_cell_angle_beta   90.00000000
_cell_angle_gamma   90.00000000
_symmetry_Int_Tables_number   1
_chemical_formula_structural   TaNb2FeSe10
_chemical_formula_sum   'Ta1 Nb2 Fe1 Se10'
_cell_volume   323.01041574
_cell_formula_units_Z   1
loop_
 _symmetry_equiv_pos_site_id
 _symmetry_equiv_pos_as_xyz
  1  'x, y, z'
loop_
 _atom_site_type_symbol
 _atom_site_label
 _atom_site_symmetry_multiplicity
 _atom_site_fract_x
 _atom_site_fract_y
 _atom_site_fract_z
 _atom_site_occupancy
  Ta  Ta0  1  0.50000000  0.45890000  0.91806000  1
  Nb  Nb1  1  0.00000000  0.28447500  0.62732800  1
  Nb  Nb2  1  0.50000000  0.71427000  0.36194300  1
  Fe  Fe3  1  0.00000000  0.54281100  0.10336700  1
  Se  Se4  1  0.50000000  0.06323500  0.75072100  1
  Se  Se5  1  0.00000000  0.93703200  0.23998400  1
  Se  Se6  1  0.50000000  0.48843200  0.63144900  1
  Se  Se7  1  0.00000000  0.51375300  0.35484000  1
  Se  Se8  1  0.50000000  0.16647500  0.49941500  1
  Se  Se9  1  0.00000000  0.82868000  0.49077900  1
  Se  Se10  1  0.00000000  0.25795100  0.90814500  1
  Se  Se11  1  0.50000000  0.72382900  0.09139400  1
  Se  Se12  1  0.00000000  0.66430600  0.84603900  1
  Se  Se13  1  0.50000000  0.35585100  0.17653500  1
