# generated using pymatgen
data_Ta6Cr3Ni3C2
_symmetry_space_group_name_H-M   'P 1'
_cell_length_a   8.08400461
_cell_length_b   8.08400461
_cell_length_c   8.08400461
_cell_angle_alpha   120.46581652
_cell_angle_beta   119.70842385
_cell_angle_gamma   89.85042432
_symmetry_Int_Tables_number   1
_chemical_formula_structural   Ta6Cr3Ni3C2
_chemical_formula_sum   'Ta12 Cr6 Ni6 C4'
_cell_volume   373.04996042
_cell_formula_units_Z   2
loop_
 _symmetry_equiv_pos_site_id
 _symmetry_equiv_pos_as_xyz
  1  'x, y, z'
loop_
 _atom_site_type_symbol
 _atom_site_label
 _atom_site_symmetry_multiplicity
 _atom_site_fract_x
 _atom_site_fract_y
 _atom_site_fract_z
 _atom_site_occupancy
  Ta  Ta0  1  0.07116400  0.07116400  0.00000000  1
  Ta  Ta1  1  0.68110900  0.68110900  0.00000000  1
  Ta  Ta2  1  0.68063400  0.06894100  0.00075900  1
  Ta  Ta3  1  0.06818200  0.67987500  0.99924100  1
  Ta  Ta4  1  0.06818200  0.06894100  0.38830700  1
  Ta  Ta5  1  0.68063400  0.67987500  0.61169300  1
  Ta  Ta6  1  0.43254000  0.93254000  0.50000000  1
  Ta  Ta7  1  0.81815300  0.31815300  0.50000000  1
  Ta  Ta8  1  0.81700900  0.93169400  0.49956900  1
  Ta  Ta9  1  0.43212600  0.31744000  0.50043100  1
  Ta  Ta10  1  0.43212600  0.93169400  0.11468500  1
  Ta  Ta11  1  0.81700900  0.31744000  0.88531500  1
  Cr  Cr12  1  0.24797500  0.50067000  0.74730500  1
  Cr  Cr13  1  0.75336500  0.50067000  0.25269500  1
  Cr  Cr14  1  0.24888900  0.49557800  0.24668900  1
  Cr  Cr15  1  0.24888900  0.00220000  0.75331100  1
  Cr  Cr16  1  0.45223200  0.29840600  0.15382500  1
  Cr  Cr17  1  0.14458100  0.29840600  0.84617500  1
  Ni  Ni18  1  0.45468700  0.29669400  0.84200800  1
  Ni  Ni19  1  0.45468700  0.61267900  0.15799200  1
  Ni  Ni20  1  0.04501000  0.70368300  0.34132700  1
  Ni  Ni21  1  0.36235600  0.70368300  0.65867300  1
  Ni  Ni22  1  0.04517100  0.70401300  0.65884100  1
  Ni  Ni23  1  0.04517100  0.38633000  0.34115900  1
  C  C24  1  0.74830500  0.99971700  0.74858800  1
  C  C25  1  0.25112900  0.99971700  0.25141200  1
  C  C26  1  0.74934300  0.99915700  0.24981500  1
  C  C27  1  0.74934300  0.49952800  0.75018500  1
