# generated using pymatgen
data_Tl32Si8O37
_symmetry_space_group_name_H-M   'P 1'
_cell_length_a   9.95895200
_cell_length_b   12.91584944
_cell_length_c   13.94837692
_cell_angle_alpha   105.48044827
_cell_angle_beta   91.03997944
_cell_angle_gamma   105.73796600
_symmetry_Int_Tables_number   1
_chemical_formula_structural   Tl32Si8O37
_chemical_formula_sum   'Tl32 Si8 O37'
_cell_volume   1656.30046472
_cell_formula_units_Z   1
loop_
 _symmetry_equiv_pos_site_id
 _symmetry_equiv_pos_as_xyz
  1  'x, y, z'
loop_
 _atom_site_type_symbol
 _atom_site_label
 _atom_site_symmetry_multiplicity
 _atom_site_fract_x
 _atom_site_fract_y
 _atom_site_fract_z
 _atom_site_occupancy
  Tl  Tl0  1  0.43456200  0.82256000  0.33046700  1
  Tl  Tl1  1  0.26653700  0.59497700  0.62020700  1
  Tl  Tl2  1  0.68609100  0.08629600  0.08508600  1
  Tl  Tl3  1  0.96190500  0.31412600  0.82881300  1
  Tl  Tl4  1  0.63085800  0.29323100  0.46492400  1
  Tl  Tl5  1  0.47139300  0.10397400  0.78756200  1
  Tl  Tl6  1  0.95462900  0.56723000  0.26160800  1
  Tl  Tl7  1  0.21040000  0.80616400  0.01382800  1
  Tl  Tl8  1  0.10264100  0.84887900  0.27761500  1
  Tl  Tl9  1  0.90169300  0.58912700  0.50390100  1
  Tl  Tl10  1  0.32462300  0.07301200  0.00204900  1
  Tl  Tl11  1  0.65278800  0.36514000  0.73956000  1
  Tl  Tl12  1  0.79536300  0.05157000  0.84338500  1
  Tl  Tl13  1  0.54539300  0.81641100  0.09782400  1
  Tl  Tl14  1  0.00513400  0.34097500  0.57480800  1
  Tl  Tl15  1  0.28616700  0.52431000  0.33404400  1
  Tl  Tl16  1  0.52747300  0.85825200  0.60291000  1
  Tl  Tl17  1  0.31604000  0.55926500  0.86137500  1
  Tl  Tl18  1  0.76952400  0.05278800  0.35307600  1
  Tl  Tl19  1  0.01955000  0.30725000  0.08792400  1
  Tl  Tl20  1  0.35978800  0.08228000  0.50380200  1
  Tl  Tl21  1  0.16774600  0.83083400  0.75950300  1
  Tl  Tl22  1  0.58479200  0.32221200  0.21703600  1
  Tl  Tl23  1  0.90283600  0.56318600  0.99657800  1
  Tl  Tl24  1  0.81543100  0.82570100  0.43793600  1
  Tl  Tl25  1  0.65148700  0.64684400  0.67501400  1
  Tl  Tl26  1  0.01249600  0.02701700  0.16293800  1
  Tl  Tl27  1  0.34990900  0.35188600  0.01674800  1
  Tl  Tl28  1  0.05002500  0.04848300  0.64132400  1
  Tl  Tl29  1  0.84316800  0.79956500  0.93208700  1
  Tl  Tl30  1  0.20431200  0.23057400  0.36127200  1
  Tl  Tl31  1  0.61023500  0.58308800  0.14508000  1
  Si  Si32  1  0.18833800  0.81226000  0.50896100  1
  Si  Si33  1  0.95628700  0.58413500  0.75777400  1
  Si  Si34  1  0.39327500  0.06159200  0.22821200  1
  Si  Si35  1  0.67847800  0.32936500  0.98331800  1
  Si  Si36  1  0.73260700  0.10995800  0.59687600  1
  Si  Si37  1  0.51930800  0.84460600  0.85116800  1
  Si  Si38  1  0.92859400  0.33224800  0.32385900  1
  Si  Si39  1  0.24239500  0.59817600  0.10149500  1
  O  O40  1  0.20210600  0.75091500  0.39174600  1
  O  O41  1  0.89636600  0.50687100  0.64304700  1
  O  O42  1  0.44101600  0.98842800  0.12420700  1
  O  O43  1  0.69930900  0.25330100  0.87177200  1
  O  O44  1  0.81745000  0.23982700  0.66274400  1
  O  O45  1  0.55149600  0.98274500  0.89298000  1
  O  O46  1  0.02933800  0.46074800  0.38013300  1
  O  O47  1  0.30105800  0.73524600  0.15690100  1
  O  O48  1  0.61689000  0.11441400  0.51297100  1
  O  O49  1  0.43577500  0.79817900  0.73661800  1
  O  O50  1  0.80885300  0.34792700  0.24780500  1
  O  O51  1  0.13449100  0.58517900  0.00227200  1
  O  O52  1  0.34686100  0.90348100  0.56019300  1
  O  O53  1  0.12833800  0.63061900  0.77228100  1
  O  O54  1  0.52760700  0.17584600  0.27941200  1
  O  O55  1  0.83949500  0.40802500  0.03876500  1
  O  O56  1  0.67672900  0.77340000  0.56902300  1
  O  O57  1  0.84111000  0.71299300  0.04380000  1
  O  O58  1  0.02063500  0.04585400  0.31175700  1
  O  O59  1  0.46016700  0.42191900  0.19942000  1
  O  O60  1  0.35185900  0.99057200  0.31086600  1
  O  O61  1  0.14316000  0.72183700  0.57569700  1
  O  O62  1  0.60206300  0.24219400  0.04903000  1
  O  O63  1  0.88991100  0.50008500  0.82952500  1
  O  O64  1  0.65052400  0.04121600  0.67630900  1
  O  O65  1  0.42943300  0.77583300  0.92434500  1
  O  O66  1  0.85798200  0.27030500  0.40837500  1
  O  O67  1  0.16008700  0.52234100  0.17256500  1
  O  O68  1  0.96614700  0.97794300  0.01055600  1
  O  O69  1  0.26206000  0.10351400  0.19009400  1
  O  O70  1  0.59037600  0.41789200  0.97718000  1
  O  O71  1  0.89587800  0.69731600  0.78741900  1
  O  O72  1  0.07852500  0.88834100  0.51556000  1
  O  O73  1  0.02004200  0.25793200  0.25204100  1
  O  O74  1  0.37477700  0.55569200  0.05294800  1
  O  O75  1  0.67675200  0.81933600  0.83774200  1
  O  O76  1  0.84186400  0.04298500  0.53915400  1
