# generated using pymatgen
data_TaInBi2O7
_symmetry_space_group_name_H-M   'P 1'
_cell_length_a   7.62890009
_cell_length_b   7.62890009
_cell_length_c   7.62890009
_cell_angle_alpha   120.45902925
_cell_angle_beta   119.87777160
_cell_angle_gamma   89.70930940
_symmetry_Int_Tables_number   1
_chemical_formula_structural   TaInBi2O7
_chemical_formula_sum   'Ta2 In2 Bi4 O14'
_cell_volume   313.14380267
_cell_formula_units_Z   2
loop_
 _symmetry_equiv_pos_site_id
 _symmetry_equiv_pos_as_xyz
  1  'x, y, z'
loop_
 _atom_site_type_symbol
 _atom_site_label
 _atom_site_symmetry_multiplicity
 _atom_site_fract_x
 _atom_site_fract_y
 _atom_site_fract_z
 _atom_site_occupancy
  Ta  Ta0  1  0.00000000  0.00000000  0.00000000  1
  Ta  Ta1  1  0.50000000  0.00000000  0.50000000  1
  In  In2  1  0.00000000  0.00000000  0.50000000  1
  In  In3  1  0.00000000  0.50000000  0.00000000  1
  Bi  Bi4  1  0.50000000  0.50000000  0.50000000  1
  Bi  Bi5  1  0.50000000  0.00000000  0.00000000  1
  Bi  Bi6  1  0.50000000  0.50000000  0.00000000  1
  Bi  Bi7  1  0.00000000  0.50000000  0.50000000  1
  O  O8  1  0.38023800  0.63023800  0.75000000  1
  O  O9  1  0.61976200  0.36976200  0.25000000  1
  O  O10  1  0.29168100  0.04168100  0.25000000  1
  O  O11  1  0.89950500  0.64950500  0.25000000  1
  O  O12  1  0.35059700  0.67944800  0.28214200  1
  O  O13  1  0.89730600  0.06845500  0.21785800  1
  O  O14  1  0.35059700  0.06845500  0.67115000  1
  O  O15  1  0.89730600  0.67944800  0.82885000  1
  O  O16  1  0.70831900  0.95831900  0.75000000  1
  O  O17  1  0.10049500  0.35049500  0.75000000  1
  O  O18  1  0.64940300  0.32055200  0.71785800  1
  O  O19  1  0.10269400  0.93154500  0.78214200  1
  O  O20  1  0.64940300  0.93154500  0.32885000  1
  O  O21  1  0.10269400  0.32055200  0.17115000  1
