# generated using pymatgen
data_TaGaBi2O7
_symmetry_space_group_name_H-M   'P 1'
_cell_length_a   7.44950202
_cell_length_b   7.44950202
_cell_length_c   7.44950202
_cell_angle_alpha   120.55925407
_cell_angle_beta   119.67543360
_cell_angle_gamma   89.79858462
_symmetry_Int_Tables_number   1
_chemical_formula_structural   TaGaBi2O7
_chemical_formula_sum   'Ta2 Ga2 Bi4 O14'
_cell_volume   291.78328828
_cell_formula_units_Z   2
loop_
 _symmetry_equiv_pos_site_id
 _symmetry_equiv_pos_as_xyz
  1  'x, y, z'
loop_
 _atom_site_type_symbol
 _atom_site_label
 _atom_site_symmetry_multiplicity
 _atom_site_fract_x
 _atom_site_fract_y
 _atom_site_fract_z
 _atom_site_occupancy
  Ta  Ta0  1  0.50000000  0.00000000  0.50000000  1
  Ta  Ta1  1  0.00000000  0.00000000  0.00000000  1
  Ga  Ga2  1  0.50000000  0.00000000  0.00000000  1
  Ga  Ga3  1  0.50000000  0.50000000  0.50000000  1
  Bi  Bi4  1  0.00000000  0.50000000  0.00000000  1
  Bi  Bi5  1  0.00000000  0.00000000  0.50000000  1
  Bi  Bi6  1  0.00000000  0.50000000  0.50000000  1
  Bi  Bi7  1  0.50000000  0.50000000  0.00000000  1
  O  O8  1  0.82308000  0.07308000  0.75000000  1
  O  O9  1  0.42167600  0.67167600  0.75000000  1
  O  O10  1  0.82911100  0.67730400  0.75566400  1
  O  O11  1  0.42164000  0.07344700  0.74433600  1
  O  O12  1  0.82911100  0.07344700  0.15180700  1
  O  O13  1  0.42164000  0.67730400  0.34819300  1
  O  O14  1  0.17692000  0.92692000  0.25000000  1
  O  O15  1  0.57832400  0.32832400  0.25000000  1
  O  O16  1  0.17088900  0.32269600  0.24433600  1
  O  O17  1  0.57836000  0.92655300  0.25566400  1
  O  O18  1  0.17088900  0.92655300  0.84819300  1
  O  O19  1  0.57836000  0.32269600  0.65180700  1
  O  O20  1  0.87651600  0.62651600  0.25000000  1
  O  O21  1  0.12348400  0.37348400  0.75000000  1
