# generated using pymatgen
data_SrNdGaO4
_symmetry_space_group_name_H-M   'P 1'
_cell_length_a   6.83325638
_cell_length_b   6.83325638
_cell_length_c   6.83325638
_cell_angle_alpha   147.12086568
_cell_angle_beta   147.12086568
_cell_angle_gamma   47.18485412
_symmetry_Int_Tables_number   1
_chemical_formula_structural   SrNdGaO4
_chemical_formula_sum   'Sr1 Nd1 Ga1 O4'
_cell_volume   93.67428304
_cell_formula_units_Z   1
loop_
 _symmetry_equiv_pos_site_id
 _symmetry_equiv_pos_as_xyz
  1  'x, y, z'
loop_
 _atom_site_type_symbol
 _atom_site_label
 _atom_site_symmetry_multiplicity
 _atom_site_fract_x
 _atom_site_fract_y
 _atom_site_fract_z
 _atom_site_occupancy
  Sr  Sr0  1  0.64383800  0.64383800  0.00000000  1
  Nd  Nd1  1  0.36020900  0.36020900  0.00000000  1
  Ga  Ga2  1  0.00531400  0.00531400  0.00000000  1
  O  O3  1  0.99212700  0.49212700  0.50000000  1
  O  O4  1  0.49212700  0.99212700  0.50000000  1
  O  O5  1  0.83502200  0.83502200  0.00000000  1
  O  O6  1  0.17136300  0.17136300  0.00000000  1
