# generated using pymatgen
data_Ta4MoS8
_symmetry_space_group_name_H-M   'P 1'
_cell_length_a   3.32250052
_cell_length_b   3.32250052
_cell_length_c   25.41042900
_cell_angle_alpha   90.00000000
_cell_angle_beta   90.00000000
_cell_angle_gamma   120.00001028
_symmetry_Int_Tables_number   1
_chemical_formula_structural   Ta4MoS8
_chemical_formula_sum   'Ta4 Mo1 S8'
_cell_volume   242.92527224
_cell_formula_units_Z   1
loop_
 _symmetry_equiv_pos_site_id
 _symmetry_equiv_pos_as_xyz
  1  'x, y, z'
loop_
 _atom_site_type_symbol
 _atom_site_label
 _atom_site_symmetry_multiplicity
 _atom_site_fract_x
 _atom_site_fract_y
 _atom_site_fract_z
 _atom_site_occupancy
  Ta  Ta0  1  0.00000000  0.00000000  0.37325700  1
  Ta  Ta1  1  0.00000000  0.00000000  0.87515000  1
  Ta  Ta2  1  0.00000000  0.00000000  0.62674300  1
  Ta  Ta3  1  0.00000000  0.00000000  0.12485000  1
  Mo  Mo4  1  0.00000000  0.00000000  0.50000000  1
  S  S5  1  0.33333300  0.66666700  0.43601900  1
  S  S6  1  0.33333300  0.66666700  0.93662900  1
  S  S7  1  0.66666700  0.33333300  0.56398100  1
  S  S8  1  0.66666700  0.33333300  0.06337100  1
  S  S9  1  0.66666700  0.33333300  0.68844900  1
  S  S10  1  0.66666700  0.33333300  0.18655000  1
  S  S11  1  0.33333300  0.66666700  0.31155100  1
  S  S12  1  0.33333300  0.66666700  0.81345000  1
