# generated using pymatgen
data_Sr(SbRu)2
_symmetry_space_group_name_H-M   'P 1'
_cell_length_a   6.54380421
_cell_length_b   6.54380421
_cell_length_c   6.54380421
_cell_angle_alpha   139.83609429
_cell_angle_beta   139.83609429
_cell_angle_gamma   58.10225073
_symmetry_Int_Tables_number   1
_chemical_formula_structural   Sr(SbRu)2
_chemical_formula_sum   'Sr1 Sb2 Ru2'
_cell_volume   115.52189932
_cell_formula_units_Z   1
loop_
 _symmetry_equiv_pos_site_id
 _symmetry_equiv_pos_as_xyz
  1  'x, y, z'
loop_
 _atom_site_type_symbol
 _atom_site_label
 _atom_site_symmetry_multiplicity
 _atom_site_fract_x
 _atom_site_fract_y
 _atom_site_fract_z
 _atom_site_occupancy
  Sr  Sr0  1  0.00000000  0.00000000  0.00000000  1
  Sb  Sb1  1  0.63643800  0.63643800  0.00000000  1
  Sb  Sb2  1  0.36356200  0.36356200  0.00000000  1
  Ru  Ru3  1  0.75000000  0.25000000  0.50000000  1
  Ru  Ru4  1  0.25000000  0.75000000  0.50000000  1
