# generated using pymatgen
data_SrCd3S4
_symmetry_space_group_name_H-M   'P 1'
_cell_length_a   4.01561698
_cell_length_b   4.01561698
_cell_length_c   13.09733689
_cell_angle_alpha   81.18184042
_cell_angle_beta   98.81815958
_cell_angle_gamma   120.00000000
_symmetry_Int_Tables_number   1
_chemical_formula_structural   SrCd3S4
_chemical_formula_sum   'Sr1 Cd3 S4'
_cell_volume   180.01354908
_cell_formula_units_Z   1
loop_
 _symmetry_equiv_pos_site_id
 _symmetry_equiv_pos_as_xyz
  1  'x, y, z'
loop_
 _atom_site_type_symbol
 _atom_site_label
 _atom_site_symmetry_multiplicity
 _atom_site_fract_x
 _atom_site_fract_y
 _atom_site_fract_z
 _atom_site_occupancy
  Sr  Sr0  1  0.00000000  0.00000000  0.00000000  1
  Cd  Cd1  1  0.75316100  0.24683900  0.25948400  1
  Cd  Cd2  1  0.50000000  0.50000000  0.50000000  1
  Cd  Cd3  1  0.24683900  0.75316100  0.74051600  1
  S  S4  1  0.61935300  0.38064700  0.85805900  1
  S  S5  1  0.87336900  0.12663100  0.62010600  1
  S  S6  1  0.38064700  0.61935300  0.14194100  1
  S  S7  1  0.12663100  0.87336900  0.37989400  1
