# generated using pymatgen
data_TaBe4Mo
_symmetry_space_group_name_H-M   'P 1'
_cell_length_a   4.54565860
_cell_length_b   4.54565860
_cell_length_c   7.40105300
_cell_angle_alpha   90.00000000
_cell_angle_beta   90.00000000
_cell_angle_gamma   120.00000876
_symmetry_Int_Tables_number   1
_chemical_formula_structural   TaBe4Mo
_chemical_formula_sum   'Ta2 Be8 Mo2'
_cell_volume   132.43956272
_cell_formula_units_Z   2
loop_
 _symmetry_equiv_pos_site_id
 _symmetry_equiv_pos_as_xyz
  1  'x, y, z'
loop_
 _atom_site_type_symbol
 _atom_site_label
 _atom_site_symmetry_multiplicity
 _atom_site_fract_x
 _atom_site_fract_y
 _atom_site_fract_z
 _atom_site_occupancy
  Ta  Ta0  1  0.33333300  0.66666700  0.92867200  1
  Ta  Ta1  1  0.66666700  0.33333300  0.07132800  1
  Be  Be2  1  0.00000000  0.00000000  0.50000000  1
  Be  Be3  1  0.00000000  0.00000000  0.00000000  1
  Be  Be4  1  0.65817500  0.82908700  0.25322200  1
  Be  Be5  1  0.17091300  0.82908700  0.25322200  1
  Be  Be6  1  0.17091300  0.34182500  0.25322200  1
  Be  Be7  1  0.34182500  0.17091300  0.74677800  1
  Be  Be8  1  0.82908700  0.17091300  0.74677800  1
  Be  Be9  1  0.82908700  0.65817500  0.74677800  1
  Mo  Mo10  1  0.66666700  0.33333300  0.43909800  1
  Mo  Mo11  1  0.33333300  0.66666700  0.56090200  1
