# generated using pymatgen
data_TaNb(Cu3Te4)2
_symmetry_space_group_name_H-M   'P 1'
_cell_length_a   6.01529800
_cell_length_b   8.52519897
_cell_length_c   8.52519897
_cell_angle_alpha   90.00000000
_cell_angle_beta   90.00000000
_cell_angle_gamma   90.00000000
_symmetry_Int_Tables_number   1
_chemical_formula_structural   TaNb(Cu3Te4)2
_chemical_formula_sum   'Ta1 Nb1 Cu6 Te8'
_cell_volume   437.18594809
_cell_formula_units_Z   1
loop_
 _symmetry_equiv_pos_site_id
 _symmetry_equiv_pos_as_xyz
  1  'x, y, z'
loop_
 _atom_site_type_symbol
 _atom_site_label
 _atom_site_symmetry_multiplicity
 _atom_site_fract_x
 _atom_site_fract_y
 _atom_site_fract_z
 _atom_site_occupancy
  Ta  Ta0  1  0.00000000  0.50000000  0.50000000  1
  Nb  Nb1  1  0.00000000  0.00000000  0.00000000  1
  Cu  Cu2  1  0.00000000  0.25001100  0.25001100  1
  Cu  Cu3  1  0.00000000  0.74998900  0.74998900  1
  Cu  Cu4  1  0.00000000  0.25001100  0.74998900  1
  Cu  Cu5  1  0.00000000  0.74998900  0.25001100  1
  Cu  Cu6  1  0.50000000  0.00000000  0.00000000  1
  Cu  Cu7  1  0.50000000  0.50000000  0.50000000  1
  Te  Te8  1  0.74452800  0.50000000  0.75563100  1
  Te  Te9  1  0.74475100  0.00000000  0.25559300  1
  Te  Te10  1  0.74452800  0.50000000  0.24436900  1
  Te  Te11  1  0.74475100  0.00000000  0.74440700  1
  Te  Te12  1  0.25524900  0.74440700  0.00000000  1
  Te  Te13  1  0.25547200  0.24436900  0.50000000  1
  Te  Te14  1  0.25524900  0.25559300  0.00000000  1
  Te  Te15  1  0.25547200  0.75563100  0.50000000  1
