# generated using pymatgen
data_Ta3C2
_symmetry_space_group_name_H-M   'P 1'
_cell_length_a   3.13766063
_cell_length_b   3.13766063
_cell_length_c   30.32656900
_cell_angle_alpha   90.00000000
_cell_angle_beta   90.00000000
_cell_angle_gamma   120.00001336
_symmetry_Int_Tables_number   1
_chemical_formula_structural   Ta3C2
_chemical_formula_sum   'Ta12 C8'
_cell_volume   258.56264999
_cell_formula_units_Z   4
loop_
 _symmetry_equiv_pos_site_id
 _symmetry_equiv_pos_as_xyz
  1  'x, y, z'
loop_
 _atom_site_type_symbol
 _atom_site_label
 _atom_site_symmetry_multiplicity
 _atom_site_fract_x
 _atom_site_fract_y
 _atom_site_fract_z
 _atom_site_occupancy
  Ta  Ta0  1  0.00000000  0.00000000  0.87551700  1
  Ta  Ta1  1  0.66666700  0.33333300  0.20694300  1
  Ta  Ta2  1  0.33333300  0.66666700  0.54076700  1
  Ta  Ta3  1  0.33333300  0.66666700  0.79305700  1
  Ta  Ta4  1  0.00000000  0.00000000  0.12448300  1
  Ta  Ta5  1  0.66666700  0.33333300  0.45923300  1
  Ta  Ta6  1  0.00000000  0.00000000  0.71066700  1
  Ta  Ta7  1  0.66666700  0.33333300  0.04243900  1
  Ta  Ta8  1  0.33333300  0.66666700  0.37716600  1
  Ta  Ta9  1  0.33333300  0.66666700  0.95756100  1
  Ta  Ta10  1  0.00000000  0.00000000  0.28933300  1
  Ta  Ta11  1  0.66666700  0.33333300  0.62283400  1
  C  C12  1  0.66666700  0.33333300  0.91578200  1
  C  C13  1  0.33333300  0.66666700  0.24689100  1
  C  C14  1  0.00000000  0.00000000  0.58035400  1
  C  C15  1  0.66666700  0.33333300  0.75310900  1
  C  C16  1  0.33333300  0.66666700  0.08421800  1
  C  C17  1  0.00000000  0.00000000  0.41964600  1
  C  C18  1  0.66666700  0.33333300  0.33330100  1
  C  C19  1  0.33333300  0.66666700  0.66669900  1
