# generated using pymatgen
data_SrLaInO4
_symmetry_space_group_name_H-M   'P 1'
_cell_length_a   5.98184700
_cell_length_b   5.99076100
_cell_length_c   12.53917100
_cell_angle_alpha   90.00000000
_cell_angle_beta   90.00000000
_cell_angle_gamma   90.00000000
_symmetry_Int_Tables_number   1
_chemical_formula_structural   SrLaInO4
_chemical_formula_sum   'Sr4 La4 In4 O16'
_cell_volume   449.35142118
_cell_formula_units_Z   4
loop_
 _symmetry_equiv_pos_site_id
 _symmetry_equiv_pos_as_xyz
  1  'x, y, z'
loop_
 _atom_site_type_symbol
 _atom_site_label
 _atom_site_symmetry_multiplicity
 _atom_site_fract_x
 _atom_site_fract_y
 _atom_site_fract_z
 _atom_site_occupancy
  Sr  Sr0  1  0.46910000  0.01430800  0.35320900  1
  Sr  Sr1  1  0.03090000  0.51430800  0.64679100  1
  Sr  Sr2  1  0.46910000  0.51430800  0.14679100  1
  Sr  Sr3  1  0.03090000  0.01430800  0.85320900  1
  La  La4  1  0.54918400  0.48579600  0.85378100  1
  La  La5  1  0.95081600  0.98579600  0.14621900  1
  La  La6  1  0.54918400  0.98579600  0.64621900  1
  La  La7  1  0.95081600  0.48579600  0.35378100  1
  In  In8  1  0.49641700  0.99834600  0.00070900  1
  In  In9  1  0.49641700  0.49834600  0.49929100  1
  In  In10  1  0.00358300  0.49834600  0.99929100  1
  In  In11  1  0.00358300  0.99834600  0.50070900  1
  O  O12  1  0.72078600  0.77864200  0.46952100  1
  O  O13  1  0.29018000  0.70713600  0.96566200  1
  O  O14  1  0.77921400  0.27864200  0.53047900  1
  O  O15  1  0.20982000  0.20713600  0.03433800  1
  O  O16  1  0.29018000  0.20713600  0.53433800  1
  O  O17  1  0.72078600  0.27864200  0.03047900  1
  O  O18  1  0.20982000  0.70713600  0.46566200  1
  O  O19  1  0.77921400  0.77864200  0.96952100  1
  O  O20  1  0.56256900  0.91898800  0.17158900  1
  O  O21  1  0.46976700  0.59678500  0.67707500  1
  O  O22  1  0.93743100  0.41898800  0.82841100  1
  O  O23  1  0.03023300  0.09678500  0.32292500  1
  O  O24  1  0.46976700  0.09678500  0.82292500  1
  O  O25  1  0.56256900  0.41898800  0.32841100  1
  O  O26  1  0.03023300  0.59678500  0.17707500  1
  O  O27  1  0.93743100  0.91898800  0.67158900  1
