# generated using pymatgen
data_SrEuNiO4
_symmetry_space_group_name_H-M   'P 1'
_cell_length_a   6.73100067
_cell_length_b   6.73100067
_cell_length_c   5.45660200
_cell_angle_alpha   90.00000000
_cell_angle_beta   90.00000000
_cell_angle_gamma   132.27548449
_symmetry_Int_Tables_number   1
_chemical_formula_structural   SrEuNiO4
_chemical_formula_sum   'Sr2 Eu2 Ni2 O8'
_cell_volume   182.92190716
_cell_formula_units_Z   2
loop_
 _symmetry_equiv_pos_site_id
 _symmetry_equiv_pos_as_xyz
  1  'x, y, z'
loop_
 _atom_site_type_symbol
 _atom_site_label
 _atom_site_symmetry_multiplicity
 _atom_site_fract_x
 _atom_site_fract_y
 _atom_site_fract_z
 _atom_site_occupancy
  Sr  Sr0  1  0.60729200  0.39270800  0.25000000  1
  Sr  Sr1  1  0.39270800  0.60729200  0.75000000  1
  Eu  Eu2  1  0.11205400  0.88794600  0.75000000  1
  Eu  Eu3  1  0.88794600  0.11205400  0.25000000  1
  Ni  Ni4  1  0.24933000  0.75067000  0.25000000  1
  Ni  Ni5  1  0.75067000  0.24933000  0.75000000  1
  O  O6  1  0.92092200  0.07907800  0.75000000  1
  O  O7  1  0.40916600  0.59083400  0.25000000  1
  O  O8  1  0.07907800  0.92092200  0.25000000  1
  O  O9  1  0.59083400  0.40916600  0.75000000  1
  O  O10  1  0.00000000  0.50000000  0.50000000  1
  O  O11  1  0.50000000  0.00000000  0.00000000  1
  O  O12  1  0.50000000  0.00000000  0.50000000  1
  O  O13  1  0.00000000  0.50000000  0.00000000  1
