# generated using pymatgen
data_SrNd3(NiO4)2
_symmetry_space_group_name_H-M   'P 1'
_cell_length_a   6.82398597
_cell_length_b   6.82398597
_cell_length_c   5.39620500
_cell_angle_alpha   90.00000000
_cell_angle_beta   90.00000000
_cell_angle_gamma   133.70037519
_symmetry_Int_Tables_number   1
_chemical_formula_structural   SrNd3(NiO4)2
_chemical_formula_sum   'Sr1 Nd3 Ni2 O8'
_cell_volume   181.66887839
_cell_formula_units_Z   1
loop_
 _symmetry_equiv_pos_site_id
 _symmetry_equiv_pos_as_xyz
  1  'x, y, z'
loop_
 _atom_site_type_symbol
 _atom_site_label
 _atom_site_symmetry_multiplicity
 _atom_site_fract_x
 _atom_site_fract_y
 _atom_site_fract_z
 _atom_site_occupancy
  Sr  Sr0  1  0.85694500  0.14305500  0.50000000  1
  Nd  Nd1  1  0.36288700  0.63711300  0.00000000  1
  Nd  Nd2  1  0.63915200  0.36084800  0.00000000  1
  Nd  Nd3  1  0.13692100  0.86307900  0.50000000  1
  Ni  Ni4  1  0.49742700  0.50257300  0.50000000  1
  Ni  Ni5  1  0.99652500  0.00347500  0.00000000  1
  O  O6  1  0.17926400  0.82073600  0.00000000  1
  O  O7  1  0.66427500  0.33572500  0.50000000  1
  O  O8  1  0.32399500  0.67600500  0.50000000  1
  O  O9  1  0.82412900  0.17587100  0.00000000  1
  O  O10  1  0.25399600  0.24475500  0.75997400  1
  O  O11  1  0.75524500  0.74600400  0.24002600  1
  O  O12  1  0.25399600  0.24475500  0.24002600  1
  O  O13  1  0.75524500  0.74600400  0.75997400  1
