# generated using pymatgen
data_Ta2O5
_symmetry_space_group_name_H-M   'P 1'
_cell_length_a   3.84373200
_cell_length_b   6.33799900
_cell_length_c   40.95155647
_cell_angle_alpha   89.15395892
_cell_angle_beta   90.00000000
_cell_angle_gamma   90.00000000
_symmetry_Int_Tables_number   1
_chemical_formula_structural   Ta2O5
_chemical_formula_sum   'Ta22 O55'
_cell_volume   997.53543054
_cell_formula_units_Z   11
loop_
 _symmetry_equiv_pos_site_id
 _symmetry_equiv_pos_as_xyz
  1  'x, y, z'
loop_
 _atom_site_type_symbol
 _atom_site_label
 _atom_site_symmetry_multiplicity
 _atom_site_fract_x
 _atom_site_fract_y
 _atom_site_fract_z
 _atom_site_occupancy
  Ta  Ta0  1  0.00000000  0.82711900  0.35864600  1
  Ta  Ta1  1  0.00000000  0.83306600  0.63356500  1
  Ta  Ta2  1  0.00000000  0.86183200  0.08239700  1
  Ta  Ta3  1  0.00000000  0.92920800  0.91170300  1
  Ta  Ta4  1  0.00000000  0.38320600  0.31875000  1
  Ta  Ta5  1  0.00000000  0.48494100  0.69125700  1
  Ta  Ta6  1  0.00000000  0.51214100  0.14286900  1
  Ta  Ta7  1  0.00000000  0.46119900  0.86241900  1
  Ta  Ta8  1  0.00000000  0.46634900  0.41693600  1
  Ta  Ta9  1  0.00000000  0.38002300  0.59215900  1
  Ta  Ta10  1  0.00000000  0.42197500  0.04596700  1
  Ta  Ta11  1  0.00000000  0.45440400  0.95330300  1
  Ta  Ta12  1  0.00000000  0.99324200  0.99877400  1
  Ta  Ta13  1  0.00000000  0.95063300  0.18037000  1
  Ta  Ta14  1  0.00000000  0.91898100  0.81994600  1
  Ta  Ta15  1  0.00000000  0.38841800  0.22648500  1
  Ta  Ta16  1  0.00000000  0.37490700  0.77664000  1
  Ta  Ta17  1  0.00000000  0.91564000  0.27248900  1
  Ta  Ta18  1  0.00000000  0.93138800  0.72888100  1
  Ta  Ta19  1  0.00000000  0.34880300  0.50106300  1
  Ta  Ta20  1  0.00000000  0.90949900  0.45465700  1
  Ta  Ta21  1  0.00000000  0.88197900  0.54616800  1
  O  O22  1  0.00000000  0.71698400  0.31415700  1
  O  O23  1  0.00000000  0.80055300  0.68298400  1
  O  O24  1  0.00000000  0.54516700  0.09258400  1
  O  O25  1  0.00000000  0.58602600  0.90942900  1
  O  O26  1  0.00000000  0.74316900  0.03697800  1
  O  O27  1  0.00000000  0.74008900  0.97059300  1
  O  O28  1  0.00000000  0.21448200  0.44639000  1
  O  O29  1  0.00000000  0.22282600  0.54823200  1
  O  O30  1  0.50000000  0.32223700  0.49580000  1
  O  O31  1  0.00000000  0.33776400  0.00081400  1
  O  O32  1  0.00000000  0.64989500  0.25060400  1
  O  O33  1  0.00000000  0.60757800  0.73892300  1
  O  O34  1  0.50000000  0.43204000  0.04973600  1
  O  O35  1  0.50000000  0.42576700  0.95067500  1
  O  O36  1  0.50000000  0.93885700  0.27989900  1
  O  O37  1  0.50000000  0.91892200  0.72527100  1
  O  O38  1  0.00000000  0.99647200  0.50009100  1
  O  O39  1  0.50000000  0.90593800  0.08845900  1
  O  O40  1  0.50000000  0.90191500  0.91744800  1
  O  O41  1  0.00000000  0.49957600  0.36615100  1
  O  O42  1  0.00000000  0.50598700  0.64065200  1
  O  O43  1  0.50000000  0.42049500  0.41175100  1
  O  O44  1  0.50000000  0.41064300  0.58642800  1
  O  O45  1  0.00000000  0.58747400  0.46294500  1
  O  O46  1  0.00000000  0.60792100  0.52619200  1
  O  O47  1  0.00000000  0.78201400  0.40858700  1
  O  O48  1  0.00000000  0.71566800  0.58922300  1
  O  O49  1  0.00000000  0.03651100  0.22643700  1
  O  O50  1  0.00000000  0.03609200  0.77320800  1
  O  O51  1  0.00000000  0.26047600  0.27327000  1
  O  O52  1  0.00000000  0.23014800  0.71840700  1
  O  O53  1  0.00000000  0.83247400  0.13377200  1
  O  O54  1  0.00000000  0.81796100  0.86461700  1
  O  O55  1  0.50000000  0.41060800  0.31446300  1
  O  O56  1  0.50000000  0.44614400  0.68677400  1
  O  O57  1  0.00000000  0.11735600  0.05442700  1
  O  O58  1  0.00000000  0.11863300  0.95297900  1
  O  O59  1  0.50000000  0.00549000  0.00521400  1
  O  O60  1  0.50000000  0.86338700  0.36437500  1
  O  O61  1  0.50000000  0.86642500  0.63813300  1
  O  O62  1  0.50000000  0.46606700  0.13759100  1
  O  O63  1  0.50000000  0.49242300  0.85780400  1
  O  O64  1  0.50000000  0.36247400  0.22088900  1
  O  O65  1  0.50000000  0.35520700  0.77092300  1
  O  O66  1  0.00000000  0.62385100  0.18802800  1
  O  O67  1  0.00000000  0.61382900  0.80715600  1
  O  O68  1  0.50000000  0.90199600  0.45102300  1
  O  O69  1  0.50000000  0.90844900  0.55235600  1
  O  O70  1  0.50000000  0.92874400  0.17997000  1
  O  O71  1  0.50000000  0.92401800  0.81732300  1
  O  O72  1  0.00000000  0.10600000  0.33702000  1
  O  O73  1  0.00000000  0.11917600  0.61458100  1
  O  O74  1  0.00000000  0.24968200  0.17046800  1
  O  O75  1  0.00000000  0.24318900  0.82422500  1
  O  O76  1  0.00000000  0.20017500  0.88862900  1
