# generated using pymatgen
data_SrLaFeCoO6
_symmetry_space_group_name_H-M   'P 1'
_cell_length_a   5.54358032
_cell_length_b   7.73210587
_cell_length_c   5.54630563
_cell_angle_alpha   89.99964468
_cell_angle_beta   90.81322956
_cell_angle_gamma   89.99974166
_symmetry_Int_Tables_number   1
_chemical_formula_structural   SrLaFeCoO6
_chemical_formula_sum   'Sr2 La2 Fe2 Co2 O12'
_cell_volume   237.71040208
_cell_formula_units_Z   2
loop_
 _symmetry_equiv_pos_site_id
 _symmetry_equiv_pos_as_xyz
  1  'x, y, z'
loop_
 _atom_site_type_symbol
 _atom_site_label
 _atom_site_symmetry_multiplicity
 _atom_site_fract_x
 _atom_site_fract_y
 _atom_site_fract_z
 _atom_site_occupancy
  Sr  Sr0  1  0.00000100  0.75040400  0.50004100  1
  Sr  Sr1  1  0.50000000  0.24954500  0.00003500  1
  La  La2  1  0.00001100  0.24976400  0.50013500  1
  La  La3  1  0.50000200  0.74970200  0.00017600  1
  Fe  Fe4  1  0.00001400  0.49998200  0.00002200  1
  Fe  Fe5  1  0.49998400  0.99990100  0.49997600  1
  Co  Co6  1  0.99999900  0.99999300  0.00001300  1
  Co  Co7  1  0.49999000  0.49991200  0.50000100  1
  O  O8  1  0.50000600  0.24903800  0.49998100  1
  O  O9  1  0.00000900  0.75942200  0.99997800  1
  O  O10  1  0.50000100  0.75096800  0.49992400  1
  O  O11  1  0.99998400  0.24065200  0.99993600  1
  O  O12  1  0.74691000  0.00010700  0.74667400  1
  O  O13  1  0.25628300  0.50015600  0.25560300  1
  O  O14  1  0.25312600  0.00006900  0.25327300  1
  O  O15  1  0.74376700  0.50011600  0.74436900  1
  O  O16  1  0.25242400  0.00008600  0.74733700  1
  O  O17  1  0.75151200  0.50010400  0.24814400  1
  O  O18  1  0.74754600  0.00004200  0.25259100  1
  O  O19  1  0.24843100  0.50003900  0.75179000  1
