# generated using pymatgen
data_SrMn2Si2(H2O5)2
_symmetry_space_group_name_H-M   'P 1'
_cell_length_a   5.64223323
_cell_length_b   5.53920455
_cell_length_c   13.57160700
_cell_angle_alpha   90.00000000
_cell_angle_beta   90.00000000
_cell_angle_gamma   111.44316155
_symmetry_Int_Tables_number   1
_chemical_formula_structural   SrMn2Si2(H2O5)2
_chemical_formula_sum   'Sr2 Mn4 Si4 H8 O20'
_cell_volume   394.79993713
_cell_formula_units_Z   2
loop_
 _symmetry_equiv_pos_site_id
 _symmetry_equiv_pos_as_xyz
  1  'x, y, z'
loop_
 _atom_site_type_symbol
 _atom_site_label
 _atom_site_symmetry_multiplicity
 _atom_site_fract_x
 _atom_site_fract_y
 _atom_site_fract_z
 _atom_site_occupancy
  Sr  Sr0  1  0.68332000  0.30386000  0.75000000  1
  Sr  Sr1  1  0.31668000  0.69614000  0.25000000  1
  Mn  Mn2  1  0.00000000  0.50000000  0.50000000  1
  Mn  Mn3  1  0.50000000  0.00000000  0.50000000  1
  Mn  Mn4  1  0.00000000  0.50000000  0.00000000  1
  Mn  Mn5  1  0.50000000  0.00000000  0.00000000  1
  Si  Si6  1  0.02983800  0.97601300  0.63186200  1
  Si  Si7  1  0.97016200  0.02398700  0.36813800  1
  Si  Si8  1  0.02983800  0.97601300  0.86813800  1
  Si  Si9  1  0.97016200  0.02398700  0.13186200  1
  H  H10  1  0.35416500  0.64584100  0.68936300  1
  H  H11  1  0.64583500  0.35415900  0.31063700  1
  H  H12  1  0.35416500  0.64584100  0.81063700  1
  H  H13  1  0.64583500  0.35415900  0.18936300  1
  H  H14  1  0.46144800  0.53098900  0.55828900  1
  H  H15  1  0.53855200  0.46901100  0.44171100  1
  H  H16  1  0.46144800  0.53098900  0.94171100  1
  H  H17  1  0.53855200  0.46901100  0.05828900  1
  O  O18  1  0.99251700  0.02983600  0.75000000  1
  O  O19  1  0.00748300  0.97016400  0.25000000  1
  O  O20  1  0.35835100  0.63995700  0.55451200  1
  O  O21  1  0.64164900  0.36004300  0.44548800  1
  O  O22  1  0.35835100  0.63995700  0.94548800  1
  O  O23  1  0.64164900  0.36004300  0.05451200  1
  O  O24  1  0.90792600  0.65906100  0.61429500  1
  O  O25  1  0.65962500  0.89847000  0.38820300  1
  O  O26  1  0.90792600  0.65906100  0.88570500  1
  O  O27  1  0.65962500  0.89847000  0.11179700  1
  O  O28  1  0.09207400  0.34093900  0.38570500  1
  O  O29  1  0.34037500  0.10153000  0.61179700  1
  O  O30  1  0.09207400  0.34093900  0.11429500  1
  O  O31  1  0.34037500  0.10153000  0.88820300  1
  O  O32  1  0.86913400  0.13098400  0.57749000  1
  O  O33  1  0.13086600  0.86901600  0.42251000  1
  O  O34  1  0.86913400  0.13098400  0.92251000  1
  O  O35  1  0.13086600  0.86901600  0.07749000  1
  O  O36  1  0.43976000  0.62105500  0.75000000  1
  O  O37  1  0.56024000  0.37894500  0.25000000  1
