# generated using pymatgen
data_SrEu4Se5
_symmetry_space_group_name_H-M   'P 1'
_cell_length_a   7.59144857
_cell_length_b   7.59144857
_cell_length_c   10.73661795
_cell_angle_alpha   61.87921009
_cell_angle_beta   61.87921009
_cell_angle_gamma   33.54521049
_symmetry_Int_Tables_number   1
_chemical_formula_structural   SrEu4Se5
_chemical_formula_sum   'Sr1 Eu4 Se5'
_cell_volume   297.62023988
_cell_formula_units_Z   1
loop_
 _symmetry_equiv_pos_site_id
 _symmetry_equiv_pos_as_xyz
  1  'x, y, z'
loop_
 _atom_site_type_symbol
 _atom_site_label
 _atom_site_symmetry_multiplicity
 _atom_site_fract_x
 _atom_site_fract_y
 _atom_site_fract_z
 _atom_site_occupancy
  Sr  Sr0  1  0.00000000  0.00000000  0.00000000  1
  Eu  Eu1  1  0.60005400  0.60005400  0.59967800  1
  Eu  Eu2  1  0.19986900  0.19986900  0.20032200  1
  Eu  Eu3  1  0.80013100  0.80013100  0.79967800  1
  Eu  Eu4  1  0.39994600  0.39994600  0.40032200  1
  Se  Se5  1  0.20094800  0.20094800  0.69852100  1
  Se  Se6  1  0.79905200  0.79905200  0.30147900  1
  Se  Se7  1  0.39898700  0.39898700  0.89900000  1
  Se  Se8  1  0.00000000  0.00000000  0.50000000  1
  Se  Se9  1  0.60101300  0.60101300  0.10100000  1
