# generated using pymatgen
data_SrLa3Mn4O10
_symmetry_space_group_name_H-M   'P 1'
_cell_length_a   9.07248503
_cell_length_b   9.07248503
_cell_length_c   11.63341458
_cell_angle_alpha   71.29847569
_cell_angle_beta   71.29847569
_cell_angle_gamma   35.90849403
_symmetry_Int_Tables_number   1
_chemical_formula_structural   SrLa3Mn4O10
_chemical_formula_sum   'Sr2 La6 Mn8 O20'
_cell_volume   528.73260141
_cell_formula_units_Z   2
loop_
 _symmetry_equiv_pos_site_id
 _symmetry_equiv_pos_as_xyz
  1  'x, y, z'
loop_
 _atom_site_type_symbol
 _atom_site_label
 _atom_site_symmetry_multiplicity
 _atom_site_fract_x
 _atom_site_fract_y
 _atom_site_fract_z
 _atom_site_occupancy
  Sr  Sr0  1  0.39687800  0.37180800  0.79879600  1
  Sr  Sr1  1  0.62819200  0.60312200  0.20120400  1
  La  La2  1  0.59178000  0.62556200  0.70260200  1
  La  La3  1  0.37443800  0.40822000  0.29739800  1
  La  La4  1  0.90883700  0.87077700  0.06772600  1
  La  La5  1  0.12922300  0.09116300  0.93227400  1
  La  La6  1  0.08894900  0.13728200  0.43258600  1
  La  La7  1  0.86271700  0.91105100  0.56741400  1
  Mn  Mn8  1  0.20184400  0.29647000  0.59853500  1
  Mn  Mn9  1  0.70353000  0.79815600  0.40146500  1
  Mn  Mn10  1  0.79719200  0.70440800  0.90115700  1
  Mn  Mn11  1  0.29559200  0.20280800  0.09884300  1
  Mn  Mn12  1  0.49409600  0.50590400  0.50000000  1
  Mn  Mn13  1  0.50424100  0.49575900  0.00000000  1
  Mn  Mn14  1  0.00326100  0.00360100  0.24944500  1
  Mn  Mn15  1  0.99639900  0.99673900  0.75055500  1
  O  O16  1  0.32237800  0.39876700  0.11468000  1
  O  O17  1  0.60123300  0.67762200  0.88532000  1
  O  O18  1  0.67802400  0.59947700  0.39904000  1
  O  O19  1  0.40052300  0.32197600  0.60096100  1
  O  O20  1  0.26624200  0.77002500  0.60817400  1
  O  O21  1  0.22997500  0.73375800  0.39182600  1
  O  O22  1  0.74229200  0.23871300  0.88667200  1
  O  O23  1  0.76128700  0.25770800  0.11332800  1
  O  O24  1  0.89532600  0.83568900  0.28225800  1
  O  O25  1  0.16431100  0.10467400  0.71774200  1
  O  O26  1  0.12520000  0.14407100  0.22449700  1
  O  O27  1  0.85592900  0.87480000  0.77550300  1
  O  O28  1  0.16281900  0.31998900  0.93245800  1
  O  O29  1  0.68001100  0.83718100  0.06754200  1
  O  O30  1  0.81819400  0.67789000  0.57812100  1
  O  O31  1  0.32211000  0.18180600  0.42187900  1
  O  O32  1  0.72310600  0.24070100  0.38803500  1
  O  O33  1  0.75929900  0.27689400  0.61196500  1
  O  O34  1  0.27343300  0.75886200  0.11177600  1
  O  O35  1  0.24113800  0.72656700  0.88822400  1
