# generated using pymatgen
data_SrLaMnFeO6
_symmetry_space_group_name_H-M   'P 1'
_cell_length_a   5.53351100
_cell_length_b   5.55030937
_cell_length_c   7.79260175
_cell_angle_alpha   89.95403565
_cell_angle_beta   90.00085836
_cell_angle_gamma   90.00012422
_symmetry_Int_Tables_number   1
_chemical_formula_structural   SrLaMnFeO6
_chemical_formula_sum   'Sr2 La2 Mn2 Fe2 O12'
_cell_volume   239.33174664
_cell_formula_units_Z   2
loop_
 _symmetry_equiv_pos_site_id
 _symmetry_equiv_pos_as_xyz
  1  'x, y, z'
loop_
 _atom_site_type_symbol
 _atom_site_label
 _atom_site_symmetry_multiplicity
 _atom_site_fract_x
 _atom_site_fract_y
 _atom_site_fract_z
 _atom_site_occupancy
  Sr  Sr0  1  0.51636000  0.49830500  0.75023700  1
  Sr  Sr1  1  0.98362400  0.99825100  0.25023600  1
  La  La2  1  0.02439700  0.00507200  0.75020300  1
  La  La3  1  0.47558300  0.50511400  0.25021300  1
  Mn  Mn4  1  0.99920000  0.49997300  0.00011400  1
  Mn  Mn5  1  0.50075900  0.99993900  0.50003400  1
  Fe  Fe6  1  0.50269200  0.00028000  0.99989200  1
  Fe  Fe7  1  0.99726800  0.50014400  0.50002000  1
  O  O8  1  0.99510700  0.56538800  0.75622500  1
  O  O9  1  0.50491900  0.06539700  0.25623700  1
  O  O10  1  0.48848200  0.95033500  0.74366200  1
  O  O11  1  0.01155500  0.45032800  0.24364800  1
  O  O12  1  0.26498800  0.27348400  0.97209400  1
  O  O13  1  0.23505400  0.77342800  0.47214800  1
  O  O14  1  0.77432000  0.21645200  0.53177200  1
  O  O15  1  0.72567400  0.71648500  0.03171700  1
  O  O16  1  0.71724100  0.72684400  0.46830300  1
  O  O17  1  0.78278600  0.22682500  0.96824700  1
  O  O18  1  0.22692400  0.76399900  0.02746500  1
  O  O19  1  0.27306600  0.26395600  0.52752900  1
