# generated using pymatgen
data_SrLaScO4
_symmetry_space_group_name_H-M   'P 1'
_cell_length_a   6.87002147
_cell_length_b   6.87002147
_cell_length_c   5.89051400
_cell_angle_alpha   90.00000000
_cell_angle_beta   90.00000000
_cell_angle_gamma   130.52829079
_symmetry_Int_Tables_number   1
_chemical_formula_structural   SrLaScO4
_chemical_formula_sum   'Sr2 La2 Sc2 O8'
_cell_volume   211.31564687
_cell_formula_units_Z   2
loop_
 _symmetry_equiv_pos_site_id
 _symmetry_equiv_pos_as_xyz
  1  'x, y, z'
loop_
 _atom_site_type_symbol
 _atom_site_label
 _atom_site_symmetry_multiplicity
 _atom_site_fract_x
 _atom_site_fract_y
 _atom_site_fract_z
 _atom_site_occupancy
  Sr  Sr0  1  0.60496600  0.39503400  0.51322300  1
  Sr  Sr1  1  0.39503400  0.60496600  0.01322300  1
  La  La2  1  0.89149100  0.10850900  0.48188100  1
  La  La3  1  0.10850900  0.89149100  0.98188100  1
  Sc  Sc4  1  0.25447100  0.74552900  0.49589800  1
  Sc  Sc5  1  0.74552900  0.25447100  0.99589800  1
  O  O6  1  0.01633800  0.47517700  0.74341900  1
  O  O7  1  0.98366200  0.52482300  0.24341900  1
  O  O8  1  0.47517700  0.01633800  0.24341900  1
  O  O9  1  0.52482300  0.98366200  0.74341900  1
  O  O10  1  0.58294400  0.41705600  0.93846200  1
  O  O11  1  0.92951800  0.07048200  0.08369800  1
  O  O12  1  0.41705600  0.58294400  0.43846200  1
  O  O13  1  0.07048200  0.92951800  0.58369800  1
