# generated using pymatgen
data_Sr5Ca3Si4
_symmetry_space_group_name_H-M   'P 1'
_cell_length_a   4.99073500
_cell_length_b   8.08762378
_cell_length_c   9.24130377
_cell_angle_alpha   90.46310882
_cell_angle_beta   90.00000000
_cell_angle_gamma   90.00000000
_symmetry_Int_Tables_number   1
_chemical_formula_structural   Sr5Ca3Si4
_chemical_formula_sum   'Sr5 Ca3 Si4'
_cell_volume   372.99628845
_cell_formula_units_Z   1
loop_
 _symmetry_equiv_pos_site_id
 _symmetry_equiv_pos_as_xyz
  1  'x, y, z'
loop_
 _atom_site_type_symbol
 _atom_site_label
 _atom_site_symmetry_multiplicity
 _atom_site_fract_x
 _atom_site_fract_y
 _atom_site_fract_z
 _atom_site_occupancy
  Sr  Sr0  1  0.75000000  0.47678500  0.82329300  1
  Sr  Sr1  1  0.75000000  0.97857400  0.68283700  1
  Sr  Sr2  1  0.25000000  0.52420700  0.17367500  1
  Sr  Sr3  1  0.25000000  0.01706900  0.32060400  1
  Sr  Sr4  1  0.75000000  0.34815100  0.42392400  1
  Ca  Ca5  1  0.75000000  0.85388600  0.07236900  1
  Ca  Ca6  1  0.25000000  0.65017300  0.57571000  1
  Ca  Ca7  1  0.25000000  0.14664600  0.92656500  1
  Si  Si8  1  0.75000000  0.23082200  0.09663900  1
  Si  Si9  1  0.75000000  0.74257500  0.39434400  1
  Si  Si10  1  0.25000000  0.76639800  0.89590300  1
  Si  Si11  1  0.25000000  0.26471400  0.61413500  1
