# generated using pymatgen
data_SrDyCoO4
_symmetry_space_group_name_H-M   'P 1'
_cell_length_a   6.68811768
_cell_length_b   6.68811768
_cell_length_c   5.36944700
_cell_angle_alpha   90.00000000
_cell_angle_beta   90.00000000
_cell_angle_gamma   133.10755019
_symmetry_Int_Tables_number   1
_chemical_formula_structural   SrDyCoO4
_chemical_formula_sum   'Sr2 Dy2 Co2 O8'
_cell_volume   175.34896304
_cell_formula_units_Z   2
loop_
 _symmetry_equiv_pos_site_id
 _symmetry_equiv_pos_as_xyz
  1  'x, y, z'
loop_
 _atom_site_type_symbol
 _atom_site_label
 _atom_site_symmetry_multiplicity
 _atom_site_fract_x
 _atom_site_fract_y
 _atom_site_fract_z
 _atom_site_occupancy
  Sr  Sr0  1  0.60360200  0.39639800  0.25000000  1
  Sr  Sr1  1  0.39639800  0.60360200  0.75000000  1
  Dy  Dy2  1  0.11393100  0.88606900  0.75000000  1
  Dy  Dy3  1  0.88606900  0.11393100  0.25000000  1
  Co  Co4  1  0.25003100  0.74996900  0.25000000  1
  Co  Co5  1  0.74996900  0.25003100  0.75000000  1
  O  O6  1  0.50000000  0.00000000  0.00000000  1
  O  O7  1  0.00000000  0.50000000  0.50000000  1
  O  O8  1  0.50000000  0.00000000  0.50000000  1
  O  O9  1  0.00000000  0.50000000  0.00000000  1
  O  O10  1  0.93355100  0.06644900  0.75000000  1
  O  O11  1  0.41017700  0.58982300  0.25000000  1
  O  O12  1  0.06644900  0.93355100  0.25000000  1
  O  O13  1  0.58982300  0.41017700  0.75000000  1
