# generated using pymatgen
data_SrLa3MnCuO8
_symmetry_space_group_name_H-M   'P 1'
_cell_length_a   7.07822077
_cell_length_b   7.71568832
_cell_length_c   7.67102040
_cell_angle_alpha   90.13528481
_cell_angle_beta   105.68036712
_cell_angle_gamma   105.77500990
_symmetry_Int_Tables_number   1
_chemical_formula_structural   SrLa3MnCuO8
_chemical_formula_sum   'Sr2 La6 Mn2 Cu2 O16'
_cell_volume   386.85507417
_cell_formula_units_Z   2
loop_
 _symmetry_equiv_pos_site_id
 _symmetry_equiv_pos_as_xyz
  1  'x, y, z'
loop_
 _atom_site_type_symbol
 _atom_site_label
 _atom_site_symmetry_multiplicity
 _atom_site_fract_x
 _atom_site_fract_y
 _atom_site_fract_z
 _atom_site_occupancy
  Sr  Sr0  1  0.28635900  0.32160500  0.82157700  1
  Sr  Sr1  1  0.28627400  0.82157400  0.32159000  1
  La  La2  1  0.27916000  0.31978900  0.31979800  1
  La  La3  1  0.27920100  0.81977700  0.81978400  1
  La  La4  1  0.71670500  0.67917500  0.67915300  1
  La  La5  1  0.71668500  0.17916600  0.17919100  1
  La  La6  1  0.72020800  0.18005300  0.68002600  1
  La  La7  1  0.72013700  0.67998600  0.18003300  1
  Mn  Mn8  1  0.00042000  0.00009900  0.50009500  1
  Mn  Mn9  1  0.00042700  0.50009900  0.00009400  1
  Cu  Cu10  1  0.00723000  0.50185800  0.50188200  1
  Cu  Cu11  1  0.00721500  0.00184700  0.00186200  1
  O  O12  1  0.62528800  0.40629900  0.40627400  1
  O  O13  1  0.62530600  0.90625900  0.90627700  1
  O  O14  1  0.66714800  0.41679500  0.91678900  1
  O  O15  1  0.66709900  0.91675700  0.41677800  1
  O  O16  1  0.35291100  0.08822700  0.58819500  1
  O  O17  1  0.35286800  0.58818500  0.08817900  1
  O  O18  1  0.37113800  0.59278800  0.59279500  1
  O  O19  1  0.37114200  0.09281000  0.09279900  1
  O  O20  1  0.99424100  0.49953900  0.75077000  1
  O  O21  1  0.99424400  0.99954200  0.25079400  1
  O  O22  1  0.99425400  0.49761500  0.24635800  1
  O  O23  1  0.99424600  0.99761300  0.74632900  1
  O  O24  1  0.99251500  0.24617300  0.99926100  1
  O  O25  1  0.99252700  0.74617400  0.49926700  1
  O  O26  1  0.99252300  0.75009200  0.99702000  1
  O  O27  1  0.99252400  0.25010200  0.49702900  1
