# generated using pymatgen
data_SrGd2BeO5
_symmetry_space_group_name_H-M   'P 1'
_cell_length_a   6.55237900
_cell_length_b   7.18635100
_cell_length_c   9.54433200
_cell_angle_alpha   90.00000000
_cell_angle_beta   90.00000000
_cell_angle_gamma   90.00000000
_symmetry_Int_Tables_number   1
_chemical_formula_structural   SrGd2BeO5
_chemical_formula_sum   'Sr4 Gd8 Be4 O20'
_cell_volume   449.42059781
_cell_formula_units_Z   4
loop_
 _symmetry_equiv_pos_site_id
 _symmetry_equiv_pos_as_xyz
  1  'x, y, z'
loop_
 _atom_site_type_symbol
 _atom_site_label
 _atom_site_symmetry_multiplicity
 _atom_site_fract_x
 _atom_site_fract_y
 _atom_site_fract_z
 _atom_site_occupancy
  Sr  Sr0  1  0.58362400  0.98204700  0.67569800  1
  Sr  Sr1  1  0.41637600  0.48204700  0.32430200  1
  Sr  Sr2  1  0.08362400  0.48204700  0.82430200  1
  Sr  Sr3  1  0.91637600  0.98204700  0.17569800  1
  Gd  Gd4  1  0.09376100  0.74683200  0.52098500  1
  Gd  Gd5  1  0.40623900  0.74683200  0.02098500  1
  Gd  Gd6  1  0.90623900  0.24683200  0.47901500  1
  Gd  Gd7  1  0.59376100  0.24683200  0.97901500  1
  Gd  Gd8  1  0.92873400  0.52565100  0.17487200  1
  Gd  Gd9  1  0.07126600  0.02565100  0.82512800  1
  Gd  Gd10  1  0.42873400  0.02565100  0.32512800  1
  Gd  Gd11  1  0.57126600  0.52565100  0.67487200  1
  Be  Be12  1  0.69288900  0.74888700  0.39945800  1
  Be  Be13  1  0.80711100  0.74888700  0.89945800  1
  Be  Be14  1  0.30711100  0.24888700  0.60054200  1
  Be  Be15  1  0.19288900  0.24888700  0.10054200  1
  O  O16  1  0.01912000  0.74784400  0.99162600  1
  O  O17  1  0.48088000  0.74784400  0.49162600  1
  O  O18  1  0.98088000  0.24784400  0.00837400  1
  O  O19  1  0.51912000  0.24784400  0.50837400  1
  O  O20  1  0.63270000  0.75055700  0.22472800  1
  O  O21  1  0.86730000  0.75055700  0.72472800  1
  O  O22  1  0.36730000  0.25055700  0.77527200  1
  O  O23  1  0.13270000  0.25055700  0.27527200  1
  O  O24  1  0.31945800  0.05650000  0.07219100  1
  O  O25  1  0.19467300  0.44387100  0.56642900  1
  O  O26  1  0.68054200  0.55650000  0.92780900  1
  O  O27  1  0.80532700  0.94387100  0.43357100  1
  O  O28  1  0.69467300  0.94387100  0.93357100  1
  O  O29  1  0.81945800  0.55650000  0.42780900  1
  O  O30  1  0.30532700  0.44387100  0.06642900  1
  O  O31  1  0.18054200  0.05650000  0.57219100  1
  O  O32  1  0.16173100  0.74781100  0.28117500  1
  O  O33  1  0.33826900  0.74781100  0.78117500  1
  O  O34  1  0.83826900  0.24781100  0.71882500  1
  O  O35  1  0.66173100  0.24781100  0.21882500  1
