# generated using pymatgen
data_SrLaNd(CuO3)2
_symmetry_space_group_name_H-M   'P 1'
_cell_length_a   10.34835515
_cell_length_b   10.34835515
_cell_length_c   10.34835515
_cell_angle_alpha   158.42905446
_cell_angle_beta   158.42905446
_cell_angle_gamma   30.69171565
_symmetry_Int_Tables_number   1
_chemical_formula_structural   SrLaNd(CuO3)2
_chemical_formula_sum   'Sr1 La1 Nd1 Cu2 O6'
_cell_volume   149.69389796
_cell_formula_units_Z   1
loop_
 _symmetry_equiv_pos_site_id
 _symmetry_equiv_pos_as_xyz
  1  'x, y, z'
loop_
 _atom_site_type_symbol
 _atom_site_label
 _atom_site_symmetry_multiplicity
 _atom_site_fract_x
 _atom_site_fract_y
 _atom_site_fract_z
 _atom_site_occupancy
  Sr  Sr0  1  0.82090000  0.82090000  0.00000000  1
  La  La1  1  0.18217700  0.18217700  0.00000000  1
  Nd  Nd2  1  0.99941000  0.99941000  0.00000000  1
  Cu  Cu3  1  0.40966000  0.40966000  0.00000000  1
  Cu  Cu4  1  0.58849000  0.58849000  0.00000000  1
  O  O5  1  0.29307900  0.29307900  0.00000000  1
  O  O6  1  0.69897400  0.69897400  0.00000000  1
  O  O7  1  0.92345700  0.42345700  0.50000000  1
  O  O8  1  0.42345700  0.92345700  0.50000000  1
  O  O9  1  0.08019800  0.58019800  0.50000000  1
  O  O10  1  0.58019800  0.08019800  0.50000000  1
