# generated using pymatgen
data_SrLa4Cr5O15
_symmetry_space_group_name_H-M   'P 1'
_cell_length_a   8.74382386
_cell_length_b   8.74382386
_cell_length_c   6.77971604
_cell_angle_alpha   75.14404029
_cell_angle_beta   75.14404029
_cell_angle_gamma   36.96165247
_symmetry_Int_Tables_number   1
_chemical_formula_structural   SrLa4Cr5O15
_chemical_formula_sum   'Sr1 La4 Cr5 O15'
_cell_volume   300.06319851
_cell_formula_units_Z   1
loop_
 _symmetry_equiv_pos_site_id
 _symmetry_equiv_pos_as_xyz
  1  'x, y, z'
loop_
 _atom_site_type_symbol
 _atom_site_label
 _atom_site_symmetry_multiplicity
 _atom_site_fract_x
 _atom_site_fract_y
 _atom_site_fract_z
 _atom_site_occupancy
  Sr  Sr0  1  0.00000000  0.00000000  0.00000000  1
  La  La1  1  0.40147100  0.40147100  0.39868500  1
  La  La2  1  0.80044900  0.80044900  0.79969900  1
  La  La3  1  0.19955100  0.19955100  0.20030100  1
  La  La4  1  0.59852900  0.59852900  0.60131500  1
  Cr  Cr5  1  0.59974200  0.59974200  0.09907100  1
  Cr  Cr6  1  0.00000000  0.00000000  0.50000000  1
  Cr  Cr7  1  0.40025800  0.40025800  0.90092900  1
  Cr  Cr8  1  0.80012600  0.80012600  0.29910100  1
  Cr  Cr9  1  0.19987400  0.19987400  0.70089900  1
  O  O10  1  0.30710700  0.79521800  0.30665600  1
  O  O11  1  0.69289300  0.20478200  0.69334400  1
  O  O12  1  0.10147400  0.59090000  0.10150100  1
  O  O13  1  0.50000000  0.00000000  0.50000000  1
  O  O14  1  0.89852600  0.40910000  0.89849900  1
  O  O15  1  0.69950600  0.69950600  0.20149500  1
  O  O16  1  0.10229500  0.10229500  0.59161400  1
  O  O17  1  0.50000000  0.50000000  0.00000000  1
  O  O18  1  0.89770500  0.89770500  0.40838600  1
  O  O19  1  0.30049400  0.30049400  0.79850500  1
  O  O20  1  0.40910000  0.89852600  0.89849900  1
  O  O21  1  0.79521800  0.30710700  0.30665600  1
  O  O22  1  0.20478200  0.69289300  0.69334400  1
  O  O23  1  0.59090000  0.10147400  0.10150100  1
  O  O24  1  0.00000000  0.50000000  0.50000000  1
