# generated using pymatgen
data_SrCeVO4
_symmetry_space_group_name_H-M   'P 1'
_cell_length_a   6.85641268
_cell_length_b   6.85641268
_cell_length_c   6.85641268
_cell_angle_alpha   146.73453105
_cell_angle_beta   146.73453105
_cell_angle_gamma   47.75701377
_symmetry_Int_Tables_number   1
_chemical_formula_structural   SrCeVO4
_chemical_formula_sum   'Sr1 Ce1 V1 O4'
_cell_volume   96.59126387
_cell_formula_units_Z   1
loop_
 _symmetry_equiv_pos_site_id
 _symmetry_equiv_pos_as_xyz
  1  'x, y, z'
loop_
 _atom_site_type_symbol
 _atom_site_label
 _atom_site_symmetry_multiplicity
 _atom_site_fract_x
 _atom_site_fract_y
 _atom_site_fract_z
 _atom_site_occupancy
  Sr  Sr0  1  0.64407900  0.64407900  0.00000000  1
  Ce  Ce1  1  0.35732200  0.35732200  0.00000000  1
  V  V2  1  0.00125700  0.00125700  0.00000000  1
  O  O3  1  0.99244600  0.49244600  0.50000000  1
  O  O4  1  0.49244600  0.99244600  0.50000000  1
  O  O5  1  0.83330500  0.83330500  0.00000000  1
  O  O6  1  0.17914400  0.17914400  0.00000000  1
