# generated using pymatgen
data_SrLaMnSnO6
_symmetry_space_group_name_H-M   'P 1'
_cell_length_a   5.71494600
_cell_length_b   5.73230241
_cell_length_c   8.08246955
_cell_angle_alpha   89.95714450
_cell_angle_beta   90.00026579
_cell_angle_gamma   90.00415436
_symmetry_Int_Tables_number   1
_chemical_formula_structural   SrLaMnSnO6
_chemical_formula_sum   'Sr2 La2 Mn2 Sn2 O12'
_cell_volume   264.78000136
_cell_formula_units_Z   2
loop_
 _symmetry_equiv_pos_site_id
 _symmetry_equiv_pos_as_xyz
  1  'x, y, z'
loop_
 _atom_site_type_symbol
 _atom_site_label
 _atom_site_symmetry_multiplicity
 _atom_site_fract_x
 _atom_site_fract_y
 _atom_site_fract_z
 _atom_site_occupancy
  Sr  Sr0  1  0.47669000  0.49642900  0.74949300  1
  Sr  Sr1  1  0.02331300  0.99643700  0.24949200  1
  La  La2  1  0.96205400  0.00956300  0.75062600  1
  La  La3  1  0.53793700  0.50955700  0.25060900  1
  Mn  Mn4  1  0.49757300  0.99975200  0.99925900  1
  Mn  Mn5  1  0.00243100  0.49973900  0.49926300  1
  Sn  Sn6  1  0.49590200  0.00060400  0.49938200  1
  Sn  Sn7  1  0.00409800  0.50060300  0.99938000  1
  O  O8  1  0.21053000  0.20072300  0.54764100  1
  O  O9  1  0.72819800  0.28378300  0.95700800  1
  O  O10  1  0.76857400  0.79042500  0.03895900  1
  O  O11  1  0.28038900  0.69635400  0.45722500  1
  O  O12  1  0.77180400  0.78378100  0.45700700  1
  O  O13  1  0.28946200  0.70072200  0.04764300  1
  O  O14  1  0.21959000  0.19636800  0.95722000  1
  O  O15  1  0.73144600  0.29044300  0.53895900  1
  O  O16  1  0.02061400  0.59078600  0.74851600  1
  O  O17  1  0.53151500  0.93157300  0.75188200  1
  O  O18  1  0.96848900  0.43157100  0.25190200  1
  O  O19  1  0.47939100  0.09078600  0.24853300  1
