# generated using pymatgen
data_Ta8(CuS8)3
_symmetry_space_group_name_H-M   'P 1'
_cell_length_a   3.42983000
_cell_length_b   9.60897017
_cell_length_c   21.79179811
_cell_angle_alpha   89.30708280
_cell_angle_beta   90.00000000
_cell_angle_gamma   90.00000000
_symmetry_Int_Tables_number   1
_chemical_formula_structural   Ta8(CuS8)3
_chemical_formula_sum   'Ta8 Cu3 S24'
_cell_volume   718.14269403
_cell_formula_units_Z   1
loop_
 _symmetry_equiv_pos_site_id
 _symmetry_equiv_pos_as_xyz
  1  'x, y, z'
loop_
 _atom_site_type_symbol
 _atom_site_label
 _atom_site_symmetry_multiplicity
 _atom_site_fract_x
 _atom_site_fract_y
 _atom_site_fract_z
 _atom_site_occupancy
  Ta  Ta0  1  0.75000000  0.44622700  0.18189400  1
  Ta  Ta1  1  0.75000000  0.94636100  0.31795400  1
  Ta  Ta2  1  0.25000000  0.55210100  0.81810800  1
  Ta  Ta3  1  0.25000000  0.05557600  0.68439900  1
  Ta  Ta4  1  0.75000000  0.33429400  0.95716900  1
  Ta  Ta5  1  0.75000000  0.83307300  0.54232400  1
  Ta  Ta6  1  0.25000000  0.66751400  0.04236000  1
  Ta  Ta7  1  0.25000000  0.16714900  0.45814100  1
  Cu  Cu8  1  0.75000000  0.68100300  0.73159200  1
  Cu  Cu9  1  0.25000000  0.81882000  0.23173300  1
  Cu  Cu10  1  0.25000000  0.31896200  0.26819800  1
  S  S11  1  0.75000000  0.47904600  0.05919400  1
  S  S12  1  0.75000000  0.97973900  0.44062600  1
  S  S13  1  0.25000000  0.52319800  0.94244000  1
  S  S14  1  0.25000000  0.01975400  0.55762100  1
  S  S15  1  0.75000000  0.22386000  0.66424900  1
  S  S16  1  0.75000000  0.72965100  0.83467500  1
  S  S17  1  0.25000000  0.76779900  0.33487300  1
  S  S18  1  0.25000000  0.26828400  0.16573500  1
  S  S19  1  0.75000000  0.36618300  0.84002500  1
  S  S20  1  0.75000000  0.86287700  0.66114400  1
  S  S21  1  0.25000000  0.63792300  0.16213100  1
  S  S22  1  0.25000000  0.13730800  0.33794600  1
  S  S23  1  0.75000000  0.47303400  0.28645600  1
  S  S24  1  0.75000000  0.97371400  0.21308500  1
  S  S25  1  0.25000000  0.52613300  0.71372900  1
  S  S26  1  0.25000000  0.02798100  0.78377800  1
  S  S27  1  0.75000000  0.35099200  0.42761100  1
  S  S28  1  0.75000000  0.85112300  0.07195000  1
  S  S29  1  0.25000000  0.64836900  0.57280500  1
  S  S30  1  0.25000000  0.15013000  0.92685600  1
  S  S31  1  0.75000000  0.30219800  0.52054400  1
  S  S32  1  0.75000000  0.80462400  0.97989200  1
  S  S33  1  0.25000000  0.69696500  0.48046100  1
  S  S34  1  0.25000000  0.19619200  0.01922000  1
