# generated using pymatgen
data_SrNd3Fe4(AsO)4
_symmetry_space_group_name_H-M   'P 1'
_cell_length_a   10.29765316
_cell_length_b   10.29765316
_cell_length_c   10.29765316
_cell_angle_alpha   147.19927378
_cell_angle_beta   147.19927378
_cell_angle_gamma   47.06881520
_symmetry_Int_Tables_number   1
_chemical_formula_structural   SrNd3Fe4(AsO)4
_chemical_formula_sum   'Sr1 Nd3 Fe4 As4 O4'
_cell_volume   319.24717904
_cell_formula_units_Z   1
loop_
 _symmetry_equiv_pos_site_id
 _symmetry_equiv_pos_as_xyz
  1  'x, y, z'
loop_
 _atom_site_type_symbol
 _atom_site_label
 _atom_site_symmetry_multiplicity
 _atom_site_fract_x
 _atom_site_fract_y
 _atom_site_fract_z
 _atom_site_occupancy
  Sr  Sr0  1  0.43461300  0.43461300  0.00000000  1
  Nd  Nd1  1  0.94243000  0.94243000  0.00000000  1
  Nd  Nd2  1  0.55874500  0.05874500  0.50000000  1
  Nd  Nd3  1  0.05874500  0.55874500  0.50000000  1
  Fe  Fe4  1  0.49978400  0.99942800  0.00000000  1
  Fe  Fe5  1  0.99942800  0.49978400  0.00000000  1
  Fe  Fe6  1  0.49978400  0.49978400  0.50035700  1
  Fe  Fe7  1  0.99942800  0.99942800  0.49964300  1
  As  As8  1  0.66346500  0.66346500  0.00000000  1
  As  As9  1  0.16405200  0.16405200  0.00000000  1
  As  As10  1  0.33517200  0.83517200  0.50000000  1
  As  As11  1  0.83517200  0.33517200  0.50000000  1
  O  O12  1  0.24639800  0.75819300  0.00000000  1
  O  O13  1  0.75819300  0.24639800  0.00000000  1
  O  O14  1  0.24639800  0.24639800  0.48820400  1
  O  O15  1  0.75819300  0.75819300  0.51179600  1
