# generated using pymatgen
data_Sr4HfTi3O12
_symmetry_space_group_name_H-M   'P 1'
_cell_length_a   8.92408941
_cell_length_b   8.92408941
_cell_length_c   4.00848100
_cell_angle_alpha   90.00000000
_cell_angle_beta   90.00000000
_cell_angle_gamma   126.82468666
_symmetry_Int_Tables_number   1
_chemical_formula_structural   Sr4HfTi3O12
_chemical_formula_sum   'Sr4 Hf1 Ti3 O12'
_cell_volume   255.53738760
_cell_formula_units_Z   1
loop_
 _symmetry_equiv_pos_site_id
 _symmetry_equiv_pos_as_xyz
  1  'x, y, z'
loop_
 _atom_site_type_symbol
 _atom_site_label
 _atom_site_symmetry_multiplicity
 _atom_site_fract_x
 _atom_site_fract_y
 _atom_site_fract_z
 _atom_site_occupancy
  Sr  Sr0  1  0.61426200  0.87081900  0.50000000  1
  Sr  Sr1  1  0.87081900  0.61426200  0.50000000  1
  Sr  Sr2  1  0.12918100  0.38573800  0.50000000  1
  Sr  Sr3  1  0.38573800  0.12918100  0.50000000  1
  Hf  Hf4  1  0.00000000  0.00000000  0.00000000  1
  Ti  Ti5  1  0.25059800  0.74940200  0.00000000  1
  Ti  Ti6  1  0.50000000  0.50000000  0.00000000  1
  Ti  Ti7  1  0.74940200  0.25059800  0.00000000  1
  O  O8  1  0.37495300  0.62504700  0.00000000  1
  O  O9  1  0.62504700  0.37495300  0.00000000  1
  O  O10  1  0.87000800  0.12999200  0.00000000  1
  O  O11  1  0.12999200  0.87000800  0.00000000  1
  O  O12  1  0.50000000  0.00000000  0.00000000  1
  O  O13  1  0.74191500  0.74191500  0.00000000  1
  O  O14  1  0.00000000  0.50000000  0.00000000  1
  O  O15  1  0.25808500  0.25808500  0.00000000  1
  O  O16  1  0.25274800  0.74725200  0.50000000  1
  O  O17  1  0.50000000  0.50000000  0.50000000  1
  O  O18  1  0.74725200  0.25274800  0.50000000  1
  O  O19  1  0.00000000  0.00000000  0.50000000  1
