# generated using pymatgen
data_Sr3LaMn2O8
_symmetry_space_group_name_H-M   'P 1'
_cell_length_a   5.54781980
_cell_length_b   5.55880682
_cell_length_c   12.40916100
_cell_angle_alpha   90.00000000
_cell_angle_beta   90.00000000
_cell_angle_gamma   90.00000000
_symmetry_Int_Tables_number   1
_chemical_formula_structural   Sr3LaMn2O8
_chemical_formula_sum   'Sr6 La2 Mn4 O16'
_cell_volume   382.68932443
_cell_formula_units_Z   2
loop_
 _symmetry_equiv_pos_site_id
 _symmetry_equiv_pos_as_xyz
  1  'x, y, z'
loop_
 _atom_site_type_symbol
 _atom_site_label
 _atom_site_symmetry_multiplicity
 _atom_site_fract_x
 _atom_site_fract_y
 _atom_site_fract_z
 _atom_site_occupancy
  Sr  Sr0  1  0.50000000  0.00000000  0.14313000  1
  Sr  Sr1  1  0.00000000  0.00000000  0.64313000  1
  Sr  Sr2  1  0.00000000  0.00000000  0.35874000  1
  Sr  Sr3  1  0.50000000  0.00000000  0.85874000  1
  Sr  Sr4  1  0.50000000  0.50000000  0.35654600  1
  Sr  Sr5  1  0.00000000  0.50000000  0.85654600  1
  La  La6  1  0.00000000  0.50000000  0.13923200  1
  La  La7  1  0.50000000  0.50000000  0.63923200  1
  Mn  Mn8  1  0.50000000  0.50000000  0.99927500  1
  Mn  Mn9  1  0.00000000  0.00000000  0.99829800  1
  Mn  Mn10  1  0.00000000  0.50000000  0.49927500  1
  Mn  Mn11  1  0.50000000  0.00000000  0.49829800  1
  O  O12  1  0.50000000  0.00000000  0.34174600  1
  O  O13  1  0.00000000  0.00000000  0.84174600  1
  O  O14  1  0.00000000  0.50000000  0.33235600  1
  O  O15  1  0.50000000  0.50000000  0.83235600  1
  O  O16  1  0.50000000  0.50000000  0.15943800  1
  O  O17  1  0.00000000  0.50000000  0.65943800  1
  O  O18  1  0.00000000  0.00000000  0.16001900  1
  O  O19  1  0.50000000  0.00000000  0.66001900  1
  O  O20  1  0.75132900  0.74268100  0.00280500  1
  O  O21  1  0.25132900  0.74268100  0.50280500  1
  O  O22  1  0.24867100  0.25731900  0.00280500  1
  O  O23  1  0.74867100  0.25731900  0.50280500  1
  O  O24  1  0.75132900  0.25731900  0.00280500  1
  O  O25  1  0.25132900  0.25731900  0.50280500  1
  O  O26  1  0.24867100  0.74268100  0.00280500  1
  O  O27  1  0.74867100  0.74268100  0.50280500  1
