# generated using pymatgen
data_Sr5ZrTi4O15
_symmetry_space_group_name_H-M   'P 1'
_cell_length_a   14.38144752
_cell_length_b   14.38144752
_cell_length_c   4.01592700
_cell_angle_alpha   90.00000000
_cell_angle_beta   90.00000000
_cell_angle_gamma   157.40348738
_symmetry_Int_Tables_number   1
_chemical_formula_structural   Sr5ZrTi4O15
_chemical_formula_sum   'Sr5 Zr1 Ti4 O15'
_cell_volume   319.14834820
_cell_formula_units_Z   1
loop_
 _symmetry_equiv_pos_site_id
 _symmetry_equiv_pos_as_xyz
  1  'x, y, z'
loop_
 _atom_site_type_symbol
 _atom_site_label
 _atom_site_symmetry_multiplicity
 _atom_site_fract_x
 _atom_site_fract_y
 _atom_site_fract_z
 _atom_site_occupancy
  Sr  Sr0  1  0.89482100  0.10517900  0.50000000  1
  Sr  Sr1  1  0.70073200  0.29926800  0.50000000  1
  Sr  Sr2  1  0.29926800  0.70073200  0.50000000  1
  Sr  Sr3  1  0.50000000  0.50000000  0.50000000  1
  Sr  Sr4  1  0.10517900  0.89482100  0.50000000  1
  Zr  Zr5  1  0.00000000  0.00000000  0.00000000  1
  Ti  Ti6  1  0.60240700  0.39759300  0.00000000  1
  Ti  Ti7  1  0.20108000  0.79892000  0.00000000  1
  Ti  Ti8  1  0.79892000  0.20108000  0.00000000  1
  Ti  Ti9  1  0.39759300  0.60240700  0.00000000  1
  O  O10  1  0.60117100  0.90464600  0.00000000  1
  O  O11  1  0.39882900  0.09535400  0.00000000  1
  O  O12  1  0.00000000  0.50000000  0.00000000  1
  O  O13  1  0.20768600  0.31355900  0.00000000  1
  O  O14  1  0.79231400  0.68644100  0.00000000  1
  O  O15  1  0.79930600  0.20069400  0.50000000  1
  O  O16  1  0.60376500  0.39623500  0.50000000  1
  O  O17  1  0.20069400  0.79930600  0.50000000  1
  O  O18  1  0.39623500  0.60376500  0.50000000  1
  O  O19  1  0.00000000  0.00000000  0.50000000  1
  O  O20  1  0.09535400  0.39882900  0.00000000  1
  O  O21  1  0.90464600  0.60117100  0.00000000  1
  O  O22  1  0.50000000  0.00000000  0.00000000  1
  O  O23  1  0.68644100  0.79231400  0.00000000  1
  O  O24  1  0.31355900  0.20768600  0.00000000  1
