# generated using pymatgen
data_SrCa3(BrN)2
_symmetry_space_group_name_H-M   'P 1'
_cell_length_a   3.77816500
_cell_length_b   6.54607500
_cell_length_c   7.40478139
_cell_angle_alpha   72.84972247
_cell_angle_beta   90.00000000
_cell_angle_gamma   90.00000000
_symmetry_Int_Tables_number   1
_chemical_formula_structural   SrCa3(BrN)2
_chemical_formula_sum   'Sr1 Ca3 Br2 N2'
_cell_volume   174.99295591
_cell_formula_units_Z   1
loop_
 _symmetry_equiv_pos_site_id
 _symmetry_equiv_pos_as_xyz
  1  'x, y, z'
loop_
 _atom_site_type_symbol
 _atom_site_label
 _atom_site_symmetry_multiplicity
 _atom_site_fract_x
 _atom_site_fract_y
 _atom_site_fract_z
 _atom_site_occupancy
  Sr  Sr0  1  0.50000000  0.27235200  0.68690200  1
  Ca  Ca1  1  0.00000000  0.77621500  0.66541000  1
  Ca  Ca2  1  0.50000000  0.72614600  0.32186100  1
  Ca  Ca3  1  0.00000000  0.22538900  0.32291400  1
  Br  Br4  1  0.00000000  0.99081500  0.01060200  1
  Br  Br5  1  0.50000000  0.50420700  0.00454600  1
  N  N6  1  0.00000000  0.50869500  0.49247800  1
  N  N7  1  0.50000000  0.99618100  0.49528700  1
