# generated using pymatgen
data_SrCa
_symmetry_space_group_name_H-M   'P 1'
_cell_length_a   7.06512765
_cell_length_b   7.06512765
_cell_length_c   7.06512734
_cell_angle_alpha   33.60704178
_cell_angle_beta   33.60704178
_cell_angle_gamma   33.60703898
_symmetry_Int_Tables_number   1
_chemical_formula_structural   SrCa
_chemical_formula_sum   'Sr1 Ca1'
_cell_volume   96.24189579
_cell_formula_units_Z   1
loop_
 _symmetry_equiv_pos_site_id
 _symmetry_equiv_pos_as_xyz
  1  'x, y, z'
loop_
 _atom_site_type_symbol
 _atom_site_label
 _atom_site_symmetry_multiplicity
 _atom_site_fract_x
 _atom_site_fract_y
 _atom_site_fract_z
 _atom_site_occupancy
  Sr  Sr0  1  0.50000000  0.50000000  0.50000000  1
  Ca  Ca1  1  0.00000000  0.00000000  0.00000000  1
