# generated using pymatgen
data_Sr3TaCoO7
_symmetry_space_group_name_H-M   'P 1'
_cell_length_a   3.97802508
_cell_length_b   11.16335201
_cell_length_c   7.83862221
_cell_angle_alpha   79.88068732
_cell_angle_beta   90.02256394
_cell_angle_gamma   79.74319519
_symmetry_Int_Tables_number   1
_chemical_formula_structural   Sr3TaCoO7
_chemical_formula_sum   'Sr6 Ta2 Co2 O14'
_cell_volume   337.02667554
_cell_formula_units_Z   2
loop_
 _symmetry_equiv_pos_site_id
 _symmetry_equiv_pos_as_xyz
  1  'x, y, z'
loop_
 _atom_site_type_symbol
 _atom_site_label
 _atom_site_symmetry_multiplicity
 _atom_site_fract_x
 _atom_site_fract_y
 _atom_site_fract_z
 _atom_site_occupancy
  Sr  Sr0  1  0.52010900  0.95948500  0.76026700  1
  Sr  Sr1  1  0.52043400  0.95948200  0.26025000  1
  Sr  Sr2  1  0.30790200  0.38409000  0.15398700  1
  Sr  Sr3  1  0.30789400  0.38410100  0.65398100  1
  Sr  Sr4  1  0.68315400  0.63328600  0.84169600  1
  Sr  Sr5  1  0.68359600  0.63328500  0.34168200  1
  Ta  Ta6  1  0.90154100  0.19703400  0.95081300  1
  Ta  Ta7  1  0.90154000  0.19702900  0.45081500  1
  Co  Co8  1  0.10799400  0.78404100  0.05432900  1
  Co  Co9  1  0.10800700  0.78404500  0.55433100  1
  O  O10  1  0.19858400  0.60274900  0.09894700  1
  O  O11  1  0.19857300  0.60275400  0.59894700  1
  O  O12  1  0.80456800  0.39120200  0.90220400  1
  O  O13  1  0.80456500  0.39119700  0.40220900  1
  O  O14  1  0.98991200  0.02002200  0.99493100  1
  O  O15  1  0.98990800  0.02001500  0.49493300  1
  O  O16  1  0.59680800  0.80632600  0.04830300  1
  O  O17  1  0.59680100  0.80632800  0.54830400  1
  O  O18  1  0.09729300  0.80488700  0.79863300  1
  O  O19  1  0.09777000  0.80488400  0.29862400  1
  O  O20  1  0.39624600  0.20754500  0.94819500  1
  O  O21  1  0.39624400  0.20754000  0.44819900  1
  O  O22  1  0.89526800  0.20933800  0.19771100  1
  O  O23  1  0.89529200  0.20933800  0.69771100  1
