# generated using pymatgen
data_Sr2VP2O9
_symmetry_space_group_name_H-M   'P 1'
_cell_length_a   6.83337734
_cell_length_b   7.07333472
_cell_length_c   8.82211702
_cell_angle_alpha   76.39114557
_cell_angle_beta   77.53298171
_cell_angle_gamma   115.31376833
_symmetry_Int_Tables_number   1
_chemical_formula_structural   Sr2VP2O9
_chemical_formula_sum   'Sr4 V2 P4 O18'
_cell_volume   349.49827539
_cell_formula_units_Z   2
loop_
 _symmetry_equiv_pos_site_id
 _symmetry_equiv_pos_as_xyz
  1  'x, y, z'
loop_
 _atom_site_type_symbol
 _atom_site_label
 _atom_site_symmetry_multiplicity
 _atom_site_fract_x
 _atom_site_fract_y
 _atom_site_fract_z
 _atom_site_occupancy
  Sr  Sr0  1  0.20875700  0.95738900  0.08303900  1
  Sr  Sr1  1  0.79179600  0.04042800  0.91696100  1
  Sr  Sr2  1  0.62686100  0.37666000  0.24839700  1
  Sr  Sr3  1  0.37525700  0.62505700  0.75160300  1
  V  V4  1  0.00286200  0.98278000  0.49299000  1
  V  V5  1  0.99585200  0.47577000  0.50701000  1
  P  P6  1  0.82808300  0.57706200  0.84420900  1
  P  P7  1  0.17229200  0.42127100  0.15579100  1
  P  P8  1  0.41320900  0.16304700  0.67244600  1
  P  P9  1  0.58565500  0.83549400  0.32755300  1
  O  O10  1  0.95185800  0.68766800  0.95113800  1
  O  O11  1  0.59635600  0.36070800  0.95131800  1
  O  O12  1  0.04767300  0.31202500  0.04868200  1
  O  O13  1  0.40299600  0.63880600  0.04886200  1
  O  O14  1  0.74615700  0.78303400  0.21355900  1
  O  O15  1  0.53823800  0.00197100  0.21484100  1
  O  O16  1  0.25307800  0.21681200  0.78515900  1
  O  O17  1  0.45971600  0.99659300  0.78644100  1
  O  O18  1  0.98316000  0.51570900  0.72735700  1
  O  O19  1  0.79211100  0.75595800  0.72574300  1
  O  O20  1  0.01785400  0.48170100  0.27425700  1
  O  O21  1  0.21051700  0.24306700  0.27264300  1
  O  O22  1  0.70536100  0.93045200  0.44733600  1
  O  O23  1  0.34853400  0.62015500  0.44898700  1
  O  O24  1  0.29752100  0.06914200  0.55101300  1
  O  O25  1  0.65269700  0.37778800  0.55266400  1
  O  O26  1  0.03751500  0.78826700  0.41835900  1
  O  O27  1  0.95587400  0.20662700  0.58164100  1
