# generated using pymatgen
data_SrCaTiMnO6
_symmetry_space_group_name_H-M   'P 1'
_cell_length_a   5.45387600
_cell_length_b   5.46815873
_cell_length_c   7.70356346
_cell_angle_alpha   90.04949166
_cell_angle_beta   89.99945912
_cell_angle_gamma   89.99989522
_symmetry_Int_Tables_number   1
_chemical_formula_structural   SrCaTiMnO6
_chemical_formula_sum   'Sr2 Ca2 Ti2 Mn2 O12'
_cell_volume   229.74066566
_cell_formula_units_Z   2
loop_
 _symmetry_equiv_pos_site_id
 _symmetry_equiv_pos_as_xyz
  1  'x, y, z'
loop_
 _atom_site_type_symbol
 _atom_site_label
 _atom_site_symmetry_multiplicity
 _atom_site_fract_x
 _atom_site_fract_y
 _atom_site_fract_z
 _atom_site_occupancy
  Sr  Sr0  1  0.98782200  0.50372200  0.74946300  1
  Sr  Sr1  1  0.48781100  0.99629700  0.75054500  1
  Ca  Ca2  1  0.01847200  0.49711900  0.25032100  1
  Ca  Ca3  1  0.51846300  0.00290000  0.24969000  1
  Ti  Ti4  1  0.50005100  0.50194900  0.00494400  1
  Ti  Ti5  1  0.00007600  0.99808000  0.49504400  1
  Mn  Mn6  1  0.00001800  0.99883600  0.00388500  1
  Mn  Mn7  1  0.49995700  0.50101200  0.49599800  1
  O  O8  1  0.50191700  0.45525400  0.74725000  1
  O  O9  1  0.00190900  0.04476100  0.75277700  1
  O  O10  1  0.49114100  0.56290100  0.25276400  1
  O  O11  1  0.99113900  0.93712000  0.24725700  1
  O  O12  1  0.22831300  0.73347400  0.97928300  1
  O  O13  1  0.72832100  0.76653100  0.52073200  1
  O  O14  1  0.76720300  0.27333200  0.46462900  1
  O  O15  1  0.26721300  0.22666600  0.03538400  1
  O  O16  1  0.77173900  0.26617200  0.03586700  1
  O  O17  1  0.27172400  0.23385800  0.46414900  1
  O  O18  1  0.23335900  0.72898400  0.52047900  1
  O  O19  1  0.73335100  0.77103100  0.97953900  1
