# generated using pymatgen
data_Sr3Ca(SnO3)4
_symmetry_space_group_name_H-M   'P 1'
_cell_length_a   8.14365400
_cell_length_b   5.74771000
_cell_length_c   5.80273714
_cell_angle_alpha   89.95083773
_cell_angle_beta   90.00000000
_cell_angle_gamma   90.00000000
_symmetry_Int_Tables_number   1
_chemical_formula_structural   Sr3Ca(SnO3)4
_chemical_formula_sum   'Sr3 Ca1 Sn4 O12'
_cell_volume   271.61071502
_cell_formula_units_Z   1
loop_
 _symmetry_equiv_pos_site_id
 _symmetry_equiv_pos_as_xyz
  1  'x, y, z'
loop_
 _atom_site_type_symbol
 _atom_site_label
 _atom_site_symmetry_multiplicity
 _atom_site_fract_x
 _atom_site_fract_y
 _atom_site_fract_z
 _atom_site_occupancy
  Sr  Sr0  1  0.00000000  0.00546600  0.96730700  1
  Sr  Sr1  1  0.50000000  0.50785100  0.53062000  1
  Sr  Sr2  1  0.50000000  0.99076700  0.03700600  1
  Ca  Ca3  1  0.00000000  0.48945000  0.45333400  1
  Sn  Sn4  1  0.24770000  0.50036300  0.99852000  1
  Sn  Sn5  1  0.75274500  0.99907500  0.50035700  1
  Sn  Sn6  1  0.75230000  0.50036300  0.99852000  1
  Sn  Sn7  1  0.24725500  0.99907500  0.50035700  1
  O  O8  1  0.20627500  0.21525800  0.21623700  1
  O  O9  1  0.80017100  0.29521600  0.70555200  1
  O  O10  1  0.71040600  0.79209800  0.79025300  1
  O  O11  1  0.29111800  0.71290900  0.28553000  1
  O  O12  1  0.28959400  0.79209800  0.79025300  1
  O  O13  1  0.70888200  0.71290900  0.28553000  1
  O  O14  1  0.79372500  0.21525800  0.21623700  1
  O  O15  1  0.19982900  0.29521600  0.70555200  1
  O  O16  1  0.00000000  0.57662000  0.03766100  1
  O  O17  1  0.00000000  0.90171600  0.51865400  1
  O  O18  1  0.50000000  0.42227000  0.97811500  1
  O  O19  1  0.50000000  0.07602100  0.48440600  1
