# generated using pymatgen
data_Sr5ZrTi4O15
_symmetry_space_group_name_H-M   'P 1'
_cell_length_a   4.01397200
_cell_length_b   4.01397200
_cell_length_c   19.93764000
_cell_angle_alpha   90.00000000
_cell_angle_beta   90.00000000
_cell_angle_gamma   90.00000000
_symmetry_Int_Tables_number   1
_chemical_formula_structural   Sr5ZrTi4O15
_chemical_formula_sum   'Sr5 Zr1 Ti4 O15'
_cell_volume   321.23468181
_cell_formula_units_Z   1
loop_
 _symmetry_equiv_pos_site_id
 _symmetry_equiv_pos_as_xyz
  1  'x, y, z'
loop_
 _atom_site_type_symbol
 _atom_site_label
 _atom_site_symmetry_multiplicity
 _atom_site_fract_x
 _atom_site_fract_y
 _atom_site_fract_z
 _atom_site_occupancy
  Sr  Sr0  1  0.50000000  0.50000000  0.10943100  1
  Sr  Sr1  1  0.50000000  0.50000000  0.30317100  1
  Sr  Sr2  1  0.50000000  0.50000000  0.50000000  1
  Sr  Sr3  1  0.50000000  0.50000000  0.69682900  1
  Sr  Sr4  1  0.50000000  0.50000000  0.89056900  1
  Zr  Zr5  1  0.00000000  0.00000000  0.00000000  1
  Ti  Ti6  1  0.00000000  0.00000000  0.20422800  1
  Ti  Ti7  1  0.00000000  0.00000000  0.40106000  1
  Ti  Ti8  1  0.00000000  0.00000000  0.59894000  1
  Ti  Ti9  1  0.00000000  0.00000000  0.79577200  1
  O  O10  1  0.00000000  0.00000000  0.10772600  1
  O  O11  1  0.00000000  0.00000000  0.30309800  1
  O  O12  1  0.00000000  0.00000000  0.50000000  1
  O  O13  1  0.00000000  0.00000000  0.69690200  1
  O  O14  1  0.00000000  0.00000000  0.89227400  1
  O  O15  1  0.00000000  0.50000000  0.00000000  1
  O  O16  1  0.00000000  0.50000000  0.20444400  1
  O  O17  1  0.00000000  0.50000000  0.40087500  1
  O  O18  1  0.00000000  0.50000000  0.59912500  1
  O  O19  1  0.00000000  0.50000000  0.79555600  1
  O  O20  1  0.50000000  0.00000000  0.00000000  1
  O  O21  1  0.50000000  0.00000000  0.20444400  1
  O  O22  1  0.50000000  0.00000000  0.40087500  1
  O  O23  1  0.50000000  0.00000000  0.59912500  1
  O  O24  1  0.50000000  0.00000000  0.79555600  1
