# generated using pymatgen
data_Sr4Ti3Nb2O15
_symmetry_space_group_name_H-M   'P 1'
_cell_length_a   11.95525743
_cell_length_b   11.95525743
_cell_length_c   11.95525794
_cell_angle_alpha   27.18025983
_cell_angle_beta   27.18025983
_cell_angle_gamma   27.18026259
_symmetry_Int_Tables_number   1
_chemical_formula_structural   Sr4Ti3Nb2O15
_chemical_formula_sum   'Sr4 Ti3 Nb2 O15'
_cell_volume   314.56091367
_cell_formula_units_Z   1
loop_
 _symmetry_equiv_pos_site_id
 _symmetry_equiv_pos_as_xyz
  1  'x, y, z'
loop_
 _atom_site_type_symbol
 _atom_site_label
 _atom_site_symmetry_multiplicity
 _atom_site_fract_x
 _atom_site_fract_y
 _atom_site_fract_z
 _atom_site_occupancy
  Sr  Sr0  1  0.40095200  0.40095200  0.40095200  1
  Sr  Sr1  1  0.80130800  0.80130800  0.80130800  1
  Sr  Sr2  1  0.19869200  0.19869200  0.19869200  1
  Sr  Sr3  1  0.59904800  0.59904800  0.59904800  1
  Ti  Ti4  1  0.10034600  0.10034600  0.10034600  1
  Ti  Ti5  1  0.50000000  0.50000000  0.50000000  1
  Ti  Ti6  1  0.89965400  0.89965400  0.89965400  1
  Nb  Nb7  1  0.29965100  0.29965100  0.29965100  1
  Nb  Nb8  1  0.70034900  0.70034900  0.70034900  1
  O  O9  1  0.89975100  0.89975100  0.40865900  1
  O  O10  1  0.10024900  0.10024900  0.59134100  1
  O  O11  1  0.50000000  0.50000000  0.00000000  1
  O  O12  1  0.30042600  0.30042600  0.79982300  1
  O  O13  1  0.69957400  0.69957400  0.20017700  1
  O  O14  1  0.00000000  0.50000000  0.50000000  1
  O  O15  1  0.20017700  0.69957400  0.69957400  1
  O  O16  1  0.59134100  0.10024900  0.10024900  1
  O  O17  1  0.40865900  0.89975100  0.89975100  1
  O  O18  1  0.79982300  0.30042600  0.30042600  1
  O  O19  1  0.50000000  0.00000000  0.50000000  1
  O  O20  1  0.69957400  0.20017700  0.69957400  1
  O  O21  1  0.10024900  0.59134100  0.10024900  1
  O  O22  1  0.89975100  0.40865900  0.89975100  1
  O  O23  1  0.30042600  0.79982300  0.30042600  1
