# generated using pymatgen
data_Sr4Al6MoO16
_symmetry_space_group_name_H-M   'P 1'
_cell_length_a   8.28849609
_cell_length_b   8.28849609
_cell_length_c   8.28849609
_cell_angle_alpha   109.98344298
_cell_angle_beta   109.98344298
_cell_angle_gamma   108.45156252
_symmetry_Int_Tables_number   1
_chemical_formula_structural   Sr4Al6MoO16
_chemical_formula_sum   'Sr4 Al6 Mo1 O16'
_cell_volume   438.23026735
_cell_formula_units_Z   1
loop_
 _symmetry_equiv_pos_site_id
 _symmetry_equiv_pos_as_xyz
  1  'x, y, z'
loop_
 _atom_site_type_symbol
 _atom_site_label
 _atom_site_symmetry_multiplicity
 _atom_site_fract_x
 _atom_site_fract_y
 _atom_site_fract_z
 _atom_site_occupancy
  Sr  Sr0  1  0.49137000  0.99137000  0.98274000  1
  Sr  Sr1  1  0.00863000  0.99137000  0.50000000  1
  Sr  Sr2  1  0.00863000  0.50863000  0.01726000  1
  Sr  Sr3  1  0.49137000  0.50863000  0.50000000  1
  Al  Al4  1  0.50359000  0.25193700  0.74834800  1
  Al  Al5  1  0.75000000  0.25000000  0.50000000  1
  Al  Al6  1  0.24475800  0.49641000  0.74834800  1
  Al  Al7  1  0.25000000  0.75000000  0.50000000  1
  Al  Al8  1  0.50359000  0.75524200  0.25165200  1
  Al  Al9  1  0.74806300  0.49641000  0.25165200  1
  Mo  Mo10  1  0.00000000  0.00000000  0.00000000  1
  O  O11  1  0.66439100  0.00107100  0.33668100  1
  O  O12  1  0.30657400  0.65227900  0.65429600  1
  O  O13  1  0.66059700  0.33940300  0.00000000  1
  O  O14  1  0.34772100  0.00201700  0.65429600  1
  O  O15  1  0.99892900  0.33560900  0.66331900  1
  O  O16  1  0.66059700  0.66059700  0.32119400  1
  O  O17  1  0.66439100  0.32771000  0.66331900  1
  O  O18  1  0.99798300  0.65227900  0.34570400  1
  O  O19  1  0.33940300  0.66059700  0.00000000  1
  O  O20  1  0.34772100  0.69342600  0.34570400  1
  O  O21  1  0.67229000  0.33560900  0.33668100  1
  O  O22  1  0.33940300  0.33940300  0.67880600  1
  O  O23  1  0.10829400  0.95422800  0.84593500  1
  O  O24  1  0.04577200  0.89170600  0.15406500  1
  O  O25  1  0.10829400  0.26235900  0.15406500  1
  O  O26  1  0.73764100  0.89170600  0.84593500  1
