# generated using pymatgen
data_Sr3LaMn4O12
_symmetry_space_group_name_H-M   'P 1'
_cell_length_a   6.74585812
_cell_length_b   6.74585812
_cell_length_c   6.74585812
_cell_angle_alpha   109.47122063
_cell_angle_beta   109.47122063
_cell_angle_gamma   109.47122063
_symmetry_Int_Tables_number   1
_chemical_formula_structural   Sr3LaMn4O12
_chemical_formula_sum   'Sr3 La1 Mn4 O12'
_cell_volume   236.31414460
_cell_formula_units_Z   1
loop_
 _symmetry_equiv_pos_site_id
 _symmetry_equiv_pos_as_xyz
  1  'x, y, z'
loop_
 _atom_site_type_symbol
 _atom_site_label
 _atom_site_symmetry_multiplicity
 _atom_site_fract_x
 _atom_site_fract_y
 _atom_site_fract_z
 _atom_site_occupancy
  Sr  Sr0  1  0.50000000  0.50000000  0.00000000  1
  Sr  Sr1  1  0.50000000  0.00000000  0.50000000  1
  Sr  Sr2  1  0.00000000  0.50000000  0.50000000  1
  La  La3  1  0.00000000  0.00000000  0.00000000  1
  Mn  Mn4  1  0.00000000  0.50000000  0.00000000  1
  Mn  Mn5  1  0.50000000  0.50000000  0.50000000  1
  Mn  Mn6  1  0.00000000  0.00000000  0.50000000  1
  Mn  Mn7  1  0.50000000  0.00000000  0.00000000  1
  O  O8  1  0.00000000  0.24553700  0.75446300  1
  O  O9  1  0.49107400  0.24553700  0.24553700  1
  O  O10  1  0.00000000  0.75446300  0.24553700  1
  O  O11  1  0.50892600  0.75446300  0.75446300  1
  O  O12  1  0.75446300  0.24553700  0.00000000  1
  O  O13  1  0.24553700  0.24553700  0.49107400  1
  O  O14  1  0.75446300  0.75446300  0.50892600  1
  O  O15  1  0.24553700  0.75446300  0.00000000  1
  O  O16  1  0.75446300  0.50892600  0.75446300  1
  O  O17  1  0.24553700  0.49107400  0.24553700  1
  O  O18  1  0.75446300  0.00000000  0.24553700  1
  O  O19  1  0.24553700  0.00000000  0.75446300  1
