# generated using pymatgen
data_SrCaMnGaO5
_symmetry_space_group_name_H-M   'P 1'
_cell_length_a   5.45568823
_cell_length_b   5.67301705
_cell_length_c   8.66731943
_cell_angle_alpha   71.29782304
_cell_angle_beta   71.62541253
_cell_angle_gamma   89.97620569
_symmetry_Int_Tables_number   1
_chemical_formula_structural   SrCaMnGaO5
_chemical_formula_sum   'Sr2 Ca2 Mn2 Ga2 O10'
_cell_volume   239.61966529
_cell_formula_units_Z   2
loop_
 _symmetry_equiv_pos_site_id
 _symmetry_equiv_pos_as_xyz
  1  'x, y, z'
loop_
 _atom_site_type_symbol
 _atom_site_label
 _atom_site_symmetry_multiplicity
 _atom_site_fract_x
 _atom_site_fract_y
 _atom_site_fract_z
 _atom_site_occupancy
  Sr  Sr0  1  0.11163000  0.59248400  0.77115000  1
  Sr  Sr1  1  0.88297200  0.40715500  0.22887600  1
  Ca  Ca2  1  0.38107700  0.86690700  0.21293600  1
  Ca  Ca3  1  0.59381400  0.13332900  0.78721100  1
  Mn  Mn4  1  0.50254400  0.50026700  0.99975900  1
  Mn  Mn5  1  0.00225000  0.99953500  0.99971600  1
  Ga  Ga6  1  0.71321000  0.82061600  0.49949600  1
  Ga  Ga7  1  0.21258300  0.17954600  0.50054000  1
  O  O8  1  0.74008900  0.22960500  0.01903600  1
  O  O9  1  0.75343600  0.76254000  0.98071400  1
  O  O10  1  0.26217200  0.76394600  0.97959900  1
  O  O11  1  0.24764200  0.24357200  0.02055400  1
  O  O12  1  0.85652300  0.11130100  0.52056200  1
  O  O13  1  0.37704500  0.88866800  0.47965300  1
  O  O14  1  0.66222800  0.56971200  0.70817600  1
  O  O15  1  0.37078000  0.43023500  0.29196200  1
  O  O16  1  0.90728200  0.80835400  0.28641500  1
  O  O17  1  0.19272300  0.19222700  0.71364500  1
