# generated using pymatgen
data_Sr3LaTa2(FeO6)2
_symmetry_space_group_name_H-M   'P 1'
_cell_length_a   5.69466538
_cell_length_b   9.88549448
_cell_length_c   9.89835378
_cell_angle_alpha   70.27467887
_cell_angle_beta   90.19804652
_cell_angle_gamma   90.25495208
_symmetry_Int_Tables_number   1
_chemical_formula_structural   Sr3LaTa2(FeO6)2
_chemical_formula_sum   'Sr6 La2 Ta4 Fe4 O24'
_cell_volume   524.52031293
_cell_formula_units_Z   2
loop_
 _symmetry_equiv_pos_site_id
 _symmetry_equiv_pos_as_xyz
  1  'x, y, z'
loop_
 _atom_site_type_symbol
 _atom_site_label
 _atom_site_symmetry_multiplicity
 _atom_site_fract_x
 _atom_site_fract_y
 _atom_site_fract_z
 _atom_site_occupancy
  Sr  Sr0  1  0.52477100  0.12338400  0.62760600  1
  Sr  Sr1  1  0.52454700  0.62305300  0.12783500  1
  Sr  Sr2  1  0.02390400  0.87704700  0.87434500  1
  Sr  Sr3  1  0.02433700  0.37731200  0.37403900  1
  Sr  Sr4  1  0.47444800  0.87524400  0.37272600  1
  Sr  Sr5  1  0.47456800  0.37565500  0.87265700  1
  La  La6  1  0.95740300  0.11849800  0.12371500  1
  La  La7  1  0.95719000  0.61833700  0.62397200  1
  Ta  Ta8  1  0.49607200  0.75212300  0.74987000  1
  Ta  Ta9  1  0.49623700  0.25198700  0.24984200  1
  Ta  Ta10  1  0.00229900  0.24720200  0.74923100  1
  Ta  Ta11  1  0.00196000  0.74728500  0.24915800  1
  Fe  Fe12  1  0.99813400  0.49845200  0.99991200  1
  Fe  Fe13  1  0.49758200  0.49989400  0.50001400  1
  Fe  Fe14  1  0.99815400  0.99847800  0.49990900  1
  Fe  Fe15  1  0.49743500  0.00002100  0.99988300  1
  O  O16  1  0.52567700  0.66041800  0.60001500  1
  O  O17  1  0.52583100  0.16056700  0.09993000  1
  O  O18  1  0.99568100  0.15494900  0.59757800  1
  O  O19  1  0.99468000  0.65481900  0.09761900  1
  O  O20  1  0.48465500  0.33748000  0.40114700  1
  O  O21  1  0.48439100  0.83719000  0.90132000  1
  O  O22  1  0.00522100  0.83708800  0.41212600  1
  O  O23  1  0.00617900  0.33717200  0.91212300  1
  O  O24  1  0.72693400  0.09877400  0.36741800  1
  O  O25  1  0.72699500  0.59879300  0.86734000  1
  O  O26  1  0.80185800  0.09501300  0.87786500  1
  O  O27  1  0.80014100  0.59484100  0.37796800  1
  O  O28  1  0.27952300  0.90144600  0.62569100  1
  O  O29  1  0.27951800  0.40141100  0.12570400  1
  O  O30  1  0.19717200  0.91464500  0.12956100  1
  O  O31  1  0.19894100  0.41490800  0.62948700  1
  O  O32  1  0.21970800  0.12154700  0.33643100  1
  O  O33  1  0.21961900  0.62151100  0.83634700  1
  O  O34  1  0.28779900  0.13970700  0.83484500  1
  O  O35  1  0.28609000  0.63979200  0.33438400  1
  O  O36  1  0.77568800  0.87629600  0.65571600  1
  O  O37  1  0.77576100  0.37628700  0.15572500  1
  O  O38  1  0.72557400  0.87076100  0.16420800  1
  O  O39  1  0.72732500  0.37061600  0.66473200  1
