# generated using pymatgen
data_SrCaTi2(GeO5)2
_symmetry_space_group_name_H-M   'P 1'
_cell_length_a   9.06532100
_cell_length_b   6.82132700
_cell_length_c   7.30368264
_cell_angle_alpha   65.96491966
_cell_angle_beta   90.00000000
_cell_angle_gamma   90.00000000
_symmetry_Int_Tables_number   1
_chemical_formula_structural   SrCaTi2(GeO5)2
_chemical_formula_sum   'Sr2 Ca2 Ti4 Ge4 O20'
_cell_volume   412.48259385
_cell_formula_units_Z   2
loop_
 _symmetry_equiv_pos_site_id
 _symmetry_equiv_pos_as_xyz
  1  'x, y, z'
loop_
 _atom_site_type_symbol
 _atom_site_label
 _atom_site_symmetry_multiplicity
 _atom_site_fract_x
 _atom_site_fract_y
 _atom_site_fract_z
 _atom_site_occupancy
  Sr  Sr0  1  0.07765400  0.74925800  0.49277000  1
  Sr  Sr1  1  0.57765400  0.25074200  0.50723000  1
  Ca  Ca2  1  0.92447400  0.24995900  0.00489800  1
  Ca  Ca3  1  0.42447400  0.75004100  0.99510200  1
  Ti  Ti4  1  0.24658100  0.24649100  0.76669600  1
  Ti  Ti5  1  0.74658100  0.75350900  0.23330400  1
  Ti  Ti6  1  0.75218300  0.74432300  0.74041200  1
  Ti  Ti7  1  0.25218300  0.25567700  0.25958800  1
  Ge  Ge8  1  0.06625000  0.75230800  0.99505700  1
  Ge  Ge9  1  0.56625000  0.24769200  0.00494300  1
  Ge  Ge10  1  0.93517600  0.24807600  0.50410600  1
  Ge  Ge11  1  0.43517600  0.75192400  0.49589400  1
  O  O12  1  0.31558200  0.95023200  0.32819100  1
  O  O13  1  0.81558200  0.04976800  0.67180900  1
  O  O14  1  0.69282400  0.06020800  0.17164500  1
  O  O15  1  0.19282400  0.93979200  0.82835500  1
  O  O16  1  0.18175500  0.24664600  0.00010000  1
  O  O17  1  0.68175500  0.75335400  0.99990000  1
  O  O18  1  0.80631400  0.75256500  0.50090200  1
  O  O19  1  0.30631400  0.24743500  0.49909800  1
  O  O20  1  0.04056900  0.34340300  0.65512300  1
  O  O21  1  0.54056900  0.65659700  0.34487700  1
  O  O22  1  0.95640600  0.64020500  0.86027600  1
  O  O23  1  0.45640600  0.35979500  0.13972400  1
  O  O24  1  0.19249600  0.56453700  0.16279000  1
  O  O25  1  0.69249600  0.43546300  0.83721000  1
  O  O26  1  0.81556100  0.44864900  0.33708700  1
  O  O27  1  0.31556100  0.55135100  0.66291300  1
  O  O28  1  0.45532200  0.14005000  0.86621800  1
  O  O29  1  0.95532200  0.85995000  0.13378200  1
  O  O30  1  0.54085200  0.84252700  0.65177800  1
  O  O31  1  0.04085200  0.15747300  0.34822200  1
