# generated using pymatgen
data_SrCa3V4O12
_symmetry_space_group_name_H-M   'P 1'
_cell_length_a   5.38977883
_cell_length_b   5.41854789
_cell_length_c   7.84715900
_cell_angle_alpha   90.00164927
_cell_angle_beta   89.99934477
_cell_angle_gamma   90.06471298
_symmetry_Int_Tables_number   1
_chemical_formula_structural   SrCa3V4O12
_chemical_formula_sum   'Sr1 Ca3 V4 O12'
_cell_volume   229.17436462
_cell_formula_units_Z   1
loop_
 _symmetry_equiv_pos_site_id
 _symmetry_equiv_pos_as_xyz
  1  'x, y, z'
loop_
 _atom_site_type_symbol
 _atom_site_label
 _atom_site_symmetry_multiplicity
 _atom_site_fract_x
 _atom_site_fract_y
 _atom_site_fract_z
 _atom_site_occupancy
  Sr  Sr0  1  0.51935500  0.50334400  0.75001500  1
  Ca  Ca1  1  0.02920500  0.00153900  0.74997400  1
  Ca  Ca2  1  0.46982200  0.49844800  0.24997800  1
  Ca  Ca3  1  0.97228800  0.99685600  0.25001800  1
  V  V4  1  0.99904400  0.49976700  0.49700300  1
  V  V5  1  0.50020000  0.99813800  0.49745900  1
  V  V6  1  0.99909300  0.49975200  0.00301800  1
  V  V7  1  0.50014900  0.99813800  0.00250900  1
  O  O8  1  0.00453200  0.43580500  0.74999800  1
  O  O9  1  0.47218500  0.04305500  0.75001700  1
  O  O10  1  0.00122000  0.56432700  0.25000900  1
  O  O11  1  0.52644900  0.93559600  0.24999200  1
  O  O12  1  0.27808600  0.70626600  0.98398600  1
  O  O13  1  0.27807400  0.70627000  0.51611800  1
  O  O14  1  0.78411600  0.80239400  0.53391900  1
  O  O15  1  0.78410400  0.80236100  0.96599600  1
  O  O16  1  0.71906200  0.29926900  0.47036900  1
  O  O17  1  0.71901200  0.29925200  0.02949300  1
  O  O18  1  0.22200100  0.20471100  0.03743000  1
  O  O19  1  0.22200500  0.20471100  0.46270000  1
