# generated using pymatgen
data_SrAgGe
_symmetry_space_group_name_H-M   'P 1'
_cell_length_a   6.06729398
_cell_length_b   6.06729398
_cell_length_c   14.95600351
_cell_angle_alpha   77.47337315
_cell_angle_beta   77.47337315
_cell_angle_gamma   45.89860706
_symmetry_Int_Tables_number   1
_chemical_formula_structural   SrAgGe
_chemical_formula_sum   'Sr5 Ag5 Ge5'
_cell_volume   384.23990405
_cell_formula_units_Z   5
loop_
 _symmetry_equiv_pos_site_id
 _symmetry_equiv_pos_as_xyz
  1  'x, y, z'
loop_
 _atom_site_type_symbol
 _atom_site_label
 _atom_site_symmetry_multiplicity
 _atom_site_fract_x
 _atom_site_fract_y
 _atom_site_fract_z
 _atom_site_occupancy
  Sr  Sr0  1  0.23646800  0.23646800  0.18678500  1
  Sr  Sr1  1  0.76215500  0.76215500  0.81092300  1
  Sr  Sr2  1  0.61653900  0.61653900  0.58098100  1
  Sr  Sr3  1  0.38256400  0.38256400  0.42133800  1
  Sr  Sr4  1  0.00038100  0.00038100  0.99793400  1
  Ag  Ag5  1  0.91225700  0.91225700  0.59110600  1
  Ag  Ag6  1  0.08922700  0.08922700  0.40946600  1
  Ag  Ag7  1  0.52695700  0.52695700  0.20347000  1
  Ag  Ag8  1  0.46828300  0.46828300  0.80478500  1
  Ag  Ag9  1  0.70637500  0.70637500  0.03184400  1
  Ge  Ge10  1  0.29932400  0.29932400  0.96606400  1
  Ge  Ge11  1  0.92257300  0.92257300  0.25945000  1
  Ge  Ge12  1  0.07586100  0.07586100  0.73963200  1
  Ge  Ge13  1  0.69861600  0.69861600  0.34334500  1
  Ge  Ge14  1  0.30241800  0.30241800  0.65287700  1
