# generated using pymatgen
data_Sr3In3Ga2
_symmetry_space_group_name_H-M   'P 1'
_cell_length_a   6.39320907
_cell_length_b   6.39320907
_cell_length_c   16.40159900
_cell_angle_alpha   90.00000000
_cell_angle_beta   90.00000000
_cell_angle_gamma   134.73027920
_symmetry_Int_Tables_number   1
_chemical_formula_structural   Sr3In3Ga2
_chemical_formula_sum   'Sr6 In6 Ga4'
_cell_volume   476.25972741
_cell_formula_units_Z   2
loop_
 _symmetry_equiv_pos_site_id
 _symmetry_equiv_pos_as_xyz
  1  'x, y, z'
loop_
 _atom_site_type_symbol
 _atom_site_label
 _atom_site_symmetry_multiplicity
 _atom_site_fract_x
 _atom_site_fract_y
 _atom_site_fract_z
 _atom_site_occupancy
  Sr  Sr0  1  0.91210700  0.08789300  0.39070600  1
  Sr  Sr1  1  0.08789300  0.91210700  0.60929400  1
  Sr  Sr2  1  0.91210700  0.08789300  0.10929400  1
  Sr  Sr3  1  0.08789300  0.91210700  0.89070600  1
  Sr  Sr4  1  0.63035200  0.36964800  0.25000000  1
  Sr  Sr5  1  0.36964800  0.63035200  0.75000000  1
  In  In6  1  0.33795300  0.66204700  0.25000000  1
  In  In7  1  0.66204700  0.33795300  0.75000000  1
  In  In8  1  0.62070200  0.37929800  0.46498100  1
  In  In9  1  0.37929800  0.62070200  0.53501900  1
  In  In10  1  0.62070200  0.37929800  0.03501900  1
  In  In11  1  0.37929800  0.62070200  0.96498100  1
  Ga  Ga12  1  0.79249900  0.20750100  0.90034900  1
  Ga  Ga13  1  0.20750100  0.79249900  0.09965100  1
  Ga  Ga14  1  0.79249900  0.20750100  0.59965100  1
  Ga  Ga15  1  0.20750100  0.79249900  0.40034900  1
