# generated using pymatgen
data_Sr6CaMn4O13
_symmetry_space_group_name_H-M   'P 1'
_cell_length_a   9.91167800
_cell_length_b   6.90218800
_cell_length_c   10.19780386
_cell_angle_alpha   85.97418647
_cell_angle_beta   90.00000000
_cell_angle_gamma   90.00000000
_symmetry_Int_Tables_number   1
_chemical_formula_structural   Sr6CaMn4O13
_chemical_formula_sum   'Sr12 Ca2 Mn8 O26'
_cell_volume   695.93341135
_cell_formula_units_Z   2
loop_
 _symmetry_equiv_pos_site_id
 _symmetry_equiv_pos_as_xyz
  1  'x, y, z'
loop_
 _atom_site_type_symbol
 _atom_site_label
 _atom_site_symmetry_multiplicity
 _atom_site_fract_x
 _atom_site_fract_y
 _atom_site_fract_z
 _atom_site_occupancy
  Sr  Sr0  1  0.64146000  0.66410300  0.44570200  1
  Sr  Sr1  1  0.14146000  0.33589700  0.55429800  1
  Sr  Sr2  1  0.35972000  0.33683600  0.05075900  1
  Sr  Sr3  1  0.85972000  0.66316400  0.94924100  1
  Sr  Sr4  1  0.51269700  0.83782600  0.08916700  1
  Sr  Sr5  1  0.01269700  0.16217400  0.91083300  1
  Sr  Sr6  1  0.48934900  0.16356500  0.40981200  1
  Sr  Sr7  1  0.98934900  0.83643500  0.59018800  1
  Sr  Sr8  1  0.49937900  0.49914100  0.74981500  1
  Sr  Sr9  1  0.99937900  0.50085900  0.25018500  1
  Sr  Sr10  1  0.67530300  0.99315900  0.71298700  1
  Sr  Sr11  1  0.17530300  0.00684100  0.28701300  1
  Ca  Ca12  1  0.32249300  0.00615900  0.78927900  1
  Ca  Ca13  1  0.82249300  0.99384100  0.21072100  1
  Mn  Mn14  1  0.67523900  0.22489300  0.97097800  1
  Mn  Mn15  1  0.17523900  0.77510700  0.02902200  1
  Mn  Mn16  1  0.32263000  0.77427700  0.53293000  1
  Mn  Mn17  1  0.82263000  0.22572300  0.46707000  1
  Mn  Mn18  1  0.66825400  0.42739600  0.17406300  1
  Mn  Mn19  1  0.16825400  0.57260400  0.82593700  1
  Mn  Mn20  1  0.33453700  0.57440700  0.32731800  1
  Mn  Mn21  1  0.83453700  0.42559300  0.67268200  1
  O  O22  1  0.52305800  0.14796700  0.87106500  1
  O  O23  1  0.02305800  0.85203300  0.12893500  1
  O  O24  1  0.46747900  0.85195000  0.63735600  1
  O  O25  1  0.96747900  0.14805000  0.36264400  1
  O  O26  1  0.60690200  0.49271400  0.97555700  1
  O  O27  1  0.10690200  0.50728600  0.02444300  1
  O  O28  1  0.39406400  0.50716900  0.52547500  1
  O  O29  1  0.89406400  0.49283100  0.47452500  1
  O  O30  1  0.59714400  0.15753200  0.17044700  1
  O  O31  1  0.09714400  0.84246800  0.82955300  1
  O  O32  1  0.40867800  0.84075400  0.33286300  1
  O  O33  1  0.90867800  0.15924600  0.66713700  1
  O  O34  1  0.67206300  0.32480800  0.58056400  1
  O  O35  1  0.17206300  0.67519200  0.41943600  1
  O  O36  1  0.32849200  0.67878200  0.91595500  1
  O  O37  1  0.82849200  0.32121800  0.08404500  1
  O  O38  1  0.74817800  0.67167200  0.20648000  1
  O  O39  1  0.24817800  0.32832800  0.79352000  1
  O  O40  1  0.25264900  0.33712800  0.29250400  1
  O  O41  1  0.75264900  0.66287200  0.70749600  1
  O  O42  1  0.77162800  0.99160700  0.95097600  1
  O  O43  1  0.27162800  0.00839300  0.04902400  1
  O  O44  1  0.22776000  0.00794800  0.55632300  1
  O  O45  1  0.72776000  0.99205200  0.44367700  1
  O  O46  1  0.50084200  0.49904100  0.24997100  1
  O  O47  1  0.00084200  0.50095900  0.75002900  1
