# generated using pymatgen
data_Sr3V3BiO12
_symmetry_space_group_name_H-M   'P 1'
_cell_length_a   10.05735639
_cell_length_b   10.05735639
_cell_length_c   7.42058659
_cell_angle_alpha   76.60897690
_cell_angle_beta   76.60897690
_cell_angle_gamma   120.05229250
_symmetry_Int_Tables_number   1
_chemical_formula_structural   Sr3V3BiO12
_chemical_formula_sum   'Sr6 V6 Bi2 O24'
_cell_volume   575.67048847
_cell_formula_units_Z   2
loop_
 _symmetry_equiv_pos_site_id
 _symmetry_equiv_pos_as_xyz
  1  'x, y, z'
loop_
 _atom_site_type_symbol
 _atom_site_label
 _atom_site_symmetry_multiplicity
 _atom_site_fract_x
 _atom_site_fract_y
 _atom_site_fract_z
 _atom_site_occupancy
  Sr  Sr0  1  0.80799400  0.80799400  0.60233600  1
  Sr  Sr1  1  0.45178100  0.13327800  0.59444500  1
  Sr  Sr2  1  0.13327800  0.45178100  0.59444500  1
  Sr  Sr3  1  0.86672200  0.54821900  0.40555500  1
  Sr  Sr4  1  0.54821900  0.86672200  0.40555500  1
  Sr  Sr5  1  0.19200600  0.19200600  0.39766400  1
  V  V6  1  0.92505200  0.26266500  0.21047700  1
  V  V7  1  0.59642700  0.59642700  0.20952300  1
  V  V8  1  0.26266500  0.92505200  0.21047700  1
  V  V9  1  0.73733500  0.07494800  0.78952300  1
  V  V10  1  0.40357300  0.40357300  0.79047700  1
  V  V11  1  0.07494800  0.73733500  0.78952300  1
  Bi  Bi12  1  0.67253700  0.32746300  0.00000000  1
  Bi  Bi13  1  0.32746300  0.67253700  0.00000000  1
  O  O14  1  0.73305000  0.24317700  0.29521300  1
  O  O15  1  0.40009100  0.56978900  0.25996000  1
  O  O16  1  0.06579900  0.87939000  0.32447700  1
  O  O17  1  0.87939000  0.06579900  0.32447700  1
  O  O18  1  0.56978900  0.40009100  0.25996000  1
  O  O19  1  0.24317700  0.73305000  0.29521300  1
  O  O20  1  0.07665800  0.41281000  0.27408400  1
  O  O21  1  0.69332000  0.69332000  0.35178900  1
  O  O22  1  0.41281000  0.07665800  0.27408400  1
  O  O23  1  0.93420100  0.12061000  0.67552300  1
  O  O24  1  0.59990900  0.43021100  0.74004000  1
  O  O25  1  0.26695000  0.75682300  0.70478700  1
  O  O26  1  0.75682300  0.26695000  0.70478700  1
  O  O27  1  0.43021100  0.59990900  0.74004000  1
  O  O28  1  0.12061000  0.93420100  0.67552300  1
  O  O29  1  0.58719000  0.92334200  0.72591600  1
  O  O30  1  0.30668000  0.30668000  0.64821100  1
  O  O31  1  0.92334200  0.58719000  0.72591600  1
  O  O32  1  0.71061400  0.71061400  0.95763700  1
  O  O33  1  0.34180300  0.00152600  0.95264100  1
  O  O34  1  0.00152600  0.34180300  0.95264100  1
  O  O35  1  0.99847400  0.65819700  0.04735900  1
  O  O36  1  0.65819700  0.99847400  0.04735900  1
  O  O37  1  0.28938600  0.28938600  0.04236300  1
