# generated using pymatgen
data_Sr5Zn(PbO4)3
_symmetry_space_group_name_H-M   'P 1'
_cell_length_a   10.32339137
_cell_length_b   10.32339137
_cell_length_c   3.58782500
_cell_angle_alpha   90.00000000
_cell_angle_beta   90.00000000
_cell_angle_gamma   119.99999597
_symmetry_Int_Tables_number   1
_chemical_formula_structural   Sr5Zn(PbO4)3
_chemical_formula_sum   'Sr5 Zn1 Pb3 O12'
_cell_volume   331.13621898
_cell_formula_units_Z   1
loop_
 _symmetry_equiv_pos_site_id
 _symmetry_equiv_pos_as_xyz
  1  'x, y, z'
loop_
 _atom_site_type_symbol
 _atom_site_label
 _atom_site_symmetry_multiplicity
 _atom_site_fract_x
 _atom_site_fract_y
 _atom_site_fract_z
 _atom_site_occupancy
  Sr  Sr0  1  0.33333300  0.66666700  0.50211800  1
  Sr  Sr1  1  0.66666700  0.33333300  0.50211800  1
  Sr  Sr2  1  0.00000000  0.30149400  0.50085600  1
  Sr  Sr3  1  0.69850600  0.69850600  0.50085600  1
  Sr  Sr4  1  0.30149400  0.00000000  0.50085600  1
  Zn  Zn5  1  0.00000000  0.00000000  0.58099500  1
  Pb  Pb6  1  0.00000000  0.66090200  0.00135900  1
  Pb  Pb7  1  0.33909800  0.33909800  0.00135900  1
  Pb  Pb8  1  0.66090200  0.00000000  0.00135900  1
  O  O9  1  0.00000000  0.81850700  0.52967300  1
  O  O10  1  0.18149300  0.18149300  0.52967300  1
  O  O11  1  0.81850700  0.00000000  0.52967300  1
  O  O12  1  0.55586100  0.76144100  0.00598800  1
  O  O13  1  0.23855900  0.79441900  0.00598800  1
  O  O14  1  0.20558100  0.44413900  0.00598800  1
  O  O15  1  0.44413900  0.20558100  0.00598800  1
  O  O16  1  0.76144100  0.55586100  0.00598800  1
  O  O17  1  0.79441900  0.23855900  0.00598800  1
  O  O18  1  0.00000000  0.53450400  0.50267600  1
  O  O19  1  0.46549600  0.46549600  0.50267600  1
  O  O20  1  0.53450400  0.00000000  0.50267600  1
