# generated using pymatgen
data_HfV2
_symmetry_space_group_name_H-M   'P 1'
_cell_length_a   5.16869293
_cell_length_b   5.16869293
_cell_length_c   5.16869293
_cell_angle_alpha   120.57584631
_cell_angle_beta   118.82263327
_cell_angle_gamma   90.52837115
_symmetry_Int_Tables_number   1
_chemical_formula_structural   HfV2
_chemical_formula_sum   'Hf2 V4'
_cell_volume   98.05084860
_cell_formula_units_Z   2
loop_
 _symmetry_equiv_pos_site_id
 _symmetry_equiv_pos_as_xyz
  1  'x, y, z'
loop_
 _atom_site_type_symbol
 _atom_site_label
 _atom_site_symmetry_multiplicity
 _atom_site_fract_x
 _atom_site_fract_y
 _atom_site_fract_z
 _atom_site_occupancy
  Hf  Hf0  1  0.87452400  0.62452400  0.25000000  1
  Hf  Hf1  1  0.12547600  0.37547600  0.75000000  1
  V  V2  1  0.00000000  0.00000000  0.00000000  1
  V  V3  1  0.50000000  0.00000000  0.50000000  1
  V  V4  1  0.50000000  0.50000000  0.50000000  1
  V  V5  1  0.50000000  0.00000000  0.00000000  1
