# generated using pymatgen
data_Sr4CePr3Nb2(CuO5)4
_symmetry_space_group_name_H-M   'P 1'
_cell_length_a   14.90110906
_cell_length_b   14.90110906
_cell_length_c   5.61733600
_cell_angle_alpha   90.00000000
_cell_angle_beta   90.00000000
_cell_angle_gamma   158.27308479
_symmetry_Int_Tables_number   1
_chemical_formula_structural   Sr4CePr3Nb2(CuO5)4
_chemical_formula_sum   'Sr4 Ce1 Pr3 Nb2 Cu4 O20'
_cell_volume   461.72594202
_cell_formula_units_Z   1
loop_
 _symmetry_equiv_pos_site_id
 _symmetry_equiv_pos_as_xyz
  1  'x, y, z'
loop_
 _atom_site_type_symbol
 _atom_site_label
 _atom_site_symmetry_multiplicity
 _atom_site_fract_x
 _atom_site_fract_y
 _atom_site_fract_z
 _atom_site_occupancy
  Sr  Sr0  1  0.08060300  0.91939700  0.50000000  1
  Sr  Sr1  1  0.58216600  0.41783400  0.00000000  1
  Sr  Sr2  1  0.41832900  0.58167100  0.00000000  1
  Sr  Sr3  1  0.91835600  0.08164400  0.50000000  1
  Ce  Ce4  1  0.70802600  0.29197400  0.00000000  1
  Pr  Pr5  1  0.20459500  0.79540500  0.50000000  1
  Pr  Pr6  1  0.79434100  0.20565900  0.50000000  1
  Pr  Pr7  1  0.29434400  0.70565600  0.00000000  1
  Nb  Nb8  1  0.50013100  0.49986900  0.50000000  1
  Nb  Nb9  1  0.00015000  0.99985000  0.00000000  1
  Cu  Cu10  1  0.14265000  0.85735000  0.00000000  1
  Cu  Cu11  1  0.64260400  0.35739600  0.50000000  1
  Cu  Cu12  1  0.35801800  0.64198200  0.50000000  1
  Cu  Cu13  1  0.85806600  0.14193400  0.00000000  1
  O  O14  1  0.50530500  0.00915700  0.75718900  1
  O  O15  1  0.99084300  0.49469500  0.24281100  1
  O  O16  1  0.99084300  0.49469500  0.75718900  1
  O  O17  1  0.50530500  0.00915700  0.24281100  1
  O  O18  1  0.40161800  0.10611600  0.75401000  1
  O  O19  1  0.89388400  0.59838200  0.24599000  1
  O  O20  1  0.89388400  0.59838200  0.75401000  1
  O  O21  1  0.40161800  0.10611600  0.24599000  1
  O  O22  1  0.10340000  0.39696000  0.74985200  1
  O  O23  1  0.60304000  0.89660000  0.25014800  1
  O  O24  1  0.60304000  0.89660000  0.74985200  1
  O  O25  1  0.10340000  0.39696000  0.25014800  1
  O  O26  1  0.06849900  0.93150100  0.00000000  1
  O  O27  1  0.56848600  0.43151400  0.50000000  1
  O  O28  1  0.43194600  0.56805400  0.50000000  1
  O  O29  1  0.93177800  0.06822200  0.00000000  1
  O  O30  1  0.25002400  0.24965800  0.74953400  1
  O  O31  1  0.75034200  0.74997600  0.25046600  1
  O  O32  1  0.25002400  0.24965800  0.25046600  1
  O  O33  1  0.75034200  0.74997600  0.74953400  1
