# generated using pymatgen
data_SrCa3Zr16(PO4)24
_symmetry_space_group_name_H-M   'P 1'
_cell_length_a   12.87652259
_cell_length_b   12.87652255
_cell_length_c   12.87652259
_cell_angle_alpha   92.14873749
_cell_angle_beta   92.14873721
_cell_angle_gamma   87.85126251
_symmetry_Int_Tables_number   1
_chemical_formula_structural   SrCa3Zr16(PO4)24
_chemical_formula_sum   'Sr1 Ca3 Zr16 P24 O96'
_cell_volume   2130.59569929
_cell_formula_units_Z   1
loop_
 _symmetry_equiv_pos_site_id
 _symmetry_equiv_pos_as_xyz
  1  'x, y, z'
loop_
 _atom_site_type_symbol
 _atom_site_label
 _atom_site_symmetry_multiplicity
 _atom_site_fract_x
 _atom_site_fract_y
 _atom_site_fract_z
 _atom_site_occupancy
  Sr  Sr0  1  0.50000000  -0.00000000  0.00000000  1
  Ca  Ca1  1  0.50000000  0.50000000  0.50000000  1
  Ca  Ca2  1  -0.00000000  0.50000000  0.00000000  1
  Ca  Ca3  1  -0.00000000  -0.00000000  0.50000000  1
  Zr  Zr4  1  0.64135595  0.14130121  0.35865408  1
  Zr  Zr5  1  0.14134592  0.14135595  0.85869879  1
  Zr  Zr6  1  0.14125949  0.64125949  0.35874051  1
  Zr  Zr7  1  0.64130121  0.64134592  0.85864405  1
  Zr  Zr8  1  0.35864405  0.85869879  0.64134592  1
  Zr  Zr9  1  0.85865408  0.85864405  0.14130121  1
  Zr  Zr10  1  0.85874051  0.35874051  0.64125949  1
  Zr  Zr11  1  0.35869879  0.35865408  0.14135595  1
  Zr  Zr12  1  0.64909265  0.64858049  0.35179320  1
  Zr  Zr13  1  0.14858049  0.64820680  0.85090735  1
  Zr  Zr14  1  0.14820680  0.14909265  0.35141951  1
  Zr  Zr15  1  0.64982858  0.14982858  0.85017142  1
  Zr  Zr16  1  0.35090735  0.35141951  0.64820680  1
  Zr  Zr17  1  0.85141951  0.35179320  0.14909265  1
  Zr  Zr18  1  0.85179320  0.85090735  0.64858049  1
  Zr  Zr19  1  0.35017142  0.85017142  0.14982858  1
  P  P20  1  0.74375017  0.60556154  0.60626374  1
  P  P21  1  0.24339912  0.60520098  0.10616146  1
  P  P22  1  0.24365023  0.10557475  0.60616842  1
  P  P23  1  0.74511952  0.10626234  0.10614146  1
  P  P24  1  0.60557475  0.39383158  0.25634977  1
  P  P25  1  0.10556154  0.39373626  0.75624983  1
  P  P26  1  0.10520098  0.89383854  0.25660088  1
  P  P27  1  0.60626234  0.89385854  0.75488048  1
  P  P28  1  0.39383854  0.74339912  0.39479902  1
  P  P29  1  0.89383158  0.74365023  0.89442525  1
  P  P30  1  0.89373626  0.24375017  0.39443846  1
  P  P31  1  0.39385854  0.24511952  0.89373766  1
  P  P32  1  0.25624983  0.39443846  0.39373626  1
  P  P33  1  0.75660088  0.39479902  0.89383854  1
  P  P34  1  0.75634977  0.89442525  0.39383158  1
  P  P35  1  0.25488048  0.89373766  0.89385854  1
  P  P36  1  0.39442525  0.60616842  0.74365023  1
  P  P37  1  0.89443846  0.60626374  0.24375017  1
  P  P38  1  0.89479902  0.10616146  0.74339912  1
  P  P39  1  0.39373766  0.10614146  0.24511952  1
  P  P40  1  0.60616146  0.25660088  0.60520098  1
  P  P41  1  0.10616842  0.25634977  0.10557475  1
  P  P42  1  0.10626374  0.75624983  0.60556154  1
  P  P43  1  0.60614146  0.75488048  0.10626234  1
  O  O44  1  0.67376948  0.61252660  0.70027449  1
  O  O45  1  0.17358744  0.61214765  0.20029161  1
  O  O46  1  0.17383293  0.11245342  0.70029080  1
  O  O47  1  0.67347887  0.11221316  0.19906228  1
  O  O48  1  0.61245342  0.29970920  0.32616707  1
  O  O49  1  0.11252660  0.29972551  0.82623052  1
  O  O50  1  0.11214765  0.79970839  0.32641256  1
  O  O51  1  0.61221316  0.80093772  0.82652113  1
  O  O52  1  0.29970839  0.67358744  0.38785235  1
  O  O53  1  0.79970920  0.67383293  0.88754658  1
  O  O54  1  0.79972551  0.17376948  0.38747340  1
  O  O55  1  0.30093772  0.17347887  0.88778684  1
  O  O56  1  0.32623052  0.38747340  0.29972551  1
  O  O57  1  0.82641256  0.38785235  0.79970839  1
  O  O58  1  0.82616707  0.88754658  0.29970920  1
  O  O59  1  0.32652113  0.88778684  0.80093772  1
  O  O60  1  0.38754658  0.70029080  0.67383293  1
  O  O61  1  0.88747340  0.70027449  0.17376948  1
  O  O62  1  0.88785235  0.20029161  0.67358744  1
  O  O63  1  0.38778684  0.19906228  0.17347887  1
  O  O64  1  0.70029161  0.32641256  0.61214765  1
  O  O65  1  0.20029080  0.32616707  0.11245342  1
  O  O66  1  0.20027449  0.82623052  0.61252660  1
  O  O67  1  0.69906228  0.82652113  0.11221316  1
  O  O68  1  0.17735376  0.48641521  0.38679367  1
  O  O69  1  0.67748436  0.48668964  0.88680324  1
  O  O70  1  0.67740387  0.98643410  0.38674306  1
  O  O71  1  0.17679420  0.98639338  0.88633976  1
  O  O72  1  0.48643410  0.61325694  0.82259613  1
  O  O73  1  0.98641521  0.61320633  0.32264624  1
  O  O74  1  0.98668964  0.11319676  0.82251564  1
  O  O75  1  0.48639338  0.11366024  0.32320580  1
  O  O76  1  0.61319676  0.17748436  0.51331036  1
  O  O77  1  0.11325694  0.17740387  0.01356590  1
  O  O78  1  0.11320633  0.67735376  0.51358479  1
  O  O79  1  0.61366024  0.67679420  0.01360662  1
  O  O80  1  0.82264624  0.51358479  0.61320633  1
  O  O81  1  0.32251564  0.51331036  0.11319676  1
  O  O82  1  0.32259613  0.01356590  0.61325694  1
  O  O83  1  0.82320580  0.01360662  0.11366024  1
  O  O84  1  0.51356590  0.38674306  0.17740387  1
  O  O85  1  0.01358479  0.38679367  0.67735376  1
  O  O86  1  0.01331036  0.88680324  0.17748436  1
  O  O87  1  0.51360662  0.88633976  0.67679420  1
  O  O88  1  0.38680324  0.82251564  0.48668964  1
  O  O89  1  0.88674306  0.82259613  0.98643410  1
  O  O90  1  0.88679367  0.32264624  0.48641521  1
  O  O91  1  0.38633976  0.32320580  0.98639338  1
  O  O92  1  0.49267647  0.67040158  0.41089888  1
  O  O93  1  0.99252655  0.67049728  0.91061104  1
  O  O94  1  0.99240759  0.17059134  0.41074330  1
  O  O95  1  0.49442834  0.17494671  0.90794882  1
  O  O96  1  0.67059134  0.58925670  0.50759241  1
  O  O97  1  0.17040158  0.58910112  0.00732353  1
  O  O98  1  0.17049728  0.08938896  0.50747345  1
  O  O99  1  0.67494671  0.09205118  0.00557166  1
  O  O100  1  0.58938896  0.49252655  0.32950272  1
  O  O101  1  0.08925670  0.49240759  0.82940866  1
  O  O102  1  0.08910112  0.99267647  0.32959842  1
  O  O103  1  0.59205118  0.99442834  0.82505329  1
  O  O104  1  0.50732353  0.32959842  0.58910112  1
  O  O105  1  0.00747345  0.32950272  0.08938896  1
  O  O106  1  0.00759241  0.82940866  0.58925670  1
  O  O107  1  0.50557166  0.82505329  0.09205118  1
  O  O108  1  0.32940866  0.41074330  0.49240759  1
  O  O109  1  0.82959842  0.41089888  0.99267647  1
  O  O110  1  0.82950272  0.91061104  0.49252655  1
  O  O111  1  0.32505329  0.90794882  0.99442834  1
  O  O112  1  0.41061104  0.50747345  0.67049728  1
  O  O113  1  0.91074330  0.50759241  0.17059134  1
  O  O114  1  0.91089888  0.00732353  0.67040158  1
  O  O115  1  0.40794882  0.00557166  0.17494671  1
  O  O116  1  0.09819112  0.69614646  0.70675405  1
  O  O117  1  0.59979650  0.69457864  0.20743546  1
  O  O118  1  0.59826359  0.19669521  0.70627940  1
  O  O119  1  0.09824045  0.19629283  0.20687664  1
  O  O120  1  0.19457864  0.79256454  0.90020350  1
  O  O121  1  0.69629283  0.79312336  0.40175955  1
  O  O122  1  0.69669521  0.29372060  0.90173641  1
  O  O123  1  0.19614646  0.29324595  0.40180888  1
  O  O124  1  0.29312336  0.59824045  0.80370717  1
  O  O125  1  0.79324595  0.59819112  0.30385354  1
  O  O126  1  0.79372060  0.09826359  0.80330479  1
  O  O127  1  0.29256454  0.09979650  0.30542136  1
  O  O128  1  0.90180888  0.30385354  0.29324595  1
  O  O129  1  0.40020350  0.30542136  0.79256454  1
  O  O130  1  0.40173641  0.80330479  0.29372060  1
  O  O131  1  0.90175955  0.80370717  0.79312336  1
  O  O132  1  0.80542136  0.20743546  0.09979650  1
  O  O133  1  0.30370717  0.20687664  0.59824045  1
  O  O134  1  0.30330479  0.70627940  0.09826359  1
  O  O135  1  0.80385354  0.70675405  0.59819112  1
  O  O136  1  0.70687664  0.40175955  0.19629283  1
  O  O137  1  0.20675405  0.40180888  0.69614646  1
  O  O138  1  0.20627940  0.90173641  0.19669521  1
  O  O139  1  0.70743546  0.90020350  0.69457864  1
