# generated using pymatgen
data_SrCa3Al6Si6(HO13)2
_symmetry_space_group_name_H-M   'P 1'
_cell_length_a   5.64068800
_cell_length_b   8.95149700
_cell_length_c   10.35028183
_cell_angle_alpha   64.96202789
_cell_angle_beta   90.00000000
_cell_angle_gamma   90.00000000
_symmetry_Int_Tables_number   1
_chemical_formula_structural   SrCa3Al6Si6(HO13)2
_chemical_formula_sum   'Sr1 Ca3 Al6 Si6 H2 O26'
_cell_volume   473.50144150
_cell_formula_units_Z   1
loop_
 _symmetry_equiv_pos_site_id
 _symmetry_equiv_pos_as_xyz
  1  'x, y, z'
loop_
 _atom_site_type_symbol
 _atom_site_label
 _atom_site_symmetry_multiplicity
 _atom_site_fract_x
 _atom_site_fract_y
 _atom_site_fract_z
 _atom_site_occupancy
  Sr  Sr0  1  0.00000000  0.40715000  0.42019600  1
  Ca  Ca1  1  0.50000000  0.76689400  0.84032000  1
  Ca  Ca2  1  0.00000000  0.23230700  0.16001900  1
  Ca  Ca3  1  0.50000000  0.60589900  0.58625900  1
  Al  Al4  1  0.00000000  0.28312400  0.78135900  1
  Al  Al5  1  0.50000000  0.71602600  0.22125900  1
  Al  Al6  1  0.74987400  0.99960900  0.00012500  1
  Al  Al7  1  0.25012600  0.99960900  0.00012500  1
  Al  Al8  1  0.74975300  0.99982700  0.49969500  1
  Al  Al9  1  0.25024700  0.99982700  0.49969500  1
  Si  Si10  1  0.50000000  0.17806600  0.68968100  1
  Si  Si11  1  0.00000000  0.82267400  0.31136400  1
  Si  Si12  1  0.50000000  0.33626100  0.95388300  1
  Si  Si13  1  0.00000000  0.66443600  0.04359600  1
  Si  Si14  1  0.00000000  0.67858900  0.72220600  1
  Si  Si15  1  0.50000000  0.32056500  0.27558700  1
  H  H16  1  0.00000000  0.04647200  0.67964500  1
  H  H17  1  0.50000000  0.95187400  0.32184600  1
  O  O18  1  0.00000000  0.07224500  0.57688400  1
  O  O19  1  0.50000000  0.92316000  0.42514200  1
  O  O20  1  0.76133500  0.78550400  0.64829600  1
  O  O21  1  0.26378900  0.21104500  0.34921200  1
  O  O22  1  0.73621100  0.21104500  0.34921200  1
  O  O23  1  0.23866500  0.78550400  0.64829600  1
  O  O24  1  0.00000000  0.66010400  0.88635600  1
  O  O25  1  0.50000000  0.34518300  0.10934300  1
  O  O26  1  0.74811800  0.23465200  0.95318800  1
  O  O27  1  0.24769700  0.76511300  0.04677700  1
  O  O28  1  0.75230300  0.76511300  0.04677700  1
  O  O29  1  0.25188200  0.23465200  0.95318800  1
  O  O30  1  0.50000000  0.05685900  0.60296100  1
  O  O31  1  0.00000000  0.94309100  0.39772800  1
  O  O32  1  0.50000000  0.03427800  0.85926800  1
  O  O33  1  0.00000000  0.96450100  0.14139300  1
  O  O34  1  0.73587600  0.29559300  0.65707000  1
  O  O35  1  0.23733200  0.70507400  0.34585500  1
  O  O36  1  0.76266800  0.70507400  0.34585500  1
  O  O37  1  0.26412400  0.29559300  0.65707000  1
  O  O38  1  0.00000000  0.50550000  0.71011200  1
  O  O39  1  0.50000000  0.49341000  0.28937800  1
  O  O40  1  0.00000000  0.05287700  0.87041900  1
  O  O41  1  0.50000000  0.94640900  0.13011500  1
  O  O42  1  0.50000000  0.51818100  0.82994200  1
  O  O43  1  0.00000000  0.48103100  0.16330000  1
