# generated using pymatgen
data_Na2Mg2(Si2O5)3
_symmetry_space_group_name_H-M   'P 1'
_cell_length_a   11.43694215
_cell_length_b   11.43694215
_cell_length_c   10.32022100
_cell_angle_alpha   90.00000000
_cell_angle_beta   90.00000000
_cell_angle_gamma   101.90639339
_symmetry_Int_Tables_number   1
_chemical_formula_structural   Na2Mg2(Si2O5)3
_chemical_formula_sum   'Na8 Mg8 Si24 O60'
_cell_volume   1320.88025640
_cell_formula_units_Z   4
loop_
 _symmetry_equiv_pos_site_id
 _symmetry_equiv_pos_as_xyz
  1  'x, y, z'
loop_
 _atom_site_type_symbol
 _atom_site_label
 _atom_site_symmetry_multiplicity
 _atom_site_fract_x
 _atom_site_fract_y
 _atom_site_fract_z
 _atom_site_occupancy
  Na  Na0  1  0.01915000  0.48085000  0.75000000  1
  Na  Na1  1  0.48085000  0.01915000  0.25000000  1
  Na  Na2  1  0.98085000  0.51915000  0.25000000  1
  Na  Na3  1  0.51915000  0.98085000  0.75000000  1
  Na  Na4  1  0.09152500  0.90847500  0.76080000  1
  Na  Na5  1  0.40847500  0.59152500  0.26080000  1
  Na  Na6  1  0.90847500  0.09152500  0.23920000  1
  Na  Na7  1  0.59152500  0.40847500  0.73920000  1
  Mg  Mg8  1  0.33929900  0.16070100  0.75000000  1
  Mg  Mg9  1  0.16070100  0.33929900  0.25000000  1
  Mg  Mg10  1  0.66070100  0.83929900  0.25000000  1
  Mg  Mg11  1  0.83929900  0.66070100  0.75000000  1
  Mg  Mg12  1  0.25134500  0.25134500  0.50000000  1
  Mg  Mg13  1  0.24865500  0.24865500  0.00000000  1
  Mg  Mg14  1  0.74865500  0.74865500  0.50000000  1
  Mg  Mg15  1  0.75134500  0.75134500  0.00000000  1
  Si  Si16  1  0.30442000  0.92053300  0.95972500  1
  Si  Si17  1  0.19558000  0.57946700  0.45972500  1
  Si  Si18  1  0.92053300  0.30442000  0.04027500  1
  Si  Si19  1  0.57946700  0.19558000  0.54027500  1
  Si  Si20  1  0.69558000  0.07946700  0.04027500  1
  Si  Si21  1  0.80442000  0.42053300  0.54027500  1
  Si  Si22  1  0.07946700  0.69558000  0.95972500  1
  Si  Si23  1  0.42053300  0.80442000  0.45972500  1
  Si  Si24  1  0.18555200  0.03607700  0.18959600  1
  Si  Si25  1  0.31444800  0.46392300  0.68959600  1
  Si  Si26  1  0.03607700  0.18555200  0.81040400  1
  Si  Si27  1  0.46392300  0.31444800  0.31040400  1
  Si  Si28  1  0.81444800  0.96392300  0.81040400  1
  Si  Si29  1  0.68555200  0.53607700  0.31040400  1
  Si  Si30  1  0.96392300  0.81444800  0.18959600  1
  Si  Si31  1  0.53607700  0.68555200  0.68959600  1
  Si  Si32  1  0.24235100  0.97856400  0.48633200  1
  Si  Si33  1  0.25764900  0.52143600  0.98633200  1
  Si  Si34  1  0.97856400  0.24235100  0.51366800  1
  Si  Si35  1  0.52143600  0.25764900  0.01366800  1
  Si  Si36  1  0.75764900  0.02143600  0.51366800  1
  Si  Si37  1  0.74235100  0.47856400  0.01366800  1
  Si  Si38  1  0.02143600  0.75764900  0.48633200  1
  Si  Si39  1  0.47856400  0.74235100  0.98633200  1
  O  O40  1  0.81840300  0.18159700  0.05998800  1
  O  O41  1  0.68159700  0.31840300  0.55998800  1
  O  O42  1  0.18159700  0.81840300  0.94001200  1
  O  O43  1  0.31840300  0.68159700  0.44001200  1
  O  O44  1  0.94749800  0.05250200  0.82185800  1
  O  O45  1  0.55250200  0.44749800  0.32185800  1
  O  O46  1  0.05250200  0.94749800  0.17814200  1
  O  O47  1  0.44749800  0.55250200  0.67814200  1
  O  O48  1  0.87989600  0.12010400  0.47562200  1
  O  O49  1  0.62010400  0.37989600  0.97562200  1
  O  O50  1  0.12010400  0.87989600  0.52437800  1
  O  O51  1  0.37989600  0.62010400  0.02437800  1
  O  O52  1  0.32989600  0.99466700  0.82896500  1
  O  O53  1  0.17010400  0.50533300  0.32896500  1
  O  O54  1  0.99466700  0.32989600  0.17103500  1
  O  O55  1  0.50533300  0.17010400  0.67103500  1
  O  O56  1  0.67010400  0.00533300  0.17103500  1
  O  O57  1  0.82989600  0.49466700  0.67103500  1
  O  O58  1  0.00533300  0.67010400  0.82896500  1
  O  O59  1  0.49466700  0.82989600  0.32896500  1
  O  O60  1  0.28400400  0.99775300  0.09048900  1
  O  O61  1  0.21599600  0.50224700  0.59048900  1
  O  O62  1  0.99775300  0.28400400  0.90951100  1
  O  O63  1  0.50224700  0.21599600  0.40951100  1
  O  O64  1  0.75965300  0.98198800  0.66669600  1
  O  O65  1  0.71599600  0.00224700  0.90951100  1
  O  O66  1  0.00224700  0.71599600  0.09048900  1
  O  O67  1  0.49775300  0.78400400  0.59048900  1
  O  O68  1  0.17202900  0.16977600  0.15828700  1
  O  O69  1  0.32797100  0.33022400  0.65828700  1
  O  O70  1  0.16977600  0.17202900  0.84171300  1
  O  O71  1  0.33022400  0.32797100  0.34171300  1
  O  O72  1  0.82797100  0.83022400  0.84171300  1
  O  O73  1  0.67202900  0.66977600  0.34171300  1
  O  O74  1  0.83022400  0.82797100  0.15828700  1
  O  O75  1  0.66977600  0.67202900  0.65828700  1
  O  O76  1  0.24034700  0.01801200  0.33330400  1
  O  O77  1  0.25965300  0.48198800  0.83330400  1
  O  O78  1  0.01801200  0.24034700  0.66669600  1
  O  O79  1  0.48198800  0.25965300  0.16669600  1
  O  O80  1  0.41575300  0.85761200  0.00276400  1
  O  O81  1  0.08424700  0.64238800  0.50276400  1
  O  O82  1  0.85761200  0.41575300  0.99723600  1
  O  O83  1  0.64238800  0.08424700  0.49723600  1
  O  O84  1  0.58424700  0.14238800  0.99723600  1
  O  O85  1  0.91575300  0.35761200  0.49723600  1
  O  O86  1  0.14238800  0.58424700  0.00276400  1
  O  O87  1  0.35761200  0.91575300  0.50276400  1
  O  O88  1  0.59327700  0.75034400  0.07729400  1
  O  O89  1  0.90672300  0.74965600  0.57729400  1
  O  O90  1  0.75034400  0.59327700  0.92270600  1
  O  O91  1  0.74965600  0.90672300  0.42270600  1
  O  O92  1  0.40672300  0.24965600  0.92270600  1
  O  O93  1  0.09327700  0.25034400  0.42270600  1
  O  O94  1  0.24965600  0.40672300  0.07729400  1
  O  O95  1  0.25034400  0.09327700  0.57729400  1
  O  O96  1  0.51801200  0.74034700  0.83330400  1
  O  O97  1  0.98198800  0.75965300  0.33330400  1
  O  O98  1  0.74034700  0.51801200  0.16669600  1
  O  O99  1  0.78400400  0.49775300  0.40951100  1
