# generated using pymatgen
data_Sr3CaNdMn5O15
_symmetry_space_group_name_H-M   'P 1'
_cell_length_a   5.50390700
_cell_length_b   9.43284853
_cell_length_c   12.10221781
_cell_angle_alpha   97.36949072
_cell_angle_beta   102.76650694
_cell_angle_gamma   105.42662270
_symmetry_Int_Tables_number   1
_chemical_formula_structural   Sr3CaNdMn5O15
_chemical_formula_sum   'Sr6 Ca2 Nd2 Mn10 O30'
_cell_volume   578.89747071
_cell_formula_units_Z   2
loop_
 _symmetry_equiv_pos_site_id
 _symmetry_equiv_pos_as_xyz
  1  'x, y, z'
loop_
 _atom_site_type_symbol
 _atom_site_label
 _atom_site_symmetry_multiplicity
 _atom_site_fract_x
 _atom_site_fract_y
 _atom_site_fract_z
 _atom_site_occupancy
  Sr  Sr0  1  0.94861900  0.55131500  0.34943400  1
  Sr  Sr1  1  0.34520400  0.14877200  0.55070700  1
  Sr  Sr2  1  0.45226500  0.05070900  0.85300700  1
  Sr  Sr3  1  0.85095400  0.64967600  0.04930700  1
  Sr  Sr4  1  0.65094200  0.85153800  0.44809600  1
  Sr  Sr5  1  0.05097300  0.44852300  0.65189000  1
  Ca  Ca6  1  0.15239600  0.34963300  0.95058800  1
  Ca  Ca7  1  0.55256500  0.95076200  0.15358400  1
  Nd  Nd8  1  0.75126400  0.74915100  0.74614100  1
  Nd  Nd9  1  0.24412400  0.25021100  0.24699100  1
  Mn  Mn10  1  0.49800200  0.49877200  0.49845900  1
  Mn  Mn11  1  0.70076200  0.30005600  0.09794200  1
  Mn  Mn12  1  0.09816500  0.90029700  0.29752800  1
  Mn  Mn13  1  0.90099600  0.10163700  0.70222900  1
  Mn  Mn14  1  0.30149300  0.70026000  0.90278500  1
  Mn  Mn15  1  0.59920100  0.39968000  0.80155300  1
  Mn  Mn16  1  0.79676000  0.19829400  0.39823200  1
  Mn  Mn17  1  0.19984000  0.80015200  0.60024400  1
  Mn  Mn18  1  0.00237100  0.00018400  0.00138400  1
  Mn  Mn19  1  0.40164600  0.60165400  0.19840800  1
  O  O20  1  0.14889100  0.34987900  0.44245000  1
  O  O21  1  0.35221400  0.15105400  0.05793500  1
  O  O22  1  0.74757400  0.75028000  0.24483200  1
  O  O23  1  0.55121800  0.94173100  0.65719100  1
  O  O24  1  0.95076200  0.55627400  0.84971300  1
  O  O25  1  0.24700100  0.25133700  0.75430800  1
  O  O26  1  0.44470100  0.05619000  0.33813300  1
  O  O27  1  0.84780900  0.64922700  0.55438700  1
  O  O28  1  0.65834300  0.84950800  0.94863000  1
  O  O29  1  0.05096300  0.44487500  0.15150400  1
  O  O30  1  0.42900100  0.57089500  0.35580900  1
  O  O31  1  0.61016100  0.37253700  0.95797500  1
  O  O32  1  0.01385700  0.98154600  0.15909800  1
  O  O33  1  0.82219600  0.16596700  0.55498600  1
  O  O34  1  0.21200300  0.76916300  0.75846700  1
  O  O35  1  0.56910700  0.42946400  0.64291800  1
  O  O36  1  0.78248400  0.22242200  0.23892900  1
  O  O37  1  0.17316700  0.83166700  0.44328500  1
  O  O38  1  0.96738700  0.01628700  0.84155800  1
  O  O39  1  0.36285400  0.61471700  0.03824600  1
  O  O40  1  0.36660500  0.64502400  0.57640000  1
  O  O41  1  0.54980200  0.43567000  0.17492000  1
  O  O42  1  0.96064600  0.04498100  0.37026600  1
  O  O43  1  0.76630700  0.24524800  0.77796600  1
  O  O44  1  0.17927200  0.84912600  0.98220400  1
  O  O45  1  0.62871400  0.35255400  0.42069300  1
  O  O46  1  0.86325500  0.16785800  0.02629000  1
  O  O47  1  0.25190300  0.76356500  0.22501200  1
  O  O48  1  0.03492600  0.95150800  0.63148600  1
  O  O49  1  0.45833700  0.56816900  0.82589700  1
