# generated using pymatgen
data_Sr4Nb5O15
_symmetry_space_group_name_H-M   'P 1'
_cell_length_a   9.07965632
_cell_length_b   9.07965632
_cell_length_c   7.03148907
_cell_angle_alpha   75.04050915
_cell_angle_beta   75.04050915
_cell_angle_gamma   36.88782528
_symmetry_Int_Tables_number   1
_chemical_formula_structural   Sr4Nb5O15
_chemical_formula_sum   'Sr4 Nb5 O15'
_cell_volume   334.82144629
_cell_formula_units_Z   1
loop_
 _symmetry_equiv_pos_site_id
 _symmetry_equiv_pos_as_xyz
  1  'x, y, z'
loop_
 _atom_site_type_symbol
 _atom_site_label
 _atom_site_symmetry_multiplicity
 _atom_site_fract_x
 _atom_site_fract_y
 _atom_site_fract_z
 _atom_site_occupancy
  Sr  Sr0  1  0.59814700  0.59814700  0.60544800  1
  Sr  Sr1  1  0.19805100  0.19805100  0.19884000  1
  Sr  Sr2  1  0.80194900  0.80194900  0.80116000  1
  Sr  Sr3  1  0.40185300  0.40185300  0.39455200  1
  Nb  Nb4  1  0.80198800  0.80198800  0.29575400  1
  Nb  Nb5  1  0.59767000  0.59767000  0.10022800  1
  Nb  Nb6  1  0.19801200  0.19801200  0.70424600  1
  Nb  Nb7  1  0.40233000  0.40233000  0.89977200  1
  Nb  Nb8  1  0.00000000  0.00000000  0.50000000  1
  O  O9  1  0.10277900  0.58914000  0.10267900  1
  O  O10  1  0.89722100  0.41086000  0.89732100  1
  O  O11  1  0.50000000  0.00000000  0.50000000  1
  O  O12  1  0.69216600  0.20541000  0.69183700  1
  O  O13  1  0.30783400  0.79459000  0.30816300  1
  O  O14  1  0.00000000  0.50000000  0.50000000  1
  O  O15  1  0.79459000  0.30783400  0.30816300  1
  O  O16  1  0.41086000  0.89722100  0.89732100  1
  O  O17  1  0.58914000  0.10277900  0.10267900  1
  O  O18  1  0.20541000  0.69216600  0.69183700  1
  O  O19  1  0.89722500  0.89722500  0.41011800  1
  O  O20  1  0.70013900  0.70013900  0.20038300  1
  O  O21  1  0.29986100  0.29986100  0.79961700  1
  O  O22  1  0.50000000  0.50000000  0.00000000  1
  O  O23  1  0.10277500  0.10277500  0.58988200  1
