# generated using pymatgen
data_Sr3LaMn2(WO6)2
_symmetry_space_group_name_H-M   'P 1'
_cell_length_a   5.75328400
_cell_length_b   5.77732132
_cell_length_c   8.16739549
_cell_angle_alpha   90.03699915
_cell_angle_beta   90.05488681
_cell_angle_gamma   90.47354945
_symmetry_Int_Tables_number   1
_chemical_formula_structural   Sr3LaMn2(WO6)2
_chemical_formula_sum   'Sr3 La1 Mn2 W2 O12'
_cell_volume   271.46309486
_cell_formula_units_Z   1
loop_
 _symmetry_equiv_pos_site_id
 _symmetry_equiv_pos_as_xyz
  1  'x, y, z'
loop_
 _atom_site_type_symbol
 _atom_site_label
 _atom_site_symmetry_multiplicity
 _atom_site_fract_x
 _atom_site_fract_y
 _atom_site_fract_z
 _atom_site_occupancy
  Sr  Sr0  1  0.01274500  0.03395100  0.24858600  1
  Sr  Sr1  1  0.49777800  0.52451200  0.24733200  1
  Sr  Sr2  1  0.99206000  0.96713900  0.75194900  1
  La  La3  1  0.50171600  0.46542100  0.75832200  1
  Mn  Mn4  1  0.99959300  0.49975800  0.49770900  1
  Mn  Mn5  1  0.50090300  0.99719900  0.00207700  1
  W  W6  1  0.00200300  0.50019400  0.00036300  1
  W  W7  1  0.49834900  0.99954300  0.50005900  1
  O  O8  1  0.76049600  0.20981000  0.54554800  1
  O  O9  1  0.27898900  0.29190800  0.03431700  1
  O  O10  1  0.23252900  0.79751400  0.46273800  1
  O  O11  1  0.71629600  0.70258500  0.95017000  1
  O  O12  1  0.30282200  0.26804800  0.46277500  1
  O  O13  1  0.79146500  0.23646900  0.94997600  1
  O  O14  1  0.69191600  0.72892400  0.54916300  1
  O  O15  1  0.19700900  0.77462700  0.03779100  1
  O  O16  1  0.92486000  0.48125400  0.24150000  1
  O  O17  1  0.42414500  0.02364800  0.73518600  1
  O  O18  1  0.09462200  0.51471000  0.75515500  1
  O  O19  1  0.57970400  0.98278500  0.26928400  1
