# generated using pymatgen
data_Sr4Zr3TiO12
_symmetry_space_group_name_H-M   'P 1'
_cell_length_a   5.79640100
_cell_length_b   5.82518929
_cell_length_c   8.20686378
_cell_angle_alpha   89.99998516
_cell_angle_beta   89.97495755
_cell_angle_gamma   89.98202004
_symmetry_Int_Tables_number   1
_chemical_formula_structural   Sr4Zr3TiO12
_chemical_formula_sum   'Sr4 Zr3 Ti1 O12'
_cell_volume   277.10580712
_cell_formula_units_Z   1
loop_
 _symmetry_equiv_pos_site_id
 _symmetry_equiv_pos_as_xyz
  1  'x, y, z'
loop_
 _atom_site_type_symbol
 _atom_site_label
 _atom_site_symmetry_multiplicity
 _atom_site_fract_x
 _atom_site_fract_y
 _atom_site_fract_z
 _atom_site_occupancy
  Sr  Sr0  1  0.50618200  0.02677000  0.75825500  1
  Sr  Sr1  1  0.99280100  0.52276200  0.75809100  1
  Sr  Sr2  1  0.49381800  0.97323000  0.24174500  1
  Sr  Sr3  1  0.00719900  0.47723800  0.24190900  1
  Zr  Zr4  1  0.00000000  0.00000000  0.50000000  1
  Zr  Zr5  1  0.50000000  0.50000000  0.50000000  1
  Zr  Zr6  1  0.00000000  0.00000000  0.00000000  1
  Ti  Ti7  1  0.50000000  0.50000000  0.00000000  1
  O  O8  1  0.43421800  0.48729200  0.75999000  1
  O  O9  1  0.07359700  0.98494900  0.75113200  1
  O  O10  1  0.56578200  0.51270800  0.24001000  1
  O  O11  1  0.92640300  0.01505100  0.24886800  1
  O  O12  1  0.72166300  0.76335000  0.96681500  1
  O  O13  1  0.78816100  0.28851900  0.54134700  1
  O  O14  1  0.28835400  0.21227900  0.45974100  1
  O  O15  1  0.23739700  0.72165700  0.03357200  1
  O  O16  1  0.27833700  0.23665000  0.03318500  1
  O  O17  1  0.21183900  0.71148100  0.45865300  1
  O  O18  1  0.71164600  0.78772100  0.54025900  1
  O  O19  1  0.76260300  0.27834300  0.96642800  1
