# generated using pymatgen
data_Sm9Al5Se21
_symmetry_space_group_name_H-M   'P 1'
_cell_length_a   12.14119436
_cell_length_b   12.14119436
_cell_length_c   12.14119354
_cell_angle_alpha   95.18750610
_cell_angle_beta   95.18750610
_cell_angle_gamma   95.18750393
_symmetry_Int_Tables_number   1
_chemical_formula_structural   Sm9Al5Se21
_chemical_formula_sum   'Sm18 Al10 Se42'
_cell_volume   1766.29397942
_cell_formula_units_Z   2
loop_
 _symmetry_equiv_pos_site_id
 _symmetry_equiv_pos_as_xyz
  1  'x, y, z'
loop_
 _atom_site_type_symbol
 _atom_site_label
 _atom_site_symmetry_multiplicity
 _atom_site_fract_x
 _atom_site_fract_y
 _atom_site_fract_z
 _atom_site_occupancy
  Sm  Sm0  1  0.25694500  0.12119700  0.88540700  1
  Sm  Sm1  1  0.92095900  0.77654200  0.54302200  1
  Sm  Sm2  1  0.59714700  0.44914100  0.22556900  1
  Sm  Sm3  1  0.44914100  0.22556900  0.59714700  1
  Sm  Sm4  1  0.12119700  0.88540700  0.25694500  1
  Sm  Sm5  1  0.77654200  0.54302200  0.92095900  1
  Sm  Sm6  1  0.54302200  0.92095900  0.77654200  1
  Sm  Sm7  1  0.22556900  0.59714700  0.44914100  1
  Sm  Sm8  1  0.88540700  0.25694500  0.12119700  1
  Sm  Sm9  1  0.41815000  0.55927300  0.78955600  1
  Sm  Sm10  1  0.07150400  0.21757700  0.45024800  1
  Sm  Sm11  1  0.75236800  0.89325500  0.12372900  1
  Sm  Sm12  1  0.21757700  0.45024800  0.07150400  1
  Sm  Sm13  1  0.89325500  0.12372900  0.75236800  1
  Sm  Sm14  1  0.55927300  0.78955600  0.41815000  1
  Sm  Sm15  1  0.12372900  0.75236800  0.89325500  1
  Sm  Sm16  1  0.78955600  0.41815000  0.55927300  1
  Sm  Sm17  1  0.45024800  0.07150400  0.21757700  1
  Al  Al18  1  0.94868800  0.61177500  0.27871900  1
  Al  Al19  1  0.61177500  0.27871900  0.94868800  1
  Al  Al20  1  0.27871900  0.94868800  0.61177500  1
  Al  Al21  1  0.44858100  0.77612900  0.11433200  1
  Al  Al22  1  0.11433200  0.44858100  0.77612900  1
  Al  Al23  1  0.77612900  0.11433200  0.44858100  1
  Al  Al24  1  0.14849500  0.14849500  0.14849500  1
  Al  Al25  1  0.83505700  0.83505700  0.83505700  1
  Al  Al26  1  0.33549200  0.33549200  0.33549200  1
  Al  Al27  1  0.64811000  0.64811000  0.64811000  1
  Se  Se28  1  0.82308700  0.48751800  0.15543200  1
  Se  Se29  1  0.48751800  0.15543200  0.82308700  1
  Se  Se30  1  0.15543200  0.82308700  0.48751800  1
  Se  Se31  1  0.65548400  0.98771000  0.32276300  1
  Se  Se32  1  0.32276300  0.65548400  0.98771000  1
  Se  Se33  1  0.98771000  0.32276300  0.65548400  1
  Se  Se34  1  0.98453700  0.55135700  0.45988100  1
  Se  Se35  1  0.64190900  0.21754400  0.12910400  1
  Se  Se36  1  0.30436700  0.89411300  0.79661200  1
  Se  Se37  1  0.89411300  0.79661200  0.30436700  1
  Se  Se38  1  0.55135700  0.45988100  0.98453700  1
  Se  Se39  1  0.21754400  0.12910400  0.64190900  1
  Se  Se40  1  0.12910400  0.64190900  0.21754400  1
  Se  Se41  1  0.79661100  0.30436700  0.89411300  1
  Se  Se42  1  0.45988100  0.98453700  0.55135700  1
  Se  Se43  1  0.52365900  0.93446400  0.03225300  1
  Se  Se44  1  0.18833500  0.61081400  0.69990700  1
  Se  Se45  1  0.84357100  0.27774100  0.36794400  1
  Se  Se46  1  0.61081400  0.69990700  0.18833500  1
  Se  Se47  1  0.27774100  0.36794400  0.84357100  1
  Se  Se48  1  0.93446400  0.03225300  0.52365900  1
  Se  Se49  1  0.36794400  0.84357100  0.27774100  1
  Se  Se50  1  0.03225200  0.52365900  0.93446400  1
  Se  Se51  1  0.69990700  0.18833500  0.61081400  1
  Se  Se52  1  0.69390100  0.59992500  0.44635000  1
  Se  Se53  1  0.34042600  0.24898100  0.11036000  1
  Se  Se54  1  0.00715400  0.90953400  0.76488500  1
  Se  Se55  1  0.90953400  0.76488500  0.00715400  1
  Se  Se56  1  0.59992500  0.44635000  0.69390100  1
  Se  Se57  1  0.24898100  0.11036000  0.34042600  1
  Se  Se58  1  0.11036000  0.34042600  0.24898100  1
  Se  Se59  1  0.76488500  0.00715400  0.90953400  1
  Se  Se60  1  0.44635000  0.69390100  0.59992500  1
  Se  Se61  1  0.62686900  0.71698400  0.85641400  1
  Se  Se62  1  0.27935000  0.38025600  0.52246000  1
  Se  Se63  1  0.96688600  0.05901000  0.21429800  1
  Se  Se64  1  0.38025600  0.52246000  0.27935000  1
  Se  Se65  1  0.05901000  0.21429800  0.96688600  1
  Se  Se66  1  0.71698400  0.85641400  0.62686900  1
  Se  Se67  1  0.21429800  0.96688600  0.05901000  1
  Se  Se68  1  0.85641400  0.62686900  0.71698400  1
  Se  Se69  1  0.52246000  0.27935000  0.38025600  1
