# generated using pymatgen
data_Sr4Fe6Bi7PbO24
_symmetry_space_group_name_H-M   'P 1'
_cell_length_a   20.82127883
_cell_length_b   20.82127883
_cell_length_c   5.43463700
_cell_angle_alpha   90.00000000
_cell_angle_beta   90.00000000
_cell_angle_gamma   164.99869685
_symmetry_Int_Tables_number   1
_chemical_formula_structural   Sr4Fe6Bi7PbO24
_chemical_formula_sum   'Sr4 Fe6 Bi7 Pb1 O24'
_cell_volume   609.84354963
_cell_formula_units_Z   1
loop_
 _symmetry_equiv_pos_site_id
 _symmetry_equiv_pos_as_xyz
  1  'x, y, z'
loop_
 _atom_site_type_symbol
 _atom_site_label
 _atom_site_symmetry_multiplicity
 _atom_site_fract_x
 _atom_site_fract_y
 _atom_site_fract_z
 _atom_site_occupancy
  Sr  Sr0  1  0.34567100  0.65432900  0.50000000  1
  Sr  Sr1  1  0.84557300  0.15442700  0.00000000  1
  Sr  Sr2  1  0.14551800  0.85448200  0.00000000  1
  Sr  Sr3  1  0.64469200  0.35530800  0.50000000  1
  Fe  Fe4  1  0.89334300  0.10665700  0.50000000  1
  Fe  Fe5  1  0.39324600  0.60675400  0.00000000  1
  Fe  Fe6  1  0.59797100  0.40202900  0.00000000  1
  Fe  Fe7  1  0.09795600  0.90204400  0.50000000  1
  Fe  Fe8  1  0.49717800  0.50282200  0.00000000  1
  Fe  Fe9  1  0.99719300  0.00280700  0.50000000  1
  Bi  Bi10  1  0.78084200  0.21915800  0.50000000  1
  Bi  Bi11  1  0.21621700  0.78378300  0.50000000  1
  Bi  Bi12  1  0.71617900  0.28382100  0.00000000  1
  Bi  Bi13  1  0.43862700  0.56137300  0.50000000  1
  Bi  Bi14  1  0.93856200  0.06143800  0.00000000  1
  Bi  Bi15  1  0.04150100  0.95849900  0.00000000  1
  Bi  Bi16  1  0.54161700  0.45838300  0.50000000  1
  Pb  Pb17  1  0.27975400  0.72024600  0.00000000  1
  O  O18  1  0.15084800  0.34870500  0.74970500  1
  O  O19  1  0.65129500  0.84915200  0.25029500  1
  O  O20  1  0.65129500  0.84915200  0.74970500  1
  O  O21  1  0.15084800  0.34870500  0.25029500  1
  O  O22  1  0.35648600  0.14339000  0.74997000  1
  O  O23  1  0.85661000  0.64351400  0.25003000  1
  O  O24  1  0.85661000  0.64351400  0.74997000  1
  O  O25  1  0.35648600  0.14339000  0.25003000  1
  O  O26  1  0.72454400  0.27545600  0.50000000  1
  O  O27  1  0.21892300  0.78107700  0.00000000  1
  O  O28  1  0.78647500  0.21352500  0.00000000  1
  O  O29  1  0.28656300  0.71343700  0.50000000  1
  O  O30  1  0.94871600  0.05128400  0.50000000  1
  O  O31  1  0.44875100  0.55124900  0.00000000  1
  O  O32  1  0.55075500  0.44924500  0.00000000  1
  O  O33  1  0.05078400  0.94921600  0.50000000  1
  O  O34  1  0.75444500  0.74510200  0.24977800  1
  O  O35  1  0.25489800  0.24555500  0.75022200  1
  O  O36  1  0.75444500  0.74510200  0.75022200  1
  O  O37  1  0.25489800  0.24555500  0.24977800  1
  O  O38  1  0.84532900  0.15467100  0.50000000  1
  O  O39  1  0.34591200  0.65408800  0.00000000  1
  O  O40  1  0.66621200  0.33378800  0.00000000  1
  O  O41  1  0.16623100  0.83376900  0.50000000  1
