# generated using pymatgen
data_Sr2Fe3Sb(PO4)6
_symmetry_space_group_name_H-M   'P 1'
_cell_length_a   9.12999437
_cell_length_b   9.12999437
_cell_length_c   9.12999463
_cell_angle_alpha   56.24255070
_cell_angle_beta   56.24255070
_cell_angle_gamma   56.24254916
_symmetry_Int_Tables_number   1
_chemical_formula_structural   Sr2Fe3Sb(PO4)6
_chemical_formula_sum   'Sr2 Fe3 Sb1 P6 O24'
_cell_volume   491.34872151
_cell_formula_units_Z   1
loop_
 _symmetry_equiv_pos_site_id
 _symmetry_equiv_pos_as_xyz
  1  'x, y, z'
loop_
 _atom_site_type_symbol
 _atom_site_label
 _atom_site_symmetry_multiplicity
 _atom_site_fract_x
 _atom_site_fract_y
 _atom_site_fract_z
 _atom_site_occupancy
  Sr  Sr0  1  0.50441600  0.50441600  0.50441600  1
  Sr  Sr1  1  0.00003600  0.00003600  0.00003600  1
  Fe  Fe2  1  0.85001900  0.85001900  0.85001900  1
  Fe  Fe3  1  0.65038900  0.65038900  0.65038900  1
  Fe  Fe4  1  0.14917100  0.14917100  0.14917100  1
  Sb  Sb5  1  0.35021900  0.35021900  0.35021900  1
  P  P6  1  0.95818500  0.53812700  0.24897500  1
  P  P7  1  0.24897500  0.95818500  0.53812700  1
  P  P8  1  0.53812700  0.24897500  0.95818500  1
  P  P9  1  0.75254400  0.03407000  0.46214200  1
  P  P10  1  0.46214200  0.75254400  0.03407000  1
  P  P11  1  0.03407000  0.46214200  0.75254400  1
  O  O12  1  0.13458400  0.52081900  0.26276700  1
  O  O13  1  0.26276700  0.13458400  0.52081900  1
  O  O14  1  0.52081900  0.26276700  0.13458400  1
  O  O15  1  0.76193600  0.01907600  0.63250700  1
  O  O16  1  0.63250700  0.76193600  0.01907600  1
  O  O17  1  0.01907600  0.63250700  0.76193600  1
  O  O18  1  0.86922900  0.48354000  0.73010700  1
  O  O19  1  0.73010700  0.86922900  0.48354000  1
  O  O20  1  0.48354000  0.73010700  0.86922900  1
  O  O21  1  0.23389000  0.98715900  0.36543400  1
  O  O22  1  0.36543400  0.23389000  0.98715900  1
  O  O23  1  0.98715900  0.36543400  0.23389000  1
  O  O24  1  0.22124500  0.43469700  0.56922200  1
  O  O25  1  0.56922200  0.22124500  0.43469700  1
  O  O26  1  0.43469700  0.56922200  0.22124500  1
  O  O27  1  0.07401100  0.93703000  0.71767500  1
  O  O28  1  0.71767500  0.07401100  0.93703000  1
  O  O29  1  0.93703000  0.71767500  0.07401100  1
  O  O30  1  0.78383100  0.56490500  0.42623800  1
  O  O31  1  0.42623800  0.78383100  0.56490500  1
  O  O32  1  0.56490500  0.42623800  0.78383100  1
  O  O33  1  0.92150900  0.07005800  0.28023900  1
  O  O34  1  0.28023900  0.92150900  0.07005800  1
  O  O35  1  0.07005800  0.28023900  0.92150900  1
