# generated using pymatgen
data_Sr10Fe4Co(MoO6)5
_symmetry_space_group_name_H-M   'P 1'
_cell_length_a   9.74930356
_cell_length_b   9.74930356
_cell_length_c   9.74930356
_cell_angle_alpha   99.75805648
_cell_angle_beta   99.75805648
_cell_angle_gamma   131.37800297
_symmetry_Int_Tables_number   1
_chemical_formula_structural   Sr10Fe4Co(MoO6)5
_chemical_formula_sum   'Sr10 Fe4 Co1 Mo5 O30'
_cell_volume   633.67449513
_cell_formula_units_Z   1
loop_
 _symmetry_equiv_pos_site_id
 _symmetry_equiv_pos_as_xyz
  1  'x, y, z'
loop_
 _atom_site_type_symbol
 _atom_site_label
 _atom_site_symmetry_multiplicity
 _atom_site_fract_x
 _atom_site_fract_y
 _atom_site_fract_z
 _atom_site_occupancy
  Sr  Sr0  1  0.34794900  0.05057900  0.90030200  1
  Sr  Sr1  1  0.75000000  0.25000000  0.50000000  1
  Sr  Sr2  1  0.55235300  0.65205100  0.70263000  1
  Sr  Sr3  1  0.94942100  0.84972300  0.29737000  1
  Sr  Sr4  1  0.15027700  0.44764700  0.09969800  1
  Sr  Sr5  1  0.25000000  0.75000000  0.50000000  1
  Sr  Sr6  1  0.65205100  0.94942100  0.09969800  1
  Sr  Sr7  1  0.44764700  0.34794900  0.29737000  1
  Sr  Sr8  1  0.84972300  0.55235300  0.90030200  1
  Sr  Sr9  1  0.05057900  0.15027700  0.70263000  1
  Fe  Fe10  1  0.79852200  0.40223300  0.20075400  1
  Fe  Fe11  1  0.59776700  0.79852200  0.39628900  1
  Fe  Fe12  1  0.40223300  0.20147800  0.60371100  1
  Fe  Fe13  1  0.20147800  0.59776700  0.79924600  1
  Co  Co14  1  0.00000000  0.00000000  0.00000000  1
  Mo  Mo15  1  0.89996400  0.70206600  0.60203100  1
  Mo  Mo16  1  0.29793400  0.89996400  0.19789800  1
  Mo  Mo17  1  0.10003600  0.29793400  0.39796900  1
  Mo  Mo18  1  0.50000000  0.50000000  0.00000000  1
  Mo  Mo19  1  0.70206600  0.10003600  0.80210200  1
  O  O20  1  0.44819100  0.84907800  0.80121800  1
  O  O21  1  0.84907800  0.04785900  0.40088700  1
  O  O22  1  0.64697300  0.44819100  0.59911400  1
  O  O23  1  0.04785900  0.64697300  0.19878200  1
  O  O24  1  0.25341500  0.25341500  0.00000000  1
  O  O25  1  0.15092200  0.95214100  0.59911400  1
  O  O26  1  0.55180900  0.15092200  0.19878200  1
  O  O27  1  0.35302700  0.55180900  0.40088700  1
  O  O28  1  0.74658500  0.74658500  0.00000000  1
  O  O29  1  0.95214100  0.35302700  0.80121800  1
  O  O30  1  0.84739800  0.02753500  0.87493400  1
  O  O31  1  0.64228200  0.42712800  0.06941000  1
  O  O32  1  0.44241400  0.83051500  0.27292900  1
  O  O33  1  0.23872800  0.23057000  0.46929800  1
  O  O34  1  0.03913500  0.63337100  0.67250600  1
  O  O35  1  0.35771800  0.57287200  0.93059000  1
  O  O36  1  0.15260200  0.97246500  0.12506600  1
  O  O37  1  0.96086500  0.36662900  0.32749400  1
  O  O38  1  0.76127200  0.76943000  0.53070200  1
  O  O39  1  0.55758600  0.16948500  0.72707100  1
  O  O40  1  0.76943000  0.23872800  0.00815700  1
  O  O41  1  0.57287200  0.64228200  0.21515500  1
  O  O42  1  0.36662900  0.03913500  0.40576300  1
  O  O43  1  0.16948500  0.44241400  0.61189800  1
  O  O44  1  0.97246500  0.84739800  0.81986300  1
  O  O45  1  0.63337100  0.96086500  0.59423700  1
  O  O46  1  0.42712800  0.35771800  0.78484500  1
  O  O47  1  0.23057000  0.76127200  0.99184300  1
  O  O48  1  0.02753500  0.15260200  0.18013700  1
  O  O49  1  0.83051500  0.55758600  0.38810200  1
