# generated using pymatgen
data_Sr2EuTa(CuO4)2
_symmetry_space_group_name_H-M   'P 1'
_cell_length_a   3.93116348
_cell_length_b   3.93116348
_cell_length_c   11.79691300
_cell_angle_alpha   90.00000000
_cell_angle_beta   90.00000000
_cell_angle_gamma   90.19076256
_symmetry_Int_Tables_number   1
_chemical_formula_structural   Sr2EuTa(CuO4)2
_chemical_formula_sum   'Sr2 Eu1 Ta1 Cu2 O8'
_cell_volume   182.30902893
_cell_formula_units_Z   1
loop_
 _symmetry_equiv_pos_site_id
 _symmetry_equiv_pos_as_xyz
  1  'x, y, z'
loop_
 _atom_site_type_symbol
 _atom_site_label
 _atom_site_symmetry_multiplicity
 _atom_site_fract_x
 _atom_site_fract_y
 _atom_site_fract_z
 _atom_site_occupancy
  Sr  Sr0  1  0.49948900  0.49948900  0.79896600  1
  Sr  Sr1  1  0.49948900  0.49948900  0.20103400  1
  Eu  Eu2  1  0.50034100  0.50034100  0.50000000  1
  Ta  Ta3  1  0.01893700  0.01893700  0.00000000  1
  Cu  Cu4  1  0.00047500  0.00047500  0.64397000  1
  Cu  Cu5  1  0.00047500  0.00047500  0.35603000  1
  O  O6  1  0.01496400  0.01496400  0.83210000  1
  O  O7  1  0.01496400  0.01496400  0.16790000  1
  O  O8  1  0.00024300  0.50099500  0.63205300  1
  O  O9  1  0.50099500  0.00024300  0.63205300  1
  O  O10  1  0.00024300  0.50099500  0.36794700  1
  O  O11  1  0.50099500  0.00024300  0.36794700  1
  O  O12  1  0.52556200  0.05082600  0.00000000  1
  O  O13  1  0.05082600  0.52556200  0.00000000  1
