# generated using pymatgen
data_Sr2NdMn2O7
_symmetry_space_group_name_H-M   'P 1'
_cell_length_a   10.46691012
_cell_length_b   10.46691012
_cell_length_c   10.46691012
_cell_angle_alpha   158.45868187
_cell_angle_beta   158.45868187
_cell_angle_gamma   30.64903570
_symmetry_Int_Tables_number   1
_chemical_formula_structural   Sr2NdMn2O7
_chemical_formula_sum   'Sr2 Nd1 Mn2 O7'
_cell_volume   154.49351830
_cell_formula_units_Z   1
loop_
 _symmetry_equiv_pos_site_id
 _symmetry_equiv_pos_as_xyz
  1  'x, y, z'
loop_
 _atom_site_type_symbol
 _atom_site_label
 _atom_site_symmetry_multiplicity
 _atom_site_fract_x
 _atom_site_fract_y
 _atom_site_fract_z
 _atom_site_occupancy
  Sr  Sr0  1  0.50525100  0.50525100  0.00000000  1
  Sr  Sr1  1  0.68254300  0.68254300  0.00000000  1
  Nd  Nd2  1  0.31780100  0.31780100  0.00000000  1
  Mn  Mn3  1  0.90342900  0.90342900  0.00000000  1
  Mn  Mn4  1  0.09898600  0.09898600  0.00000000  1
  O  O5  1  0.80379300  0.80379300  0.00000000  1
  O  O6  1  0.20268700  0.20268700  0.00000000  1
  O  O7  1  0.89583000  0.39583000  0.50000000  1
  O  O8  1  0.39583000  0.89583000  0.50000000  1
  O  O9  1  0.09764300  0.59764300  0.50000000  1
  O  O10  1  0.59764300  0.09764300  0.50000000  1
  O  O11  1  0.99856300  0.99856300  0.00000000  1
