# generated using pymatgen
data_Sr2CaTi3O9
_symmetry_space_group_name_H-M   'P 1'
_cell_length_a   23.53594700
_cell_length_b   5.54060800
_cell_length_c   5.54585370
_cell_angle_alpha   89.92539779
_cell_angle_beta   90.00000000
_cell_angle_gamma   90.00000000
_symmetry_Int_Tables_number   1
_chemical_formula_structural   Sr2CaTi3O9
_chemical_formula_sum   'Sr8 Ca4 Ti12 O36'
_cell_volume   723.19787736
_cell_formula_units_Z   4
loop_
 _symmetry_equiv_pos_site_id
 _symmetry_equiv_pos_as_xyz
  1  'x, y, z'
loop_
 _atom_site_type_symbol
 _atom_site_label
 _atom_site_symmetry_multiplicity
 _atom_site_fract_x
 _atom_site_fract_y
 _atom_site_fract_z
 _atom_site_occupancy
  Sr  Sr0  1  0.83313400  0.99190100  0.00128600  1
  Sr  Sr1  1  0.16686600  0.99190100  0.00128600  1
  Sr  Sr2  1  0.33319600  0.50850900  0.50156600  1
  Sr  Sr3  1  0.66680400  0.50850900  0.50156600  1
  Sr  Sr4  1  0.00000000  0.50665400  0.50023700  1
  Sr  Sr5  1  0.33417300  0.00985700  0.99671600  1
  Sr  Sr6  1  0.66582700  0.00985700  0.99671600  1
  Sr  Sr7  1  0.00000000  0.00921700  0.99636500  1
  Ca  Ca8  1  0.50000000  0.48453200  0.50122500  1
  Ca  Ca9  1  0.83329100  0.48724600  0.50149200  1
  Ca  Ca10  1  0.16670900  0.48724600  0.50149200  1
  Ca  Ca11  1  0.50000000  0.98453600  0.99865200  1
  Ti  Ti12  1  0.24970200  0.99921100  0.49934500  1
  Ti  Ti13  1  0.58164900  0.99809500  0.50143000  1
  Ti  Ti14  1  0.91590800  0.99866400  0.49958900  1
  Ti  Ti15  1  0.41833300  0.49861000  0.99824400  1
  Ti  Ti16  1  0.75028800  0.49966000  0.99880100  1
  Ti  Ti17  1  0.08404100  0.49976500  0.99828300  1
  Ti  Ti18  1  0.41835100  0.99809500  0.50143000  1
  Ti  Ti19  1  0.75029800  0.99921100  0.49934500  1
  Ti  Ti20  1  0.08409200  0.99866400  0.49958900  1
  Ti  Ti21  1  0.58166700  0.49861000  0.99824400  1
  Ti  Ti22  1  0.91595900  0.49976500  0.99828300  1
  Ti  Ti23  1  0.24971200  0.49966000  0.99880100  1
  O  O24  1  0.50000000  0.00912000  0.55645100  1
  O  O25  1  0.83312200  0.01093500  0.53469400  1
  O  O26  1  0.16687800  0.01093500  0.53469400  1
  O  O27  1  0.50000000  0.50840000  0.94262600  1
  O  O28  1  0.83311400  0.50001900  0.95038800  1
  O  O29  1  0.16688600  0.50001900  0.95038800  1
  O  O30  1  0.33399300  0.99675100  0.46305400  1
  O  O31  1  0.66600700  0.99675100  0.46305400  1
  O  O32  1  0.00000000  0.99461000  0.46511700  1
  O  O33  1  0.33406900  0.50086000  0.03545500  1
  O  O34  1  0.66593100  0.50086000  0.03545500  1
  O  O35  1  0.00000000  0.50332800  0.03207600  1
  O  O36  1  0.57279200  0.72470000  0.27537100  1
  O  O37  1  0.90768200  0.72668900  0.27400100  1
  O  O38  1  0.24123100  0.72685600  0.27424000  1
  O  O39  1  0.42705700  0.22470300  0.22394200  1
  O  O40  1  0.75601800  0.23434900  0.23465200  1
  O  O41  1  0.08942200  0.23413200  0.23428500  1
  O  O42  1  0.41095400  0.27515300  0.72531200  1
  O  O43  1  0.74425600  0.26848300  0.73328900  1
  O  O44  1  0.07783100  0.26835900  0.73294800  1
  O  O45  1  0.25593000  0.77029400  0.77060400  1
  O  O46  1  0.58861400  0.77560300  0.77422500  1
  O  O47  1  0.92184400  0.77039900  0.77041300  1
  O  O48  1  0.25574400  0.26848300  0.73328900  1
  O  O49  1  0.58904600  0.27515300  0.72531200  1
  O  O50  1  0.92216900  0.26835900  0.73294800  1
  O  O51  1  0.41138600  0.77560300  0.77422500  1
  O  O52  1  0.74407000  0.77029400  0.77060400  1
  O  O53  1  0.07815600  0.77039900  0.77041300  1
  O  O54  1  0.42720800  0.72470000  0.27537100  1
  O  O55  1  0.75876900  0.72685600  0.27424000  1
  O  O56  1  0.09231800  0.72668900  0.27400100  1
  O  O57  1  0.57294300  0.22470300  0.22394200  1
  O  O58  1  0.91057800  0.23413200  0.23428500  1
  O  O59  1  0.24398200  0.23434900  0.23465200  1
