# generated using pymatgen
data_Sr2Mn3(BO5)2
_symmetry_space_group_name_H-M   'P 1'
_cell_length_a   3.39295100
_cell_length_b   5.80976608
_cell_length_c   10.66310225
_cell_angle_alpha   87.85884758
_cell_angle_beta   90.00000000
_cell_angle_gamma   90.00000000
_symmetry_Int_Tables_number   1
_chemical_formula_structural   Sr2Mn3(BO5)2
_chemical_formula_sum   'Sr2 Mn3 B2 O10'
_cell_volume   210.04700098
_cell_formula_units_Z   1
loop_
 _symmetry_equiv_pos_site_id
 _symmetry_equiv_pos_as_xyz
  1  'x, y, z'
loop_
 _atom_site_type_symbol
 _atom_site_label
 _atom_site_symmetry_multiplicity
 _atom_site_fract_x
 _atom_site_fract_y
 _atom_site_fract_z
 _atom_site_occupancy
  Sr  Sr0  1  0.50000000  0.14850700  0.31828600  1
  Sr  Sr1  1  0.00000000  0.97975600  0.00516400  1
  Mn  Mn2  1  0.50000000  0.47733600  0.99121200  1
  Mn  Mn3  1  0.50000000  0.81442600  0.70973800  1
  Mn  Mn4  1  0.00000000  0.54712500  0.50606600  1
  B  B5  1  0.00000000  0.65849800  0.22781200  1
  B  B6  1  0.00000000  0.31125800  0.75907800  1
  O  O7  1  0.00000000  0.53077500  0.68903200  1
  O  O8  1  0.00000000  0.49022400  0.32429700  1
  O  O9  1  0.00000000  0.59112300  0.10243400  1
  O  O10  1  0.00000000  0.34754600  0.88649900  1
  O  O11  1  0.50000000  0.76489400  0.88623100  1
  O  O12  1  0.50000000  0.21693500  0.09071800  1
  O  O13  1  0.00000000  0.88613800  0.25108700  1
  O  O14  1  0.00000000  0.09079700  0.71318700  1
  O  O15  1  0.50000000  0.78028300  0.52637700  1
  O  O16  1  0.50000000  0.36437900  0.51278100  1
