# generated using pymatgen
data_Sr7Mg8(P4O15)3
_symmetry_space_group_name_H-M   'P 1'
_cell_length_a   22.51628127
_cell_length_b   22.51628127
_cell_length_c   7.30665742
_cell_angle_alpha   89.97112144
_cell_angle_beta   89.97112144
_cell_angle_gamma   149.50631314
_symmetry_Int_Tables_number   1
_chemical_formula_structural   Sr7Mg8(P4O15)3
_chemical_formula_sum   'Sr14 Mg16 P24 O90'
_cell_volume   1879.74485397
_cell_formula_units_Z   2
loop_
 _symmetry_equiv_pos_site_id
 _symmetry_equiv_pos_as_xyz
  1  'x, y, z'
loop_
 _atom_site_type_symbol
 _atom_site_label
 _atom_site_symmetry_multiplicity
 _atom_site_fract_x
 _atom_site_fract_y
 _atom_site_fract_z
 _atom_site_occupancy
  Sr  Sr0  1  0.06666700  0.51096800  0.25426900  1
  Sr  Sr1  1  0.39926600  0.17729600  0.25294900  1
  Sr  Sr2  1  0.73562600  0.84622500  0.25160500  1
  Sr  Sr3  1  0.48903200  0.93333300  0.74573100  1
  Sr  Sr4  1  0.82270400  0.60073400  0.74705100  1
  Sr  Sr5  1  0.15377500  0.26437400  0.74839500  1
  Sr  Sr6  1  0.60073400  0.82270400  0.74705100  1
  Sr  Sr7  1  0.93333300  0.48903200  0.74573100  1
  Sr  Sr8  1  0.26437400  0.15377500  0.74839500  1
  Sr  Sr9  1  0.17729600  0.39926600  0.25294900  1
  Sr  Sr10  1  0.51096800  0.06666700  0.25426900  1
  Sr  Sr11  1  0.84622500  0.73562600  0.25160500  1
  Sr  Sr12  1  0.33340200  0.66659800  0.00000000  1
  Sr  Sr13  1  0.66659800  0.33340200  0.00000000  1
  Mg  Mg14  1  0.44387800  0.55612200  0.00000000  1
  Mg  Mg15  1  0.77574000  0.22426000  0.00000000  1
  Mg  Mg16  1  0.10894400  0.89105600  0.00000000  1
  Mg  Mg17  1  0.44482800  0.55517200  0.50000000  1
  Mg  Mg18  1  0.77821000  0.22179000  0.50000000  1
  Mg  Mg19  1  0.11039000  0.88961000  0.50000000  1
  Mg  Mg20  1  0.22426000  0.77574000  0.00000000  1
  Mg  Mg21  1  0.55612200  0.44387800  0.00000000  1
  Mg  Mg22  1  0.89105600  0.10894400  0.00000000  1
  Mg  Mg23  1  0.22179000  0.77821000  0.50000000  1
  Mg  Mg24  1  0.55517200  0.44482800  0.50000000  1
  Mg  Mg25  1  0.88961000  0.11039000  0.50000000  1
  Mg  Mg26  1  0.00000000  0.00000000  0.00000000  1
  Mg  Mg27  1  0.33338000  0.66662000  0.50000000  1
  Mg  Mg28  1  0.66662000  0.33338000  0.50000000  1
  Mg  Mg29  1  0.00000000  0.00000000  0.50000000  1
  P  P30  1  0.64409800  0.97741500  0.03105600  1
  P  P31  1  0.97741500  0.64409800  0.03105600  1
  P  P32  1  0.30011100  0.30011100  0.03304400  1
  P  P33  1  0.02258500  0.35590200  0.96894400  1
  P  P34  1  0.35590200  0.02258500  0.96894400  1
  P  P35  1  0.69988900  0.69988900  0.96695600  1
  P  P36  1  0.63399400  0.96697700  0.46453300  1
  P  P37  1  0.96697700  0.63399400  0.46453300  1
  P  P38  1  0.29970400  0.29970400  0.46644900  1
  P  P39  1  0.03302300  0.36600600  0.53546700  1
  P  P40  1  0.36600600  0.03302300  0.53546700  1
  P  P41  1  0.70029600  0.70029600  0.53355100  1
  P  P42  1  0.33965500  0.80155300  0.25939200  1
  P  P43  1  0.67300800  0.46855200  0.25888500  1
  P  P44  1  0.00741000  0.13393800  0.25013300  1
  P  P45  1  0.19844700  0.66034500  0.74060800  1
  P  P46  1  0.53144800  0.32699200  0.74111500  1
  P  P47  1  0.86606200  0.99259000  0.74986700  1
  P  P48  1  0.32699200  0.53144800  0.74111500  1
  P  P49  1  0.66034500  0.19844700  0.74060800  1
  P  P50  1  0.99259000  0.86606200  0.74986700  1
  P  P51  1  0.46855200  0.67300800  0.25888500  1
  P  P52  1  0.80155300  0.33965500  0.25939200  1
  P  P53  1  0.13393800  0.00741000  0.25013300  1
  O  O54  1  0.30503000  0.70533700  0.28147900  1
  O  O55  1  0.63804500  0.37204800  0.28153400  1
  O  O56  1  0.97649900  0.03954400  0.24988800  1
  O  O57  1  0.29466300  0.69497000  0.71852100  1
  O  O58  1  0.62795200  0.36195500  0.71846600  1
  O  O59  1  0.96045600  0.02350100  0.75011200  1
  O  O60  1  0.36195500  0.62795200  0.71846600  1
  O  O61  1  0.69497000  0.29466300  0.71852100  1
  O  O62  1  0.02350100  0.96045600  0.75011200  1
  O  O63  1  0.37204800  0.63804500  0.28153400  1
  O  O64  1  0.70533700  0.30503000  0.28147900  1
  O  O65  1  0.03954400  0.97649900  0.24988800  1
  O  O66  1  0.61742100  0.95069400  0.24679100  1
  O  O67  1  0.95069400  0.61742100  0.24679100  1
  O  O68  1  0.28417700  0.28417700  0.24978400  1
  O  O69  1  0.04930600  0.38257900  0.75320900  1
  O  O70  1  0.38257900  0.04930600  0.75320900  1
  O  O71  1  0.71582300  0.71582300  0.75021600  1
  O  O72  1  0.93154000  0.32445200  0.01640500  1
  O  O73  1  0.26441400  0.99042300  0.01629600  1
  O  O74  1  0.60709000  0.66577400  0.02143600  1
  O  O75  1  0.67554800  0.06846000  0.98359500  1
  O  O76  1  0.00957700  0.73558600  0.98370400  1
  O  O77  1  0.33422600  0.39291000  0.97856400  1
  O  O78  1  0.94024900  0.33164600  0.47956300  1
  O  O79  1  0.27304100  0.99858500  0.47997100  1
  O  O80  1  0.60750100  0.66582600  0.47901100  1
  O  O81  1  0.66835400  0.05975100  0.52043700  1
  O  O82  1  0.00141500  0.72695900  0.52002900  1
  O  O83  1  0.33417400  0.39249900  0.52098900  1
  O  O84  1  0.73558600  0.00957700  0.98370400  1
  O  O85  1  0.06846000  0.67554800  0.98359500  1
  O  O86  1  0.39291000  0.33422600  0.97856400  1
  O  O87  1  0.99042300  0.26441400  0.01629600  1
  O  O88  1  0.32445200  0.93154000  0.01640500  1
  O  O89  1  0.66577400  0.60709000  0.02143600  1
  O  O90  1  0.72695900  0.00141500  0.52002900  1
  O  O91  1  0.05975100  0.66835400  0.52043700  1
  O  O92  1  0.39249900  0.33417400  0.52098900  1
  O  O93  1  0.99858500  0.27304100  0.47997100  1
  O  O94  1  0.33164600  0.94024900  0.47956300  1
  O  O95  1  0.66582600  0.60750100  0.47901100  1
  O  O96  1  0.40331800  0.55362700  0.25197100  1
  O  O97  1  0.73598700  0.22029600  0.25335000  1
  O  O98  1  0.06696000  0.88700100  0.25132200  1
  O  O99  1  0.44637300  0.59668200  0.74802900  1
  O  O100  1  0.77970400  0.26401300  0.74665000  1
  O  O101  1  0.11299900  0.93304000  0.74867800  1
  O  O102  1  0.26401300  0.77970400  0.74665000  1
  O  O103  1  0.59668200  0.44637300  0.74802900  1
  O  O104  1  0.93304000  0.11299900  0.74867800  1
  O  O105  1  0.22029600  0.73598700  0.25335000  1
  O  O106  1  0.55362700  0.40331800  0.25197100  1
  O  O107  1  0.88700100  0.06696000  0.25132200  1
  O  O108  1  0.53036800  0.86360600  0.93337400  1
  O  O109  1  0.86360600  0.53036800  0.93337400  1
  O  O110  1  0.17982500  0.17982500  0.95293400  1
  O  O111  1  0.13639400  0.46963200  0.06662600  1
  O  O112  1  0.46963200  0.13639400  0.06662600  1
  O  O113  1  0.82017500  0.82017500  0.04706600  1
  O  O114  1  0.51401500  0.84722100  0.54405300  1
  O  O115  1  0.84722100  0.51401500  0.54405300  1
  O  O116  1  0.17946400  0.17946400  0.54739000  1
  O  O117  1  0.15277900  0.48598500  0.45594700  1
  O  O118  1  0.48598500  0.15277900  0.45594700  1
  O  O119  1  0.82053600  0.82053600  0.45261000  1
  O  O120  1  0.40061600  0.86866400  0.07697500  1
  O  O121  1  0.73415800  0.53550900  0.07677200  1
  O  O122  1  0.06992900  0.20838600  0.07519400  1
  O  O123  1  0.13133600  0.59938400  0.92302500  1
  O  O124  1  0.46449100  0.26584200  0.92322800  1
  O  O125  1  0.79161400  0.93007100  0.92480600  1
  O  O126  1  0.40645800  0.88311300  0.42533300  1
  O  O127  1  0.73966500  0.54987700  0.42531700  1
  O  O128  1  0.07019800  0.20846200  0.42448800  1
  O  O129  1  0.11688700  0.59354200  0.57466700  1
  O  O130  1  0.45012300  0.26033500  0.57468300  1
  O  O131  1  0.79153800  0.92980200  0.57551200  1
  O  O132  1  0.26584200  0.46449100  0.92322800  1
  O  O133  1  0.59938400  0.13133600  0.92302500  1
  O  O134  1  0.93007100  0.79161400  0.92480600  1
  O  O135  1  0.53550900  0.73415800  0.07677200  1
  O  O136  1  0.86866400  0.40061600  0.07697500  1
  O  O137  1  0.20838600  0.06992900  0.07519400  1
  O  O138  1  0.26033500  0.45012300  0.57468300  1
  O  O139  1  0.59354200  0.11688700  0.57466700  1
  O  O140  1  0.92980200  0.79153800  0.57551200  1
  O  O141  1  0.54987700  0.73966500  0.42531700  1
  O  O142  1  0.88311300  0.40645800  0.42533300  1
  O  O143  1  0.20846200  0.07019800  0.42448800  1
