# generated using pymatgen
data_SnMo3
_symmetry_space_group_name_H-M   'P 1'
_cell_length_a   2.88947746
_cell_length_b   2.88947746
_cell_length_c   8.84248500
_cell_angle_alpha   90.00000000
_cell_angle_beta   90.00000000
_cell_angle_gamma   109.73201269
_symmetry_Int_Tables_number   1
_chemical_formula_structural   SnMo3
_chemical_formula_sum   'Sn1 Mo3'
_cell_volume   69.49166726
_cell_formula_units_Z   1
loop_
 _symmetry_equiv_pos_site_id
 _symmetry_equiv_pos_as_xyz
  1  'x, y, z'
loop_
 _atom_site_type_symbol
 _atom_site_label
 _atom_site_symmetry_multiplicity
 _atom_site_fract_x
 _atom_site_fract_y
 _atom_site_fract_z
 _atom_site_occupancy
  Sn  Sn0  1  0.00000000  0.00000000  0.00000000  1
  Mo  Mo1  1  0.50000000  0.50000000  0.73726700  1
  Mo  Mo2  1  0.00000000  0.00000000  0.50000000  1
  Mo  Mo3  1  0.50000000  0.50000000  0.26273300  1
