# generated using pymatgen
data_SrCa2Yb10O18
_symmetry_space_group_name_H-M   'P 1'
_cell_length_a   3.43086600
_cell_length_b   17.31181216
_cell_length_c   17.34575402
_cell_angle_alpha   60.40515203
_cell_angle_beta   88.30390067
_cell_angle_gamma   88.40135803
_symmetry_Int_Tables_number   1
_chemical_formula_structural   SrCa2Yb10O18
_chemical_formula_sum   'Sr2 Ca4 Yb20 O36'
_cell_volume   895.33938214
_cell_formula_units_Z   2
loop_
 _symmetry_equiv_pos_site_id
 _symmetry_equiv_pos_as_xyz
  1  'x, y, z'
loop_
 _atom_site_type_symbol
 _atom_site_label
 _atom_site_symmetry_multiplicity
 _atom_site_fract_x
 _atom_site_fract_y
 _atom_site_fract_z
 _atom_site_occupancy
  Sr  Sr0  1  0.26209400  0.33287600  0.33325200  1
  Sr  Sr1  1  0.76083200  0.66587000  0.66615900  1
  Ca  Ca2  1  0.24535500  0.31957300  0.65551800  1
  Ca  Ca3  1  0.76279000  0.34669400  0.97393500  1
  Ca  Ca4  1  0.74305000  0.97386100  0.68195200  1
  Ca  Ca5  1  0.76749100  0.68129400  0.34520700  1
  Yb  Yb6  1  0.75107700  0.44499100  0.75248200  1
  Yb  Yb7  1  0.75937000  0.75294800  0.80017800  1
  Yb  Yb8  1  0.76258300  0.80094800  0.44733400  1
  Yb  Yb9  1  0.26696900  0.55319100  0.24859900  1
  Yb  Yb10  1  0.26663100  0.24820800  0.19960300  1
  Yb  Yb11  1  0.24406400  0.19970800  0.55111500  1
  Yb  Yb12  1  0.75209100  0.09870100  0.44446100  1
  Yb  Yb13  1  0.76943000  0.44532800  0.45508800  1
  Yb  Yb14  1  0.74896800  0.45761400  0.09880300  1
  Yb  Yb15  1  0.24771200  0.89858500  0.55489400  1
  Yb  Yb16  1  0.25373900  0.55491900  0.54519400  1
  Yb  Yb17  1  0.27188900  0.54763500  0.89819700  1
  Yb  Yb18  1  0.76060000  0.75793300  0.12997800  1
  Yb  Yb19  1  0.80952900  0.12911100  0.11404200  1
  Yb  Yb20  1  0.71449900  0.11164200  0.75616700  1
  Yb  Yb21  1  0.24677600  0.24045500  0.87193200  1
  Yb  Yb22  1  0.23079300  0.86914500  0.88978600  1
  Yb  Yb23  1  0.28953600  0.88846100  0.24355500  1
  Yb  Yb24  1  0.25438800  0.65644300  0.02448300  1
  Yb  Yb25  1  0.26662400  0.02415300  0.31996100  1
  O  O26  1  0.72699500  0.96277700  0.82987500  1
  O  O27  1  0.80389000  0.82909300  0.20745800  1
  O  O28  1  0.73428400  0.20808000  0.96754800  1
  O  O29  1  0.31104700  0.03638000  0.17742700  1
  O  O30  1  0.19845600  0.17288300  0.79091000  1
  O  O31  1  0.27076500  0.78704000  0.03676600  1
  O  O32  1  0.75403500  0.32392900  0.22241900  1
  O  O33  1  0.75757200  0.22494500  0.45052200  1
  O  O34  1  0.76759500  0.45301000  0.32191700  1
  O  O35  1  0.26900400  0.67855100  0.77328400  1
  O  O36  1  0.25323100  0.77271800  0.54851600  1
  O  O37  1  0.25423400  0.54599000  0.67864000  1
  O  O38  1  0.74112900  0.75643200  0.93007600  1
  O  O39  1  0.76917800  0.92972100  0.31437600  1
  O  O40  1  0.75808900  0.30735800  0.76341000  1
  O  O41  1  0.30674300  0.23870600  0.07329700  1
  O  O42  1  0.23325200  0.07299500  0.68454000  1
  O  O43  1  0.25372300  0.68945300  0.23913800  1
  O  O44  1  0.74803400  0.65250400  0.49842800  1
  O  O45  1  0.78781800  0.49951800  0.84711800  1
  O  O46  1  0.73790100  0.84933100  0.65217300  1
  O  O47  1  0.27576800  0.34725400  0.50281400  1
  O  O48  1  0.23393200  0.50827100  0.14693400  1
  O  O49  1  0.26105600  0.14801600  0.34639900  1
  O  O50  1  0.76965700  0.13538700  0.24454500  1
  O  O51  1  0.73425100  0.24055700  0.61978600  1
  O  O52  1  0.76773300  0.62052900  0.13705300  1
  O  O53  1  0.25302000  0.86129700  0.76123900  1
  O  O54  1  0.27148800  0.76160400  0.37814900  1
  O  O55  1  0.24652700  0.37820400  0.86104000  1
  O  O56  1  0.75615600  0.44537100  0.59163400  1
  O  O57  1  0.76005000  0.59627100  0.96184300  1
  O  O58  1  0.75710100  0.96136800  0.44305800  1
  O  O59  1  0.26538600  0.55487200  0.40970800  1
  O  O60  1  0.25964600  0.41412000  0.03212000  1
  O  O61  1  0.24238000  0.03517900  0.55396200  1
