# generated using pymatgen
data_Sr4CaYCu4Bi2(PbO8)2
_symmetry_space_group_name_H-M   'P 1'
_cell_length_a   5.39314700
_cell_length_b   5.46205321
_cell_length_c   31.57964053
_cell_angle_alpha   90.15485132
_cell_angle_beta   90.00000000
_cell_angle_gamma   90.00000000
_symmetry_Int_Tables_number   1
_chemical_formula_structural   Sr4CaYCu4Bi2(PbO8)2
_chemical_formula_sum   'Sr8 Ca2 Y2 Cu8 Bi4 Pb4 O32'
_cell_volume   930.25878647
_cell_formula_units_Z   2
loop_
 _symmetry_equiv_pos_site_id
 _symmetry_equiv_pos_as_xyz
  1  'x, y, z'
loop_
 _atom_site_type_symbol
 _atom_site_label
 _atom_site_symmetry_multiplicity
 _atom_site_fract_x
 _atom_site_fract_y
 _atom_site_fract_z
 _atom_site_occupancy
  Sr  Sr0  1  0.46326700  0.75545900  0.36061100  1
  Sr  Sr1  1  0.03803300  0.75322800  0.63819100  1
  Sr  Sr2  1  0.46326700  0.74454100  0.13938900  1
  Sr  Sr3  1  0.03803300  0.74677200  0.86180900  1
  Sr  Sr4  1  0.53673300  0.24454100  0.63938900  1
  Sr  Sr5  1  0.96196700  0.24677200  0.36180900  1
  Sr  Sr6  1  0.53673300  0.25545900  0.86061100  1
  Sr  Sr7  1  0.96196700  0.25322800  0.13819100  1
  Ca  Ca8  1  0.46433400  0.75000000  0.25000000  1
  Ca  Ca9  1  0.53566600  0.25000000  0.75000000  1
  Y  Y10  1  0.03604400  0.75000000  0.75000000  1
  Y  Y11  1  0.96395600  0.25000000  0.25000000  1
  Cu  Cu12  1  0.96141800  0.75047000  0.30277400  1
  Cu  Cu13  1  0.53869100  0.75115300  0.69521700  1
  Cu  Cu14  1  0.96141800  0.74953000  0.19722600  1
  Cu  Cu15  1  0.53869100  0.74884700  0.80478300  1
  Cu  Cu16  1  0.03858200  0.24953000  0.69722600  1
  Cu  Cu17  1  0.46130900  0.24884700  0.30478300  1
  Cu  Cu18  1  0.03858200  0.25047000  0.80277400  1
  Cu  Cu19  1  0.46130900  0.25115300  0.19521700  1
  Bi  Bi20  1  0.00093800  0.27321700  0.55383200  1
  Bi  Bi21  1  0.00093800  0.22678300  0.94616800  1
  Bi  Bi22  1  0.99906200  0.72678300  0.44616800  1
  Bi  Bi23  1  0.99906200  0.77321700  0.05383200  1
  Pb  Pb24  1  0.48643700  0.26089300  0.44712000  1
  Pb  Pb25  1  0.48643700  0.23910700  0.05288000  1
  Pb  Pb26  1  0.51356300  0.73910700  0.55288000  1
  Pb  Pb27  1  0.51356300  0.76089300  0.94712000  1
  O  O28  1  0.72368500  0.01171600  0.29619400  1
  O  O29  1  0.78527400  0.00425300  0.70381600  1
  O  O30  1  0.72368500  0.48828400  0.20380600  1
  O  O31  1  0.78527400  0.49574700  0.79618400  1
  O  O32  1  0.27631500  0.98828400  0.70380600  1
  O  O33  1  0.21472600  0.99574700  0.29618400  1
  O  O34  1  0.27631500  0.51171600  0.79619400  1
  O  O35  1  0.21472600  0.50425300  0.20381600  1
  O  O36  1  0.45416100  0.21464300  0.37751600  1
  O  O37  1  0.05166800  0.21415000  0.61956500  1
  O  O38  1  0.45416100  0.28535700  0.12248400  1
  O  O39  1  0.05166800  0.28585000  0.88043500  1
  O  O40  1  0.54583900  0.78535700  0.62248400  1
  O  O41  1  0.94833200  0.78585000  0.38043500  1
  O  O42  1  0.54583900  0.71464300  0.87751600  1
  O  O43  1  0.94833200  0.71415000  0.11956500  1
  O  O44  1  0.61262300  0.16747200  0.93871200  1
  O  O45  1  0.90961200  0.15003600  0.05940100  1
  O  O46  1  0.61262300  0.33252800  0.56128800  1
  O  O47  1  0.90961200  0.34996400  0.44059900  1
  O  O48  1  0.38737700  0.83252800  0.06128800  1
  O  O49  1  0.09038800  0.84996400  0.94059900  1
  O  O50  1  0.38737700  0.66747200  0.43871200  1
  O  O51  1  0.09038800  0.65003600  0.55940100  1
  O  O52  1  0.19785100  0.48690500  0.29956200  1
  O  O53  1  0.29237300  0.49628800  0.70029400  1
  O  O54  1  0.19785100  0.01309500  0.20043800  1
  O  O55  1  0.29237300  0.00371200  0.79970600  1
  O  O56  1  0.80214900  0.51309500  0.70043800  1
  O  O57  1  0.70762700  0.50371200  0.29970600  1
  O  O58  1  0.80214900  0.98690500  0.79956200  1
  O  O59  1  0.70762700  0.99628800  0.20029400  1
