# generated using pymatgen
data_SnBi3Te4
_symmetry_space_group_name_H-M   'P 1'
_cell_length_a   25.06410726
_cell_length_b   25.06410726
_cell_length_c   7.62483620
_cell_angle_alpha   81.55858435
_cell_angle_beta   81.55858435
_cell_angle_gamma   10.16775859
_symmetry_Int_Tables_number   1
_chemical_formula_structural   SnBi3Te4
_chemical_formula_sum   'Sn3 Bi9 Te12'
_cell_volume   836.34841579
_cell_formula_units_Z   3
loop_
 _symmetry_equiv_pos_site_id
 _symmetry_equiv_pos_as_xyz
  1  'x, y, z'
loop_
 _atom_site_type_symbol
 _atom_site_label
 _atom_site_symmetry_multiplicity
 _atom_site_fract_x
 _atom_site_fract_y
 _atom_site_fract_z
 _atom_site_occupancy
  Sn  Sn0  1  0.93764300  0.93764300  0.06027500  1
  Sn  Sn1  1  0.43737500  0.43737500  0.56000400  1
  Sn  Sn2  1  0.56010000  0.56010000  0.43756200  1
  Bi  Bi3  1  0.06023200  0.06023200  0.94020100  1
  Bi  Bi4  1  0.73123200  0.73123200  0.93490000  1
  Bi  Bi5  1  0.23170500  0.23170500  0.43490800  1
  Bi  Bi6  1  0.26605000  0.26605000  0.06442200  1
  Bi  Bi7  1  0.76640000  0.76640000  0.56549000  1
  Bi  Bi8  1  0.85437400  0.85437400  0.80924100  1
  Bi  Bi9  1  0.35444200  0.35444200  0.31053700  1
  Bi  Bi10  1  0.14399900  0.14399900  0.18827100  1
  Bi  Bi11  1  0.64250800  0.64250800  0.69134300  1
  Te  Te12  1  0.10369400  0.10369400  0.56047000  1
  Te  Te13  1  0.60350700  0.60350700  0.06120800  1
  Te  Te14  1  0.89383700  0.89383700  0.43968700  1
  Te  Te15  1  0.39377400  0.39377400  0.93989800  1
  Te  Te16  1  0.47031000  0.47031000  0.19370700  1
  Te  Te17  1  0.96984800  0.96984800  0.69582500  1
  Te  Te18  1  0.52607400  0.52607400  0.80354700  1
  Te  Te19  1  0.02649100  0.02649100  0.30800100  1
  Te  Te20  1  0.31726400  0.31726400  0.68324500  1
  Te  Te21  1  0.81726700  0.81726700  0.18286900  1
  Te  Te22  1  0.18002500  0.18002500  0.81800700  1
  Te  Te23  1  0.67993700  0.67993700  0.31638300  1
