# generated using pymatgen
data_Sr2La6Cu3IrO16
_symmetry_space_group_name_H-M   'P 1'
_cell_length_a   8.92653121
_cell_length_b   8.92653121
_cell_length_c   11.05876763
_cell_angle_alpha   52.01338987
_cell_angle_beta   52.01338987
_cell_angle_gamma   35.29579066
_symmetry_Int_Tables_number   1
_chemical_formula_structural   Sr2La6Cu3IrO16
_chemical_formula_sum   'Sr2 La6 Cu3 Ir1 O16'
_cell_volume   388.70964873
_cell_formula_units_Z   1
loop_
 _symmetry_equiv_pos_site_id
 _symmetry_equiv_pos_as_xyz
  1  'x, y, z'
loop_
 _atom_site_type_symbol
 _atom_site_label
 _atom_site_symmetry_multiplicity
 _atom_site_fract_x
 _atom_site_fract_y
 _atom_site_fract_z
 _atom_site_occupancy
  Sr  Sr0  1  0.36167300  0.36167300  0.63277800  1
  Sr  Sr1  1  0.63832700  0.63832700  0.36722200  1
  La  La2  1  0.13875800  0.13875800  0.61166500  1
  La  La3  1  0.13992000  0.13992000  0.09716300  1
  La  La4  1  0.86124200  0.86124200  0.38833500  1
  La  La5  1  0.86008000  0.86008000  0.90283700  1
  La  La6  1  0.35665800  0.35665800  0.14137400  1
  La  La7  1  0.64334200  0.64334200  0.85862600  1
  Cu  Cu8  1  0.50627700  0.50627700  0.74700100  1
  Cu  Cu9  1  0.49372300  0.49372300  0.25299900  1
  Cu  Cu10  1  0.00000000  0.00000000  0.00000000  1
  Ir  Ir11  1  0.00000000  0.00000000  0.50000000  1
  O  O12  1  0.24776900  0.73663100  0.13020900  1
  O  O13  1  0.23114200  0.73717800  0.64959500  1
  O  O14  1  0.26336900  0.75223100  0.86979100  1
  O  O15  1  0.26282200  0.76885800  0.35040500  1
  O  O16  1  0.75223100  0.26336900  0.86979100  1
  O  O17  1  0.76885800  0.26282200  0.35040500  1
  O  O18  1  0.73663100  0.24776900  0.13020900  1
  O  O19  1  0.73717800  0.23114200  0.64959500  1
  O  O20  1  0.31345400  0.31345400  0.43411200  1
  O  O21  1  0.31004600  0.31004600  0.97865300  1
  O  O22  1  0.68654600  0.68654600  0.56588800  1
  O  O23  1  0.68995400  0.68995400  0.02134700  1
  O  O24  1  0.16287700  0.16287700  0.35811000  1
  O  O25  1  0.17607800  0.17607800  0.83915300  1
  O  O26  1  0.83712300  0.83712300  0.64189000  1
  O  O27  1  0.82392200  0.82392200  0.16084700  1
