# generated using pymatgen
data_Sr10P6BrO24F
_symmetry_space_group_name_H-M   'P 1'
_cell_length_a   9.99359736
_cell_length_b   9.99359736
_cell_length_c   7.32550300
_cell_angle_alpha   90.00000000
_cell_angle_beta   90.00000000
_cell_angle_gamma   119.99999574
_symmetry_Int_Tables_number   1
_chemical_formula_structural   Sr10P6BrO24F
_chemical_formula_sum   'Sr10 P6 Br1 O24 F1'
_cell_volume   633.59508002
_cell_formula_units_Z   1
loop_
 _symmetry_equiv_pos_site_id
 _symmetry_equiv_pos_as_xyz
  1  'x, y, z'
loop_
 _atom_site_type_symbol
 _atom_site_label
 _atom_site_symmetry_multiplicity
 _atom_site_fract_x
 _atom_site_fract_y
 _atom_site_fract_z
 _atom_site_occupancy
  Sr  Sr0  1  0.66666700  0.33333300  0.49872700  1
  Sr  Sr1  1  0.33333300  0.66666700  0.99907400  1
  Sr  Sr2  1  0.33333300  0.66666700  0.49370900  1
  Sr  Sr3  1  0.66666700  0.33333300  0.00438100  1
  Sr  Sr4  1  0.73438200  0.72515200  0.74364500  1
  Sr  Sr5  1  0.27484800  0.00922900  0.74364500  1
  Sr  Sr6  1  0.99077100  0.26561800  0.74364500  1
  Sr  Sr7  1  0.23850400  0.24395300  0.25053100  1
  Sr  Sr8  1  0.75604700  0.99455100  0.25053100  1
  Sr  Sr9  1  0.00544900  0.76149600  0.25053100  1
  P  P10  1  0.03314200  0.63315500  0.75127800  1
  P  P11  1  0.36684500  0.39998700  0.75127800  1
  P  P12  1  0.60001300  0.96685800  0.75127800  1
  P  P13  1  0.96904500  0.37326400  0.25021600  1
  P  P14  1  0.62673600  0.59578100  0.25021600  1
  P  P15  1  0.40421900  0.03095500  0.25021600  1
  Br  Br16  1  0.00000000  0.00000000  0.91092400  1
  O  O17  1  0.07897300  0.74306100  0.58388900  1
  O  O18  1  0.25693900  0.33591200  0.58388900  1
  O  O19  1  0.66408800  0.92102700  0.58388900  1
  O  O20  1  0.91682900  0.26834500  0.07761100  1
  O  O21  1  0.73165500  0.64848500  0.07761100  1
  O  O22  1  0.35151500  0.08317100  0.07761100  1
  O  O23  1  0.91726600  0.26548800  0.42037800  1
  O  O24  1  0.73451200  0.65177800  0.42037800  1
  O  O25  1  0.34822200  0.08273400  0.42037800  1
  O  O26  1  0.08847900  0.72969800  0.92910200  1
  O  O27  1  0.27030200  0.35878100  0.92910200  1
  O  O28  1  0.64121900  0.91152100  0.92910200  1
  O  O29  1  0.12431600  0.54355900  0.73859800  1
  O  O30  1  0.45644100  0.58075700  0.73859800  1
  O  O31  1  0.41924300  0.87568400  0.73859800  1
  O  O32  1  0.88121800  0.46587100  0.25354800  1
  O  O33  1  0.53412900  0.41534700  0.25354800  1
  O  O34  1  0.58465300  0.11878200  0.25354800  1
  O  O35  1  0.85498400  0.51687900  0.75186700  1
  O  O36  1  0.48312100  0.33810500  0.75186700  1
  O  O37  1  0.66189500  0.14501600  0.75186700  1
  O  O38  1  0.14747300  0.48284600  0.25091900  1
  O  O39  1  0.51715400  0.66462800  0.25091900  1
  O  O40  1  0.33537200  0.85252700  0.25091900  1
  F  F41  1  0.00000000  0.00000000  0.33844200  1
