# generated using pymatgen
data_Sr10P6BrClO24
_symmetry_space_group_name_H-M   'P 1'
_cell_length_a   10.05032049
_cell_length_b   10.05032049
_cell_length_c   7.28661200
_cell_angle_alpha   90.00000000
_cell_angle_beta   90.00000000
_cell_angle_gamma   120.00000321
_symmetry_Int_Tables_number   1
_chemical_formula_structural   Sr10P6BrClO24
_chemical_formula_sum   'Sr10 P6 Br1 Cl1 O24'
_cell_volume   637.40590740
_cell_formula_units_Z   1
loop_
 _symmetry_equiv_pos_site_id
 _symmetry_equiv_pos_as_xyz
  1  'x, y, z'
loop_
 _atom_site_type_symbol
 _atom_site_label
 _atom_site_symmetry_multiplicity
 _atom_site_fract_x
 _atom_site_fract_y
 _atom_site_fract_z
 _atom_site_occupancy
  Sr  Sr0  1  0.33333300  0.66666700  0.49971100  1
  Sr  Sr1  1  0.66666700  0.33333300  0.99968700  1
  Sr  Sr2  1  0.66666700  0.33333300  0.50028900  1
  Sr  Sr3  1  0.33333300  0.66666700  0.00031300  1
  Sr  Sr4  1  0.25370300  0.99284500  0.24806900  1
  Sr  Sr5  1  0.73914200  0.74629700  0.24806900  1
  Sr  Sr6  1  0.00715500  0.26085800  0.24806900  1
  Sr  Sr7  1  0.74629700  0.00715500  0.75193100  1
  Sr  Sr8  1  0.26085800  0.25370300  0.75193100  1
  Sr  Sr9  1  0.99284500  0.73914200  0.75193100  1
  P  P10  1  0.96795800  0.59215300  0.25019800  1
  P  P11  1  0.62419600  0.03204200  0.25019800  1
  P  P12  1  0.40784700  0.37580400  0.25019800  1
  P  P13  1  0.03204200  0.40784700  0.74980200  1
  P  P14  1  0.37580400  0.96795800  0.74980200  1
  P  P15  1  0.59215300  0.62419600  0.74980200  1
  Br  Br16  1  0.00000000  0.00000000  0.50000000  1
  Cl  Cl17  1  0.00000000  0.00000000  0.00000000  1
  O  O18  1  0.91663000  0.64519300  0.42338000  1
  O  O19  1  0.72856200  0.08337000  0.42338000  1
  O  O20  1  0.35480700  0.27143800  0.42338000  1
  O  O21  1  0.08323300  0.35427000  0.92294500  1
  O  O22  1  0.27103600  0.91676700  0.92294500  1
  O  O23  1  0.64573000  0.72896400  0.92294500  1
  O  O24  1  0.08337000  0.35480700  0.57662000  1
  O  O25  1  0.27143800  0.91663000  0.57662000  1
  O  O26  1  0.64519300  0.72856200  0.57662000  1
  O  O27  1  0.91676700  0.64573000  0.07705500  1
  O  O28  1  0.72896400  0.08323300  0.07705500  1
  O  O29  1  0.35427000  0.27103600  0.07705500  1
  O  O30  1  0.14465400  0.65596400  0.24986600  1
  O  O31  1  0.51131000  0.85534600  0.24986600  1
  O  O32  1  0.34403600  0.48869000  0.24986600  1
  O  O33  1  0.85534600  0.34403600  0.75013400  1
  O  O34  1  0.48869000  0.14465400  0.75013400  1
  O  O35  1  0.65596400  0.51131000  0.75013400  1
  O  O36  1  0.87789400  0.41217600  0.24977000  1
  O  O37  1  0.53428200  0.12210600  0.24977000  1
  O  O38  1  0.58782400  0.46571800  0.24977000  1
  O  O39  1  0.12210600  0.58782400  0.75023000  1
  O  O40  1  0.46571800  0.87789400  0.75023000  1
  O  O41  1  0.41217600  0.53428200  0.75023000  1
