# generated using pymatgen
data_Sr10Cu5Mo3(WO15)2
_symmetry_space_group_name_H-M   'P 1'
_cell_length_a   5.49492506
_cell_length_b   5.75274861
_cell_length_c   23.22004494
_cell_angle_alpha   92.75299417
_cell_angle_beta   96.80947459
_cell_angle_gamma   61.46260172
_symmetry_Int_Tables_number   1
_chemical_formula_structural   Sr10Cu5Mo3(WO15)2
_chemical_formula_sum   'Sr10 Cu5 Mo3 W2 O30'
_cell_volume   640.24930669
_cell_formula_units_Z   1
loop_
 _symmetry_equiv_pos_site_id
 _symmetry_equiv_pos_as_xyz
  1  'x, y, z'
loop_
 _atom_site_type_symbol
 _atom_site_label
 _atom_site_symmetry_multiplicity
 _atom_site_fract_x
 _atom_site_fract_y
 _atom_site_fract_z
 _atom_site_occupancy
  Sr  Sr0  1  0.34992200  0.35007000  0.05006200  1
  Sr  Sr1  1  0.54999400  0.54991900  0.64993500  1
  Sr  Sr2  1  0.75022200  0.75004100  0.25034600  1
  Sr  Sr3  1  0.94979100  0.94990500  0.84949400  1
  Sr  Sr4  1  0.14999500  0.15006100  0.45014000  1
  Sr  Sr5  1  0.64977800  0.64995900  0.94965400  1
  Sr  Sr6  1  0.85000600  0.85008100  0.55006500  1
  Sr  Sr7  1  0.05007800  0.04993000  0.14993800  1
  Sr  Sr8  1  0.25000500  0.24993900  0.74986000  1
  Sr  Sr9  1  0.45020900  0.45009500  0.35050600  1
  Cu  Cu10  1  0.70000000  0.70000000  0.10000000  1
  Cu  Cu11  1  0.90006600  0.89989400  0.69997400  1
  Cu  Cu12  1  0.10014000  0.09972200  0.30048300  1
  Cu  Cu13  1  0.29986000  0.30027800  0.89951700  1
  Cu  Cu14  1  0.49993400  0.50010600  0.50002600  1
  Mo  Mo15  1  0.79984500  0.80026100  0.39997200  1
  Mo  Mo16  1  0.20000000  0.20000000  0.60000000  1
  Mo  Mo17  1  0.60015500  0.59973900  0.80002800  1
  W  W18  1  0.99924700  0.00107200  0.99972700  1
  W  W19  1  0.40075300  0.39892800  0.20027300  1
  O  O20  1  0.86209800  0.32166700  0.04589100  1
  O  O21  1  0.06225000  0.52137900  0.64593400  1
  O  O22  1  0.26239700  0.72124100  0.24597900  1
  O  O23  1  0.46270500  0.92051800  0.84585200  1
  O  O24  1  0.66207600  0.12161800  0.44588900  1
  O  O25  1  0.13760300  0.67875900  0.95402100  1
  O  O26  1  0.33775000  0.87862100  0.55406600  1
  O  O27  1  0.53790200  0.07833300  0.15410900  1
  O  O28  1  0.73792400  0.27838200  0.75411200  1
  O  O29  1  0.93729500  0.47948200  0.35414800  1
  O  O30  1  0.48399900  0.57471200  0.14171900  1
  O  O31  1  0.88454300  0.97485700  0.34178400  1
  O  O32  1  0.28422400  0.37478500  0.54175400  1
  O  O33  1  0.68442600  0.77465300  0.74177000  1
  O  O34  1  0.08410300  0.17517100  0.94156300  1
  O  O35  1  0.91600100  0.82528800  0.05828100  1
  O  O36  1  0.31589700  0.22482900  0.25843700  1
  O  O37  1  0.71557400  0.62534700  0.45823000  1
  O  O38  1  0.11577600  0.02521500  0.65824600  1
  O  O39  1  0.51545700  0.42514300  0.85821600  1
  O  O40  1  0.62791300  0.12088500  0.95972000  1
  O  O41  1  0.02808300  0.52014200  0.15990700  1
  O  O42  1  0.42837300  0.92077200  0.35980700  1
  O  O43  1  0.82842400  0.32045600  0.55983300  1
  O  O44  1  0.22843600  0.72032400  0.75981800  1
  O  O45  1  0.37191700  0.87985800  0.04009300  1
  O  O46  1  0.77208700  0.27911500  0.24028000  1
  O  O47  1  0.17156400  0.67967600  0.44018200  1
  O  O48  1  0.57157600  0.07954400  0.64016700  1
  O  O49  1  0.97162700  0.47922800  0.84019300  1
