# generated using pymatgen
data_Sr4Fe4Bi5PbO18
_symmetry_space_group_name_H-M   'P 1'
_cell_length_a   15.87848511
_cell_length_b   15.87848511
_cell_length_c   5.47218300
_cell_angle_alpha   90.00000000
_cell_angle_beta   90.00000000
_cell_angle_gamma   160.15409933
_symmetry_Int_Tables_number   1
_chemical_formula_structural   Sr4Fe4Bi5PbO18
_chemical_formula_sum   'Sr4 Fe4 Bi5 Pb1 O18'
_cell_volume   468.39013202
_cell_formula_units_Z   1
loop_
 _symmetry_equiv_pos_site_id
 _symmetry_equiv_pos_as_xyz
  1  'x, y, z'
loop_
 _atom_site_type_symbol
 _atom_site_label
 _atom_site_symmetry_multiplicity
 _atom_site_fract_x
 _atom_site_fract_y
 _atom_site_fract_z
 _atom_site_occupancy
  Sr  Sr0  1  0.37961800  0.62038200  0.50000000  1
  Sr  Sr1  1  0.87924300  0.12075700  0.00000000  1
  Sr  Sr2  1  0.12200100  0.87799900  0.00000000  1
  Sr  Sr3  1  0.62210800  0.37789200  0.50000000  1
  Fe  Fe4  1  0.56343600  0.43656400  0.00000000  1
  Fe  Fe5  1  0.06647700  0.93352300  0.50000000  1
  Fe  Fe6  1  0.93761600  0.06238400  0.50000000  1
  Fe  Fe7  1  0.43652600  0.56347400  0.00000000  1
  Bi  Bi8  1  0.70662100  0.29337900  0.00000000  1
  Bi  Bi9  1  0.29402400  0.70597600  0.00000000  1
  Bi  Bi10  1  0.79394300  0.20605700  0.50000000  1
  Bi  Bi11  1  0.00104600  0.99895400  0.00000000  1
  Bi  Bi12  1  0.50287700  0.49712300  0.50000000  1
  Pb  Pb13  1  0.20658100  0.79341900  0.50000000  1
  O  O14  1  0.63719400  0.36280600  0.00000000  1
  O  O15  1  0.13245600  0.86754400  0.50000000  1
  O  O16  1  0.86233800  0.13766200  0.50000000  1
  O  O17  1  0.36267800  0.63732200  0.00000000  1
  O  O18  1  0.49993400  0.50006600  0.00000000  1
  O  O19  1  0.00080900  0.99919100  0.50000000  1
  O  O20  1  0.81112900  0.68538300  0.75052100  1
  O  O21  1  0.31461700  0.18887100  0.24947900  1
  O  O22  1  0.31461700  0.18887100  0.75052100  1
  O  O23  1  0.81112900  0.68538300  0.24947900  1
  O  O24  1  0.68615300  0.81544800  0.75075500  1
  O  O25  1  0.18455200  0.31384700  0.24924500  1
  O  O26  1  0.18455200  0.31384700  0.75075500  1
  O  O27  1  0.68615300  0.81544800  0.24924500  1
  O  O28  1  0.79452500  0.20547500  0.00000000  1
  O  O29  1  0.29682000  0.70318000  0.50000000  1
  O  O30  1  0.70402400  0.29597600  0.50000000  1
  O  O31  1  0.20420100  0.79579900  0.00000000  1
