# generated using pymatgen
data_Sr2Cu(OF)2
_symmetry_space_group_name_H-M   'P 1'
_cell_length_a   7.00901336
_cell_length_b   7.00901336
_cell_length_c   7.00901336
_cell_angle_alpha   148.23183592
_cell_angle_beta   143.30827927
_cell_angle_gamma   49.30385801
_symmetry_Int_Tables_number   1
_chemical_formula_structural   Sr2Cu(OF)2
_chemical_formula_sum   'Sr2 Cu1 O2 F2'
_cell_volume   107.83454982
_cell_formula_units_Z   1
loop_
 _symmetry_equiv_pos_site_id
 _symmetry_equiv_pos_as_xyz
  1  'x, y, z'
loop_
 _atom_site_type_symbol
 _atom_site_label
 _atom_site_symmetry_multiplicity
 _atom_site_fract_x
 _atom_site_fract_y
 _atom_site_fract_z
 _atom_site_occupancy
  Sr  Sr0  1  0.65350400  0.65350400  0.00000000  1
  Sr  Sr1  1  0.35084000  0.35084000  0.00000000  1
  Cu  Cu2  1  0.00028300  0.00028300  0.00000000  1
  O  O3  1  0.76189300  0.26189300  0.50000000  1
  O  O4  1  0.00498700  0.50498700  0.50000000  1
  F  F5  1  0.23906300  0.73906300  0.50000000  1
  F  F6  1  0.48942900  0.98942900  0.50000000  1
