# generated using pymatgen
data_Sr10Mg5Mo2(WO10)3
_symmetry_space_group_name_H-M   'P 1'
_cell_length_a   5.65015700
_cell_length_b   5.66142035
_cell_length_c   20.50650229
_cell_angle_alpha   97.68573479
_cell_angle_beta   97.90462078
_cell_angle_gamma   89.88529543
_symmetry_Int_Tables_number   1
_chemical_formula_structural   Sr10Mg5Mo2(WO10)3
_chemical_formula_sum   'Sr10 Mg5 Mo2 W3 O30'
_cell_volume   643.80096176
_cell_formula_units_Z   1
loop_
 _symmetry_equiv_pos_site_id
 _symmetry_equiv_pos_as_xyz
  1  'x, y, z'
loop_
 _atom_site_type_symbol
 _atom_site_label
 _atom_site_symmetry_multiplicity
 _atom_site_fract_x
 _atom_site_fract_y
 _atom_site_fract_z
 _atom_site_occupancy
  Sr  Sr0  1  0.24936500  0.74888500  0.50010900  1
  Sr  Sr1  1  0.64945100  0.14914200  0.30083400  1
  Sr  Sr2  1  0.04928100  0.54900800  0.10014000  1
  Sr  Sr3  1  0.44922400  0.94892500  0.89996300  1
  Sr  Sr4  1  0.84918200  0.34874100  0.69932700  1
  Sr  Sr5  1  0.75063500  0.25111500  0.49989100  1
  Sr  Sr6  1  0.15081800  0.65125900  0.30067300  1
  Sr  Sr7  1  0.55077600  0.05107500  0.10003700  1
  Sr  Sr8  1  0.95071900  0.45099200  0.89986000  1
  Sr  Sr9  1  0.35054900  0.85085800  0.69916600  1
  Mg  Mg10  1  0.19998700  0.19997600  0.40001000  1
  Mg  Mg11  1  0.59996300  0.59995500  0.20000400  1
  Mg  Mg12  1  0.00000000  0.00000000  0.00000000  1
  Mg  Mg13  1  0.40003700  0.40004500  0.79999600  1
  Mg  Mg14  1  0.80001300  0.80002400  0.59999000  1
  Mo  Mo15  1  0.29997800  0.29993100  0.59989800  1
  Mo  Mo16  1  0.70002200  0.70006900  0.40010200  1
  W  W17  1  0.09999300  0.10005700  0.20013200  1
  W  W18  1  0.50000000  0.50000000  0.00000000  1
  W  W19  1  0.90000700  0.89994300  0.79986800  1
  O  O20  1  0.57271600  0.50922500  0.59910800  1
  O  O21  1  0.97276800  0.90934200  0.39933400  1
  O  O22  1  0.37357000  0.30936200  0.19931400  1
  O  O23  1  0.77354800  0.70936300  0.99919900  1
  O  O24  1  0.17355600  0.10925200  0.79906300  1
  O  O25  1  0.42728400  0.49077500  0.40089200  1
  O  O26  1  0.82644400  0.89074800  0.20093700  1
  O  O27  1  0.22645200  0.29063700  0.00080100  1
  O  O28  1  0.62643000  0.69063800  0.80068600  1
  O  O29  1  0.02723200  0.09065800  0.60066600  1
  O  O30  1  0.23684400  0.26510200  0.50324000  1
  O  O31  1  0.63686500  0.66519900  0.30352000  1
  O  O32  1  0.03648600  0.06518700  0.10319000  1
  O  O33  1  0.43651100  0.46515700  0.90309000  1
  O  O34  1  0.83650100  0.86509500  0.70289400  1
  O  O35  1  0.76315600  0.73489800  0.49676000  1
  O  O36  1  0.16349900  0.13490500  0.29710600  1
  O  O37  1  0.56348900  0.53484300  0.09691000  1
  O  O38  1  0.96351400  0.93481300  0.89681000  1
  O  O39  1  0.36313500  0.33480100  0.69648000  1
  O  O40  1  0.50771200  0.02502500  0.59486000  1
  O  O41  1  0.90790800  0.42524400  0.39509600  1
  O  O42  1  0.30788700  0.82435700  0.19500400  1
  O  O43  1  0.70787400  0.22427900  0.99488600  1
  O  O44  1  0.10770900  0.62413200  0.79474400  1
  O  O45  1  0.49228800  0.97497500  0.40514000  1
  O  O46  1  0.89229100  0.37586800  0.20525600  1
  O  O47  1  0.29212600  0.77572100  0.00511400  1
  O  O48  1  0.69211300  0.17564300  0.80499600  1
  O  O49  1  0.09209200  0.57475600  0.60490400  1
