# generated using pymatgen
data_SmU2Se5
_symmetry_space_group_name_H-M   'P 1'
_cell_length_a   7.77460800
_cell_length_b   8.30267000
_cell_length_c   12.31905300
_cell_angle_alpha   90.00000000
_cell_angle_beta   90.00000000
_cell_angle_gamma   90.00000000
_symmetry_Int_Tables_number   1
_chemical_formula_structural   SmU2Se5
_chemical_formula_sum   'Sm4 U8 Se20'
_cell_volume   795.19492786
_cell_formula_units_Z   4
loop_
 _symmetry_equiv_pos_site_id
 _symmetry_equiv_pos_as_xyz
  1  'x, y, z'
loop_
 _atom_site_type_symbol
 _atom_site_label
 _atom_site_symmetry_multiplicity
 _atom_site_fract_x
 _atom_site_fract_y
 _atom_site_fract_z
 _atom_site_occupancy
  Sm  Sm0  1  0.02539200  0.50239300  0.82044000  1
  Sm  Sm1  1  0.97460800  0.00239300  0.17956000  1
  Sm  Sm2  1  0.52539200  0.00239300  0.67956000  1
  Sm  Sm3  1  0.47460800  0.50239300  0.32044000  1
  U  U4  1  0.57631200  0.24846200  0.99282600  1
  U  U5  1  0.92368800  0.24846200  0.49282600  1
  U  U6  1  0.42368800  0.74846200  0.00717400  1
  U  U7  1  0.07631200  0.74846200  0.50717400  1
  U  U8  1  0.47650200  0.00022400  0.32046700  1
  U  U9  1  0.52349800  0.50022400  0.67953300  1
  U  U10  1  0.97650200  0.50022400  0.17953300  1
  U  U11  1  0.02349800  0.00022400  0.82046700  1
  Se  Se12  1  0.33568400  0.04346900  0.09885100  1
  Se  Se13  1  0.17054500  0.45313500  0.59616800  1
  Se  Se14  1  0.66431600  0.54346900  0.90114900  1
  Se  Se15  1  0.82945500  0.95313500  0.40383200  1
  Se  Se16  1  0.67054500  0.95313500  0.90383200  1
  Se  Se17  1  0.83568400  0.54346900  0.40114900  1
  Se  Se18  1  0.32945500  0.45313500  0.09616800  1
  Se  Se19  1  0.16431600  0.04346900  0.59885100  1
  Se  Se20  1  0.96096100  0.25141200  0.99994500  1
  Se  Se21  1  0.53903900  0.25141200  0.49994500  1
  Se  Se22  1  0.03903900  0.75141200  0.00005500  1
  Se  Se23  1  0.46096100  0.75141200  0.50005500  1
  Se  Se24  1  0.33043500  0.25017400  0.81380200  1
  Se  Se25  1  0.16956500  0.25017400  0.31380200  1
  Se  Se26  1  0.66956500  0.75017400  0.18619800  1
  Se  Se27  1  0.83043500  0.75017400  0.68619800  1
  Se  Se28  1  0.69650000  0.25073000  0.21733900  1
  Se  Se29  1  0.80350000  0.25073000  0.71733900  1
  Se  Se30  1  0.30350000  0.75073000  0.78266100  1
  Se  Se31  1  0.19650000  0.75073000  0.28266100  1
