# generated using pymatgen
data_Sr2Ca2NdMn5O15
_symmetry_space_group_name_H-M   'P 1'
_cell_length_a   5.48968100
_cell_length_b   9.37559817
_cell_length_c   12.01326658
_cell_angle_alpha   97.45301555
_cell_angle_beta   102.64957969
_cell_angle_gamma   104.61432929
_symmetry_Int_Tables_number   1
_chemical_formula_structural   Sr2Ca2NdMn5O15
_chemical_formula_sum   'Sr4 Ca4 Nd2 Mn10 O30'
_cell_volume   572.47208740
_cell_formula_units_Z   2
loop_
 _symmetry_equiv_pos_site_id
 _symmetry_equiv_pos_as_xyz
  1  'x, y, z'
loop_
 _atom_site_type_symbol
 _atom_site_label
 _atom_site_symmetry_multiplicity
 _atom_site_fract_x
 _atom_site_fract_y
 _atom_site_fract_z
 _atom_site_occupancy
  Sr  Sr0  1  0.14919800  0.35018100  0.95034100  1
  Sr  Sr1  1  0.54726000  0.94806400  0.14941600  1
  Sr  Sr2  1  0.94879000  0.55164600  0.34865300  1
  Sr  Sr3  1  0.35240600  0.15008400  0.55305200  1
  Ca  Ca4  1  0.45112200  0.04753700  0.84841500  1
  Ca  Ca5  1  0.84610000  0.65174100  0.04683500  1
  Ca  Ca6  1  0.65164500  0.84787200  0.44721100  1
  Ca  Ca7  1  0.05321500  0.45110100  0.65350600  1
  Nd  Nd8  1  0.75314300  0.74998400  0.74833100  1
  Nd  Nd9  1  0.24866500  0.24993400  0.25148000  1
  Mn  Mn10  1  0.50063600  0.50039000  0.50105000  1
  Mn  Mn11  1  0.70053600  0.30061200  0.09822600  1
  Mn  Mn12  1  0.09853300  0.89818200  0.30041000  1
  Mn  Mn13  1  0.90191900  0.10133200  0.70011000  1
  Mn  Mn14  1  0.29959000  0.69975800  0.90003900  1
  Mn  Mn15  1  0.59981900  0.39840600  0.80012400  1
  Mn  Mn16  1  0.79964200  0.19896400  0.40186800  1
  Mn  Mn17  1  0.20023500  0.80064000  0.59968500  1
  Mn  Mn18  1  0.99914200  0.99943800  0.99843100  1
  Mn  Mn19  1  0.40075600  0.60213700  0.20006700  1
  O  O20  1  0.15747900  0.34861100  0.44534300  1
  O  O21  1  0.34115300  0.15273500  0.05343100  1
  O  O22  1  0.74298200  0.75218600  0.25264800  1
  O  O23  1  0.54914700  0.94173300  0.65732000  1
  O  O24  1  0.95468800  0.55504600  0.84622300  1
  O  O25  1  0.25075800  0.25398900  0.75204900  1
  O  O26  1  0.45206200  0.05536300  0.34866300  1
  O  O27  1  0.84459400  0.65395600  0.55447500  1
  O  O28  1  0.65246500  0.84840300  0.94035300  1
  O  O29  1  0.05162300  0.43941600  0.15241000  1
  O  O30  1  0.43093700  0.58298000  0.36167400  1
  O  O31  1  0.63870600  0.38896600  0.96259400  1
  O  O32  1  0.03115500  0.98496700  0.16076800  1
  O  O33  1  0.83456700  0.18746200  0.56231500  1
  O  O34  1  0.21551900  0.78340900  0.76098900  1
  O  O35  1  0.99234000  0.01778200  0.83970000  1
  O  O36  1  0.19975100  0.82617100  0.44348400  1
  O  O37  1  0.59800400  0.42880800  0.64295400  1
  O  O38  1  0.39430600  0.62698700  0.04133100  1
  O  O39  1  0.78730100  0.22455200  0.24167700  1
  O  O40  1  0.74377900  0.23275000  0.77836800  1
  O  O41  1  0.95365000  0.03838800  0.37880000  1
  O  O42  1  0.35370300  0.63550700  0.58392500  1
  O  O43  1  0.14737900  0.83437200  0.97731600  1
  O  O44  1  0.54541700  0.43420800  0.17730600  1
  O  O45  1  0.02217500  0.95204700  0.61740600  1
  O  O46  1  0.21657600  0.74976000  0.21609300  1
  O  O47  1  0.63250200  0.35690500  0.41871900  1
  O  O48  1  0.44381700  0.56365700  0.81744600  1
  O  O49  1  0.81911200  0.15088200  0.01697300  1
