# generated using pymatgen
data_SmDyC4
_symmetry_space_group_name_H-M   'P 1'
_cell_length_a   3.71237400
_cell_length_b   4.11463633
_cell_length_c   6.68065008
_cell_angle_alpha   84.27130143
_cell_angle_beta   73.86835454
_cell_angle_gamma   63.18455609
_symmetry_Int_Tables_number   1
_chemical_formula_structural   SmDyC4
_chemical_formula_sum   'Sm1 Dy1 C4'
_cell_volume   87.44892226
_cell_formula_units_Z   1
loop_
 _symmetry_equiv_pos_site_id
 _symmetry_equiv_pos_as_xyz
  1  'x, y, z'
loop_
 _atom_site_type_symbol
 _atom_site_label
 _atom_site_symmetry_multiplicity
 _atom_site_fract_x
 _atom_site_fract_y
 _atom_site_fract_z
 _atom_site_occupancy
  Sm  Sm0  1  0.00000000  0.00000000  0.00000000  1
  Dy  Dy1  1  0.00000000  0.50000000  0.50000000  1
  C  C2  1  0.59696200  0.59877100  0.20730500  1
  C  C3  1  0.60932200  0.09055500  0.69080100  1
  C  C4  1  0.40303800  0.40122900  0.79269500  1
  C  C5  1  0.39067800  0.90944500  0.30919900  1
