# generated using pymatgen
data_Sn5Ge2(SbTe5)2
_symmetry_space_group_name_H-M   'P 1'
_cell_length_a   4.40253874
_cell_length_b   4.40253874
_cell_length_c   37.64248033
_cell_angle_alpha   90.00000000
_cell_angle_beta   86.64752591
_cell_angle_gamma   120.00000000
_symmetry_Int_Tables_number   1
_chemical_formula_structural   Sn5Ge2(SbTe5)2
_chemical_formula_sum   'Sn5 Ge2 Sb2 Te10'
_cell_volume   630.40966649
_cell_formula_units_Z   1
loop_
 _symmetry_equiv_pos_site_id
 _symmetry_equiv_pos_as_xyz
  1  'x, y, z'
loop_
 _atom_site_type_symbol
 _atom_site_label
 _atom_site_symmetry_multiplicity
 _atom_site_fract_x
 _atom_site_fract_y
 _atom_site_fract_z
 _atom_site_occupancy
  Sn  Sn0  1  0.29961200  0.14980600  0.55058200  1
  Sn  Sn1  1  0.89799400  0.44899700  0.65300900  1
  Sn  Sn2  1  0.49761200  0.74880600  0.75358200  1
  Sn  Sn3  1  0.09677800  0.04838900  0.85483300  1
  Sn  Sn4  1  0.69422600  0.34711300  0.95866000  1
  Ge  Ge5  1  0.09561600  0.54780800  0.35657700  1
  Ge  Ge6  1  0.69888700  0.84944400  0.45166900  1
  Sb  Sb7  1  0.90363400  0.95181700  0.14454800  1
  Sb  Sb8  1  0.49786900  0.24893400  0.25319700  1
  Te  Te9  1  0.40160900  0.70080400  0.89758700  1
  Te  Te10  1  0.20252300  0.10126200  0.69621500  1
  Te  Te11  1  0.80242600  0.40121300  0.79636200  1
  Te  Te12  1  0.00708100  0.50354000  0.48937900  1
  Te  Te13  1  0.60360100  0.80180000  0.59459900  1
  Te  Te14  1  0.40346100  0.20173000  0.39480900  1
  Te  Te15  1  0.19859600  0.59929800  0.20210500  1
  Te  Te16  1  0.79985000  0.89992500  0.30022600  1
  Te  Te17  1  0.99948000  0.99974000  0.00078000  1
  Te  Te18  1  0.59914600  0.29957300  0.10128100  1
