# generated using pymatgen
data_SmGePt
_symmetry_space_group_name_H-M   'P 1'
_cell_length_a   4.40662700
_cell_length_b   5.79655463
_cell_length_c   5.72389177
_cell_angle_alpha   94.29158250
_cell_angle_beta   112.63957188
_cell_angle_gamma   67.65965722
_symmetry_Int_Tables_number   1
_chemical_formula_structural   SmGePt
_chemical_formula_sum   'Sm2 Ge2 Pt2'
_cell_volume   124.37409652
_cell_formula_units_Z   2
loop_
 _symmetry_equiv_pos_site_id
 _symmetry_equiv_pos_as_xyz
  1  'x, y, z'
loop_
 _atom_site_type_symbol
 _atom_site_label
 _atom_site_symmetry_multiplicity
 _atom_site_fract_x
 _atom_site_fract_y
 _atom_site_fract_z
 _atom_site_occupancy
  Sm  Sm0  1  0.76317600  0.68911800  0.21546900  1
  Sm  Sm1  1  0.23682400  0.31088200  0.78453100  1
  Ge  Ge2  1  0.06586100  0.09587600  0.22759700  1
  Ge  Ge3  1  0.93413900  0.90412400  0.77240300  1
  Pt  Pt4  1  0.54097900  0.27940000  0.36135800  1
  Pt  Pt5  1  0.45902100  0.72060000  0.63864200  1
