# generated using pymatgen
data_SmBiS3
_symmetry_space_group_name_H-M   'P 1'
_cell_length_a   4.04602300
_cell_length_b   10.92831000
_cell_length_c   11.04244500
_cell_angle_alpha   90.00000000
_cell_angle_beta   90.00000000
_cell_angle_gamma   90.00000000
_symmetry_Int_Tables_number   1
_chemical_formula_structural   SmBiS3
_chemical_formula_sum   'Sm4 Bi4 S12'
_cell_volume   488.25488606
_cell_formula_units_Z   4
loop_
 _symmetry_equiv_pos_site_id
 _symmetry_equiv_pos_as_xyz
  1  'x, y, z'
loop_
 _atom_site_type_symbol
 _atom_site_label
 _atom_site_symmetry_multiplicity
 _atom_site_fract_x
 _atom_site_fract_y
 _atom_site_fract_z
 _atom_site_occupancy
  Sm  Sm0  1  0.25000000  0.17311600  0.49156200  1
  Sm  Sm1  1  0.25000000  0.32688400  0.99156200  1
  Sm  Sm2  1  0.75000000  0.82688400  0.50843800  1
  Sm  Sm3  1  0.75000000  0.67311600  0.00843800  1
  Bi  Bi4  1  0.75000000  0.46932400  0.67474900  1
  Bi  Bi5  1  0.75000000  0.03067600  0.17474900  1
  Bi  Bi6  1  0.25000000  0.53067600  0.32525100  1
  Bi  Bi7  1  0.25000000  0.96932400  0.82525100  1
  S  S8  1  0.25000000  0.63518400  0.54431100  1
  S  S9  1  0.25000000  0.86481600  0.04431100  1
  S  S10  1  0.75000000  0.36481600  0.45568900  1
  S  S11  1  0.75000000  0.13518400  0.95568900  1
  S  S12  1  0.75000000  0.06033200  0.61552500  1
  S  S13  1  0.75000000  0.43966800  0.11552500  1
  S  S14  1  0.25000000  0.93966800  0.38447500  1
  S  S15  1  0.25000000  0.56033200  0.88447500  1
  S  S16  1  0.25000000  0.30620400  0.72616800  1
  S  S17  1  0.25000000  0.19379600  0.22616800  1
  S  S18  1  0.75000000  0.69379600  0.27383200  1
  S  S19  1  0.75000000  0.80620400  0.77383200  1
