# generated using pymatgen
data_Sm2TiCuO6
_symmetry_space_group_name_H-M   'P 1'
_cell_length_a   5.83971200
_cell_length_b   5.44905500
_cell_length_c   9.29748321
_cell_angle_alpha   54.44472298
_cell_angle_beta   90.00000000
_cell_angle_gamma   90.00000000
_symmetry_Int_Tables_number   1
_chemical_formula_structural   Sm2TiCuO6
_chemical_formula_sum   'Sm4 Ti2 Cu2 O12'
_cell_volume   240.69379107
_cell_formula_units_Z   2
loop_
 _symmetry_equiv_pos_site_id
 _symmetry_equiv_pos_as_xyz
  1  'x, y, z'
loop_
 _atom_site_type_symbol
 _atom_site_label
 _atom_site_symmetry_multiplicity
 _atom_site_fract_x
 _atom_site_fract_y
 _atom_site_fract_z
 _atom_site_occupancy
  Sm  Sm0  1  0.92850100  0.73227500  0.75051200  1
  Sm  Sm1  1  0.42850100  0.26772500  0.74948800  1
  Sm  Sm2  1  0.07149900  0.26772500  0.24948800  1
  Sm  Sm3  1  0.57149900  0.73227500  0.25051200  1
  Ti  Ti4  1  0.50000000  0.00000000  0.50000000  1
  Ti  Ti5  1  0.00000000  0.00000000  0.00000000  1
  Cu  Cu6  1  0.50000000  0.50000000  0.00000000  1
  Cu  Cu7  1  0.00000000  0.50000000  0.50000000  1
  O  O8  1  0.53556300  0.85355600  0.75156500  1
  O  O9  1  0.03556300  0.14644400  0.74843500  1
  O  O10  1  0.46443700  0.14644400  0.24843500  1
  O  O11  1  0.96443700  0.85355600  0.25156500  1
  O  O12  1  0.17836600  0.34444400  0.94781900  1
  O  O13  1  0.67836600  0.65555600  0.55218100  1
  O  O14  1  0.79088800  0.23691800  0.44503400  1
  O  O15  1  0.29088800  0.76308200  0.05496600  1
  O  O16  1  0.82163400  0.65555600  0.05218100  1
  O  O17  1  0.32163400  0.34444400  0.44781900  1
  O  O18  1  0.20911200  0.76308200  0.55496600  1
  O  O19  1  0.70911200  0.23691800  0.94503400  1
