# generated using pymatgen
data_Sm4CrFe33C4
_symmetry_space_group_name_H-M   'P 1'
_cell_length_a   6.50403639
_cell_length_b   6.48021192
_cell_length_c   13.00634797
_cell_angle_alpha   83.55663481
_cell_angle_beta   83.54938490
_cell_angle_gamma   83.68356637
_symmetry_Int_Tables_number   1
_chemical_formula_structural   Sm4CrFe33C4
_chemical_formula_sum   'Sm4 Cr1 Fe33 C4'
_cell_volume   538.63361783
_cell_formula_units_Z   1
loop_
 _symmetry_equiv_pos_site_id
 _symmetry_equiv_pos_as_xyz
  1  'x, y, z'
loop_
 _atom_site_type_symbol
 _atom_site_label
 _atom_site_symmetry_multiplicity
 _atom_site_fract_x
 _atom_site_fract_y
 _atom_site_fract_z
 _atom_site_occupancy
  Sm  Sm0  1  0.66497100  0.65012100  0.32532100  1
  Sm  Sm1  1  0.66709800  0.65114600  0.82553300  1
  Sm  Sm2  1  0.33305500  0.34924800  0.17490000  1
  Sm  Sm3  1  0.34060000  0.35571100  0.67715900  1
  Cr  Cr4  1  0.09260000  0.09324500  0.54702200  1
  Fe  Fe5  1  0.85400000  0.34156700  0.17074200  1
  Fe  Fe6  1  0.85508400  0.34366200  0.67128800  1
  Fe  Fe7  1  0.33952700  0.34314800  0.42742800  1
  Fe  Fe8  1  0.34152900  0.34412900  0.92748300  1
  Fe  Fe9  1  0.34084000  0.85444000  0.17147100  1
  Fe  Fe10  1  0.34026300  0.85458000  0.67215000  1
  Fe  Fe11  1  0.14338100  0.65605700  0.32971900  1
  Fe  Fe12  1  0.14611800  0.65842400  0.82809300  1
  Fe  Fe13  1  0.65898300  0.65684200  0.07257200  1
  Fe  Fe14  1  0.66192800  0.65686100  0.57200700  1
  Fe  Fe15  1  0.65985600  0.14440500  0.32889800  1
  Fe  Fe16  1  0.66105900  0.14561800  0.82793600  1
  Fe  Fe17  1  0.28511800  0.71223500  0.49878400  1
  Fe  Fe18  1  0.28528200  0.71507600  0.99912600  1
  Fe  Fe19  1  0.71320000  0.00158000  0.14279600  1
  Fe  Fe20  1  0.71207200  0.00063500  0.64179200  1
  Fe  Fe21  1  0.00014200  0.28218700  0.35865200  1
  Fe  Fe22  1  0.00036700  0.28431500  0.85798600  1
  Fe  Fe23  1  0.28478000  0.99637200  0.35641200  1
  Fe  Fe24  1  0.28548100  0.99904300  0.85690600  1
  Fe  Fe25  1  0.99979500  0.71723400  0.14138600  1
  Fe  Fe26  1  0.00199800  0.71545500  0.64120400  1
  Fe  Fe27  1  0.71446800  0.28443200  0.00073100  1
  Fe  Fe28  1  0.71117800  0.28401600  0.50079900  1
  Fe  Fe29  1  0.99894000  0.99929900  0.25024000  1
  Fe  Fe30  1  0.00051300  0.00107200  0.74890500  1
  Fe  Fe31  1  0.99992300  0.49804800  0.50063200  1
  Fe  Fe32  1  0.00035500  0.50004000  0.99957200  1
  Fe  Fe33  1  0.49972300  0.00001900  0.99961600  1
  Fe  Fe34  1  0.49709100  0.99983600  0.50038200  1
  Fe  Fe35  1  0.90846800  0.90927100  0.45298900  1
  Fe  Fe36  1  0.90399900  0.90389600  0.95267700  1
  Fe  Fe37  1  0.09594900  0.09516700  0.04795800  1
  C  C38  1  0.50014500  0.50025900  0.00023500  1
  C  C39  1  0.50006400  0.50037800  0.50006200  1
  C  C40  1  0.50003600  0.00041900  0.25041300  1
  C  C41  1  0.50002200  0.00051200  0.75002000  1
