# generated using pymatgen
data_Sm4TiFe33N4
_symmetry_space_group_name_H-M   'P 1'
_cell_length_a   6.57064778
_cell_length_b   6.49241448
_cell_length_c   13.04515510
_cell_angle_alpha   83.09961338
_cell_angle_beta   83.62829562
_cell_angle_gamma   83.71178400
_symmetry_Int_Tables_number   1
_chemical_formula_structural   Sm4TiFe33N4
_chemical_formula_sum   'Sm4 Ti1 Fe33 N4'
_cell_volume   546.43843625
_cell_formula_units_Z   1
loop_
 _symmetry_equiv_pos_site_id
 _symmetry_equiv_pos_as_xyz
  1  'x, y, z'
loop_
 _atom_site_type_symbol
 _atom_site_label
 _atom_site_symmetry_multiplicity
 _atom_site_fract_x
 _atom_site_fract_y
 _atom_site_fract_z
 _atom_site_occupancy
  Sm  Sm0  1  0.65948200  0.65798200  0.32895900  1
  Sm  Sm1  1  0.65929400  0.65757800  0.82948700  1
  Sm  Sm2  1  0.34079400  0.34242600  0.17091100  1
  Sm  Sm3  1  0.34750400  0.34897300  0.67415500  1
  Ti  Ti4  1  0.09398900  0.09293300  0.54653400  1
  Fe  Fe5  1  0.28227900  0.71678600  0.00066300  1
  Fe  Fe6  1  0.28251700  0.71396100  0.49974700  1
  Fe  Fe7  1  0.71831000  0.99804500  0.14189900  1
  Fe  Fe8  1  0.71473800  0.99623900  0.64196600  1
  Fe  Fe9  1  0.99975900  0.29230900  0.35415400  1
  Fe  Fe10  1  0.99992000  0.28931800  0.85548600  1
  Fe  Fe11  1  0.28304800  0.99909400  0.35673500  1
  Fe  Fe12  1  0.28122900  0.00257300  0.85798800  1
  Fe  Fe13  1  0.00027900  0.71108500  0.14423100  1
  Fe  Fe14  1  0.99963600  0.70739000  0.64638100  1
  Fe  Fe15  1  0.71775500  0.28334100  0.99914900  1
  Fe  Fe16  1  0.71457600  0.28259500  0.49874000  1
  Fe  Fe17  1  0.34046400  0.34638500  0.42669000  1
  Fe  Fe18  1  0.33893500  0.34549200  0.92771800  1
  Fe  Fe19  1  0.33993000  0.85421800  0.17221300  1
  Fe  Fe20  1  0.34072100  0.85317800  0.67335500  1
  Fe  Fe21  1  0.85438800  0.34304400  0.17169700  1
  Fe  Fe22  1  0.85199700  0.34447700  0.67243400  1
  Fe  Fe23  1  0.66124300  0.65446800  0.07250600  1
  Fe  Fe24  1  0.66082500  0.65458600  0.57241800  1
  Fe  Fe25  1  0.66047800  0.14508600  0.32718000  1
  Fe  Fe26  1  0.66030400  0.14553900  0.82761900  1
  Fe  Fe27  1  0.14530000  0.65668900  0.32791000  1
  Fe  Fe28  1  0.14530100  0.65692400  0.82859400  1
  Fe  Fe29  1  0.99997800  0.99988200  0.25019900  1
  Fe  Fe30  1  0.99856800  0.99965100  0.75125100  1
  Fe  Fe31  1  0.99844300  0.50328100  0.49988500  1
  Fe  Fe32  1  0.00007900  0.49997800  0.99987600  1
  Fe  Fe33  1  0.50005900  0.99982200  0.99978800  1
  Fe  Fe34  1  0.50327300  0.99837000  0.49937500  1
  Fe  Fe35  1  0.90364200  0.90537600  0.45123200  1
  Fe  Fe36  1  0.90452300  0.90473700  0.95269600  1
  Fe  Fe37  1  0.09510900  0.09470700  0.04793700  1
  N  N38  1  0.49984300  0.49999100  0.00013400  1
  N  N39  1  0.50092400  0.50071300  0.49994100  1
  N  N40  1  0.50182700  0.00096700  0.24894900  1
  N  N41  1  0.49873400  0.99980800  0.75121700  1
