# generated using pymatgen
data_Sm2In3Cu
_symmetry_space_group_name_H-M   'P 1'
_cell_length_a   4.75247691
_cell_length_b   4.75247691
_cell_length_c   7.59013300
_cell_angle_alpha   90.00000000
_cell_angle_beta   90.00000000
_cell_angle_gamma   120.00001270
_symmetry_Int_Tables_number   1
_chemical_formula_structural   Sm2In3Cu
_chemical_formula_sum   'Sm2 In3 Cu1'
_cell_volume   148.46360214
_cell_formula_units_Z   1
loop_
 _symmetry_equiv_pos_site_id
 _symmetry_equiv_pos_as_xyz
  1  'x, y, z'
loop_
 _atom_site_type_symbol
 _atom_site_label
 _atom_site_symmetry_multiplicity
 _atom_site_fract_x
 _atom_site_fract_y
 _atom_site_fract_z
 _atom_site_occupancy
  Sm  Sm0  1  0.33333300  0.66666700  0.72417300  1
  Sm  Sm1  1  0.33333300  0.66666700  0.26354200  1
  In  In2  1  0.00000000  0.00000000  0.48415500  1
  In  In3  1  0.00000000  0.00000000  0.05117900  1
  In  In4  1  0.66666700  0.33333300  0.93540700  1
  Cu  Cu5  1  0.66666700  0.33333300  0.54154400  1
