# generated using pymatgen
data_Sm4Cr3Fe31
_symmetry_space_group_name_H-M   'P 1'
_cell_length_a   6.39432035
_cell_length_b   6.39432035
_cell_length_c   12.83213356
_cell_angle_alpha   82.48567993
_cell_angle_beta   82.48567993
_cell_angle_gamma   82.47096233
_symmetry_Int_Tables_number   1
_chemical_formula_structural   Sm4Cr3Fe31
_chemical_formula_sum   'Sm4 Cr3 Fe31'
_cell_volume   512.22296783
_cell_formula_units_Z   1
loop_
 _symmetry_equiv_pos_site_id
 _symmetry_equiv_pos_as_xyz
  1  'x, y, z'
loop_
 _atom_site_type_symbol
 _atom_site_label
 _atom_site_symmetry_multiplicity
 _atom_site_fract_x
 _atom_site_fract_y
 _atom_site_fract_z
 _atom_site_occupancy
  Sm  Sm0  1  0.65954000  0.65954000  0.32855800  1
  Sm  Sm1  1  0.65575900  0.65575900  0.82882100  1
  Sm  Sm2  1  0.34367500  0.34367500  0.17086300  1
  Sm  Sm3  1  0.34532300  0.34532300  0.67405000  1
  Cr  Cr4  1  0.91226200  0.91226200  0.95539300  1
  Cr  Cr5  1  0.08822800  0.08822800  0.04524000  1
  Cr  Cr6  1  0.09225900  0.09225900  0.54641200  1
  Fe  Fe7  1  0.00110000  0.00110000  0.24801500  1
  Fe  Fe8  1  0.99952800  0.99952800  0.75101100  1
  Fe  Fe9  1  0.00084800  0.49876000  0.50105800  1
  Fe  Fe10  1  0.99976400  0.50050100  0.99940200  1
  Fe  Fe11  1  0.50050100  0.99976400  0.99940200  1
  Fe  Fe12  1  0.49876000  0.00084800  0.50105800  1
  Fe  Fe13  1  0.84533200  0.34105500  0.16883900  1
  Fe  Fe14  1  0.84459000  0.33864800  0.67066800  1
  Fe  Fe15  1  0.33927400  0.33927400  0.42254500  1
  Fe  Fe16  1  0.33826400  0.33826400  0.92345300  1
  Fe  Fe17  1  0.34105500  0.84533200  0.16883900  1
  Fe  Fe18  1  0.33864800  0.84459000  0.67066800  1
  Fe  Fe19  1  0.15614200  0.65911600  0.32957600  1
  Fe  Fe20  1  0.15515400  0.66037000  0.83008200  1
  Fe  Fe21  1  0.66167400  0.66167400  0.07649400  1
  Fe  Fe22  1  0.65999800  0.65999800  0.57856400  1
  Fe  Fe23  1  0.65911600  0.15614200  0.32957600  1
  Fe  Fe24  1  0.66037000  0.15515400  0.83008200  1
  Fe  Fe25  1  0.29639600  0.70222300  0.50008800  1
  Fe  Fe26  1  0.29416700  0.70579600  0.99971300  1
  Fe  Fe27  1  0.70565200  0.99975800  0.14602400  1
  Fe  Fe28  1  0.70429600  0.99892200  0.64711800  1
  Fe  Fe29  1  0.99888300  0.29392200  0.35229000  1
  Fe  Fe30  1  0.00071800  0.29348000  0.85391100  1
  Fe  Fe31  1  0.29392200  0.99888300  0.35229000  1
  Fe  Fe32  1  0.29348000  0.00071800  0.85391100  1
  Fe  Fe33  1  0.99975800  0.70565200  0.14602400  1
  Fe  Fe34  1  0.99892200  0.70429600  0.64711800  1
  Fe  Fe35  1  0.70222300  0.29639600  0.50008800  1
  Fe  Fe36  1  0.70579600  0.29416700  0.99971300  1
  Fe  Fe37  1  0.90862300  0.90862300  0.45304400  1
