# generated using pymatgen
data_Sm8Al53Si17Ru12
_symmetry_space_group_name_H-M   'P 1'
_cell_length_a   11.48491000
_cell_length_b   11.49661950
_cell_length_c   11.57391521
_cell_angle_alpha   89.93285446
_cell_angle_beta   89.97324791
_cell_angle_gamma   89.98311022
_symmetry_Int_Tables_number   1
_chemical_formula_structural   Sm8Al53Si17Ru12
_chemical_formula_sum   'Sm8 Al53 Si17 Ru12'
_cell_volume   1528.19117039
_cell_formula_units_Z   1
loop_
 _symmetry_equiv_pos_site_id
 _symmetry_equiv_pos_as_xyz
  1  'x, y, z'
loop_
 _atom_site_type_symbol
 _atom_site_label
 _atom_site_symmetry_multiplicity
 _atom_site_fract_x
 _atom_site_fract_y
 _atom_site_fract_z
 _atom_site_occupancy
  Sm  Sm0  1  0.67828900  0.67785600  0.67731200  1
  Sm  Sm1  1  0.32267000  0.67767800  0.32210600  1
  Sm  Sm2  1  0.32255100  0.32301000  0.67720100  1
  Sm  Sm3  1  0.67781200  0.32306700  0.32273300  1
  Sm  Sm4  1  0.32310800  0.32282500  0.32346600  1
  Sm  Sm5  1  0.67681100  0.32159700  0.67681900  1
  Sm  Sm6  1  0.67734500  0.67692000  0.32239900  1
  Sm  Sm7  1  0.32138300  0.67639200  0.67718600  1
  Al  Al8  1  0.87362100  0.87442900  0.63676400  1
  Al  Al9  1  0.87435100  0.63490700  0.87267500  1
  Al  Al10  1  0.63466800  0.87346300  0.87284700  1
  Al  Al11  1  0.12615600  0.87464500  0.36326900  1
  Al  Al12  1  0.12633300  0.63456100  0.12549800  1
  Al  Al13  1  0.36198900  0.87435600  0.12682800  1
  Al  Al14  1  0.12537700  0.12602400  0.63662900  1
  Al  Al15  1  0.12521500  0.36078000  0.87465100  1
  Al  Al16  1  0.36046900  0.12468800  0.87393400  1
  Al  Al17  1  0.87460400  0.12610700  0.36187100  1
  Al  Al18  1  0.87529000  0.36212700  0.12657600  1
  Al  Al19  1  0.63454800  0.12532800  0.12616800  1
  Al  Al20  1  0.12555100  0.12650300  0.36299100  1
  Al  Al21  1  0.12578000  0.36403600  0.12684900  1
  Al  Al22  1  0.36479400  0.12505700  0.12677000  1
  Al  Al23  1  0.87342600  0.12557600  0.63618400  1
  Al  Al24  1  0.87385100  0.36544000  0.87281200  1
  Al  Al25  1  0.63774900  0.12521200  0.87356200  1
  Al  Al26  1  0.87385400  0.87408900  0.36321200  1
  Al  Al27  1  0.87422500  0.63639100  0.12628000  1
  Al  Al28  1  0.63798300  0.87365000  0.12612100  1
  Al  Al29  1  0.12562000  0.87322100  0.63577400  1
  Al  Al30  1  0.12509000  0.63847600  0.87408400  1
  Al  Al31  1  0.36599700  0.87264900  0.87316800  1
  Al  Al32  1  0.50028200  0.67661500  0.88742300  1
  Al  Al33  1  0.67780400  0.88706300  0.49924800  1
  Al  Al34  1  0.88667900  0.49878100  0.67762200  1
  Al  Al35  1  0.88663700  0.67881400  0.49884100  1
  Al  Al36  1  0.49895800  0.88736700  0.67720500  1
  Al  Al37  1  0.67782900  0.49941400  0.88734800  1
  Al  Al38  1  0.49998800  0.67766200  0.11328400  1
  Al  Al39  1  0.32118300  0.88672600  0.50013700  1
  Al  Al40  1  0.11399100  0.49954600  0.32072100  1
  Al  Al41  1  0.11378000  0.67867800  0.49856200  1
  Al  Al42  1  0.49974300  0.88701000  0.32080400  1
  Al  Al43  1  0.32154300  0.49876200  0.11330000  1
  Al  Al44  1  0.50004400  0.32017700  0.88704900  1
  Al  Al45  1  0.32042400  0.11413200  0.49990000  1
  Al  Al46  1  0.11402400  0.49863300  0.67925200  1
  Al  Al47  1  0.11369800  0.32110100  0.49967300  1
  Al  Al48  1  0.49858300  0.11440200  0.67877400  1
  Al  Al49  1  0.32113000  0.49911700  0.88719500  1
  Al  Al50  1  0.49979300  0.32094700  0.11349600  1
  Al  Al51  1  0.67911400  0.11404700  0.49857300  1
  Al  Al52  1  0.88652700  0.49977800  0.32114800  1
  Al  Al53  1  0.88621100  0.32047000  0.49986300  1
  Al  Al54  1  0.49991700  0.11436800  0.32148400  1
  Al  Al55  1  0.67862700  0.49903700  0.11332200  1
  Al  Al56  1  0.50003800  0.49984900  0.50008300  1
  Al  Al57  1  0.84931500  0.84514100  0.00313600  1
  Al  Al58  1  0.84391600  0.00505100  0.84317400  1
  Al  Al59  1  0.00119300  0.84613000  0.83797900  1
  Al  Al60  1  0.15489900  0.84951100  0.00259700  1
  Si  Si61  1  0.99984600  0.49932000  0.99978500  1
  Si  Si62  1  0.49994900  0.99967600  0.99991600  1
  Si  Si63  1  0.99983500  0.99979000  0.49982100  1
  Si  Si64  1  0.50038900  0.49986200  0.74145000  1
  Si  Si65  1  0.49975700  0.74120500  0.49994000  1
  Si  Si66  1  0.74056200  0.49970600  0.49978300  1
  Si  Si67  1  0.49994400  0.49978200  0.25866700  1
  Si  Si68  1  0.25969400  0.49979600  0.49956500  1
  Si  Si69  1  0.49991100  0.25895700  0.50007600  1
  Si  Si70  1  0.15127100  0.00289800  0.16161700  1
  Si  Si71  1  0.99969300  0.85049100  0.16491600  1
  Si  Si72  1  0.15513300  0.15252300  0.99597700  1
  Si  Si73  1  0.15516200  0.00371400  0.84096400  1
  Si  Si74  1  0.00465700  0.16028000  0.84540500  1
  Si  Si75  1  0.84968400  0.15737900  0.00228900  1
  Si  Si76  1  0.84813200  0.00108800  0.16359400  1
  Si  Si77  1  0.99680100  0.15420400  0.15781100  1
  Ru  Ru78  1  0.69565600  0.69487200  0.00099700  1
  Ru  Ru79  1  0.69248600  0.00133800  0.69275600  1
  Ru  Ru80  1  0.00043600  0.69197000  0.69144500  1
  Ru  Ru81  1  0.30476100  0.69545900  0.00080400  1
  Ru  Ru82  1  0.30327300  0.00129500  0.30420900  1
  Ru  Ru83  1  0.00075200  0.69541300  0.30321800  1
  Ru  Ru84  1  0.30194100  0.30053300  0.00069200  1
  Ru  Ru85  1  0.30323900  0.00083400  0.69512200  1
  Ru  Ru86  1  0.00069900  0.30310900  0.69508400  1
  Ru  Ru87  1  0.69869400  0.30130000  0.00114600  1
  Ru  Ru88  1  0.69539500  0.00063200  0.30344400  1
  Ru  Ru89  1  0.99986900  0.30318100  0.30357900  1
