# generated using pymatgen
data_Sm3MgTi4O14
_symmetry_space_group_name_H-M   'P 1'
_cell_length_a   7.17154790
_cell_length_b   7.17154790
_cell_length_c   7.17154778
_cell_angle_alpha   61.14867166
_cell_angle_beta   61.14867166
_cell_angle_gamma   61.14867980
_symmetry_Int_Tables_number   1
_chemical_formula_structural   Sm3MgTi4O14
_chemical_formula_sum   'Sm3 Mg1 Ti4 O14'
_cell_volume   267.55098072
_cell_formula_units_Z   1
loop_
 _symmetry_equiv_pos_site_id
 _symmetry_equiv_pos_as_xyz
  1  'x, y, z'
loop_
 _atom_site_type_symbol
 _atom_site_label
 _atom_site_symmetry_multiplicity
 _atom_site_fract_x
 _atom_site_fract_y
 _atom_site_fract_z
 _atom_site_occupancy
  Sm  Sm0  1  0.00000000  0.50000000  0.50000000  1
  Sm  Sm1  1  0.50000000  0.50000000  0.00000000  1
  Sm  Sm2  1  0.50000000  0.00000000  0.50000000  1
  Mg  Mg3  1  0.50000000  0.50000000  0.50000000  1
  Ti  Ti4  1  0.00000000  0.00000000  0.00000000  1
  Ti  Ti5  1  0.50000000  0.00000000  0.00000000  1
  Ti  Ti6  1  0.00000000  0.00000000  0.50000000  1
  Ti  Ti7  1  0.00000000  0.50000000  0.00000000  1
  O  O8  1  0.93056000  0.32204700  0.32204700  1
  O  O9  1  0.32753700  0.92049600  0.92049600  1
  O  O10  1  0.32204700  0.32204700  0.93056000  1
  O  O11  1  0.92049600  0.92049600  0.32753700  1
  O  O12  1  0.92049600  0.32753700  0.92049600  1
  O  O13  1  0.32204700  0.93056000  0.32204700  1
  O  O14  1  0.06944000  0.67795300  0.67795300  1
  O  O15  1  0.67246300  0.07950400  0.07950400  1
  O  O16  1  0.67795300  0.67795300  0.06944000  1
  O  O17  1  0.07950400  0.07950400  0.67246300  1
  O  O18  1  0.07950400  0.67246300  0.07950400  1
  O  O19  1  0.67795300  0.06944000  0.67795300  1
  O  O20  1  0.38571700  0.38571700  0.38571700  1
  O  O21  1  0.61428300  0.61428300  0.61428300  1
