# generated using pymatgen
data_Si3O8
_symmetry_space_group_name_H-M   'P 1'
_cell_length_a   5.14301600
_cell_length_b   10.40695400
_cell_length_c   12.22505600
_cell_angle_alpha   90.00000000
_cell_angle_beta   90.00000000
_cell_angle_gamma   90.00000000
_symmetry_Int_Tables_number   1
_chemical_formula_structural   Si3O8
_chemical_formula_sum   'Si12 O32'
_cell_volume   654.32327295
_cell_formula_units_Z   4
loop_
 _symmetry_equiv_pos_site_id
 _symmetry_equiv_pos_as_xyz
  1  'x, y, z'
loop_
 _atom_site_type_symbol
 _atom_site_label
 _atom_site_symmetry_multiplicity
 _atom_site_fract_x
 _atom_site_fract_y
 _atom_site_fract_z
 _atom_site_occupancy
  Si  Si0  1  0.86454300  0.42221100  0.48501600  1
  Si  Si1  1  0.63545700  0.57778900  0.98501600  1
  Si  Si2  1  0.36454300  0.07778900  0.51498400  1
  Si  Si3  1  0.13545700  0.92221100  0.01498400  1
  Si  Si4  1  0.28099500  0.79012600  0.56888000  1
  Si  Si5  1  0.21900500  0.20987400  0.06888000  1
  Si  Si6  1  0.78099500  0.70987400  0.43112000  1
  Si  Si7  1  0.71900500  0.29012600  0.93112000  1
  Si  Si8  1  0.36863800  0.35138300  0.60959100  1
  Si  Si9  1  0.13136200  0.64861700  0.10959100  1
  Si  Si10  1  0.86863800  0.14861700  0.39040900  1
  Si  Si11  1  0.63136200  0.85138300  0.89040900  1
  O  O12  1  0.99163900  0.75912700  0.52172000  1
  O  O13  1  0.50836100  0.24087300  0.02172000  1
  O  O14  1  0.49163900  0.74087300  0.47828000  1
  O  O15  1  0.00836100  0.25912700  0.97828000  1
  O  O16  1  0.15874400  0.42593800  0.53464500  1
  O  O17  1  0.34125600  0.57406200  0.03464500  1
  O  O18  1  0.65874400  0.07406200  0.46535500  1
  O  O19  1  0.84125600  0.92593800  0.96535500  1
  O  O20  1  0.80308800  0.55266900  0.42087400  1
  O  O21  1  0.69691200  0.44733100  0.92087400  1
  O  O22  1  0.30308800  0.94733100  0.57912600  1
  O  O23  1  0.19691200  0.05266900  0.07912600  1
  O  O24  1  0.66089100  0.40084000  0.58716600  1
  O  O25  1  0.83910900  0.59916000  0.08716600  1
  O  O26  1  0.16089100  0.09916000  0.41283400  1
  O  O27  1  0.33910900  0.90084000  0.91283400  1
  O  O28  1  0.71506900  0.89436400  0.75674600  1
  O  O29  1  0.78493100  0.10563600  0.25674600  1
  O  O30  1  0.21506900  0.60563600  0.24325400  1
  O  O31  1  0.28493100  0.39436400  0.74325400  1
  O  O32  1  0.83287600  0.30142500  0.40024800  1
  O  O33  1  0.66712400  0.69857500  0.90024800  1
  O  O34  1  0.33287600  0.19857500  0.59975200  1
  O  O35  1  0.16712400  0.80142500  0.09975200  1
  O  O36  1  0.32409100  0.73460600  0.69204200  1
  O  O37  1  0.17590900  0.26539400  0.19204200  1
  O  O38  1  0.82409100  0.76539400  0.30795800  1
  O  O39  1  0.67590900  0.23460600  0.80795800  1
  O  O40  1  0.21564500  0.51582300  0.75558000  1
  O  O41  1  0.28435500  0.48417700  0.25558000  1
  O  O42  1  0.71564500  0.98417700  0.24442000  1
  O  O43  1  0.78435500  0.01582300  0.74442000  1
