# generated using pymatgen
data_Sc2(NbGe)3
_symmetry_space_group_name_H-M   'P 1'
_cell_length_a   7.88018474
_cell_length_b   7.88018474
_cell_length_c   5.44311000
_cell_angle_alpha   90.00000000
_cell_angle_beta   90.00000000
_cell_angle_gamma   120.41167348
_symmetry_Int_Tables_number   1
_chemical_formula_structural   Sc2(NbGe)3
_chemical_formula_sum   'Sc4 Nb6 Ge6'
_cell_volume   291.49692045
_cell_formula_units_Z   2
loop_
 _symmetry_equiv_pos_site_id
 _symmetry_equiv_pos_as_xyz
  1  'x, y, z'
loop_
 _atom_site_type_symbol
 _atom_site_label
 _atom_site_symmetry_multiplicity
 _atom_site_fract_x
 _atom_site_fract_y
 _atom_site_fract_z
 _atom_site_occupancy
  Sc  Sc0  1  0.24823400  0.24823400  0.00000000  1
  Sc  Sc1  1  0.00013000  0.74723000  0.00000000  1
  Sc  Sc2  1  0.74723000  0.00013000  0.00000000  1
  Sc  Sc3  1  0.74794100  0.74794100  0.50000000  1
  Nb  Nb4  1  0.00046400  0.26427500  0.50000000  1
  Nb  Nb5  1  0.26427500  0.00046400  0.50000000  1
  Nb  Nb6  1  0.66577900  0.33177700  0.24876000  1
  Nb  Nb7  1  0.33177700  0.66577900  0.24876000  1
  Nb  Nb8  1  0.33177700  0.66577900  0.75124000  1
  Nb  Nb9  1  0.66577900  0.33177700  0.75124000  1
  Ge  Ge10  1  0.60780600  0.60780600  0.00000000  1
  Ge  Ge11  1  0.99974900  0.39067900  0.00000000  1
  Ge  Ge12  1  0.39067900  0.99974900  0.00000000  1
  Ge  Ge13  1  0.38741100  0.38741100  0.50000000  1
  Ge  Ge14  1  0.99954300  0.61143800  0.50000000  1
  Ge  Ge15  1  0.61143800  0.99954300  0.50000000  1
