# generated using pymatgen
data_Sb8I2O11
_symmetry_space_group_name_H-M   'P 1'
_cell_length_a   4.23140886
_cell_length_b   10.14363763
_cell_length_c   10.82053565
_cell_angle_alpha   106.96628652
_cell_angle_beta   87.02958680
_cell_angle_gamma   80.65732873
_symmetry_Int_Tables_number   1
_chemical_formula_structural   Sb8I2O11
_chemical_formula_sum   'Sb8 I2 O11'
_cell_volume   435.90360070
_cell_formula_units_Z   1
loop_
 _symmetry_equiv_pos_site_id
 _symmetry_equiv_pos_as_xyz
  1  'x, y, z'
loop_
 _atom_site_type_symbol
 _atom_site_label
 _atom_site_symmetry_multiplicity
 _atom_site_fract_x
 _atom_site_fract_y
 _atom_site_fract_z
 _atom_site_occupancy
  Sb  Sb0  1  0.77628500  0.53052500  0.17527400  1
  Sb  Sb1  1  0.25187300  0.47621800  0.83753900  1
  Sb  Sb2  1  0.50921100  0.99434400  0.25001200  1
  Sb  Sb3  1  0.56122400  0.98309500  0.69414100  1
  Sb  Sb4  1  0.85009200  0.17247700  0.02437600  1
  Sb  Sb5  1  0.10941300  0.82499000  0.00216300  1
  Sb  Sb6  1  0.32663900  0.36448300  0.33074300  1
  Sb  Sb7  1  0.71229300  0.61268100  0.66262600  1
  I  I8  1  0.84698200  0.21558400  0.54775100  1
  I  I9  1  0.09655300  0.80680200  0.47940900  1
  O  O10  1  0.46419600  0.17350000  0.17660600  1
  O  O11  1  0.61439500  0.82143700  0.76415600  1
  O  O12  1  0.80867400  0.36598200  0.01315700  1
  O  O13  1  0.16301700  0.62897700  0.01308200  1
  O  O14  1  0.60658000  0.11294600  0.87138100  1
  O  O15  1  0.57739900  0.85091200  0.07273300  1
  O  O16  1  0.27685800  0.48307800  0.21096700  1
  O  O17  1  0.71303900  0.54328300  0.82004100  1
  O  O18  1  0.02057800  0.95406900  0.19276000  1
  O  O19  1  0.81070400  0.38840300  0.28168900  1
  O  O20  1  0.20489500  0.59841400  0.71589300  1
