# generated using pymatgen
data_Sm4Ga3Fe31
_symmetry_space_group_name_H-M   'P 1'
_cell_length_a   6.44010549
_cell_length_b   6.48695687
_cell_length_c   12.96204598
_cell_angle_alpha   83.21399830
_cell_angle_beta   82.86933712
_cell_angle_gamma   83.10512567
_symmetry_Int_Tables_number   1
_chemical_formula_structural   Sm4Ga3Fe31
_chemical_formula_sum   'Sm4 Ga3 Fe31'
_cell_volume   530.49848761
_cell_formula_units_Z   1
loop_
 _symmetry_equiv_pos_site_id
 _symmetry_equiv_pos_as_xyz
  1  'x, y, z'
loop_
 _atom_site_type_symbol
 _atom_site_label
 _atom_site_symmetry_multiplicity
 _atom_site_fract_x
 _atom_site_fract_y
 _atom_site_fract_z
 _atom_site_occupancy
  Sm  Sm0  1  0.66142900  0.66455700  0.33030400  1
  Sm  Sm1  1  0.65828100  0.66137000  0.83068300  1
  Sm  Sm2  1  0.34187600  0.34176000  0.16980200  1
  Sm  Sm3  1  0.34250900  0.34314900  0.67292300  1
  Ga  Ga4  1  0.84727200  0.34460900  0.17209200  1
  Ga  Ga5  1  0.84788200  0.34419800  0.67191400  1
  Ga  Ga6  1  0.34429100  0.34443900  0.42405600  1
  Fe  Fe7  1  0.90417900  0.90329100  0.45175200  1
  Fe  Fe8  1  0.90443400  0.90320200  0.95153400  1
  Fe  Fe9  1  0.09710700  0.09443000  0.04752000  1
  Fe  Fe10  1  0.09590800  0.09222300  0.54785200  1
  Fe  Fe11  1  0.28894700  0.71095300  0.50110600  1
  Fe  Fe12  1  0.28960900  0.71043400  0.00029700  1
  Fe  Fe13  1  0.70913600  0.99856600  0.14459800  1
  Fe  Fe14  1  0.70942600  0.99844600  0.64409900  1
  Fe  Fe15  1  0.99646300  0.28777700  0.35583900  1
  Fe  Fe16  1  0.00020800  0.28891500  0.85576000  1
  Fe  Fe17  1  0.28954000  0.99832700  0.35494200  1
  Fe  Fe18  1  0.29112800  0.00096000  0.85498600  1
  Fe  Fe19  1  0.00081700  0.71159700  0.14413200  1
  Fe  Fe20  1  0.00034900  0.71173800  0.64420000  1
  Fe  Fe21  1  0.70961400  0.28928600  0.99889600  1
  Fe  Fe22  1  0.71177800  0.28892300  0.49851600  1
  Fe  Fe23  1  0.99935200  0.99687100  0.25012500  1
  Fe  Fe24  1  0.99931900  0.99719900  0.75061500  1
  Fe  Fe25  1  0.99640200  0.50323300  0.49797900  1
  Fe  Fe26  1  0.99968500  0.49983600  0.99875500  1
  Fe  Fe27  1  0.49878400  0.99998900  0.99985900  1
  Fe  Fe28  1  0.49959200  0.99684100  0.49982100  1
  Fe  Fe29  1  0.34232300  0.34372200  0.92310400  1
  Fe  Fe30  1  0.34227600  0.84594100  0.17177800  1
  Fe  Fe31  1  0.34208400  0.84490200  0.67120300  1
  Fe  Fe32  1  0.15360800  0.66207900  0.32834700  1
  Fe  Fe33  1  0.15676500  0.65881900  0.82904300  1
  Fe  Fe34  1  0.65507600  0.66155100  0.07528900  1
  Fe  Fe35  1  0.65758800  0.66167500  0.57608900  1
  Fe  Fe36  1  0.65957500  0.14410800  0.32993200  1
  Fe  Fe37  1  0.65538700  0.15008400  0.83025700  1
