# generated using pymatgen
data_Sm6Si3Ni2
_symmetry_space_group_name_H-M   'P 1'
_cell_length_a   4.44114900
_cell_length_b   11.53229400
_cell_length_c   11.58545560
_cell_angle_alpha   61.46578878
_cell_angle_beta   90.00000000
_cell_angle_gamma   90.00000000
_symmetry_Int_Tables_number   1
_chemical_formula_structural   Sm6Si3Ni2
_chemical_formula_sum   'Sm12 Si6 Ni4'
_cell_volume   521.29285689
_cell_formula_units_Z   2
loop_
 _symmetry_equiv_pos_site_id
 _symmetry_equiv_pos_as_xyz
  1  'x, y, z'
loop_
 _atom_site_type_symbol
 _atom_site_label
 _atom_site_symmetry_multiplicity
 _atom_site_fract_x
 _atom_site_fract_y
 _atom_site_fract_z
 _atom_site_occupancy
  Sm  Sm0  1  0.00000000  0.24018500  0.78265100  1
  Sm  Sm1  1  0.00000000  0.78258100  0.98168700  1
  Sm  Sm2  1  0.00000000  0.98009600  0.24152900  1
  Sm  Sm3  1  0.50000000  0.75013800  0.22613800  1
  Sm  Sm4  1  0.50000000  0.22849600  0.02392300  1
  Sm  Sm5  1  0.50000000  0.02008800  0.75871500  1
  Sm  Sm6  1  0.00000000  0.86144200  0.62345300  1
  Sm  Sm7  1  0.00000000  0.61753500  0.51338800  1
  Sm  Sm8  1  0.00000000  0.51675600  0.86362500  1
  Sm  Sm9  1  0.50000000  0.13310600  0.38260700  1
  Sm  Sm10  1  0.50000000  0.37433700  0.48799900  1
  Sm  Sm11  1  0.50000000  0.48018600  0.13878100  1
  Si  Si12  1  0.00000000  0.33681500  0.32744200  1
  Si  Si13  1  0.50000000  0.66598700  0.66597500  1
  Si  Si14  1  0.00000000  0.15679200  0.56191700  1
  Si  Si15  1  0.50000000  0.43794100  0.71567900  1
  Si  Si16  1  0.50000000  0.72199600  0.84173800  1
  Si  Si17  1  0.50000000  0.84252900  0.44141800  1
  Ni  Ni18  1  0.74755600  0.00055500  0.00356500  1
  Ni  Ni19  1  0.25244400  0.00055500  0.00356500  1
  Ni  Ni20  1  0.00000000  0.56736300  0.26325700  1
  Ni  Ni21  1  0.00000000  0.28452200  0.15094600  1
