# generated using pymatgen
data_BeSnP2
_symmetry_space_group_name_H-M   'P 1'
_cell_length_a   6.66257567
_cell_length_b   6.66257567
_cell_length_c   6.66257567
_cell_angle_alpha   131.78804643
_cell_angle_beta   131.78804643
_cell_angle_gamma   70.56399119
_symmetry_Int_Tables_number   1
_chemical_formula_structural   BeSnP2
_chemical_formula_sum   'Be2 Sn2 P4'
_cell_volume   161.09145833
_cell_formula_units_Z   2
loop_
 _symmetry_equiv_pos_site_id
 _symmetry_equiv_pos_as_xyz
  1  'x, y, z'
loop_
 _atom_site_type_symbol
 _atom_site_label
 _atom_site_symmetry_multiplicity
 _atom_site_fract_x
 _atom_site_fract_y
 _atom_site_fract_z
 _atom_site_occupancy
  Be  Be0  1  0.25000000  0.75000000  0.50000000  1
  Be  Be1  1  0.50000000  0.50000000  0.00000000  1
  Sn  Sn2  1  0.75000000  0.25000000  0.50000000  1
  Sn  Sn3  1  0.00000000  0.00000000  0.00000000  1
  P  P4  1  0.57075700  0.62500000  0.44575700  1
  P  P5  1  0.87500000  0.42924300  0.05424300  1
  P  P6  1  0.37500000  0.82075700  0.94575700  1
  P  P7  1  0.17924300  0.12500000  0.55424300  1
