# generated using pymatgen
data_ReMo2C
_symmetry_space_group_name_H-M   'P 1'
_cell_length_a   7.17840573
_cell_length_b   7.17840573
_cell_length_c   7.17840615
_cell_angle_alpha   23.96529416
_cell_angle_beta   23.96529416
_cell_angle_gamma   23.96529708
_symmetry_Int_Tables_number   1
_chemical_formula_structural   ReMo2C
_chemical_formula_sum   'Re1 Mo2 C1'
_cell_volume   53.62175653
_cell_formula_units_Z   1
loop_
 _symmetry_equiv_pos_site_id
 _symmetry_equiv_pos_as_xyz
  1  'x, y, z'
loop_
 _atom_site_type_symbol
 _atom_site_label
 _atom_site_symmetry_multiplicity
 _atom_site_fract_x
 _atom_site_fract_y
 _atom_site_fract_z
 _atom_site_occupancy
  Re  Re0  1  0.72520300  0.72520300  0.72520300  1
  Mo  Mo1  1  0.49849900  0.49849900  0.49849900  1
  Mo  Mo2  1  0.27547000  0.27547000  0.27547000  1
  C  C3  1  0.00082800  0.00082800  0.00082800  1
