# generated using pymatgen
data_Sc5BRh15
_symmetry_space_group_name_H-M   'P 1'
_cell_length_a   4.02625600
_cell_length_b   4.02625600
_cell_length_c   19.51901300
_cell_angle_alpha   90.00000000
_cell_angle_beta   90.00000000
_cell_angle_gamma   90.00000000
_symmetry_Int_Tables_number   1
_chemical_formula_structural   Sc5BRh15
_chemical_formula_sum   'Sc5 B1 Rh15'
_cell_volume   316.41759361
_cell_formula_units_Z   1
loop_
 _symmetry_equiv_pos_site_id
 _symmetry_equiv_pos_as_xyz
  1  'x, y, z'
loop_
 _atom_site_type_symbol
 _atom_site_label
 _atom_site_symmetry_multiplicity
 _atom_site_fract_x
 _atom_site_fract_y
 _atom_site_fract_z
 _atom_site_occupancy
  Sc  Sc0  1  0.00000000  0.00000000  0.89588800  1
  Sc  Sc1  1  0.00000000  0.00000000  0.10411200  1
  Sc  Sc2  1  0.00000000  0.00000000  0.30063000  1
  Sc  Sc3  1  0.00000000  0.00000000  0.50000000  1
  Sc  Sc4  1  0.00000000  0.00000000  0.69937000  1
  B  B5  1  0.50000000  0.50000000  0.00000000  1
  Rh  Rh6  1  0.50000000  0.50000000  0.89250800  1
  Rh  Rh7  1  0.50000000  0.50000000  0.10749200  1
  Rh  Rh8  1  0.50000000  0.50000000  0.30408500  1
  Rh  Rh9  1  0.50000000  0.50000000  0.50000000  1
  Rh  Rh10  1  0.50000000  0.50000000  0.69591500  1
  Rh  Rh11  1  0.50000000  0.00000000  0.00000000  1
  Rh  Rh12  1  0.50000000  0.00000000  0.20351300  1
  Rh  Rh13  1  0.50000000  0.00000000  0.40130100  1
  Rh  Rh14  1  0.50000000  0.00000000  0.59869900  1
  Rh  Rh15  1  0.50000000  0.00000000  0.79648700  1
  Rh  Rh16  1  0.00000000  0.50000000  0.00000000  1
  Rh  Rh17  1  0.00000000  0.50000000  0.20351300  1
  Rh  Rh18  1  0.00000000  0.50000000  0.40130100  1
  Rh  Rh19  1  0.00000000  0.50000000  0.59869900  1
  Rh  Rh20  1  0.00000000  0.50000000  0.79648700  1
