# generated using pymatgen
data_Sc(Fe5Si)2
_symmetry_space_group_name_H-M   'P 1'
_cell_length_a   4.72617600
_cell_length_b   6.27842346
_cell_length_c   6.27842346
_cell_angle_alpha   98.57360983
_cell_angle_beta   112.10977850
_cell_angle_gamma   67.89022150
_symmetry_Int_Tables_number   1
_chemical_formula_structural   Sc(Fe5Si)2
_chemical_formula_sum   'Sc1 Fe10 Si2'
_cell_volume   159.90143716
_cell_formula_units_Z   1
loop_
 _symmetry_equiv_pos_site_id
 _symmetry_equiv_pos_as_xyz
  1  'x, y, z'
loop_
 _atom_site_type_symbol
 _atom_site_label
 _atom_site_symmetry_multiplicity
 _atom_site_fract_x
 _atom_site_fract_y
 _atom_site_fract_z
 _atom_site_occupancy
  Sc  Sc0  1  0.00000000  0.00000000  0.00000000  1
  Fe  Fe1  1  0.63982900  0.36017100  0.63982900  1
  Fe  Fe2  1  0.36017100  0.63982900  0.36017100  1
  Fe  Fe3  1  0.00000000  0.35016200  0.35016200  1
  Fe  Fe4  1  0.00000000  0.64983800  0.64983800  1
  Fe  Fe5  1  0.50000000  0.80123100  0.80123100  1
  Fe  Fe6  1  0.50000000  0.19876900  0.19876900  1
  Fe  Fe7  1  0.50000000  0.00000000  0.50000000  1
  Fe  Fe8  1  0.00000000  0.00000000  0.50000000  1
  Fe  Fe9  1  0.50000000  0.50000000  0.00000000  1
  Fe  Fe10  1  0.00000000  0.50000000  0.00000000  1
  Si  Si11  1  0.73281800  0.76718200  0.23281800  1
  Si  Si12  1  0.26718200  0.23281800  0.76718200  1
