# generated using pymatgen
data_ReW2
_symmetry_space_group_name_H-M   'P 1'
_cell_length_a   7.09758137
_cell_length_b   6.91553091
_cell_length_c   2.74334619
_cell_angle_alpha   82.46611296
_cell_angle_beta   75.00297465
_cell_angle_gamma   22.53091240
_symmetry_Int_Tables_number   1
_chemical_formula_structural   ReW2
_chemical_formula_sum   'Re1 W2'
_cell_volume   47.67424187
_cell_formula_units_Z   1
loop_
 _symmetry_equiv_pos_site_id
 _symmetry_equiv_pos_as_xyz
  1  'x, y, z'
loop_
 _atom_site_type_symbol
 _atom_site_label
 _atom_site_symmetry_multiplicity
 _atom_site_fract_x
 _atom_site_fract_y
 _atom_site_fract_z
 _atom_site_occupancy
  Re  Re0  1  0.00000000  0.00000000  0.00000000  1
  W  W1  1  0.33403500  0.33403500  0.66596500  1
  W  W2  1  0.66596500  0.66596500  0.33403500  1
