# generated using pymatgen
data_Sc7As3
_symmetry_space_group_name_H-M   'P 1'
_cell_length_a   10.98630592
_cell_length_b   10.98630592
_cell_length_c   10.98630592
_cell_angle_alpha   97.72245887
_cell_angle_beta   97.72245887
_cell_angle_gamma   136.99135208
_symmetry_Int_Tables_number   1
_chemical_formula_structural   Sc7As3
_chemical_formula_sum   'Sc28 As12'
_cell_volume   841.53787598
_cell_formula_units_Z   4
loop_
 _symmetry_equiv_pos_site_id
 _symmetry_equiv_pos_as_xyz
  1  'x, y, z'
loop_
 _atom_site_type_symbol
 _atom_site_label
 _atom_site_symmetry_multiplicity
 _atom_site_fract_x
 _atom_site_fract_y
 _atom_site_fract_z
 _atom_site_occupancy
  Sc  Sc0  1  0.13678800  0.63678800  0.16345300  1
  Sc  Sc1  1  0.47333400  0.97333400  0.83654700  1
  Sc  Sc2  1  0.97333400  0.13678800  0.50000000  1
  Sc  Sc3  1  0.63678800  0.47333400  0.50000000  1
  Sc  Sc4  1  0.86321200  0.36321200  0.83654700  1
  Sc  Sc5  1  0.52666600  0.02666600  0.16345300  1
  Sc  Sc6  1  0.02666600  0.86321200  0.50000000  1
  Sc  Sc7  1  0.36321200  0.52666600  0.50000000  1
  Sc  Sc8  1  0.62501300  0.61954000  0.24455300  1
  Sc  Sc9  1  0.37498700  0.38046000  0.75544700  1
  Sc  Sc10  1  0.87498700  0.11954000  0.99452800  1
  Sc  Sc11  1  0.12501300  0.88046000  0.00547200  1
  Sc  Sc12  1  0.61954000  0.37498700  0.99452800  1
  Sc  Sc13  1  0.38046000  0.62501300  0.00547200  1
  Sc  Sc14  1  0.11954000  0.12501300  0.24455300  1
  Sc  Sc15  1  0.88046000  0.87498700  0.75544700  1
  Sc  Sc16  1  0.51980100  0.82812900  0.34793000  1
  Sc  Sc17  1  0.48019900  0.17187100  0.65207000  1
  Sc  Sc18  1  0.98019900  0.32812900  0.30832900  1
  Sc  Sc19  1  0.01980100  0.67187100  0.69167100  1
  Sc  Sc20  1  0.82812900  0.48019900  0.30832900  1
  Sc  Sc21  1  0.17187100  0.51980100  0.69167100  1
  Sc  Sc22  1  0.32812900  0.01980100  0.34793000  1
  Sc  Sc23  1  0.67187100  0.98019900  0.65207000  1
  Sc  Sc24  1  0.25000000  0.25000000  0.00000000  1
  Sc  Sc25  1  0.75000000  0.75000000  0.00000000  1
  Sc  Sc26  1  0.75000000  0.25000000  0.50000000  1
  Sc  Sc27  1  0.25000000  0.75000000  0.50000000  1
  As  As28  1  0.25000000  0.44416300  0.19416300  1
  As  As29  1  0.25000000  0.05583700  0.80583700  1
  As  As30  1  0.75000000  0.94416300  0.19416300  1
  As  As31  1  0.75000000  0.55583700  0.80583700  1
  As  As32  1  0.44416300  0.25000000  0.19416300  1
  As  As33  1  0.05583700  0.25000000  0.80583700  1
  As  As34  1  0.94416300  0.75000000  0.19416300  1
  As  As35  1  0.55583700  0.75000000  0.80583700  1
  As  As36  1  0.22051000  0.72051000  0.94102000  1
  As  As37  1  0.77949000  0.27949000  0.05898000  1
  As  As38  1  0.27949000  0.22051000  0.50000000  1
  As  As39  1  0.72051000  0.77949000  0.50000000  1
