# generated using pymatgen
data_SbAsRu
_symmetry_space_group_name_H-M   'P 1'
_cell_length_a   3.13329400
_cell_length_b   5.79344352
_cell_length_c   6.53264151
_cell_angle_alpha   87.22737378
_cell_angle_beta   90.00000000
_cell_angle_gamma   90.00000000
_symmetry_Int_Tables_number   1
_chemical_formula_structural   SbAsRu
_chemical_formula_sum   'Sb2 As2 Ru2'
_cell_volume   118.44535975
_cell_formula_units_Z   2
loop_
 _symmetry_equiv_pos_site_id
 _symmetry_equiv_pos_as_xyz
  1  'x, y, z'
loop_
 _atom_site_type_symbol
 _atom_site_label
 _atom_site_symmetry_multiplicity
 _atom_site_fract_x
 _atom_site_fract_y
 _atom_site_fract_z
 _atom_site_occupancy
  Sb  Sb0  1  0.00000000  0.18350500  0.35397100  1
  Sb  Sb1  1  0.00000000  0.81649500  0.64602900  1
  As  As2  1  0.50000000  0.67732800  0.13521300  1
  As  As3  1  0.50000000  0.32267200  0.86478700  1
  Ru  Ru4  1  0.50000000  0.50000000  0.50000000  1
  Ru  Ru5  1  0.00000000  0.00000000  0.00000000  1
