# generated using pymatgen
data_Sm2Fe20Si2C
_symmetry_space_group_name_H-M   'P 1'
_cell_length_a   6.36849689
_cell_length_b   7.82014131
_cell_length_c   7.84061470
_cell_angle_alpha   100.70314626
_cell_angle_beta   114.57763040
_cell_angle_gamma   65.67328757
_symmetry_Int_Tables_number   1
_chemical_formula_structural   Sm2Fe20Si2C
_chemical_formula_sum   'Sm2 Fe20 Si2 C1'
_cell_volume   323.52629501
_cell_formula_units_Z   1
loop_
 _symmetry_equiv_pos_site_id
 _symmetry_equiv_pos_as_xyz
  1  'x, y, z'
loop_
 _atom_site_type_symbol
 _atom_site_label
 _atom_site_symmetry_multiplicity
 _atom_site_fract_x
 _atom_site_fract_y
 _atom_site_fract_z
 _atom_site_occupancy
  Sm  Sm0  1  0.37596800  0.74854500  0.25409400  1
  Sm  Sm1  1  0.62403200  0.25145500  0.74590600  1
  Fe  Fe2  1  0.17729200  0.58330300  0.82520600  1
  Fe  Fe3  1  0.43354300  0.32401400  0.07885200  1
  Fe  Fe4  1  0.27513700  0.41993400  0.33347800  1
  Fe  Fe5  1  0.86130300  0.83813000  0.91874700  1
  Fe  Fe6  1  0.19976400  0.16478300  0.42263900  1
  Fe  Fe7  1  0.44129300  0.92044400  0.67223600  1
  Fe  Fe8  1  0.25520200  0.67897200  0.57789800  1
  Fe  Fe9  1  0.85853100  0.07694700  0.17752400  1
  Fe  Fe10  1  0.82270800  0.41669700  0.17479400  1
  Fe  Fe11  1  0.56645700  0.67598600  0.92114800  1
  Fe  Fe12  1  0.72486300  0.58006600  0.66652200  1
  Fe  Fe13  1  0.13869700  0.16187000  0.08125300  1
  Fe  Fe14  1  0.80023600  0.83521700  0.57736100  1
  Fe  Fe15  1  0.55870700  0.07955600  0.32776400  1
  Fe  Fe16  1  0.74479800  0.32102800  0.42210200  1
  Fe  Fe17  1  0.14146900  0.92305300  0.82247600  1
  Fe  Fe18  1  0.12198900  0.24722600  0.74920100  1
  Fe  Fe19  1  0.87801100  0.75277400  0.25079900  1
  Fe  Fe20  1  0.00000000  0.50000000  0.00000000  1
  Fe  Fe21  1  0.00000000  0.50000000  0.50000000  1
  Si  Si22  1  0.50000000  0.00000000  0.00000000  1
  Si  Si23  1  0.00000000  0.00000000  0.50000000  1
  C  C24  1  0.50000000  0.50000000  0.00000000  1
