# generated using pymatgen
data_SbPbS2
_symmetry_space_group_name_H-M   'P 1'
_cell_length_a   6.29434794
_cell_length_b   6.29434794
_cell_length_c   4.29344200
_cell_angle_alpha   90.00000000
_cell_angle_beta   90.00000000
_cell_angle_gamma   143.29200287
_symmetry_Int_Tables_number   1
_chemical_formula_structural   SbPbS2
_chemical_formula_sum   'Sb1 Pb1 S2'
_cell_volume   101.67572278
_cell_formula_units_Z   1
loop_
 _symmetry_equiv_pos_site_id
 _symmetry_equiv_pos_as_xyz
  1  'x, y, z'
loop_
 _atom_site_type_symbol
 _atom_site_label
 _atom_site_symmetry_multiplicity
 _atom_site_fract_x
 _atom_site_fract_y
 _atom_site_fract_z
 _atom_site_occupancy
  Sb  Sb0  1  0.86760700  0.13239300  0.00000000  1
  Pb  Pb1  1  0.11826600  0.88173400  0.50000000  1
  S  S2  1  0.35920900  0.64079100  0.50000000  1
  S  S3  1  0.65491800  0.34508200  0.00000000  1
