# generated using pymatgen
data_Sm2Mn2Ga2Fe13C
_symmetry_space_group_name_H-M   'P 1'
_cell_length_a   6.47061714
_cell_length_b   6.47061714
_cell_length_c   6.48394777
_cell_angle_alpha   83.06918707
_cell_angle_beta   83.06918707
_cell_angle_gamma   82.99643799
_symmetry_Int_Tables_number   1
_chemical_formula_structural   Sm2Mn2Ga2Fe13C
_chemical_formula_sum   'Sm2 Mn2 Ga2 Fe13 C1'
_cell_volume   265.92991841
_cell_formula_units_Z   1
loop_
 _symmetry_equiv_pos_site_id
 _symmetry_equiv_pos_as_xyz
  1  'x, y, z'
loop_
 _atom_site_type_symbol
 _atom_site_label
 _atom_site_symmetry_multiplicity
 _atom_site_fract_x
 _atom_site_fract_y
 _atom_site_fract_z
 _atom_site_occupancy
  Sm  Sm0  1  0.34302900  0.34302900  0.35529300  1
  Sm  Sm1  1  0.65697100  0.65697100  0.64470700  1
  Mn  Mn2  1  0.00000000  0.50000000  0.00000000  1
  Mn  Mn3  1  0.50000000  0.00000000  0.00000000  1
  Ga  Ga4  1  0.10362400  0.10362400  0.10240300  1
  Ga  Ga5  1  0.89637600  0.89637600  0.89759700  1
  Fe  Fe6  1  0.65583400  0.65583400  0.15019600  1
  Fe  Fe7  1  0.65900900  0.15478800  0.65711000  1
  Fe  Fe8  1  0.15478800  0.65900900  0.65711000  1
  Fe  Fe9  1  0.34416600  0.34416600  0.84980400  1
  Fe  Fe10  1  0.34099100  0.84521200  0.34289000  1
  Fe  Fe11  1  0.84521200  0.34099100  0.34289000  1
  Fe  Fe12  1  0.71387400  0.28612600  0.00000000  1
  Fe  Fe13  1  0.29232900  0.99954100  0.70940200  1
  Fe  Fe14  1  0.00045900  0.70767100  0.29059800  1
  Fe  Fe15  1  0.70767100  0.00045900  0.29059800  1
  Fe  Fe16  1  0.99954100  0.29232900  0.70940200  1
  Fe  Fe17  1  0.28612600  0.71387400  0.00000000  1
  Fe  Fe18  1  0.00000000  0.00000000  0.50000000  1
  C  C19  1  0.50000000  0.50000000  0.00000000  1
