# generated using pymatgen
data_RbBa3Ga5(Se5Cl)2
_symmetry_space_group_name_H-M   'P 1'
_cell_length_a   8.81535400
_cell_length_b   8.84749824
_cell_length_c   10.09387982
_cell_angle_alpha   115.76628818
_cell_angle_beta   115.87723062
_cell_angle_gamma   89.98663368
_symmetry_Int_Tables_number   1
_chemical_formula_structural   RbBa3Ga5(Se5Cl)2
_chemical_formula_sum   'Rb1 Ba3 Ga5 Se10 Cl2'
_cell_volume   620.20909521
_cell_formula_units_Z   1
loop_
 _symmetry_equiv_pos_site_id
 _symmetry_equiv_pos_as_xyz
  1  'x, y, z'
loop_
 _atom_site_type_symbol
 _atom_site_label
 _atom_site_symmetry_multiplicity
 _atom_site_fract_x
 _atom_site_fract_y
 _atom_site_fract_z
 _atom_site_occupancy
  Rb  Rb0  1  0.48356600  0.35376200  0.22714700  1
  Ba  Ba1  1  0.74697200  0.87753200  0.22961300  1
  Ba  Ba2  1  0.12598900  0.52022800  0.77084000  1
  Ba  Ba3  1  0.64668700  0.25091300  0.77049800  1
  Ga  Ga4  1  0.00332900  0.00078500  0.00047400  1
  Ga  Ga5  1  0.07174800  0.47184200  0.33177900  1
  Ga  Ga6  1  0.25989800  0.85532600  0.32836000  1
  Ga  Ga7  1  0.14242400  0.92931800  0.66963200  1
  Ga  Ga8  1  0.52424500  0.73440600  0.66577400  1
  Se  Se9  1  0.34478800  0.44741200  0.52347000  1
  Se  Se10  1  0.16777600  0.07037600  0.51672300  1
  Se  Se11  1  0.93091700  0.65442700  0.48459400  1
  Se  Se12  1  0.55262100  0.83739300  0.48669100  1
  Se  Se13  1  0.86244600  0.19267000  0.14515200  1
  Se  Se14  1  0.28329100  0.94358400  0.14167300  1
  Se  Se15  1  0.04009300  0.13448700  0.84848100  1
  Se  Se16  1  0.80616900  0.71696400  0.85518800  1
  Se  Se17  1  0.06325700  0.57314000  0.14172000  1
  Se  Se18  1  0.43072300  0.93083800  0.85775100  1
  Cl  Cl19  1  0.50170500  0.50703900  0.99269600  1
  Cl  Cl20  1  0.76135500  0.24755900  0.51174600  1
