data_image0
_chemical_formula_structural       C2Nb4Sn2
_chemical_formula_sum              "C2 Nb4 Sn2"
_cell_length_a       3.27357
_cell_length_b       3.27356
_cell_length_c       13.9096
_cell_angle_alpha    90
_cell_angle_beta     90
_cell_angle_gamma    120

_space_group_name_H-M_alt    "P 1"
_space_group_IT_number       1

loop_
  _space_group_symop_operation_xyz
  'x, y, z'

loop_
  _atom_site_type_symbol
  _atom_site_label
  _atom_site_symmetry_multiplicity
  _atom_site_fract_x
  _atom_site_fract_y
  _atom_site_fract_z
  _atom_site_occupancy
  C   C1        1.0  0.00000  0.00000  0.00000  1.0000
  C   C2        1.0  0.00000  0.00000  0.50000  1.0000
  Nb  Nb1       1.0  0.33300  0.66700  0.08260  1.0000
  Nb  Nb2       1.0  0.33300  0.66700  0.41700  1.0000
  Nb  Nb3       1.0  0.66700  0.33300  0.58300  1.0000
  Nb  Nb4       1.0  0.66700  0.33300  0.91700  1.0000
  Sn  Sn1       1.0  0.66700  0.33300  0.25000  1.0000
  Sn  Sn2       1.0  0.33300  0.66700  0.75000  1.0000
