# generated using pymatgen
data_Rb3Ti4Tl(PO5)4
_symmetry_space_group_name_H-M   'P 1'
_cell_length_a   10.68823700
_cell_length_b   6.57544400
_cell_length_c   13.12518160
_cell_angle_alpha   89.90353048
_cell_angle_beta   90.00000000
_cell_angle_gamma   90.00000000
_symmetry_Int_Tables_number   1
_chemical_formula_structural   Rb3Ti4Tl(PO5)4
_chemical_formula_sum   'Rb6 Ti8 Tl2 P8 O40'
_cell_volume   922.43519368
_cell_formula_units_Z   2
loop_
 _symmetry_equiv_pos_site_id
 _symmetry_equiv_pos_as_xyz
  1  'x, y, z'
loop_
 _atom_site_type_symbol
 _atom_site_label
 _atom_site_symmetry_multiplicity
 _atom_site_fract_x
 _atom_site_fract_y
 _atom_site_fract_z
 _atom_site_occupancy
  Rb  Rb0  1  0.42484600  0.69523700  0.89437800  1
  Rb  Rb1  1  0.92484600  0.30476300  0.10562200  1
  Rb  Rb2  1  0.67430800  0.28291200  0.88318400  1
  Rb  Rb3  1  0.17430800  0.71708800  0.11681600  1
  Rb  Rb4  1  0.17354800  0.78422400  0.61614000  1
  Rb  Rb5  1  0.67354800  0.21577600  0.38386000  1
  Ti  Ti6  1  0.99779000  0.99862900  0.87128200  1
  Ti  Ti7  1  0.49779000  0.00137100  0.12871800  1
  Ti  Ti8  1  0.49794100  0.49815100  0.62913600  1
  Ti  Ti9  1  0.99794100  0.50184900  0.37086400  1
  Ti  Ti10  1  0.74618700  0.76545900  0.74688900  1
  Ti  Ti11  1  0.24618700  0.23454100  0.25311100  1
  Ti  Ti12  1  0.24626900  0.26467600  0.75297300  1
  Ti  Ti13  1  0.74626900  0.73532400  0.24702700  1
  Tl  Tl14  1  0.92484700  0.19920600  0.60492100  1
  Tl  Tl15  1  0.42484700  0.80079400  0.39507900  1
  P  P16  1  0.48787100  0.00238100  0.68022800  1
  P  P17  1  0.98787100  0.99761900  0.31977200  1
  P  P18  1  0.98793800  0.50180900  0.81961700  1
  P  P19  1  0.48793800  0.49819100  0.18038300  1
  P  P20  1  0.74091800  0.83461900  0.99963300  1
  P  P21  1  0.24091800  0.16538100  0.00036700  1
  P  P22  1  0.24069400  0.33500100  0.50003000  1
  P  P23  1  0.74069400  0.66499900  0.49997000  1
  O  O24  1  0.85219100  0.97975400  0.98607500  1
  O  O25  1  0.35219100  0.02024600  0.01392500  1
  O  O26  1  0.35230200  0.48115600  0.51304800  1
  O  O27  1  0.85230200  0.51884400  0.48695200  1
  O  O28  1  0.76208300  0.69595400  0.09511700  1
  O  O29  1  0.26208300  0.30404600  0.90488300  1
  O  O30  1  0.26147100  0.19712000  0.40465600  1
  O  O31  1  0.76147100  0.80288000  0.59534400  1
  O  O32  1  0.51664500  0.19196400  0.61404000  1
  O  O33  1  0.01664500  0.80803600  0.38596000  1
  O  O34  1  0.01663800  0.69117200  0.88585000  1
  O  O35  1  0.51663800  0.30882800  0.11415000  1
  O  O36  1  0.37302500  0.04446700  0.75099400  1
  O  O37  1  0.87302500  0.95553300  0.24900600  1
  O  O38  1  0.87302400  0.54450800  0.74873600  1
  O  O39  1  0.37302400  0.45549200  0.25126400  1
  O  O40  1  0.61186300  0.54846100  0.72298200  1
  O  O41  1  0.11186300  0.45153900  0.27701800  1
  O  O42  1  0.11232800  0.04870500  0.77743600  1
  O  O43  1  0.61232800  0.95129500  0.22256400  1
  O  O44  1  0.35856700  0.45978700  0.72065200  1
  O  O45  1  0.85856700  0.54021300  0.27934800  1
  O  O46  1  0.85837400  0.96053300  0.77907800  1
  O  O47  1  0.35837400  0.03946700  0.22092200  1
  O  O48  1  0.60107900  0.95782000  0.75133900  1
  O  O49  1  0.10107900  0.04218000  0.24866100  1
  O  O50  1  0.10135200  0.45814200  0.74857200  1
  O  O51  1  0.60135200  0.54185800  0.25142800  1
  O  O52  1  0.61825400  0.96108100  0.01432500  1
  O  O53  1  0.11825400  0.03891900  0.98567500  1
  O  O54  1  0.11792900  0.46119100  0.48577800  1
  O  O55  1  0.61792900  0.53880900  0.51422200  1
  O  O56  1  0.45758000  0.81267300  0.61481000  1
  O  O57  1  0.95758000  0.18732700  0.38519000  1
  O  O58  1  0.95756600  0.31270500  0.88539000  1
  O  O59  1  0.45756600  0.68729500  0.11461000  1
  O  O60  1  0.71937500  0.70302400  0.90248000  1
  O  O61  1  0.21937500  0.29697600  0.09752000  1
  O  O62  1  0.22027700  0.20391100  0.59750400  1
  O  O63  1  0.72027700  0.79608900  0.40249600  1
