# generated using pymatgen
data_RbBa2Ni2F9
_symmetry_space_group_name_H-M   'P 1'
_cell_length_a   7.86331812
_cell_length_b   7.86331812
_cell_length_c   7.86331887
_cell_angle_alpha   43.83380257
_cell_angle_beta   43.83380257
_cell_angle_gamma   43.83380851
_symmetry_Int_Tables_number   1
_chemical_formula_structural   RbBa2Ni2F9
_chemical_formula_sum   'Rb1 Ba2 Ni2 F9'
_cell_volume   211.74311332
_cell_formula_units_Z   1
loop_
 _symmetry_equiv_pos_site_id
 _symmetry_equiv_pos_as_xyz
  1  'x, y, z'
loop_
 _atom_site_type_symbol
 _atom_site_label
 _atom_site_symmetry_multiplicity
 _atom_site_fract_x
 _atom_site_fract_y
 _atom_site_fract_z
 _atom_site_occupancy
  Rb  Rb0  1  0.21301200  0.21301200  0.21301200  1
  Ba  Ba1  1  0.99880000  0.99880000  0.99880000  1
  Ba  Ba2  1  0.79369000  0.79369000  0.79369000  1
  Ni  Ni3  1  0.38964700  0.38964700  0.38964700  1
  Ni  Ni4  1  0.60671400  0.60671400  0.60671400  1
  F  F5  1  0.26814000  0.77244400  0.26814000  1
  F  F6  1  0.77244400  0.26814000  0.26814000  1
  F  F7  1  0.26814000  0.26814000  0.77244400  1
  F  F8  1  0.73195200  0.22076900  0.73195200  1
  F  F9  1  0.22076900  0.73195200  0.73195200  1
  F  F10  1  0.73195200  0.73195200  0.22076900  1
  F  F11  1  0.99263900  0.50605100  0.50605100  1
  F  F12  1  0.50605100  0.50605100  0.99263900  1
  F  F13  1  0.50605100  0.99263900  0.50605100  1
