# generated using pymatgen
data_RbNa2Al3Si3O13
_symmetry_space_group_name_H-M   'P 1'
_cell_length_a   8.16190300
_cell_length_b   5.22992400
_cell_length_c   16.31683213
_cell_angle_alpha   71.26815386
_cell_angle_beta   90.00000000
_cell_angle_gamma   90.00000000
_symmetry_Int_Tables_number   1
_chemical_formula_structural   RbNa2Al3Si3O13
_chemical_formula_sum   'Rb2 Na4 Al6 Si6 O26'
_cell_volume   659.61006454
_cell_formula_units_Z   2
loop_
 _symmetry_equiv_pos_site_id
 _symmetry_equiv_pos_as_xyz
  1  'x, y, z'
loop_
 _atom_site_type_symbol
 _atom_site_label
 _atom_site_symmetry_multiplicity
 _atom_site_fract_x
 _atom_site_fract_y
 _atom_site_fract_z
 _atom_site_occupancy
  Rb  Rb0  1  0.56398600  0.48325300  0.23609000  1
  Rb  Rb1  1  0.43601400  0.48325300  0.73609000  1
  Na  Na2  1  0.82024800  0.71681100  0.99917400  1
  Na  Na3  1  0.17975200  0.71681100  0.49917400  1
  Na  Na4  1  0.83530900  0.21870800  0.50034600  1
  Na  Na5  1  0.16469100  0.21870800  0.00034600  1
  Al  Al6  1  0.59660900  0.24651000  0.00011200  1
  Al  Al7  1  0.40339100  0.24651000  0.50011200  1
  Al  Al8  1  0.89984100  0.90128100  0.35408500  1
  Al  Al9  1  0.89801500  0.61006500  0.64580900  1
  Al  Al10  1  0.10198500  0.61006500  0.14580900  1
  Al  Al11  1  0.10015900  0.90128100  0.85408500  1
  Si  Si12  1  0.61594700  0.74941400  0.49948000  1
  Si  Si13  1  0.38405300  0.74941400  0.99948000  1
  Si  Si14  1  0.88356000  0.11403400  0.14262700  1
  Si  Si15  1  0.88225100  0.39958200  0.85723500  1
  Si  Si16  1  0.11774900  0.39958200  0.35723500  1
  Si  Si17  1  0.11644000  0.11403400  0.64262700  1
  O  O18  1  0.71509900  0.24287200  0.09106000  1
  O  O19  1  0.71528900  0.42254900  0.90968500  1
  O  O20  1  0.28471100  0.42254900  0.40968500  1
  O  O21  1  0.28490100  0.24287200  0.59106000  1
  O  O22  1  0.72357900  0.91910700  0.41455000  1
  O  O23  1  0.72312500  0.74650400  0.58475900  1
  O  O24  1  0.27687500  0.74650400  0.08475900  1
  O  O25  1  0.27642100  0.91910700  0.91455000  1
  O  O26  1  0.55485500  0.91405100  0.00084500  1
  O  O27  1  0.44514500  0.91405100  0.50084500  1
  O  O28  1  0.84625800  0.03496300  0.24536000  1
  O  O29  1  0.84760600  0.52488600  0.75441200  1
  O  O30  1  0.15239400  0.52488600  0.25441200  1
  O  O31  1  0.15374200  0.03496300  0.74536000  1
  O  O32  1  0.97083700  0.56545300  0.38824300  1
  O  O33  1  0.97158900  0.34375200  0.61143600  1
  O  O34  1  0.02841100  0.34375200  0.11143600  1
  O  O35  1  0.02916300  0.56545300  0.88824300  1
  O  O36  1  0.94246900  0.85395000  0.11411700  1
  O  O37  1  0.94411200  0.08387400  0.88631600  1
  O  O38  1  0.05588800  0.08387400  0.38631600  1
  O  O39  1  0.05753100  0.85395000  0.61411700  1
  O  O40  1  0.58058300  0.44011200  0.49988100  1
  O  O41  1  0.41941700  0.44011200  0.99988100  1
  O  O42  1  0.56471400  0.95427000  0.76437800  1
  O  O43  1  0.43528600  0.95427000  0.26437800  1
