# generated using pymatgen
data_RbMgCoF6
_symmetry_space_group_name_H-M   'P 1'
_cell_length_a   7.34147505
_cell_length_b   7.34147505
_cell_length_c   7.34147505
_cell_angle_alpha   120.52917821
_cell_angle_beta   119.83951752
_cell_angle_gamma   89.68203906
_symmetry_Int_Tables_number   1
_chemical_formula_structural   RbMgCoF6
_chemical_formula_sum   'Rb2 Mg2 Co2 F12'
_cell_volume   278.99480894
_cell_formula_units_Z   2
loop_
 _symmetry_equiv_pos_site_id
 _symmetry_equiv_pos_as_xyz
  1  'x, y, z'
loop_
 _atom_site_type_symbol
 _atom_site_label
 _atom_site_symmetry_multiplicity
 _atom_site_fract_x
 _atom_site_fract_y
 _atom_site_fract_z
 _atom_site_occupancy
  Rb  Rb0  1  0.36786300  0.61786300  0.75000000  1
  Rb  Rb1  1  0.63213700  0.38213700  0.25000000  1
  Mg  Mg2  1  0.00000000  0.00000000  0.50000000  1
  Mg  Mg3  1  0.00000000  0.50000000  0.00000000  1
  Co  Co4  1  0.00000000  0.00000000  0.00000000  1
  Co  Co5  1  0.50000000  0.00000000  0.50000000  1
  F  F6  1  0.31727500  0.06727500  0.25000000  1
  F  F7  1  0.92962200  0.67962200  0.25000000  1
  F  F8  1  0.32648600  0.68803600  0.25874100  1
  F  F9  1  0.92929400  0.06774500  0.24125900  1
  F  F10  1  0.32648600  0.06774500  0.63845000  1
  F  F11  1  0.92929400  0.68803600  0.86155000  1
  F  F12  1  0.68272500  0.93272500  0.75000000  1
  F  F13  1  0.07037800  0.32037800  0.75000000  1
  F  F14  1  0.67351400  0.31196400  0.74125900  1
  F  F15  1  0.07070600  0.93225500  0.75874100  1
  F  F16  1  0.67351400  0.93225500  0.36155000  1
  F  F17  1  0.07070600  0.31196400  0.13845000  1
