# generated using pymatgen
data_Sc7Cr5Ge9
_symmetry_space_group_name_H-M   'P 1'
_cell_length_a   9.96614672
_cell_length_b   9.96614672
_cell_length_c   9.95373707
_cell_angle_alpha   60.23481195
_cell_angle_beta   60.23481195
_cell_angle_gamma   90.47803409
_symmetry_Int_Tables_number   1
_chemical_formula_structural   Sc7Cr5Ge9
_chemical_formula_sum   'Sc14 Cr10 Ge18'
_cell_volume   701.10209583
_cell_formula_units_Z   2
loop_
 _symmetry_equiv_pos_site_id
 _symmetry_equiv_pos_as_xyz
  1  'x, y, z'
loop_
 _atom_site_type_symbol
 _atom_site_label
 _atom_site_symmetry_multiplicity
 _atom_site_fract_x
 _atom_site_fract_y
 _atom_site_fract_z
 _atom_site_occupancy
  Sc  Sc0  1  0.83745400  0.83745400  0.32509100  1
  Sc  Sc1  1  0.16254600  0.16254600  0.67490900  1
  Sc  Sc2  1  0.43490700  0.68669000  0.62303400  1
  Sc  Sc3  1  0.94205900  0.69027600  0.62303400  1
  Sc  Sc4  1  0.69027600  0.94205900  0.62303400  1
  Sc  Sc5  1  0.68669000  0.43490700  0.62303400  1
  Sc  Sc6  1  0.56509300  0.31331000  0.37696600  1
  Sc  Sc7  1  0.05794100  0.30972400  0.37696600  1
  Sc  Sc8  1  0.30972400  0.05794100  0.37696600  1
  Sc  Sc9  1  0.31331000  0.56509300  0.37696600  1
  Sc  Sc10  1  0.67823300  0.32176700  0.00000000  1
  Sc  Sc11  1  0.32176700  0.67823300  0.00000000  1
  Sc  Sc12  1  0.32016200  0.32016200  0.00000000  1
  Sc  Sc13  1  0.67983800  0.67983800  0.00000000  1
  Cr  Cr14  1  0.58326600  0.90379100  0.19372100  1
  Cr  Cr15  1  0.22301300  0.90248800  0.19372100  1
  Cr  Cr16  1  0.90248800  0.22301300  0.19372100  1
  Cr  Cr17  1  0.90379100  0.58326600  0.19372100  1
  Cr  Cr18  1  0.41673400  0.09620900  0.80627900  1
  Cr  Cr19  1  0.77698700  0.09751200  0.80627900  1
  Cr  Cr20  1  0.09751200  0.77698700  0.80627900  1
  Cr  Cr21  1  0.09620900  0.41673400  0.80627900  1
  Cr  Cr22  1  0.12311200  0.12311200  0.00000000  1
  Cr  Cr23  1  0.87688800  0.87688800  0.00000000  1
  Ge  Ge24  1  0.50069100  0.87406500  0.00000000  1
  Ge  Ge25  1  0.49930900  0.12593500  0.00000000  1
  Ge  Ge26  1  0.87406500  0.50069100  0.00000000  1
  Ge  Ge27  1  0.12593500  0.49930900  0.00000000  1
  Ge  Ge28  1  0.61110900  0.61110900  0.77778100  1
  Ge  Ge29  1  0.38889100  0.38889100  0.22221900  1
  Ge  Ge30  1  0.25000000  0.75000000  0.50000000  1
  Ge  Ge31  1  0.75000000  0.25000000  0.50000000  1
  Ge  Ge32  1  0.62296700  0.03849600  0.33853700  1
  Ge  Ge33  1  0.03849600  0.62296700  0.33853700  1
  Ge  Ge34  1  0.03880200  0.03880200  0.32786700  1
  Ge  Ge35  1  0.63333000  0.63333000  0.32786700  1
  Ge  Ge36  1  0.37703300  0.96150400  0.66146300  1
  Ge  Ge37  1  0.96150400  0.37703300  0.66146300  1
  Ge  Ge38  1  0.96119800  0.96119800  0.67213300  1
  Ge  Ge39  1  0.36667000  0.36667000  0.67213300  1
  Ge  Ge40  1  0.87447500  0.12552500  0.00000000  1
  Ge  Ge41  1  0.12552500  0.87447500  0.00000000  1
