# generated using pymatgen
data_Rb3NaNb2O3F10
_symmetry_space_group_name_H-M   'P 1'
_cell_length_a   6.11326900
_cell_length_b   11.11948893
_cell_length_c   11.56566848
_cell_angle_alpha   74.72494292
_cell_angle_beta   74.67552157
_cell_angle_gamma   105.95544661
_symmetry_Int_Tables_number   1
_chemical_formula_structural   Rb3NaNb2O3F10
_chemical_formula_sum   'Rb6 Na2 Nb4 O6 F20'
_cell_volume   679.45532384
_cell_formula_units_Z   2
loop_
 _symmetry_equiv_pos_site_id
 _symmetry_equiv_pos_as_xyz
  1  'x, y, z'
loop_
 _atom_site_type_symbol
 _atom_site_label
 _atom_site_symmetry_multiplicity
 _atom_site_fract_x
 _atom_site_fract_y
 _atom_site_fract_z
 _atom_site_occupancy
  Rb  Rb0  1  0.88890100  0.67028200  0.88246700  1
  Rb  Rb1  1  0.10108600  0.32971800  0.11753300  1
  Rb  Rb2  1  0.33809400  0.79067400  0.12406400  1
  Rb  Rb3  1  0.67148500  0.20932600  0.87593600  1
  Rb  Rb4  1  0.26620700  0.14073800  0.59316300  1
  Rb  Rb5  1  0.71863200  0.85926200  0.40683700  1
  Na  Na6  1  0.98811900  0.00000000  0.00000000  1
  Na  Na7  1  0.00106800  0.50000000  0.50000000  1
  Nb  Nb8  1  0.64910500  0.55864000  0.26293600  1
  Nb  Nb9  1  0.35340100  0.44136000  0.73706400  1
  Nb  Nb10  1  0.56090700  0.91095800  0.74941300  1
  Nb  Nb11  1  0.39936200  0.08904200  0.25058700  1
  O  O12  1  0.51323200  0.38919800  0.36877400  1
  O  O13  1  0.49280800  0.61080200  0.63122600  1
  O  O14  1  0.98257600  0.34197000  0.38175300  1
  O  O15  1  0.02235800  0.65803000  0.61824700  1
  O  O16  1  0.38215900  0.88107500  0.65417700  1
  O  O17  1  0.15526100  0.11892500  0.34582300  1
  F  F18  1  0.42275900  0.72789800  0.88142800  1
  F  F19  1  0.57628900  0.27210200  0.11857200  1
  F  F20  1  0.40101600  0.62125600  0.35375900  1
  F  F21  1  0.86760900  0.62154700  0.35416500  1
  F  F22  1  0.60022800  0.37845300  0.64583500  1
  F  F23  1  0.13352000  0.37874400  0.64624100  1
  F  F24  1  0.76660700  0.95206900  0.87242900  1
  F  F25  1  0.31446800  0.95273100  0.87344500  1
  F  F26  1  0.23518200  0.04726900  0.12655500  1
  F  F27  1  0.68696700  0.04793100  0.12757100  1
  F  F28  1  0.47739100  0.54826200  0.14004800  1
  F  F29  1  0.93198500  0.54866000  0.13896300  1
  F  F30  1  0.52228900  0.45134000  0.86103700  1
  F  F31  1  0.06917700  0.45173800  0.85995200  1
  F  F32  1  0.72433700  0.10804700  0.65754500  1
  F  F33  1  0.27383500  0.89195300  0.34245500  1
  F  F34  1  0.81769600  0.77191900  0.14083000  1
  F  F35  1  0.18660700  0.22808100  0.85917000  1
  F  F36  1  0.84698900  0.88268700  0.65338600  1
  F  F37  1  0.61768800  0.11731300  0.34661400  1
