# generated using pymatgen
data_Rb3H(SO4)2
_symmetry_space_group_name_H-M   'P 1'
_cell_length_a   8.32328093
_cell_length_b   8.32328093
_cell_length_c   10.33993631
_cell_angle_alpha   78.70816082
_cell_angle_beta   78.70816082
_cell_angle_gamma   42.13031725
_symmetry_Int_Tables_number   1
_chemical_formula_structural   Rb3H(SO4)2
_chemical_formula_sum   'Rb6 H2 S4 O16'
_cell_volume   469.82374505
_cell_formula_units_Z   2
loop_
 _symmetry_equiv_pos_site_id
 _symmetry_equiv_pos_as_xyz
  1  'x, y, z'
loop_
 _atom_site_type_symbol
 _atom_site_label
 _atom_site_symmetry_multiplicity
 _atom_site_fract_x
 _atom_site_fract_y
 _atom_site_fract_z
 _atom_site_occupancy
  Rb  Rb0  1  0.73935900  0.25341400  0.75023600  1
  Rb  Rb1  1  0.25341400  0.73935900  0.25023600  1
  Rb  Rb2  1  0.53587500  0.08549600  0.15196100  1
  Rb  Rb3  1  0.92062800  0.46542300  0.34825200  1
  Rb  Rb4  1  0.46542300  0.92062800  0.84825200  1
  Rb  Rb5  1  0.08549600  0.53587500  0.65196100  1
  H  H6  1  0.03753600  0.96712500  0.51094600  1
  H  H7  1  0.96712500  0.03753600  0.01094600  1
  S  S8  1  0.34112500  0.89570500  0.53604000  1
  S  S9  1  0.10251400  0.67085000  0.96451800  1
  S  S10  1  0.67085000  0.10251400  0.46451800  1
  S  S11  1  0.89570500  0.34112500  0.03604000  1
  O  O12  1  0.38439700  0.91855900  0.39165400  1
  O  O13  1  0.07953400  0.61763600  0.10920800  1
  O  O14  1  0.61763600  0.07953400  0.60920800  1
  O  O15  1  0.91855900  0.38439700  0.89165400  1
  O  O16  1  0.56241000  0.69475300  0.60355600  1
  O  O17  1  0.30367700  0.44600100  0.89684200  1
  O  O18  1  0.44600100  0.30367700  0.39684200  1
  O  O19  1  0.69475300  0.56241000  0.10355600  1
  O  O20  1  0.20292900  0.82610000  0.55821200  1
  O  O21  1  0.15586200  0.81507400  0.94775000  1
  O  O22  1  0.81507400  0.15586200  0.44775000  1
  O  O23  1  0.82610000  0.20292900  0.05821200  1
  O  O24  1  0.17995800  0.12517600  0.59612300  1
  O  O25  1  0.87222900  0.82265500  0.90470100  1
  O  O26  1  0.82265500  0.87222900  0.40470100  1
  O  O27  1  0.12517600  0.17995800  0.09612300  1
