# generated using pymatgen
data_Rb2CrBrCl3
_symmetry_space_group_name_H-M   'P 1'
_cell_length_a   9.03994084
_cell_length_b   9.03994084
_cell_length_c   7.24316800
_cell_angle_alpha   90.00000000
_cell_angle_beta   90.00000000
_cell_angle_gamma   132.78104200
_symmetry_Int_Tables_number   1
_chemical_formula_structural   Rb2CrBrCl3
_chemical_formula_sum   'Rb4 Cr2 Br2 Cl6'
_cell_volume   434.43914860
_cell_formula_units_Z   2
loop_
 _symmetry_equiv_pos_site_id
 _symmetry_equiv_pos_as_xyz
  1  'x, y, z'
loop_
 _atom_site_type_symbol
 _atom_site_label
 _atom_site_symmetry_multiplicity
 _atom_site_fract_x
 _atom_site_fract_y
 _atom_site_fract_z
 _atom_site_occupancy
  Rb  Rb0  1  0.86387800  0.13612200  0.50000000  1
  Rb  Rb1  1  0.36387800  0.63612200  0.00000000  1
  Rb  Rb2  1  0.13937800  0.86062200  0.50000000  1
  Rb  Rb3  1  0.63937800  0.36062200  0.00000000  1
  Cr  Cr4  1  0.49653500  0.50346500  0.50000000  1
  Cr  Cr5  1  0.99653500  0.00346500  0.00000000  1
  Br  Br6  1  0.65544300  0.34455700  0.50000000  1
  Br  Br7  1  0.15544300  0.84455700  0.00000000  1
  Cl  Cl8  1  0.34818000  0.65182000  0.50000000  1
  Cl  Cl9  1  0.84818000  0.15182000  0.00000000  1
  Cl  Cl10  1  0.73975900  0.74317400  0.73980300  1
  Cl  Cl11  1  0.25682600  0.26024100  0.26019700  1
  Cl  Cl12  1  0.75682600  0.76024100  0.23980300  1
  Cl  Cl13  1  0.23975900  0.24317400  0.76019700  1
