# generated using pymatgen
data_PtCl2
_symmetry_space_group_name_H-M   'P 1'
_cell_length_a   6.78584732
_cell_length_b   6.78584732
_cell_length_c   8.21880585
_cell_angle_alpha   74.13663064
_cell_angle_beta   74.13663064
_cell_angle_gamma   29.50862737
_symmetry_Int_Tables_number   1
_chemical_formula_structural   PtCl2
_chemical_formula_sum   'Pt2 Cl4'
_cell_volume   178.80882692
_cell_formula_units_Z   2
loop_
 _symmetry_equiv_pos_site_id
 _symmetry_equiv_pos_as_xyz
  1  'x, y, z'
loop_
 _atom_site_type_symbol
 _atom_site_label
 _atom_site_symmetry_multiplicity
 _atom_site_fract_x
 _atom_site_fract_y
 _atom_site_fract_z
 _atom_site_occupancy
  Pt  Pt0  1  0.47017600  0.47017600  0.75298500  1
  Pt  Pt1  1  0.52982400  0.52982400  0.24701500  1
  Cl  Cl2  1  0.84849000  0.84849000  0.77742800  1
  Cl  Cl3  1  0.15151000  0.15151000  0.22257200  1
  Cl  Cl4  1  0.90819400  0.90819400  0.26946500  1
  Cl  Cl5  1  0.09180600  0.09180600  0.73053500  1
