# generated using pymatgen
data_Pu2SbTe2
_symmetry_space_group_name_H-M   'P 1'
_cell_length_a   4.27120300
_cell_length_b   4.27120300
_cell_length_c   8.77892100
_cell_angle_alpha   90.00000000
_cell_angle_beta   90.00000000
_cell_angle_gamma   90.00000000
_symmetry_Int_Tables_number   1
_chemical_formula_structural   Pu2SbTe2
_chemical_formula_sum   'Pu2 Sb1 Te2'
_cell_volume   160.15539270
_cell_formula_units_Z   1
loop_
 _symmetry_equiv_pos_site_id
 _symmetry_equiv_pos_as_xyz
  1  'x, y, z'
loop_
 _atom_site_type_symbol
 _atom_site_label
 _atom_site_symmetry_multiplicity
 _atom_site_fract_x
 _atom_site_fract_y
 _atom_site_fract_z
 _atom_site_occupancy
  Pu  Pu0  1  0.50000000  0.00000000  0.72168300  1
  Pu  Pu1  1  0.00000000  0.50000000  0.27831700  1
  Sb  Sb2  1  0.50000000  0.50000000  0.00000000  1
  Te  Te3  1  0.50000000  0.00000000  0.35821900  1
  Te  Te4  1  0.00000000  0.50000000  0.64178100  1
