# generated using pymatgen
data_RbLa2Ti2NbO10
_symmetry_space_group_name_H-M   'P 1'
_cell_length_a   3.88552900
_cell_length_b   3.88552900
_cell_length_c   15.46325700
_cell_angle_alpha   90.00000000
_cell_angle_beta   90.00000000
_cell_angle_gamma   90.00000000
_symmetry_Int_Tables_number   1
_chemical_formula_structural   RbLa2Ti2NbO10
_chemical_formula_sum   'Rb1 La2 Ti2 Nb1 O10'
_cell_volume   233.45398055
_cell_formula_units_Z   1
loop_
 _symmetry_equiv_pos_site_id
 _symmetry_equiv_pos_as_xyz
  1  'x, y, z'
loop_
 _atom_site_type_symbol
 _atom_site_label
 _atom_site_symmetry_multiplicity
 _atom_site_fract_x
 _atom_site_fract_y
 _atom_site_fract_z
 _atom_site_occupancy
  Rb  Rb0  1  0.50000000  0.50000000  0.50886600  1
  La  La1  1  0.50000000  0.50000000  0.84336700  1
  La  La2  1  0.50000000  0.50000000  0.12944300  1
  Ti  Ti3  1  0.00000000  0.00000000  0.99758300  1
  Ti  Ti4  1  0.00000000  0.00000000  0.71048100  1
  Nb  Nb5  1  0.00000000  0.00000000  0.28561900  1
  O  O6  1  0.00000000  0.00000000  0.87677900  1
  O  O7  1  0.00000000  0.00000000  0.12969200  1
  O  O8  1  0.00000000  0.00000000  0.60067700  1
  O  O9  1  0.00000000  0.00000000  0.40146300  1
  O  O10  1  0.50000000  0.00000000  0.00786800  1
  O  O11  1  0.00000000  0.50000000  0.00786800  1
  O  O12  1  0.50000000  0.00000000  0.74712500  1
  O  O13  1  0.00000000  0.50000000  0.74712500  1
  O  O14  1  0.50000000  0.00000000  0.25302300  1
  O  O15  1  0.00000000  0.50000000  0.25302300  1
