# generated using pymatgen
data_PrNdSb4
_symmetry_space_group_name_H-M   'P 1'
_cell_length_a   4.43125979
_cell_length_b   4.43125979
_cell_length_c   18.27429929
_cell_angle_alpha   89.79152849
_cell_angle_beta   89.79152849
_cell_angle_gamma   90.08437000
_symmetry_Int_Tables_number   1
_chemical_formula_structural   PrNdSb4
_chemical_formula_sum   'Pr2 Nd2 Sb8'
_cell_volume   358.83015204
_cell_formula_units_Z   2
loop_
 _symmetry_equiv_pos_site_id
 _symmetry_equiv_pos_as_xyz
  1  'x, y, z'
loop_
 _atom_site_type_symbol
 _atom_site_label
 _atom_site_symmetry_multiplicity
 _atom_site_fract_x
 _atom_site_fract_y
 _atom_site_fract_z
 _atom_site_occupancy
  Pr  Pr0  1  0.86413000  0.86413000  0.38933600  1
  Pr  Pr1  1  0.13587000  0.13587000  0.61066400  1
  Nd  Nd2  1  0.63875900  0.63875900  0.88948900  1
  Nd  Nd3  1  0.36124100  0.36124100  0.11051100  1
  Sb  Sb4  1  0.62166600  0.12834200  0.75064300  1
  Sb  Sb5  1  0.87165800  0.37833400  0.24935700  1
  Sb  Sb6  1  0.37833400  0.87165800  0.24935700  1
  Sb  Sb7  1  0.12834200  0.62166600  0.75064300  1
  Sb  Sb8  1  0.63311600  0.63311600  0.56315100  1
  Sb  Sb9  1  0.36688400  0.36688400  0.43684900  1
  Sb  Sb10  1  0.86636500  0.86636500  0.06370900  1
  Sb  Sb11  1  0.13363500  0.13363500  0.93629100  1
