# generated using pymatgen
data_PrAsPd
_symmetry_space_group_name_H-M   'P 1'
_cell_length_a   4.52392826
_cell_length_b   4.52392826
_cell_length_c   7.85763200
_cell_angle_alpha   90.00000000
_cell_angle_beta   90.00000000
_cell_angle_gamma   119.55483577
_symmetry_Int_Tables_number   1
_chemical_formula_structural   PrAsPd
_chemical_formula_sum   'Pr2 As2 Pd2'
_cell_volume   139.88928650
_cell_formula_units_Z   2
loop_
 _symmetry_equiv_pos_site_id
 _symmetry_equiv_pos_as_xyz
  1  'x, y, z'
loop_
 _atom_site_type_symbol
 _atom_site_label
 _atom_site_symmetry_multiplicity
 _atom_site_fract_x
 _atom_site_fract_y
 _atom_site_fract_z
 _atom_site_occupancy
  Pr  Pr0  1  0.50000000  0.50000000  0.25679100  1
  Pr  Pr1  1  0.50000000  0.50000000  0.74320900  1
  As  As2  1  0.82227700  0.17772300  0.00000000  1
  As  As3  1  0.17772300  0.82227700  0.00000000  1
  Pd  Pd4  1  0.16724500  0.83275500  0.50000000  1
  Pd  Pd5  1  0.83275500  0.16724500  0.50000000  1
