# generated using pymatgen
data_PrY
_symmetry_space_group_name_H-M   'P 1'
_cell_length_a   17.79521316
_cell_length_b   17.79521316
_cell_length_c   17.79521375
_cell_angle_alpha   11.83638292
_cell_angle_beta   11.83638292
_cell_angle_gamma   11.83638242
_symmetry_Int_Tables_number   1
_chemical_formula_structural   PrY
_chemical_formula_sum   'Pr3 Y3'
_cell_volume   206.05719224
_cell_formula_units_Z   3
loop_
 _symmetry_equiv_pos_site_id
 _symmetry_equiv_pos_as_xyz
  1  'x, y, z'
loop_
 _atom_site_type_symbol
 _atom_site_label
 _atom_site_symmetry_multiplicity
 _atom_site_fract_x
 _atom_site_fract_y
 _atom_site_fract_z
 _atom_site_occupancy
  Pr  Pr0  1  0.00135800  0.00135800  0.00135800  1
  Pr  Pr1  1  0.49965000  0.49965000  0.49965000  1
  Pr  Pr2  1  0.61041900  0.61041900  0.61041900  1
  Y  Y3  1  0.11058100  0.11058100  0.11058100  1
  Y  Y4  1  0.88831600  0.88831600  0.88831600  1
  Y  Y5  1  0.38967600  0.38967600  0.38967600  1
