# generated using pymatgen
data_Rb3Br2Cl
_symmetry_space_group_name_H-M   'P 1'
_cell_length_a   10.93482186
_cell_length_b   10.93482186
_cell_length_c   10.93482186
_cell_angle_alpha   154.14981520
_cell_angle_beta   154.14981520
_cell_angle_gamma   36.88188768
_symmetry_Int_Tables_number   1
_chemical_formula_structural   Rb3Br2Cl
_chemical_formula_sum   'Rb3 Br2 Cl1'
_cell_volume   248.22403942
_cell_formula_units_Z   1
loop_
 _symmetry_equiv_pos_site_id
 _symmetry_equiv_pos_as_xyz
  1  'x, y, z'
loop_
 _atom_site_type_symbol
 _atom_site_label
 _atom_site_symmetry_multiplicity
 _atom_site_fract_x
 _atom_site_fract_y
 _atom_site_fract_z
 _atom_site_occupancy
  Rb  Rb0  1  0.66475400  0.66475400  0.00000000  1
  Rb  Rb1  1  0.00000000  0.00000000  0.00000000  1
  Rb  Rb2  1  0.33524600  0.33524600  0.00000000  1
  Br  Br3  1  0.83331600  0.83331600  0.00000000  1
  Br  Br4  1  0.16668400  0.16668400  0.00000000  1
  Cl  Cl5  1  0.50000000  0.50000000  0.00000000  1
