# generated using pymatgen
data_Rb2TiFe2(MoO4)6
_symmetry_space_group_name_H-M   'P 1'
_cell_length_a   8.60172500
_cell_length_b   8.61257935
_cell_length_c   8.63146170
_cell_angle_alpha   99.26842312
_cell_angle_beta   99.20195450
_cell_angle_gamma   99.27803973
_symmetry_Int_Tables_number   1
_chemical_formula_structural   Rb2TiFe2(MoO4)6
_chemical_formula_sum   'Rb2 Ti1 Fe2 Mo6 O24'
_cell_volume   611.39369299
_cell_formula_units_Z   1
loop_
 _symmetry_equiv_pos_site_id
 _symmetry_equiv_pos_as_xyz
  1  'x, y, z'
loop_
 _atom_site_type_symbol
 _atom_site_label
 _atom_site_symmetry_multiplicity
 _atom_site_fract_x
 _atom_site_fract_y
 _atom_site_fract_z
 _atom_site_occupancy
  Rb  Rb0  1  0.81489000  0.81545800  0.81269600  1
  Rb  Rb1  1  0.18511000  0.18454200  0.18730400  1
  Ti  Ti2  1  0.50000000  0.50000000  0.00000000  1
  Fe  Fe3  1  0.00000000  0.50000000  0.50000000  1
  Fe  Fe4  1  0.50000000  0.00000000  0.50000000  1
  Mo  Mo5  1  0.78703100  0.32009600  0.77092400  1
  Mo  Mo6  1  0.77051300  0.78707900  0.32076600  1
  Mo  Mo7  1  0.32039700  0.77045000  0.78766400  1
  Mo  Mo8  1  0.21296900  0.67990400  0.22907600  1
  Mo  Mo9  1  0.22948700  0.21292100  0.67923400  1
  Mo  Mo10  1  0.67960300  0.22955000  0.21233600  1
  O  O11  1  0.82588200  0.44448400  0.62599200  1
  O  O12  1  0.62559700  0.82643600  0.44580900  1
  O  O13  1  0.44762200  0.62384300  0.83166700  1
  O  O14  1  0.17411800  0.55551600  0.37400800  1
  O  O15  1  0.37440300  0.17356400  0.55419100  1
  O  O16  1  0.55237800  0.37615700  0.16833300  1
  O  O17  1  0.69252500  0.11989600  0.66646300  1
  O  O18  1  0.66168900  0.68666000  0.11864500  1
  O  O19  1  0.12025600  0.66524800  0.69201200  1
  O  O20  1  0.30747500  0.88010400  0.33353700  1
  O  O21  1  0.33831100  0.31334000  0.88135500  1
  O  O22  1  0.87974400  0.33475200  0.30798800  1
  O  O23  1  0.96679200  0.30779200  0.88909600  1
  O  O24  1  0.88982600  0.96600300  0.30801800  1
  O  O25  1  0.30661000  0.89116700  0.96530800  1
  O  O26  1  0.03320800  0.69220800  0.11090400  1
  O  O27  1  0.11017400  0.03399700  0.69198200  1
  O  O28  1  0.69339000  0.10883300  0.03469200  1
  O  O29  1  0.66165000  0.42223800  0.89144600  1
  O  O30  1  0.88941500  0.66607400  0.42127700  1
  O  O31  1  0.42095100  0.88845400  0.66577100  1
  O  O32  1  0.33835000  0.57776200  0.10855400  1
  O  O33  1  0.11058500  0.33392600  0.57872300  1
  O  O34  1  0.57904900  0.11154600  0.33422900  1
