# generated using pymatgen
data_PrCoSbPbO6
_symmetry_space_group_name_H-M   'P 1'
_cell_length_a   5.79127800
_cell_length_b   5.68871000
_cell_length_c   9.84889626
_cell_angle_alpha   54.84947877
_cell_angle_beta   90.00000000
_cell_angle_gamma   90.00000000
_symmetry_Int_Tables_number   1
_chemical_formula_structural   PrCoSbPbO6
_chemical_formula_sum   'Pr2 Co2 Sb2 Pb2 O12'
_cell_volume   265.30117022
_cell_formula_units_Z   2
loop_
 _symmetry_equiv_pos_site_id
 _symmetry_equiv_pos_as_xyz
  1  'x, y, z'
loop_
 _atom_site_type_symbol
 _atom_site_label
 _atom_site_symmetry_multiplicity
 _atom_site_fract_x
 _atom_site_fract_y
 _atom_site_fract_z
 _atom_site_occupancy
  Pr  Pr0  1  0.80184800  0.26592500  0.24852100  1
  Pr  Pr1  1  0.19815200  0.26592500  0.74852100  1
  Co  Co2  1  0.73783500  0.50400700  0.49736000  1
  Co  Co3  1  0.26216500  0.50400700  0.99736000  1
  Sb  Sb4  1  0.74281900  0.99979300  0.00087500  1
  Sb  Sb5  1  0.25718100  0.99979300  0.50087500  1
  Pb  Pb6  1  0.73354400  0.75005300  0.74654700  1
  Pb  Pb7  1  0.26645600  0.75005300  0.24654700  1
  O  O8  1  0.44571500  0.66215800  0.54855500  1
  O  O9  1  0.55428500  0.66215800  0.04855500  1
  O  O10  1  0.03696800  0.30981200  0.46274200  1
  O  O11  1  0.96303200  0.30981200  0.96274200  1
  O  O12  1  0.98134700  0.74368000  0.54200200  1
  O  O13  1  0.01865300  0.74368000  0.04200200  1
  O  O14  1  0.54264500  0.23465700  0.45463800  1
  O  O15  1  0.45735500  0.23465700  0.95463800  1
  O  O16  1  0.26008900  0.85323700  0.74273200  1
  O  O17  1  0.73991100  0.85323700  0.24273200  1
  O  O18  1  0.21956300  0.17667800  0.25602900  1
  O  O19  1  0.78043700  0.17667800  0.75602900  1
