# generated using pymatgen
data_Rb3Cu3Bi8Se15
_symmetry_space_group_name_H-M   'P 1'
_cell_length_a   9.64902561
_cell_length_b   9.64902561
_cell_length_c   19.12641800
_cell_angle_alpha   81.35598041
_cell_angle_beta   81.35598041
_cell_angle_gamma   96.97971474
_symmetry_Int_Tables_number   1
_chemical_formula_structural   Rb3Cu3Bi8Se15
_chemical_formula_sum   'Rb6 Cu6 Bi16 Se30'
_cell_volume   1721.49452734
_cell_formula_units_Z   2
loop_
 _symmetry_equiv_pos_site_id
 _symmetry_equiv_pos_as_xyz
  1  'x, y, z'
loop_
 _atom_site_type_symbol
 _atom_site_label
 _atom_site_symmetry_multiplicity
 _atom_site_fract_x
 _atom_site_fract_y
 _atom_site_fract_z
 _atom_site_occupancy
  Rb  Rb0  1  0.55323600  0.11277000  0.24744800  1
  Rb  Rb1  1  0.88723000  0.44676400  0.25255200  1
  Rb  Rb2  1  0.22322600  0.77677400  0.25000000  1
  Rb  Rb3  1  0.11277000  0.55323600  0.74744800  1
  Rb  Rb4  1  0.44676400  0.88723000  0.75255200  1
  Rb  Rb5  1  0.77677400  0.22322600  0.75000000  1
  Cu  Cu6  1  0.28470800  0.37731800  0.26012100  1
  Cu  Cu7  1  0.62268200  0.71529200  0.23987900  1
  Cu  Cu8  1  0.96043900  0.03956100  0.25000000  1
  Cu  Cu9  1  0.37731800  0.28470800  0.76012100  1
  Cu  Cu10  1  0.71529200  0.62268200  0.73987900  1
  Cu  Cu11  1  0.03956100  0.96043900  0.75000000  1
  Bi  Bi12  1  0.67288100  0.17851100  0.50023300  1
  Bi  Bi13  1  0.32711900  0.82148900  0.49976700  1
  Bi  Bi14  1  0.82148900  0.32711900  0.99976700  1
  Bi  Bi15  1  0.17851100  0.67288100  0.00023300  1
  Bi  Bi16  1  0.80548800  0.75958500  0.90074300  1
  Bi  Bi17  1  0.47230200  0.41891500  0.90263900  1
  Bi  Bi18  1  0.14977900  0.08745200  0.90541400  1
  Bi  Bi19  1  0.19451200  0.24041500  0.09925700  1
  Bi  Bi20  1  0.85022100  0.91254800  0.09458600  1
  Bi  Bi21  1  0.52769800  0.58108500  0.09736100  1
  Bi  Bi22  1  0.91254800  0.85022100  0.59458600  1
  Bi  Bi23  1  0.58108500  0.52769800  0.59736100  1
  Bi  Bi24  1  0.24041500  0.19451200  0.59925700  1
  Bi  Bi25  1  0.08745200  0.14977900  0.40541400  1
  Bi  Bi26  1  0.75958500  0.80548800  0.40074300  1
  Bi  Bi27  1  0.41891500  0.47230200  0.40263900  1
  Se  Se28  1  0.14271900  0.44876400  0.36280700  1
  Se  Se29  1  0.48339600  0.78123600  0.36123300  1
  Se  Se30  1  0.81233400  0.10860800  0.36011500  1
  Se  Se31  1  0.51660400  0.21876400  0.63876700  1
  Se  Se32  1  0.85728100  0.55123600  0.63719300  1
  Se  Se33  1  0.18766600  0.89139200  0.63988500  1
  Se  Se34  1  0.21876400  0.51660400  0.13876700  1
  Se  Se35  1  0.55123600  0.85728100  0.13719300  1
  Se  Se36  1  0.89139200  0.18766600  0.13988500  1
  Se  Se37  1  0.44876400  0.14271900  0.86280700  1
  Se  Se38  1  0.78123600  0.48339600  0.86123300  1
  Se  Se39  1  0.10860800  0.81233400  0.86011500  1
  Se  Se40  1  0.53889200  0.46110800  0.25000000  1
  Se  Se41  1  0.86946600  0.79347900  0.25374900  1
  Se  Se42  1  0.20652100  0.13053400  0.24625100  1
  Se  Se43  1  0.13053400  0.20652100  0.74625100  1
  Se  Se44  1  0.46110800  0.53889200  0.75000000  1
  Se  Se45  1  0.79347900  0.86946600  0.75374900  1
  Se  Se46  1  0.38513600  0.14854500  0.45206000  1
  Se  Se47  1  0.70491700  0.47854800  0.45281300  1
  Se  Se48  1  0.05227900  0.82594400  0.45390900  1
  Se  Se49  1  0.29508300  0.52145200  0.54718700  1
  Se  Se50  1  0.61486400  0.85145500  0.54794000  1
  Se  Se51  1  0.94772100  0.17405600  0.54609100  1
  Se  Se52  1  0.52145200  0.29508300  0.04718700  1
  Se  Se53  1  0.85145500  0.61486400  0.04794000  1
  Se  Se54  1  0.17405600  0.94772100  0.04609100  1
  Se  Se55  1  0.14854500  0.38513600  0.95206000  1
  Se  Se56  1  0.47854800  0.70491700  0.95281300  1
  Se  Se57  1  0.82594400  0.05227900  0.95390900  1
