# generated using pymatgen
data_Pr3Se2NO
_symmetry_space_group_name_H-M   'P 1'
_cell_length_a   4.10077100
_cell_length_b   9.77430332
_cell_length_c   12.57301840
_cell_angle_alpha   95.85282836
_cell_angle_beta   80.61438961
_cell_angle_gamma   90.00000000
_symmetry_Int_Tables_number   1
_chemical_formula_structural   Pr3Se2NO
_chemical_formula_sum   'Pr9 Se6 N3 O3'
_cell_volume   494.54473174
_cell_formula_units_Z   3
loop_
 _symmetry_equiv_pos_site_id
 _symmetry_equiv_pos_as_xyz
  1  'x, y, z'
loop_
 _atom_site_type_symbol
 _atom_site_label
 _atom_site_symmetry_multiplicity
 _atom_site_fract_x
 _atom_site_fract_y
 _atom_site_fract_z
 _atom_site_occupancy
  Pr  Pr0  1  0.08868100  0.64495000  0.82263800  1
  Pr  Pr1  1  0.90946400  0.35420500  0.18107100  1
  Pr  Pr2  1  0.18849400  0.01183100  0.62301200  1
  Pr  Pr3  1  0.81154100  0.98854500  0.37691700  1
  Pr  Pr4  1  0.28082500  0.66830400  0.43835000  1
  Pr  Pr5  1  0.71868000  0.33212600  0.56264000  1
  Pr  Pr6  1  0.00020100  0.99209100  0.99959800  1
  Pr  Pr7  1  0.46330900  0.67711100  0.07338200  1
  Pr  Pr8  1  0.53747300  0.32006900  0.92505400  1
  Se  Se9  1  0.13224300  0.32956800  0.73551500  1
  Se  Se10  1  0.86710200  0.66472100  0.26579600  1
  Se  Se11  1  0.30876900  0.33441000  0.38246200  1
  Se  Se12  1  0.69072400  0.66691800  0.61855100  1
  Se  Se13  1  0.41286000  0.04513400  0.17427900  1
  Se  Se14  1  0.58816100  0.97246900  0.82367900  1
  N  N15  1  0.27756600  0.89811800  0.44486800  1
  N  N16  1  0.72315300  0.10266600  0.55369500  1
  N  N17  1  0.00108900  0.75554200  0.99782100  1
  O  O18  1  0.44674300  0.43231600  0.10651400  1
  O  O19  1  0.55327900  0.55648500  0.89344200  1
  O  O20  1  0.99964300  0.25242200  0.00071500  1
