# generated using pymatgen
data_Pr2MnSn4
_symmetry_space_group_name_H-M   'P 1'
_cell_length_a   4.65317900
_cell_length_b   4.68921100
_cell_length_c   8.95272514
_cell_angle_alpha   74.81791610
_cell_angle_beta   90.00000000
_cell_angle_gamma   90.00000000
_symmetry_Int_Tables_number   1
_chemical_formula_structural   Pr2MnSn4
_chemical_formula_sum   'Pr2 Mn1 Sn4'
_cell_volume   188.52823258
_cell_formula_units_Z   1
loop_
 _symmetry_equiv_pos_site_id
 _symmetry_equiv_pos_as_xyz
  1  'x, y, z'
loop_
 _atom_site_type_symbol
 _atom_site_label
 _atom_site_symmetry_multiplicity
 _atom_site_fract_x
 _atom_site_fract_y
 _atom_site_fract_z
 _atom_site_occupancy
  Pr  Pr0  1  0.25000000  0.89650100  0.20699900  1
  Pr  Pr1  1  0.75000000  0.10061500  0.79877100  1
  Mn  Mn2  1  0.25000000  0.69387700  0.61224600  1
  Sn  Sn3  1  0.25000000  0.54312000  0.91376000  1
  Sn  Sn4  1  0.75000000  0.43430600  0.13138900  1
  Sn  Sn5  1  0.25000000  0.25885400  0.48229100  1
  Sn  Sn6  1  0.75000000  0.75672800  0.48654400  1
