# generated using pymatgen
data_KV(CuSe2)2
_symmetry_space_group_name_H-M   'P 1'
_cell_length_a   9.80277711
_cell_length_b   9.80277711
_cell_length_c   7.70886500
_cell_angle_alpha   90.00000000
_cell_angle_beta   90.00000000
_cell_angle_gamma   146.74359664
_symmetry_Int_Tables_number   1
_chemical_formula_structural   KV(CuSe2)2
_chemical_formula_sum   'K2 V2 Cu4 Se8'
_cell_volume   406.23337510
_cell_formula_units_Z   2
loop_
 _symmetry_equiv_pos_site_id
 _symmetry_equiv_pos_as_xyz
  1  'x, y, z'
loop_
 _atom_site_type_symbol
 _atom_site_label
 _atom_site_symmetry_multiplicity
 _atom_site_fract_x
 _atom_site_fract_y
 _atom_site_fract_z
 _atom_site_occupancy
  K  K0  1  0.17004400  0.79997500  0.75000000  1
  K  K1  1  0.79997500  0.17004400  0.25000000  1
  V  V2  1  0.64200600  0.85778200  0.75000000  1
  V  V3  1  0.85778200  0.64200600  0.25000000  1
  Cu  Cu4  1  0.73426100  0.73426100  0.50000000  1
  Cu  Cu5  1  0.73426100  0.73426100  0.00000000  1
  Cu  Cu6  1  0.35910900  0.14204900  0.25000000  1
  Cu  Cu7  1  0.14204900  0.35910900  0.75000000  1
  Se  Se8  1  0.62216600  0.40220300  0.00103000  1
  Se  Se9  1  0.40220300  0.62216700  0.50103000  1
  Se  Se10  1  0.98992800  0.99916800  0.75000000  1
  Se  Se11  1  0.40220300  0.62216700  0.99897000  1
  Se  Se12  1  0.19198800  0.77404900  0.25000000  1
  Se  Se13  1  0.77404900  0.19198800  0.75000000  1
  Se  Se14  1  0.99916800  0.98992800  0.25000000  1
  Se  Se15  1  0.62216600  0.40220300  0.49897000  1
