# generated using pymatgen
data_RbIn(TeMo)6
_symmetry_space_group_name_H-M   'P 1'
_cell_length_a   4.60431000
_cell_length_b   10.53600763
_cell_length_c   10.53330162
_cell_angle_alpha   119.95958150
_cell_angle_beta   90.00000000
_cell_angle_gamma   90.00000000
_symmetry_Int_Tables_number   1
_chemical_formula_structural   RbIn(TeMo)6
_chemical_formula_sum   'Rb1 In1 Te6 Mo6'
_cell_volume   442.70305760
_cell_formula_units_Z   1
loop_
 _symmetry_equiv_pos_site_id
 _symmetry_equiv_pos_as_xyz
  1  'x, y, z'
loop_
 _atom_site_type_symbol
 _atom_site_label
 _atom_site_symmetry_multiplicity
 _atom_site_fract_x
 _atom_site_fract_y
 _atom_site_fract_z
 _atom_site_occupancy
  Rb  Rb0  1  0.75000000  0.66638500  0.33310000  1
  In  In1  1  0.25000000  0.33291200  0.66741500  1
  Te  Te2  1  0.75000000  0.70462900  0.67948600  1
  Te  Te3  1  0.75000000  0.32053800  0.02456900  1
  Te  Te4  1  0.75000000  0.97504900  0.29578900  1
  Te  Te5  1  0.25000000  0.29326800  0.32846300  1
  Te  Te6  1  0.25000000  0.67136500  0.96473000  1
  Te  Te7  1  0.25000000  0.03543900  0.70666000  1
  Mo  Mo8  1  0.75000000  0.01464900  0.86114500  1
  Mo  Mo9  1  0.75000000  0.13895400  0.15319700  1
  Mo  Mo10  1  0.75000000  0.84665400  0.98553500  1
  Mo  Mo11  1  0.25000000  0.98561900  0.13833400  1
  Mo  Mo12  1  0.25000000  0.86194200  0.84727500  1
  Mo  Mo13  1  0.25000000  0.15259700  0.01430000  1
