# generated using pymatgen
data_PrZr3F15
_symmetry_space_group_name_H-M   'P 1'
_cell_length_a   8.36811953
_cell_length_b   8.36811953
_cell_length_c   8.32733142
_cell_angle_alpha   79.60737228
_cell_angle_beta   79.60737228
_cell_angle_gamma   99.97229917
_symmetry_Int_Tables_number   1
_chemical_formula_structural   PrZr3F15
_chemical_formula_sum   'Pr2 Zr6 F30'
_cell_volume   551.24828965
_cell_formula_units_Z   2
loop_
 _symmetry_equiv_pos_site_id
 _symmetry_equiv_pos_as_xyz
  1  'x, y, z'
loop_
 _atom_site_type_symbol
 _atom_site_label
 _atom_site_symmetry_multiplicity
 _atom_site_fract_x
 _atom_site_fract_y
 _atom_site_fract_z
 _atom_site_occupancy
  Pr  Pr0  1  0.17623400  0.82376600  0.25000000  1
  Pr  Pr1  1  0.82376600  0.17623400  0.75000000  1
  Zr  Zr2  1  0.75202700  0.24797300  0.25000000  1
  Zr  Zr3  1  0.24797300  0.75202700  0.75000000  1
  Zr  Zr4  1  0.74200300  0.67596000  0.67608300  1
  Zr  Zr5  1  0.32404000  0.25799700  0.82391700  1
  Zr  Zr6  1  0.25799700  0.32404000  0.32391700  1
  Zr  Zr7  1  0.67596000  0.74200300  0.17608300  1
  F  F8  1  0.31433100  0.34837000  0.05507300  1
  F  F9  1  0.92764500  0.80977200  0.14998500  1
  F  F10  1  0.84192900  0.46833300  0.68513700  1
  F  F11  1  0.46833300  0.84192900  0.18513700  1
  F  F12  1  0.80977200  0.92764500  0.64998500  1
  F  F13  1  0.34837000  0.31433100  0.55507300  1
  F  F14  1  0.68566900  0.65163000  0.94492700  1
  F  F15  1  0.07235500  0.19022800  0.85001500  1
  F  F16  1  0.15807100  0.53166700  0.31486300  1
  F  F17  1  0.53166700  0.15807100  0.81486300  1
  F  F18  1  0.19022800  0.07235500  0.35001500  1
  F  F19  1  0.65163000  0.68566900  0.44492700  1
  F  F20  1  0.46653700  0.53346300  0.25000000  1
  F  F21  1  0.74498000  0.94676200  0.97771500  1
  F  F22  1  0.05323800  0.25502000  0.52228500  1
  F  F23  1  0.25502000  0.05323800  0.02228500  1
  F  F24  1  0.94676200  0.74498000  0.47771500  1
  F  F25  1  0.53346300  0.46653700  0.75000000  1
  F  F26  1  0.77367800  0.28368400  0.99958100  1
  F  F27  1  0.00230600  0.27483800  0.22215500  1
  F  F28  1  0.77042600  0.50395800  0.22395200  1
  F  F29  1  0.50395800  0.77042600  0.72395200  1
  F  F30  1  0.27483800  0.00230600  0.72215500  1
  F  F31  1  0.28368400  0.77367800  0.49958100  1
  F  F32  1  0.22632200  0.71631600  0.00041900  1
  F  F33  1  0.99769400  0.72516200  0.77784500  1
  F  F34  1  0.22957400  0.49604200  0.77604800  1
  F  F35  1  0.49604200  0.22957400  0.27604800  1
  F  F36  1  0.72516200  0.99769400  0.27784500  1
  F  F37  1  0.71631600  0.22632200  0.50041900  1
