# generated using pymatgen
data_Rb4Ga8P10O41
_symmetry_space_group_name_H-M   'P 1'
_cell_length_a   5.15959271
_cell_length_b   8.30189602
_cell_length_c   21.92458303
_cell_angle_alpha   89.99390239
_cell_angle_beta   89.99944267
_cell_angle_gamma   91.75049639
_symmetry_Int_Tables_number   1
_chemical_formula_structural   Rb4Ga8P10O41
_chemical_formula_sum   'Rb4 Ga8 P10 O41'
_cell_volume   938.68813562
_cell_formula_units_Z   1
loop_
 _symmetry_equiv_pos_site_id
 _symmetry_equiv_pos_as_xyz
  1  'x, y, z'
loop_
 _atom_site_type_symbol
 _atom_site_label
 _atom_site_symmetry_multiplicity
 _atom_site_fract_x
 _atom_site_fract_y
 _atom_site_fract_z
 _atom_site_occupancy
  Rb  Rb0  1  0.97911500  0.83724200  0.49969400  1
  Rb  Rb1  1  0.02093900  0.16308300  0.99969600  1
  Rb  Rb2  1  0.00117700  0.42786700  0.77627500  1
  Rb  Rb3  1  0.99282800  0.57464600  0.27534300  1
  Ga  Ga4  1  0.45903100  0.54381200  0.91392000  1
  Ga  Ga5  1  0.54075600  0.45587200  0.41380200  1
  Ga  Ga6  1  0.96770600  0.33842300  0.57676600  1
  Ga  Ga7  1  0.03220400  0.66171300  0.07665100  1
  Ga  Ga8  1  0.04299900  0.97954800  0.82110500  1
  Ga  Ga9  1  0.95729200  0.02053200  0.32115500  1
  Ga  Ga10  1  0.47752400  0.83556200  0.65660200  1
  Ga  Ga11  1  0.52196600  0.16440600  0.15672600  1
  P  P12  1  0.53539200  0.16883200  0.87586600  1
  P  P13  1  0.46485700  0.83089200  0.37575200  1
  P  P14  1  0.00305200  0.04717100  0.67061200  1
  P  P15  1  0.99685800  0.95258900  0.17074900  1
  P  P16  1  0.50442300  0.54484200  0.56314700  1
  P  P17  1  0.49495200  0.45527200  0.06321500  1
  P  P18  1  0.54286000  0.74032100  0.79022200  1
  P  P19  1  0.45730800  0.25990000  0.29028900  1
  P  P20  1  0.97227000  0.74890500  0.93943100  1
  P  P21  1  0.02766900  0.25120800  0.43946300  1
  O  O22  1  0.15466700  0.91290200  0.63645200  1
  O  O23  1  0.84485200  0.08649200  0.13655200  1
  O  O24  1  0.20715100  0.51026000  0.56867900  1
  O  O25  1  0.79235900  0.48998300  0.06882700  1
  O  O26  1  0.06906600  0.21241900  0.64016100  1
  O  O27  1  0.93144800  0.78614500  0.14078400  1
  O  O28  1  0.60780700  0.54443400  0.49795900  1
  O  O29  1  0.39224300  0.45555900  0.99799700  1
  O  O30  1  0.65444700  0.42146600  0.60243300  1
  O  O31  1  0.34467300  0.57829900  0.10256000  1
  O  O32  1  0.62221100  0.34258900  0.89912200  1
  O  O33  1  0.37762500  0.65713300  0.39899600  1
  O  O34  1  0.10881700  0.60173500  0.91132900  1
  O  O35  1  0.89130000  0.39837900  0.41123800  1
  O  O36  1  0.08505200  0.06244900  0.73669200  1
  O  O37  1  0.91577600  0.93631100  0.23682000  1
  O  O38  1  0.36944800  0.86858700  0.81509100  1
  O  O39  1  0.63048400  0.13122300  0.31497200  1
  O  O40  1  0.53691100  0.07671200  0.93728900  1
  O  O41  1  0.46308900  0.92339000  0.43704600  1
  O  O42  1  0.83232800  0.79133100  0.79217400  1
  O  O43  1  0.16761300  0.20896800  0.29211800  1
  O  O44  1  0.26257300  0.17541400  0.84802800  1
  O  O45  1  0.73772700  0.82417900  0.34795400  1
  O  O46  1  0.74452500  0.12311900  0.82985000  1
  O  O47  1  0.25577900  0.87576500  0.32949500  1
  O  O48  1  0.49886500  0.57636600  0.82446800  1
  O  O49  1  0.50105500  0.42387200  0.32439700  1
  O  O50  1  0.55938200  0.71904500  0.58751900  1
  O  O51  1  0.44057900  0.28092800  0.08756900  1
  O  O52  1  0.70908500  0.00890300  0.66028500  1
  O  O53  1  0.29070000  0.99080100  0.16021700  1
  O  O54  1  0.06470300  0.78172800  0.00683600  1
  O  O55  1  0.93500500  0.21862000  0.50681400  1
  O  O56  1  0.46863800  0.69679200  0.72194200  1
  O  O57  1  0.53154800  0.30366600  0.22192900  1
  O  O58  1  0.67822000  0.70838400  0.94123900  1
  O  O59  1  0.32173800  0.29154400  0.44129800  1
  O  O60  1  0.02979200  0.90808900  0.90679800  1
  O  O61  1  0.97012700  0.09197900  0.40678600  1
  O  O62  1  0.49041600  0.32940200  0.72800500  1
