# generated using pymatgen
data_Pb2SeS
_symmetry_space_group_name_H-M   'P 1'
_cell_length_a   7.49414648
_cell_length_b   7.49414648
_cell_length_c   7.49414695
_cell_angle_alpha   33.57160981
_cell_angle_beta   33.57160981
_cell_angle_gamma   33.57160792
_symmetry_Int_Tables_number   1
_chemical_formula_structural   Pb2SeS
_chemical_formula_sum   'Pb2 Se1 S1'
_cell_volume   114.64011231
_cell_formula_units_Z   1
loop_
 _symmetry_equiv_pos_site_id
 _symmetry_equiv_pos_as_xyz
  1  'x, y, z'
loop_
 _atom_site_type_symbol
 _atom_site_label
 _atom_site_symmetry_multiplicity
 _atom_site_fract_x
 _atom_site_fract_y
 _atom_site_fract_z
 _atom_site_occupancy
  Pb  Pb0  1  0.24716300  0.24716300  0.24716300  1
  Pb  Pb1  1  0.75283700  0.75283700  0.75283700  1
  Se  Se2  1  0.00000000  0.00000000  0.00000000  1
  S  S3  1  0.50000000  0.50000000  0.50000000  1
