# generated using pymatgen
data_Pr2Nd2Sb3
_symmetry_space_group_name_H-M   'P 1'
_cell_length_a   8.27602974
_cell_length_b   8.27602974
_cell_length_c   8.27602974
_cell_angle_alpha   109.47122063
_cell_angle_beta   109.47122063
_cell_angle_gamma   109.47122063
_symmetry_Int_Tables_number   1
_chemical_formula_structural   Pr2Nd2Sb3
_chemical_formula_sum   'Pr4 Nd4 Sb6'
_cell_volume   436.35930126
_cell_formula_units_Z   2
loop_
 _symmetry_equiv_pos_site_id
 _symmetry_equiv_pos_as_xyz
  1  'x, y, z'
loop_
 _atom_site_type_symbol
 _atom_site_label
 _atom_site_symmetry_multiplicity
 _atom_site_fract_x
 _atom_site_fract_y
 _atom_site_fract_z
 _atom_site_occupancy
  Pr  Pr0  1  0.14153900  0.50000000  0.00000000  1
  Pr  Pr1  1  0.35846100  0.35846100  0.35846100  1
  Pr  Pr2  1  0.00000000  0.14153900  0.50000000  1
  Pr  Pr3  1  0.50000000  0.00000000  0.14153900  1
  Nd  Nd4  1  0.85889600  0.85889600  0.85889600  1
  Nd  Nd5  1  0.64110400  0.50000000  0.00000000  1
  Nd  Nd6  1  0.00000000  0.64110400  0.50000000  1
  Nd  Nd7  1  0.50000000  0.00000000  0.64110400  1
  Sb  Sb8  1  0.75000000  0.37607700  0.62607700  1
  Sb  Sb9  1  0.25000000  0.12392300  0.87392300  1
  Sb  Sb10  1  0.12392300  0.87392300  0.25000000  1
  Sb  Sb11  1  0.37607700  0.62607700  0.75000000  1
  Sb  Sb12  1  0.62607700  0.75000000  0.37607700  1
  Sb  Sb13  1  0.87392300  0.25000000  0.12392300  1
