# generated using pymatgen
data_Sr10Mn8B2O25
_symmetry_space_group_name_H-M   'P 1'
_cell_length_a   7.83888000
_cell_length_b   17.76329890
_cell_length_c   9.73740596
_cell_angle_alpha   82.91708163
_cell_angle_beta   66.26457915
_cell_angle_gamma   77.25289202
_symmetry_Int_Tables_number   1
_chemical_formula_structural   Sr10Mn8B2O25
_chemical_formula_sum   'Sr20 Mn16 B4 O50'
_cell_volume   1209.69576542
_cell_formula_units_Z   2
loop_
 _symmetry_equiv_pos_site_id
 _symmetry_equiv_pos_as_xyz
  1  'x, y, z'
loop_
 _atom_site_type_symbol
 _atom_site_label
 _atom_site_symmetry_multiplicity
 _atom_site_fract_x
 _atom_site_fract_y
 _atom_site_fract_z
 _atom_site_occupancy
  Sr  Sr0  1  0.38396300  0.84702300  0.87676600  1
  Sr  Sr1  1  0.38472200  0.64192000  0.08241300  1
  Sr  Sr2  1  0.38351800  0.44720800  0.29013300  1
  Sr  Sr3  1  0.38296600  0.04752300  0.68872300  1
  Sr  Sr4  1  0.38361000  0.24815300  0.48981900  1
  Sr  Sr5  1  0.10775200  0.75297700  0.52323400  1
  Sr  Sr6  1  0.11921100  0.55247700  0.71127700  1
  Sr  Sr7  1  0.12158200  0.35184700  0.91018100  1
  Sr  Sr8  1  0.10905400  0.95808000  0.31758700  1
  Sr  Sr9  1  0.12086000  0.15279200  0.10986700  1
  Sr  Sr10  1  0.63915700  0.75290500  0.51412600  1
  Sr  Sr11  1  0.64199600  0.55134500  0.70766100  1
  Sr  Sr12  1  0.63915800  0.35144600  0.90811500  1
  Sr  Sr13  1  0.63575400  0.95499500  0.31358800  1
  Sr  Sr14  1  0.63920100  0.15242900  0.10775300  1
  Sr  Sr15  1  0.90618800  0.84709500  0.88587400  1
  Sr  Sr16  1  0.90433800  0.64500500  0.08641200  1
  Sr  Sr17  1  0.89938300  0.44757100  0.29224700  1
  Sr  Sr18  1  0.90100200  0.04865500  0.69233900  1
  Sr  Sr19  1  0.89871900  0.24855400  0.49188500  1
  Mn  Mn20  1  0.75246800  0.69989900  0.80401500  1
  Mn  Mn21  1  0.76078400  0.49775400  0.99760700  1
  Mn  Mn22  1  0.75937700  0.29977300  0.19862700  1
  Mn  Mn23  1  0.75770400  0.90083100  0.59868500  1
  Mn  Mn24  1  0.75766000  0.10130700  0.39898600  1
  Mn  Mn25  1  0.25722000  0.69916900  0.80131500  1
  Mn  Mn26  1  0.25795300  0.49869300  0.00101400  1
  Mn  Mn27  1  0.25777700  0.30022700  0.20137300  1
  Mn  Mn28  1  0.25638300  0.90010100  0.59598500  1
  Mn  Mn29  1  0.25614500  0.10224600  0.40239300  1
  Mn  Mn30  1  0.51906500  0.80000000  0.20000000  1
  Mn  Mn31  1  0.00885700  0.99902200  0.99939400  1
  Mn  Mn32  1  0.00798200  0.20010800  0.79998300  1
  Mn  Mn33  1  0.00807400  0.39989200  0.60001700  1
  Mn  Mn34  1  0.00727200  0.60097800  0.40060600  1
  Mn  Mn35  1  0.01366700  0.80000000  0.20000000  1
  B  B36  1  0.54489900  0.99779300  0.00158700  1
  B  B37  1  0.54398800  0.19982400  0.79956700  1
  B  B38  1  0.54338000  0.40017600  0.60043300  1
  B  B39  1  0.54428000  0.60220700  0.39841300  1
  O  O40  1  0.75311600  0.80000000  0.20000000  1
  O  O41  1  0.72613900  0.60070100  0.39972100  1
  O  O42  1  0.72561000  0.40011300  0.59986800  1
  O  O43  1  0.72656100  0.99929900  0.00027900  1
  O  O44  1  0.72559200  0.19988700  0.80013200  1
  O  O45  1  0.89113800  0.64862300  0.59549800  1
  O  O46  1  0.89705900  0.44640800  0.79314300  1
  O  O47  1  0.89637000  0.24759400  0.99305200  1
  O  O48  1  0.89934600  0.85011100  0.39023900  1
  O  O49  1  0.89524100  0.04815900  0.19196000  1
  O  O50  1  0.13969600  0.74988900  0.00976100  1
  O  O51  1  0.13536000  0.55184100  0.20804000  1
  O  O52  1  0.13701600  0.35240600  0.40694800  1
  O  O53  1  0.13525900  0.95137700  0.80450200  1
  O  O54  1  0.13661000  0.15359200  0.60685700  1
  O  O55  1  0.51470700  0.69495500  0.78258900  1
  O  O56  1  0.51470800  0.49564900  0.98959100  1
  O  O57  1  0.51527600  0.29728700  0.18793800  1
  O  O58  1  0.51314200  0.89887200  0.59029900  1
  O  O59  1  0.51491200  0.09781300  0.38781200  1
  O  O60  1  0.00231300  0.70112800  0.80970100  1
  O  O61  1  0.00053700  0.50218700  0.01218800  1
  O  O62  1  0.00050100  0.30271300  0.21206200  1
  O  O63  1  0.99225100  0.90504500  0.61741100  1
  O  O64  1  0.99994800  0.10435100  0.41040900  1
  O  O65  1  0.07075200  0.70143900  0.30199200  1
  O  O66  1  0.05913500  0.50076500  0.50143200  1
  O  O67  1  0.06092800  0.30000000  0.70000000  1
  O  O68  1  0.07418400  0.89856100  0.09800800  1
  O  O69  1  0.06133200  0.09923500  0.89856800  1
  O  O70  1  0.57744900  0.75498900  0.02280900  1
  O  O71  1  0.53812200  0.57248400  0.27511300  1
  O  O72  1  0.53662400  0.37000300  0.47806100  1
  O  O73  1  0.53797900  0.96643800  0.88013400  1
  O  O74  1  0.53793500  0.16967300  0.67696300  1
  O  O75  1  0.38455200  0.63356200  0.51986600  1
  O  O76  1  0.38457100  0.43032700  0.72303700  1
  O  O77  1  0.38468800  0.22999700  0.92193900  1
  O  O78  1  0.35524800  0.84501100  0.37719100  1
  O  O79  1  0.38571900  0.02751600  0.12488700  1
  O  O80  1  0.74954100  0.80329100  0.71333200  1
  O  O81  1  0.74865200  0.60222200  0.91654300  1
  O  O82  1  0.74234800  0.40641200  0.12816700  1
  O  O83  1  0.74377500  0.00779400  0.52323400  1
  O  O84  1  0.74202200  0.20718900  0.32594200  1
  O  O85  1  0.26616300  0.79670900  0.68666800  1
  O  O86  1  0.27480200  0.59220600  0.87676600  1
  O  O87  1  0.27515300  0.39281100  0.07405800  1
  O  O88  1  0.26741600  0.99777800  0.48345700  1
  O  O89  1  0.27692800  0.19358800  0.27183300  1
