# generated using pymatgen
data_ReS8NO2
_symmetry_space_group_name_H-M   'P 1'
_cell_length_a   7.86038100
_cell_length_b   8.74623012
_cell_length_c   10.20727706
_cell_angle_alpha   83.87596624
_cell_angle_beta   77.61601136
_cell_angle_gamma   78.20883059
_symmetry_Int_Tables_number   1
_chemical_formula_structural   ReS8NO2
_chemical_formula_sum   'Re2 S16 N2 O4'
_cell_volume   669.49484284
_cell_formula_units_Z   2
loop_
 _symmetry_equiv_pos_site_id
 _symmetry_equiv_pos_as_xyz
  1  'x, y, z'
loop_
 _atom_site_type_symbol
 _atom_site_label
 _atom_site_symmetry_multiplicity
 _atom_site_fract_x
 _atom_site_fract_y
 _atom_site_fract_z
 _atom_site_occupancy
  Re  Re0  1  0.10482900  0.90766200  0.88747900  1
  Re  Re1  1  0.89517100  0.09233800  0.11252100  1
  S  S2  1  0.11892000  0.70920100  0.23992400  1
  S  S3  1  0.88108000  0.29079900  0.76007600  1
  S  S4  1  0.44087500  0.60644700  0.71399100  1
  S  S5  1  0.55912500  0.39355300  0.28600900  1
  S  S6  1  0.98999800  0.93324400  0.28324600  1
  S  S7  1  0.01000200  0.06675600  0.71675400  1
  S  S8  1  0.39916100  0.80214400  0.82146500  1
  S  S9  1  0.60083900  0.19785600  0.17853500  1
  S  S10  1  0.19039200  0.09344500  0.98125400  1
  S  S11  1  0.80960800  0.90655500  0.01874600  1
  S  S12  1  0.01659100  0.70024800  0.78037200  1
  S  S13  1  0.98340900  0.29975200  0.21962800  1
  S  S14  1  0.22239400  0.64180700  0.62526200  1
  S  S15  1  0.77760600  0.35819300  0.37473800  1
  S  S16  1  0.13583100  0.66031900  0.05103300  1
  S  S17  1  0.86416900  0.33968100  0.94896700  1
  N  N18  1  0.32587900  0.19265300  0.96999500  1
  N  N19  1  0.67412100  0.80734700  0.03000500  1
  O  O20  1  0.57620400  0.07741900  0.61689900  1
  O  O21  1  0.42379600  0.92258100  0.38310100  1
  O  O22  1  0.45687300  0.19324800  0.61331400  1
  O  O23  1  0.54312700  0.80675200  0.38668600  1
