# generated using pymatgen
data_Rb3(Cr5Te8)4
_symmetry_space_group_name_H-M   'P 1'
_cell_length_a   11.14075683
_cell_length_b   13.72517756
_cell_length_c   11.88500396
_cell_angle_alpha   114.71947742
_cell_angle_beta   102.31966667
_cell_angle_gamma   100.55725809
_symmetry_Int_Tables_number   1
_chemical_formula_structural   Rb3(Cr5Te8)4
_chemical_formula_sum   'Rb3 Cr20 Te32'
_cell_volume   1534.90080159
_cell_formula_units_Z   1
loop_
 _symmetry_equiv_pos_site_id
 _symmetry_equiv_pos_as_xyz
  1  'x, y, z'
loop_
 _atom_site_type_symbol
 _atom_site_label
 _atom_site_symmetry_multiplicity
 _atom_site_fract_x
 _atom_site_fract_y
 _atom_site_fract_z
 _atom_site_occupancy
  Rb  Rb0  1  0.61968947  0.11963500  0.49994084  1
  Rb  Rb1  1  0.87500000  0.37500000  0.50000000  1
  Rb  Rb2  1  0.13031053  0.63036500  0.50005916  1
  Cr  Cr3  1  0.94490647  0.61143995  0.96392876  1
  Cr  Cr4  1  0.69417579  0.36088844  0.96319356  1
  Cr  Cr5  1  0.44451640  0.11105053  0.96173048  1
  Cr  Cr6  1  0.19583160  0.86205441  0.96360065  1
  Cr  Cr7  1  0.05582421  0.38911156  0.03680644  1
  Cr  Cr8  1  0.80509353  0.13856005  0.03607124  1
  Cr  Cr9  1  0.55416840  0.88794559  0.03639935  1
  Cr  Cr10  1  0.30548360  0.63894947  0.03826952  1
  Cr  Cr11  1  0.24326303  0.25109540  0.66196580  1
  Cr  Cr12  1  0.99240633  0.00063432  0.66157069  1
  Cr  Cr13  1  0.74239028  0.75235531  0.66273873  1
  Cr  Cr14  1  0.49358348  0.50238275  0.66250927  1
  Cr  Cr15  1  0.75759367  0.74936568  0.33842931  1
  Cr  Cr16  1  0.50673697  0.49890460  0.33803420  1
  Cr  Cr17  1  0.25641652  0.24761725  0.33749073  1
  Cr  Cr18  1  0.00760972  0.99764469  0.33726127  1
  Cr  Cr19  1  0.75017176  0.75012611  0.00012117  1
  Cr  Cr20  1  0.50028740  0.50034828  0.00045093  1
  Cr  Cr21  1  0.24971260  0.24965172  0.99954907  1
  Cr  Cr22  1  0.99982824  0.99987389  0.99987883  1
  Te  Te23  1  0.00589921  0.85304285  0.76100874  1
  Te  Te24  1  0.75607378  0.60295615  0.76101355  1
  Te  Te25  1  0.50596827  0.35284569  0.76148119  1
  Te  Te26  1  0.25603868  0.10362662  0.76245344  1
  Te  Te27  1  0.99392522  0.14704285  0.23898645  1
  Te  Te28  1  0.74409979  0.89695615  0.23899126  1
  Te  Te29  1  0.49396032  0.64637438  0.23754656  1
  Te  Te30  1  0.24403073  0.39715431  0.23851881  1
  Te  Te31  1  0.76662725  0.60209609  0.43590770  1
  Te  Te32  1  0.51624828  0.35174595  0.43556042  1
  Te  Te33  1  0.26600766  0.10103688  0.43492462  1
  Te  Te34  1  0.01674018  0.85172419  0.43510756  1
  Te  Te35  1  0.23375072  0.39825305  0.56443958  1
  Te  Te36  1  0.98337175  0.14790291  0.56409230  1
  Te  Te37  1  0.73325882  0.89827481  0.56489244  1
  Te  Te38  1  0.48399134  0.64896312  0.56507538  1
  Te  Te39  1  0.23263541  0.40151641  0.90262793  1
  Te  Te40  1  0.98234026  0.15131506  0.90216051  1
  Te  Te41  1  0.73227461  0.90213653  0.90254968  1
  Te  Te42  1  0.48233204  0.65234856  0.90286433  1
  Te  Te43  1  0.76765974  0.59868494  0.09783949  1
  Te  Te44  1  0.51736459  0.34848359  0.09737207  1
  Te  Te45  1  0.26766796  0.09765144  0.09713567  1
  Te  Te46  1  0.01772539  0.84786347  0.09745032  1
  Te  Te47  1  0.12175347  0.63241421  0.84195134  1
  Te  Te48  1  0.87091929  0.38196827  0.84135110  1
  Te  Te49  1  0.62124745  0.13219476  0.84158422  1
  Te  Te50  1  0.37179527  0.88270729  0.84187487  1
  Te  Te51  1  0.87908071  0.36803173  0.15864890  1
  Te  Te52  1  0.62824653  0.11758579  0.15804866  1
  Te  Te53  1  0.37820473  0.86729271  0.15812513  1
  Te  Te54  1  0.12875255  0.61780524  0.15841578  1
