# generated using pymatgen
data_Rb(WO3)4
_symmetry_space_group_name_H-M   'P 1'
_cell_length_a   10.79570004
_cell_length_b   10.79570004
_cell_length_c   10.79570004
_cell_angle_alpha   139.21816748
_cell_angle_beta   105.78042870
_cell_angle_gamma   88.32937594
_symmetry_Int_Tables_number   1
_chemical_formula_structural   Rb(WO3)4
_chemical_formula_sum   'Rb3 W12 O36'
_cell_volume   758.94458317
_cell_formula_units_Z   3
loop_
 _symmetry_equiv_pos_site_id
 _symmetry_equiv_pos_as_xyz
  1  'x, y, z'
loop_
 _atom_site_type_symbol
 _atom_site_label
 _atom_site_symmetry_multiplicity
 _atom_site_fract_x
 _atom_site_fract_y
 _atom_site_fract_z
 _atom_site_occupancy
  Rb  Rb0  1  0.50000000  0.50000000  0.00000000  1
  Rb  Rb1  1  0.24036800  0.24036800  0.00000000  1
  Rb  Rb2  1  0.75963200  0.75963200  0.00000000  1
  W  W3  1  0.37478800  0.87478800  0.50000000  1
  W  W4  1  0.87561100  0.37561100  0.50000000  1
  W  W5  1  0.12614100  0.62385100  0.99967200  1
  W  W6  1  0.62417900  0.12646900  0.00032800  1
  W  W7  1  0.12614100  0.12646900  0.50229100  1
  W  W8  1  0.62417900  0.62385100  0.49770900  1
  W  W9  1  0.62521200  0.12521200  0.50000000  1
  W  W10  1  0.12438900  0.62438900  0.50000000  1
  W  W11  1  0.37582100  0.87353100  0.99967200  1
  W  W12  1  0.87385900  0.37614900  0.00032800  1
  W  W13  1  0.37582100  0.37614900  0.50229100  1
  W  W14  1  0.87385900  0.87353100  0.49770900  1
  O  O15  1  0.08676100  0.87408200  0.21267900  1
  O  O16  1  0.58507500  0.37517100  0.20990300  1
  O  O17  1  0.26976800  0.05961000  0.57907200  1
  O  O18  1  0.76757700  0.55612000  0.57549500  1
  O  O19  1  0.26976800  0.69069600  0.21015800  1
  O  O20  1  0.76757700  0.19208300  0.21145700  1
  O  O21  1  0.16526800  0.37517100  0.79009700  1
  O  O22  1  0.66140300  0.87408200  0.78732100  1
  O  O23  1  0.98062500  0.55612000  0.78854300  1
  O  O24  1  0.48053800  0.05961000  0.78984200  1
  O  O25  1  0.98062500  0.19208300  0.42450500  1
  O  O26  1  0.48053800  0.69069600  0.42092800  1
  O  O27  1  0.41492500  0.62482900  0.79009700  1
  O  O28  1  0.91323900  0.12591800  0.78732100  1
  O  O29  1  0.23242300  0.44388000  0.42450500  1
  O  O30  1  0.73023200  0.94039000  0.42092800  1
  O  O31  1  0.23242300  0.80791700  0.78854300  1
  O  O32  1  0.73023200  0.30930400  0.78984200  1
  O  O33  1  0.33859700  0.12591800  0.21267900  1
  O  O34  1  0.83473200  0.62482900  0.20990300  1
  O  O35  1  0.51946200  0.94039000  0.21015800  1
  O  O36  1  0.01937500  0.44388000  0.21145700  1
  O  O37  1  0.51946200  0.30930400  0.57907200  1
  O  O38  1  0.01937500  0.80791700  0.57549500  1
  O  O39  1  0.25038200  0.25048800  0.50087000  1
  O  O40  1  0.74961800  0.74951200  0.49913000  1
  O  O41  1  0.50000000  0.00000000  0.50000000  1
  O  O42  1  0.00000000  0.50000000  0.50000000  1
  O  O43  1  0.25038200  0.74951200  0.99989400  1
  O  O44  1  0.74961800  0.25048800  0.00010600  1
  O  O45  1  0.00000000  0.00000000  0.50000000  1
  O  O46  1  0.50000000  0.50000000  0.50000000  1
  O  O47  1  0.74977500  0.24977500  0.50000000  1
  O  O48  1  0.25022500  0.75022500  0.50000000  1
  O  O49  1  0.50000000  0.00000000  0.00000000  1
  O  O50  1  0.00000000  0.50000000  0.00000000  1
