# generated using pymatgen
data_Pr2Si3
_symmetry_space_group_name_H-M   'P 1'
_cell_length_a   7.70629379
_cell_length_b   7.70629379
_cell_length_c   7.70629379
_cell_angle_alpha   150.15909639
_cell_angle_beta   147.96546282
_cell_angle_gamma   44.34541185
_symmetry_Int_Tables_number   1
_chemical_formula_structural   Pr2Si3
_chemical_formula_sum   'Pr2 Si3'
_cell_volume   120.43848793
_cell_formula_units_Z   1
loop_
 _symmetry_equiv_pos_site_id
 _symmetry_equiv_pos_as_xyz
  1  'x, y, z'
loop_
 _atom_site_type_symbol
 _atom_site_label
 _atom_site_symmetry_multiplicity
 _atom_site_fract_x
 _atom_site_fract_y
 _atom_site_fract_z
 _atom_site_occupancy
  Pr  Pr0  1  0.62639900  0.62639900  0.00000000  1
  Pr  Pr1  1  0.87335400  0.37335400  0.50000000  1
  Si  Si2  1  0.46283400  0.96283400  0.50000000  1
  Si  Si3  1  0.20299100  0.20299100  0.00000000  1
  Si  Si4  1  0.29842200  0.79842200  0.50000000  1
