# generated using pymatgen
data_Pr6Cu8P8O3
_symmetry_space_group_name_H-M   'P 1'
_cell_length_a   13.54502211
_cell_length_b   13.54502211
_cell_length_c   5.64233100
_cell_angle_alpha   90.00000000
_cell_angle_beta   90.00000000
_cell_angle_gamma   155.95622060
_symmetry_Int_Tables_number   1
_chemical_formula_structural   Pr6Cu8P8O3
_chemical_formula_sum   'Pr6 Cu8 P8 O3'
_cell_volume   421.77016967
_cell_formula_units_Z   1
loop_
 _symmetry_equiv_pos_site_id
 _symmetry_equiv_pos_as_xyz
  1  'x, y, z'
loop_
 _atom_site_type_symbol
 _atom_site_label
 _atom_site_symmetry_multiplicity
 _atom_site_fract_x
 _atom_site_fract_y
 _atom_site_fract_z
 _atom_site_occupancy
  Pr  Pr0  1  0.68628100  0.78685500  0.73657200  1
  Pr  Pr1  1  0.21314500  0.31371900  0.26342800  1
  Pr  Pr2  1  0.78685500  0.68628100  0.26342800  1
  Pr  Pr3  1  0.31371900  0.21314500  0.73657200  1
  Pr  Pr4  1  0.50000000  0.00000000  0.24981100  1
  Pr  Pr5  1  0.00000000  0.50000000  0.75018900  1
  Cu  Cu6  1  0.65482400  0.34517600  0.50000000  1
  Cu  Cu7  1  0.15568700  0.84431300  0.00000000  1
  Cu  Cu8  1  0.15500300  0.84499700  0.50000000  1
  Cu  Cu9  1  0.65494300  0.34505700  0.00000000  1
  Cu  Cu10  1  0.84499700  0.15500300  0.50000000  1
  Cu  Cu11  1  0.34505700  0.65494300  0.00000000  1
  Cu  Cu12  1  0.34517600  0.65482400  0.50000000  1
  Cu  Cu13  1  0.84431300  0.15568700  0.00000000  1
  P  P14  1  0.86101100  0.64678900  0.75399500  1
  P  P15  1  0.35321100  0.13898900  0.24600500  1
  P  P16  1  0.64678900  0.86101100  0.24600500  1
  P  P17  1  0.13898900  0.35321100  0.75399500  1
  P  P18  1  0.54301500  0.95663900  0.74934200  1
  P  P19  1  0.04336100  0.45698500  0.25065800  1
  P  P20  1  0.95663900  0.54301500  0.25065800  1
  P  P21  1  0.45698500  0.04336100  0.74934200  1
  O  O22  1  0.50000000  0.50000000  0.50000000  1
  O  O23  1  0.50000000  0.50000000  0.00000000  1
  O  O24  1  0.00000000  0.00000000  0.50000000  1
