# generated using pymatgen
data_Re3Se4O8F
_symmetry_space_group_name_H-M   'P 1'
_cell_length_a   9.47306572
_cell_length_b   9.47306572
_cell_length_c   9.44864827
_cell_angle_alpha   76.02894038
_cell_angle_beta   76.02894038
_cell_angle_gamma   105.47301936
_symmetry_Int_Tables_number   1
_chemical_formula_structural   Re3Se4O8F
_chemical_formula_sum   'Re6 Se8 O16 F2'
_cell_volume   749.40553664
_cell_formula_units_Z   2
loop_
 _symmetry_equiv_pos_site_id
 _symmetry_equiv_pos_as_xyz
  1  'x, y, z'
loop_
 _atom_site_type_symbol
 _atom_site_label
 _atom_site_symmetry_multiplicity
 _atom_site_fract_x
 _atom_site_fract_y
 _atom_site_fract_z
 _atom_site_occupancy
  Re  Re0  1  0.20264500  0.04808300  0.95909000  1
  Re  Re1  1  0.06548000  0.27048100  0.92792100  1
  Re  Re2  1  0.05528200  0.06070800  0.74631400  1
  Re  Re3  1  0.72951900  0.93452000  0.07207900  1
  Re  Re4  1  0.95191700  0.79735500  0.04091000  1
  Re  Re5  1  0.93929200  0.94471800  0.25368600  1
  Se  Se6  1  0.29902400  0.28376300  0.71958800  1
  Se  Se7  1  0.71623700  0.70097600  0.28041200  1
  Se  Se8  1  0.17712700  0.19960100  0.14222500  1
  Se  Se9  1  0.85407800  0.18103900  0.82147600  1
  Se  Se10  1  0.18251700  0.86075400  0.80353800  1
  Se  Se11  1  0.80039900  0.82287300  0.85777500  1
  Se  Se12  1  0.13924600  0.81748300  0.19646200  1
  Se  Se13  1  0.81896100  0.14592200  0.17852400  1
  O  O14  1  0.56187200  0.47114600  0.87846100  1
  O  O15  1  0.17247600  0.56554900  0.51006600  1
  O  O16  1  0.49172700  0.17978900  0.42592900  1
  O  O17  1  0.17500900  0.47895600  0.43145500  1
  O  O18  1  0.57457400  0.17082100  0.50789700  1
  O  O19  1  0.48151900  0.55545100  0.87959300  1
  O  O20  1  0.44454900  0.51848100  0.12040700  1
  O  O21  1  0.82917900  0.42542600  0.49210300  1
  O  O22  1  0.52104400  0.82499100  0.56854500  1
  O  O23  1  0.82021100  0.50827300  0.57407100  1
  O  O24  1  0.43445100  0.82752400  0.48993400  1
  O  O25  1  0.52885400  0.43812800  0.12153900  1
  O  O26  1  0.13212500  0.47031500  0.87347800  1
  O  O27  1  0.12609600  0.10310600  0.54706900  1
  O  O28  1  0.52968500  0.86787500  0.12652200  1
  O  O29  1  0.89689400  0.87390400  0.45293100  1
  F  F30  1  0.42712700  0.07911500  0.91843700  1
  F  F31  1  0.92088500  0.57287300  0.08156300  1
