# generated using pymatgen
data_NdY3Zr4O14
_symmetry_space_group_name_H-M   'P 1'
_cell_length_a   7.42006520
_cell_length_b   7.42006520
_cell_length_c   7.42006467
_cell_angle_alpha   60.57082940
_cell_angle_beta   60.57082940
_cell_angle_gamma   60.57083107
_symmetry_Int_Tables_number   1
_chemical_formula_structural   NdY3Zr4O14
_chemical_formula_sum   'Nd1 Y3 Zr4 O14'
_cell_volume   292.59873192
_cell_formula_units_Z   1
loop_
 _symmetry_equiv_pos_site_id
 _symmetry_equiv_pos_as_xyz
  1  'x, y, z'
loop_
 _atom_site_type_symbol
 _atom_site_label
 _atom_site_symmetry_multiplicity
 _atom_site_fract_x
 _atom_site_fract_y
 _atom_site_fract_z
 _atom_site_occupancy
  Nd  Nd0  1  0.50000000  0.50000000  0.50000000  1
  Y  Y1  1  0.00000000  0.50000000  0.50000000  1
  Y  Y2  1  0.50000000  0.50000000  0.00000000  1
  Y  Y3  1  0.50000000  0.00000000  0.50000000  1
  Zr  Zr4  1  0.00000000  0.00000000  0.00000000  1
  Zr  Zr5  1  0.50000000  0.00000000  0.00000000  1
  Zr  Zr6  1  0.00000000  0.00000000  0.50000000  1
  Zr  Zr7  1  0.00000000  0.50000000  0.00000000  1
  O  O8  1  0.12268700  0.12268700  0.12268700  1
  O  O9  1  0.87731300  0.87731300  0.87731300  1
  O  O10  1  0.88275700  0.37034500  0.37034500  1
  O  O11  1  0.37703500  0.87131800  0.87131800  1
  O  O12  1  0.37034500  0.37034500  0.88275700  1
  O  O13  1  0.87131800  0.87131800  0.37703500  1
  O  O14  1  0.87131800  0.37703500  0.87131800  1
  O  O15  1  0.37034500  0.88275700  0.37034500  1
  O  O16  1  0.11724300  0.62965500  0.62965500  1
  O  O17  1  0.62296500  0.12868200  0.12868200  1
  O  O18  1  0.62965500  0.62965500  0.11724300  1
  O  O19  1  0.12868200  0.12868200  0.62296500  1
  O  O20  1  0.12868200  0.62296500  0.12868200  1
  O  O21  1  0.62965500  0.11724300  0.62965500  1
