# generated using pymatgen
data_Rb2Sn4Se9O
_symmetry_space_group_name_H-M   'P 1'
_cell_length_a   12.69882355
_cell_length_b   13.70757094
_cell_length_c   12.75205778
_cell_angle_alpha   90.00000000
_cell_angle_beta   90.00000000
_cell_angle_gamma   90.00000000
_symmetry_Int_Tables_number   1
_chemical_formula_structural   Rb2Sn4Se9O
_chemical_formula_sum   'Rb8 Sn16 Se36 O4'
_cell_volume   2219.75101231
_cell_formula_units_Z   4
loop_
 _symmetry_equiv_pos_site_id
 _symmetry_equiv_pos_as_xyz
  1  'x, y, z'
loop_
 _atom_site_type_symbol
 _atom_site_label
 _atom_site_symmetry_multiplicity
 _atom_site_fract_x
 _atom_site_fract_y
 _atom_site_fract_z
 _atom_site_occupancy
  Rb  Rb0  1  0.75082097  0.42831150  0.56029871  1
  Rb  Rb1  1  0.75082097  0.92831150  0.93970129  1
  Rb  Rb2  1  0.25082097  0.57168850  0.43970129  1
  Rb  Rb3  1  0.25082097  0.07168850  0.06029871  1
  Rb  Rb4  1  0.16646198  0.93742907  0.54227592  1
  Rb  Rb5  1  0.66646198  0.06257093  0.45772408  1
  Rb  Rb6  1  0.66646198  0.56257093  0.04227592  1
  Rb  Rb7  1  0.16646198  0.43742907  0.95772408  1
  Sn  Sn8  1  0.08839529  0.32763598  0.62673877  1
  Sn  Sn9  1  0.41325892  0.82742340  0.87046925  1
  Sn  Sn10  1  0.58839529  0.67236402  0.37326123  1
  Sn  Sn11  1  0.91325892  0.17257660  0.12953075  1
  Sn  Sn12  1  0.91325892  0.67257660  0.37046925  1
  Sn  Sn13  1  0.58839529  0.17236402  0.12673877  1
  Sn  Sn14  1  0.41325892  0.32742340  0.62953075  1
  Sn  Sn15  1  0.08839529  0.82763598  0.87326123  1
  Sn  Sn16  1  0.89516389  0.23277772  0.81741995  1
  Sn  Sn17  1  0.60278955  0.73221868  0.68416527  1
  Sn  Sn18  1  0.39516389  0.76722228  0.18258005  1
  Sn  Sn19  1  0.10278955  0.26778132  0.31583473  1
  Sn  Sn20  1  0.10278955  0.76778132  0.18416527  1
  Sn  Sn21  1  0.39516389  0.26722228  0.31741995  1
  Sn  Sn22  1  0.60278955  0.23221868  0.81583473  1
  Sn  Sn23  1  0.89516389  0.73277772  0.68258005  1
  Se  Se24  1  0.74909872  0.30060869  0.95335332  1
  Se  Se25  1  0.74909872  0.80060869  0.54664668  1
  Se  Se26  1  0.24909872  0.69939131  0.04664668  1
  Se  Se27  1  0.24909872  0.19939131  0.45335332  1
  Se  Se28  1  0.95559677  0.40632026  0.76032267  1
  Se  Se29  1  0.54689378  0.90686241  0.74037319  1
  Se  Se30  1  0.45559677  0.59367974  0.23967733  1
  Se  Se31  1  0.04689378  0.09313759  0.25962681  1
  Se  Se32  1  0.04689378  0.59313759  0.24037319  1
  Se  Se33  1  0.45559677  0.09367974  0.26032267  1
  Se  Se34  1  0.54689378  0.40686241  0.75962681  1
  Se  Se35  1  0.95559677  0.90632026  0.73967733  1
  Se  Se36  1  0.99420085  0.12189080  0.95065519  1
  Se  Se37  1  0.50705867  0.62015841  0.54968988  1
  Se  Se38  1  0.49420085  0.87810920  0.04934481  1
  Se  Se39  1  0.00705867  0.37984159  0.45031012  1
  Se  Se40  1  0.00705867  0.87984159  0.04968988  1
  Se  Se41  1  0.49420085  0.37810920  0.45065519  1
  Se  Se42  1  0.50705867  0.12015841  0.95031012  1
  Se  Se43  1  0.99420085  0.62189080  0.54934481  1
  Se  Se44  1  0.05562237  0.15360002  0.68224406  1
  Se  Se45  1  0.44860520  0.65220248  0.82275264  1
  Se  Se46  1  0.55562237  0.84639998  0.31775594  1
  Se  Se47  1  0.94860520  0.34779752  0.17724736  1
  Se  Se48  1  0.94860520  0.84779752  0.32275264  1
  Se  Se49  1  0.55562237  0.34639998  0.18224406  1
  Se  Se50  1  0.44860520  0.15220248  0.67724736  1
  Se  Se51  1  0.05562237  0.65360002  0.81775594  1
  Se  Se52  1  0.75049110  0.14722587  0.70752425  1
  Se  Se53  1  0.75049110  0.64722587  0.79247575  1
  Se  Se54  1  0.25049110  0.85277413  0.29247575  1
  Se  Se55  1  0.25049110  0.35277413  0.20752425  1
  Se  Se56  1  0.25037477  0.43124774  0.67736740  1
  Se  Se57  1  0.25037477  0.93124774  0.82263260  1
  Se  Se58  1  0.75037477  0.56875226  0.32263260  1
  Se  Se59  1  0.75037477  0.06875226  0.17736740  1
  O  O60  1  0.73866719  0.27024804  0.40620767  1
  O  O61  1  0.73866719  0.77024804  0.09379233  1
  O  O62  1  0.23866719  0.72975196  0.59379233  1
  O  O63  1  0.23866719  0.22975196  0.90620767  1
