# generated using pymatgen
data_Re3S4O8F
_symmetry_space_group_name_H-M   'P 1'
_cell_length_a   9.15527525
_cell_length_b   9.15527525
_cell_length_c   9.17627400
_cell_angle_alpha   75.82117037
_cell_angle_beta   75.82117037
_cell_angle_gamma   106.29610940
_symmetry_Int_Tables_number   1
_chemical_formula_structural   Re3S4O8F
_chemical_formula_sum   'Re6 S8 O16 F2'
_cell_volume   673.86661184
_cell_formula_units_Z   2
loop_
 _symmetry_equiv_pos_site_id
 _symmetry_equiv_pos_as_xyz
  1  'x, y, z'
loop_
 _atom_site_type_symbol
 _atom_site_label
 _atom_site_symmetry_multiplicity
 _atom_site_fract_x
 _atom_site_fract_y
 _atom_site_fract_z
 _atom_site_occupancy
  Re  Re0  1  0.20737400  0.05238400  0.95781500  1
  Re  Re1  1  0.06454700  0.27765700  0.93050600  1
  Re  Re2  1  0.05618900  0.06187500  0.74078800  1
  Re  Re3  1  0.72234300  0.93545300  0.06949400  1
  Re  Re4  1  0.94761600  0.79262600  0.04218500  1
  Re  Re5  1  0.93812500  0.94381100  0.25921200  1
  S  S6  1  0.28647800  0.28447800  0.72260400  1
  S  S7  1  0.71552200  0.71352200  0.27739600  1
  S  S8  1  0.17343200  0.19743100  0.13572500  1
  S  S9  1  0.86325100  0.18239700  0.82286500  1
  S  S10  1  0.18006800  0.86796000  0.80749200  1
  S  S11  1  0.80256900  0.82656800  0.86427500  1
  S  S12  1  0.13204000  0.81993200  0.19250800  1
  S  S13  1  0.81760300  0.13674900  0.17713500  1
  O  O14  1  0.60750400  0.45165500  0.92676900  1
  O  O15  1  0.11659000  0.55661300  0.51874000  1
  O  O16  1  0.46485000  0.12727300  0.39558400  1
  O  O17  1  0.08100100  0.46186500  0.43439400  1
  O  O18  1  0.60521400  0.07495800  0.53953700  1
  O  O19  1  0.46121300  0.59981600  0.92645800  1
  O  O20  1  0.40018400  0.53878700  0.07354200  1
  O  O21  1  0.92504200  0.39478600  0.46046300  1
  O  O22  1  0.53813500  0.91899900  0.56560600  1
  O  O23  1  0.87272700  0.53515000  0.60441600  1
  O  O24  1  0.44338700  0.88341000  0.48126000  1
  O  O25  1  0.54834500  0.39249600  0.07323100  1
  O  O26  1  0.13919100  0.48433600  0.87970600  1
  O  O27  1  0.12689500  0.10178600  0.53640400  1
  O  O28  1  0.51566400  0.86080900  0.12029400  1
  O  O29  1  0.89821400  0.87310500  0.46359600  1
  F  F30  1  0.43973000  0.09104200  0.90774900  1
  F  F31  1  0.90895800  0.56027000  0.09225100  1
