data_image0
_chemical_formula_structural       Cu2Eu2Sn4
_chemical_formula_sum              "Cu2 Eu2 Sn4"
_cell_length_a       4.47462
_cell_length_b       4.49294
_cell_length_c       9.94078
_cell_angle_alpha    90
_cell_angle_beta     76.9934
_cell_angle_gamma    90

_space_group_name_H-M_alt    "P 1"
_space_group_IT_number       1

loop_
  _space_group_symop_operation_xyz
  'x, y, z'

loop_
  _atom_site_type_symbol
  _atom_site_label
  _atom_site_symmetry_multiplicity
  _atom_site_fract_x
  _atom_site_fract_y
  _atom_site_fract_z
  _atom_site_occupancy
  Cu  Cu1       1.0  0.82700  0.25000  0.34600  1.0000
  Cu  Cu2       1.0  0.17300  0.75000  0.65400  1.0000
  Eu  Eu1       1.0  0.39100  0.75000  0.21700  1.0000
  Eu  Eu2       1.0  0.60900  0.25000  0.78300  1.0000
  Sn  Sn1       1.0  0.95800  0.25000  0.08480  1.0000
  Sn  Sn2       1.0  0.75100  0.75000  0.49900  1.0000
  Sn  Sn3       1.0  0.24900  0.25000  0.50100  1.0000
  Sn  Sn4       1.0  0.04240  0.75000  0.91500  1.0000
