# generated using pymatgen
data_Rb3MgNb5O15
_symmetry_space_group_name_H-M   'P 1'
_cell_length_a   6.63927700
_cell_length_b   11.71573800
_cell_length_c   19.65807600
_cell_angle_alpha   90.00000000
_cell_angle_beta   90.00000000
_cell_angle_gamma   90.00000000
_symmetry_Int_Tables_number   1
_chemical_formula_structural   Rb3MgNb5O15
_chemical_formula_sum   'Rb12 Mg4 Nb20 O60'
_cell_volume   1529.08437021
_cell_formula_units_Z   4
loop_
 _symmetry_equiv_pos_site_id
 _symmetry_equiv_pos_as_xyz
  1  'x, y, z'
loop_
 _atom_site_type_symbol
 _atom_site_label
 _atom_site_symmetry_multiplicity
 _atom_site_fract_x
 _atom_site_fract_y
 _atom_site_fract_z
 _atom_site_occupancy
  Rb  Rb0  1  0.29627700  0.41862600  0.44759400  1
  Rb  Rb1  1  0.29131000  0.07376600  0.44157500  1
  Rb  Rb2  1  0.29079300  0.75707900  0.44345300  1
  Rb  Rb3  1  0.79131000  0.42623400  0.55842500  1
  Rb  Rb4  1  0.79627700  0.08137400  0.55240600  1
  Rb  Rb5  1  0.79079300  0.74292100  0.55654700  1
  Rb  Rb6  1  0.70869000  0.57376600  0.05842500  1
  Rb  Rb7  1  0.70920700  0.25707900  0.05654700  1
  Rb  Rb8  1  0.70372300  0.91862600  0.05240600  1
  Rb  Rb9  1  0.20372300  0.58137400  0.94759400  1
  Rb  Rb10  1  0.20920700  0.24292100  0.94345300  1
  Rb  Rb11  1  0.20869000  0.92623400  0.94157500  1
  Mg  Mg12  1  0.80456300  0.41649200  0.21473300  1
  Mg  Mg13  1  0.30456300  0.08350800  0.78526700  1
  Mg  Mg14  1  0.19543700  0.91649200  0.28526700  1
  Mg  Mg15  1  0.69543700  0.58350800  0.71473300  1
  Nb  Nb16  1  0.26985500  0.41657500  0.13504000  1
  Nb  Nb17  1  0.26213300  0.08128700  0.14334900  1
  Nb  Nb18  1  0.26223300  0.75200900  0.14294700  1
  Nb  Nb19  1  0.76213300  0.41871300  0.85665100  1
  Nb  Nb20  1  0.76985500  0.08342500  0.86496000  1
  Nb  Nb21  1  0.76223300  0.74799100  0.85705300  1
  Nb  Nb22  1  0.73786700  0.58128700  0.35665100  1
  Nb  Nb23  1  0.73776700  0.25200900  0.35705300  1
  Nb  Nb24  1  0.73014500  0.91657500  0.36496000  1
  Nb  Nb25  1  0.23014500  0.58342500  0.63504000  1
  Nb  Nb26  1  0.23776700  0.24799100  0.64294700  1
  Nb  Nb27  1  0.23786700  0.91871300  0.64334900  1
  Nb  Nb28  1  0.81138700  0.08363700  0.22076100  1
  Nb  Nb29  1  0.81162800  0.74982100  0.22054400  1
  Nb  Nb30  1  0.31138700  0.41636300  0.77923900  1
  Nb  Nb31  1  0.31162800  0.75017900  0.77945600  1
  Nb  Nb32  1  0.18861300  0.58363700  0.27923900  1
  Nb  Nb33  1  0.18837200  0.24982100  0.27945600  1
  Nb  Nb34  1  0.68837200  0.25017900  0.72054400  1
  Nb  Nb35  1  0.68861300  0.91636300  0.72076100  1
  O  O36  1  0.34089300  0.41763100  0.04510700  1
  O  O37  1  0.33236700  0.08352800  0.05472900  1
  O  O38  1  0.33218100  0.74911600  0.05399700  1
  O  O39  1  0.83236700  0.41647200  0.94527100  1
  O  O40  1  0.84089300  0.08236900  0.95489300  1
  O  O41  1  0.83218100  0.75088400  0.94600300  1
  O  O42  1  0.66763300  0.58352800  0.44527100  1
  O  O43  1  0.66781900  0.24911600  0.44600300  1
  O  O44  1  0.65910700  0.91763100  0.45489300  1
  O  O45  1  0.15910700  0.58236900  0.54510700  1
  O  O46  1  0.16781900  0.25088400  0.55399700  1
  O  O47  1  0.16763300  0.91647200  0.55472900  1
  O  O48  1  0.97807900  0.41709200  0.13079000  1
  O  O49  1  0.95942900  0.08066400  0.13486800  1
  O  O50  1  0.95937600  0.75254600  0.13430100  1
  O  O51  1  0.45942900  0.41933600  0.86513200  1
  O  O52  1  0.47807900  0.08290800  0.86921000  1
  O  O53  1  0.45937600  0.74745400  0.86569900  1
  O  O54  1  0.04057100  0.58066400  0.36513200  1
  O  O55  1  0.04062400  0.25254600  0.36569900  1
  O  O56  1  0.02192100  0.91709200  0.36921000  1
  O  O57  1  0.52192100  0.58290800  0.63079000  1
  O  O58  1  0.54062400  0.24745400  0.63430100  1
  O  O59  1  0.54057100  0.91933600  0.63486800  1
  O  O60  1  0.14885900  0.41665900  0.26071900  1
  O  O61  1  0.14371700  0.08744400  0.25822300  1
  O  O62  1  0.14353200  0.74596600  0.25784100  1
  O  O63  1  0.64371700  0.41255600  0.74177700  1
  O  O64  1  0.64885900  0.08334100  0.73928100  1
  O  O65  1  0.64353200  0.75403400  0.74215900  1
  O  O66  1  0.85628300  0.58744400  0.24177700  1
  O  O67  1  0.85646800  0.24596600  0.24215900  1
  O  O68  1  0.85114100  0.91665900  0.23928100  1
  O  O69  1  0.35114100  0.58334100  0.76071900  1
  O  O70  1  0.35646800  0.25403400  0.75784100  1
  O  O71  1  0.35628300  0.91255600  0.75822300  1
  O  O72  1  0.73700800  0.41645300  0.33157100  1
  O  O73  1  0.74683300  0.08751300  0.32851100  1
  O  O74  1  0.74695200  0.74599300  0.32825800  1
  O  O75  1  0.24683300  0.41248700  0.67148900  1
  O  O76  1  0.23700800  0.08354700  0.66842900  1
  O  O77  1  0.24695200  0.75400700  0.67174200  1
  O  O78  1  0.25316700  0.58751300  0.17148900  1
  O  O79  1  0.25304800  0.24599300  0.17174200  1
  O  O80  1  0.26299200  0.91645300  0.16842900  1
  O  O81  1  0.76299200  0.58354700  0.83157100  1
  O  O82  1  0.75304800  0.25400700  0.82825800  1
  O  O83  1  0.75316700  0.91248700  0.82851100  1
  O  O84  1  0.53206200  0.41698800  0.17585700  1
  O  O85  1  0.55870200  0.08383400  0.18022800  1
  O  O86  1  0.55883200  0.74938300  0.17995700  1
  O  O87  1  0.05870200  0.41616600  0.81977200  1
  O  O88  1  0.03206200  0.08301200  0.82414300  1
  O  O89  1  0.05883200  0.75061700  0.82004300  1
  O  O90  1  0.44129800  0.58383400  0.31977200  1
  O  O91  1  0.44116800  0.24938300  0.32004300  1
  O  O92  1  0.46793800  0.91698800  0.32414300  1
  O  O93  1  0.96793800  0.58301200  0.67585700  1
  O  O94  1  0.94116800  0.25061700  0.67995700  1
  O  O95  1  0.94129800  0.91616600  0.68022800  1
