# generated using pymatgen
data_Ni6S5
_symmetry_space_group_name_H-M   'P 1'
_cell_length_a   3.25840900
_cell_length_b   6.02395760
_cell_length_c   16.24262800
_cell_angle_alpha   90.00000000
_cell_angle_beta   90.00000000
_cell_angle_gamma   74.30871008
_symmetry_Int_Tables_number   1
_chemical_formula_structural   Ni6S5
_chemical_formula_sum   'Ni12 S10'
_cell_volume   306.93725278
_cell_formula_units_Z   2
loop_
 _symmetry_equiv_pos_site_id
 _symmetry_equiv_pos_as_xyz
  1  'x, y, z'
loop_
 _atom_site_type_symbol
 _atom_site_label
 _atom_site_symmetry_multiplicity
 _atom_site_fract_x
 _atom_site_fract_y
 _atom_site_fract_z
 _atom_site_occupancy
  Ni  Ni0  1  0.46094500  0.07811000  0.17417600  1
  Ni  Ni1  1  0.53692700  0.92614600  0.82597800  1
  Ni  Ni2  1  0.46307300  0.07385400  0.32597800  1
  Ni  Ni3  1  0.53905500  0.92189000  0.67417600  1
  Ni  Ni4  1  0.66010600  0.67978700  0.25201800  1
  Ni  Ni5  1  0.33989400  0.32021300  0.75201800  1
  Ni  Ni6  1  0.18754900  0.62490100  0.04127200  1
  Ni  Ni7  1  0.80321800  0.39356300  0.96308600  1
  Ni  Ni8  1  0.19678200  0.60643700  0.46308600  1
  Ni  Ni9  1  0.81245100  0.37509900  0.54127200  1
  Ni  Ni10  1  0.99774600  0.00450900  0.46950600  1
  Ni  Ni11  1  0.00225400  0.99549100  0.96950600  1
  S  S12  1  0.88958700  0.22082600  0.84616300  1
  S  S13  1  0.10466700  0.79066700  0.15764500  1
  S  S14  1  0.89533300  0.20933300  0.65764500  1
  S  S15  1  0.11041300  0.77917400  0.34616300  1
  S  S16  1  0.38007400  0.23985300  0.04573700  1
  S  S17  1  0.62367700  0.75264600  0.94929600  1
  S  S18  1  0.37632300  0.24735400  0.44929600  1
  S  S19  1  0.61992600  0.76014700  0.54573700  1
  S  S20  1  0.85884400  0.28231200  0.24812300  1
  S  S21  1  0.14115600  0.71768800  0.74812300  1
