# generated using pymatgen
data_Pr2In3Ni
_symmetry_space_group_name_H-M   'P 1'
_cell_length_a   3.86951200
_cell_length_b   4.80540896
_cell_length_c   8.31248024
_cell_angle_alpha   89.98362590
_cell_angle_beta   90.00000000
_cell_angle_gamma   90.00000000
_symmetry_Int_Tables_number   1
_chemical_formula_structural   Pr2In3Ni
_chemical_formula_sum   'Pr2 In3 Ni1'
_cell_volume   154.56713593
_cell_formula_units_Z   1
loop_
 _symmetry_equiv_pos_site_id
 _symmetry_equiv_pos_as_xyz
  1  'x, y, z'
loop_
 _atom_site_type_symbol
 _atom_site_label
 _atom_site_symmetry_multiplicity
 _atom_site_fract_x
 _atom_site_fract_y
 _atom_site_fract_z
 _atom_site_occupancy
  Pr  Pr0  1  0.00000000  0.99994700  0.02845300  1
  Pr  Pr1  1  0.00000000  0.49989100  0.48612300  1
  In  In2  1  0.50000000  0.50007500  0.83473400  1
  In  In3  1  0.50000000  0.49994500  0.18209600  1
  In  In4  1  0.50000000  0.99993800  0.64488100  1
  Ni  Ni5  1  0.50000000  0.00000300  0.32371300  1
