# generated using pymatgen
data_NdHoZr2O7
_symmetry_space_group_name_H-M   'P 1'
_cell_length_a   7.56430448
_cell_length_b   7.56430448
_cell_length_c   7.56430448
_cell_angle_alpha   120.06525812
_cell_angle_beta   120.00236564
_cell_angle_gamma   89.94145471
_symmetry_Int_Tables_number   1
_chemical_formula_structural   NdHoZr2O7
_chemical_formula_sum   'Nd2 Ho2 Zr4 O14'
_cell_volume   305.89303434
_cell_formula_units_Z   2
loop_
 _symmetry_equiv_pos_site_id
 _symmetry_equiv_pos_as_xyz
  1  'x, y, z'
loop_
 _atom_site_type_symbol
 _atom_site_label
 _atom_site_symmetry_multiplicity
 _atom_site_fract_x
 _atom_site_fract_y
 _atom_site_fract_z
 _atom_site_occupancy
  Nd  Nd0  1  0.50000000  0.50000000  0.50000000  1
  Nd  Nd1  1  0.50000000  0.00000000  0.00000000  1
  Ho  Ho2  1  0.50000000  0.50000000  0.00000000  1
  Ho  Ho3  1  0.00000000  0.50000000  0.50000000  1
  Zr  Zr4  1  0.00000000  0.00000000  0.50000000  1
  Zr  Zr5  1  0.00000000  0.50000000  0.00000000  1
  Zr  Zr6  1  0.00000000  0.00000000  0.00000000  1
  Zr  Zr7  1  0.50000000  0.00000000  0.50000000  1
  O  O8  1  0.36595600  0.61595600  0.75000000  1
  O  O9  1  0.63404400  0.38404400  0.25000000  1
  O  O10  1  0.33804400  0.08804400  0.25000000  1
  O  O11  1  0.91205900  0.66205900  0.25000000  1
  O  O12  1  0.33806900  0.66149500  0.24688700  1
  O  O13  1  0.91460800  0.09118200  0.25311300  1
  O  O14  1  0.33806900  0.09118200  0.67657400  1
  O  O15  1  0.91460800  0.66149500  0.82342600  1
  O  O16  1  0.66195600  0.91195600  0.75000000  1
  O  O17  1  0.08794100  0.33794100  0.75000000  1
  O  O18  1  0.66193100  0.33850500  0.75311300  1
  O  O19  1  0.08539200  0.90881800  0.74688700  1
  O  O20  1  0.66193100  0.90881800  0.32342600  1
  O  O21  1  0.08539200  0.33850500  0.17657400  1
