# generated using pymatgen
data_Ni3Te4
_symmetry_space_group_name_H-M   'P 1'
_cell_length_a   6.57018400
_cell_length_b   6.57018400
_cell_length_c   6.75306716
_cell_angle_alpha   59.63792240
_cell_angle_beta   59.63792240
_cell_angle_gamma   35.56451237
_symmetry_Int_Tables_number   1
_chemical_formula_structural   Ni3Te4
_chemical_formula_sum   'Ni3 Te4'
_cell_volume   143.68969439
_cell_formula_units_Z   1
loop_
 _symmetry_equiv_pos_site_id
 _symmetry_equiv_pos_as_xyz
  1  'x, y, z'
loop_
 _atom_site_type_symbol
 _atom_site_label
 _atom_site_symmetry_multiplicity
 _atom_site_fract_x
 _atom_site_fract_y
 _atom_site_fract_z
 _atom_site_occupancy
  Ni  Ni0  1  0.00000000  0.00000000  0.00000000  1
  Ni  Ni1  1  0.25232600  0.25232600  0.75887600  1
  Ni  Ni2  1  0.74767400  0.74767400  0.24112400  1
  Te  Te3  1  0.12522800  0.12522800  0.21635400  1
  Te  Te4  1  0.62869400  0.62869400  0.70337300  1
  Te  Te5  1  0.37130600  0.37130600  0.29662700  1
  Te  Te6  1  0.87477200  0.87477200  0.78364600  1
