# generated using pymatgen
data_Nb6OsAu
_symmetry_space_group_name_H-M   'P 1'
_cell_length_a   5.20965000
_cell_length_b   5.20965000
_cell_length_c   5.20965000
_cell_angle_alpha   90.00000000
_cell_angle_beta   90.00000000
_cell_angle_gamma   90.00000000
_symmetry_Int_Tables_number   1
_chemical_formula_structural   Nb6OsAu
_chemical_formula_sum   'Nb6 Os1 Au1'
_cell_volume   141.39226161
_cell_formula_units_Z   1
loop_
 _symmetry_equiv_pos_site_id
 _symmetry_equiv_pos_as_xyz
  1  'x, y, z'
loop_
 _atom_site_type_symbol
 _atom_site_label
 _atom_site_symmetry_multiplicity
 _atom_site_fract_x
 _atom_site_fract_y
 _atom_site_fract_z
 _atom_site_occupancy
  Nb  Nb0  1  0.00000000  0.50000000  0.75508100  1
  Nb  Nb1  1  0.50000000  0.24491900  0.00000000  1
  Nb  Nb2  1  0.75508100  0.00000000  0.50000000  1
  Nb  Nb3  1  0.00000000  0.50000000  0.24491900  1
  Nb  Nb4  1  0.50000000  0.75508100  0.00000000  1
  Nb  Nb5  1  0.24491900  0.00000000  0.50000000  1
  Os  Os6  1  0.00000000  0.00000000  0.00000000  1
  Au  Au7  1  0.50000000  0.50000000  0.50000000  1
