# generated using pymatgen
data_Nd2(OF)3
_symmetry_space_group_name_H-M   'P 1'
_cell_length_a   5.98055290
_cell_length_b   5.98055290
_cell_length_c   4.08376900
_cell_angle_alpha   90.00000000
_cell_angle_beta   90.00000000
_cell_angle_gamma   120.00000996
_symmetry_Int_Tables_number   1
_chemical_formula_structural   Nd2(OF)3
_chemical_formula_sum   'Nd2 O3 F3'
_cell_volume   126.49531144
_cell_formula_units_Z   1
loop_
 _symmetry_equiv_pos_site_id
 _symmetry_equiv_pos_as_xyz
  1  'x, y, z'
loop_
 _atom_site_type_symbol
 _atom_site_label
 _atom_site_symmetry_multiplicity
 _atom_site_fract_x
 _atom_site_fract_y
 _atom_site_fract_z
 _atom_site_occupancy
  Nd  Nd0  1  0.00000000  0.00000000  0.00000000  1
  Nd  Nd1  1  0.33333300  0.66666700  0.50000000  1
  O  O2  1  0.10533100  0.45146400  0.00000000  1
  O  O3  1  0.34613300  0.89466900  0.00000000  1
  O  O4  1  0.54853600  0.65386700  0.00000000  1
  F  F5  1  0.26600300  0.23529800  0.50000000  1
  F  F6  1  0.96929600  0.73399700  0.50000000  1
  F  F7  1  0.76470200  0.03070400  0.50000000  1
