# generated using pymatgen
data_ScCu4Sn
_symmetry_space_group_name_H-M   'P 1'
_cell_length_a   5.02390600
_cell_length_b   5.02390600
_cell_length_c   5.02390600
_cell_angle_alpha   60.00000000
_cell_angle_beta   60.00000000
_cell_angle_gamma   60.00000000
_symmetry_Int_Tables_number   1
_chemical_formula_structural   ScCu4Sn
_chemical_formula_sum   'Sc1 Cu4 Sn1'
_cell_volume   89.66222600
_cell_formula_units_Z   1
loop_
 _symmetry_equiv_pos_site_id
 _symmetry_equiv_pos_as_xyz
  1  'x, y, z'
loop_
 _atom_site_type_symbol
 _atom_site_label
 _atom_site_symmetry_multiplicity
 _atom_site_fract_x
 _atom_site_fract_y
 _atom_site_fract_z
 _atom_site_occupancy
  Sc  Sc0  1  0.00000000  0.00000000  0.00000000  1
  Cu  Cu1  1  0.62556200  0.62556200  0.12331400  1
  Cu  Cu2  1  0.62556200  0.12331400  0.62556200  1
  Cu  Cu3  1  0.12331400  0.62556200  0.62556200  1
  Cu  Cu4  1  0.62556200  0.62556200  0.62556200  1
  Sn  Sn5  1  0.25000000  0.25000000  0.25000000  1
