# generated using pymatgen
data_Nd4Te7
_symmetry_space_group_name_H-M   'P 1'
_cell_length_a   4.57807900
_cell_length_b   4.57807900
_cell_length_c   17.61913500
_cell_angle_alpha   90.00000000
_cell_angle_beta   90.00000000
_cell_angle_gamma   90.00000000
_symmetry_Int_Tables_number   1
_chemical_formula_structural   Nd4Te7
_chemical_formula_sum   'Nd4 Te7'
_cell_volume   369.27605579
_cell_formula_units_Z   1
loop_
 _symmetry_equiv_pos_site_id
 _symmetry_equiv_pos_as_xyz
  1  'x, y, z'
loop_
 _atom_site_type_symbol
 _atom_site_label
 _atom_site_symmetry_multiplicity
 _atom_site_fract_x
 _atom_site_fract_y
 _atom_site_fract_z
 _atom_site_occupancy
  Nd  Nd0  1  0.00000000  0.00000000  0.36511200  1
  Nd  Nd1  1  0.00000000  0.00000000  0.86678400  1
  Nd  Nd2  1  0.50000000  0.50000000  0.12932200  1
  Nd  Nd3  1  0.50000000  0.50000000  0.63537300  1
  Te  Te4  1  0.50000000  0.00000000  0.00797800  1
  Te  Te5  1  0.50000000  0.00000000  0.49703600  1
  Te  Te6  1  0.00000000  0.50000000  0.00797800  1
  Te  Te7  1  0.00000000  0.50000000  0.49703600  1
  Te  Te8  1  0.00000000  0.00000000  0.68309400  1
  Te  Te9  1  0.50000000  0.50000000  0.30566200  1
  Te  Te10  1  0.50000000  0.50000000  0.82072600  1
