# generated using pymatgen
data_NbPt4
_symmetry_space_group_name_H-M   'P 1'
_cell_length_a   11.73396011
_cell_length_b   11.73396011
_cell_length_c   11.73396084
_cell_angle_alpha   13.85792316
_cell_angle_beta   13.85792316
_cell_angle_gamma   13.85792356
_symmetry_Int_Tables_number   1
_chemical_formula_structural   NbPt4
_chemical_formula_sum   'Nb1 Pt4'
_cell_volume   80.65702237
_cell_formula_units_Z   1
loop_
 _symmetry_equiv_pos_site_id
 _symmetry_equiv_pos_as_xyz
  1  'x, y, z'
loop_
 _atom_site_type_symbol
 _atom_site_label
 _atom_site_symmetry_multiplicity
 _atom_site_fract_x
 _atom_site_fract_y
 _atom_site_fract_z
 _atom_site_occupancy
  Nb  Nb0  1  0.00000000  0.00000000  0.00000000  1
  Pt  Pt1  1  0.60128000  0.60128000  0.60128000  1
  Pt  Pt2  1  0.19993800  0.19993800  0.19993800  1
  Pt  Pt3  1  0.80006200  0.80006200  0.80006200  1
  Pt  Pt4  1  0.39872000  0.39872000  0.39872000  1
