# generated using pymatgen
data_Nd2Si3
_symmetry_space_group_name_H-M   'P 1'
_cell_length_a   7.64371214
_cell_length_b   7.64371214
_cell_length_c   7.64371214
_cell_angle_alpha   150.09583242
_cell_angle_beta   148.01384262
_cell_angle_gamma   44.35380231
_symmetry_Int_Tables_number   1
_chemical_formula_structural   Nd2Si3
_chemical_formula_sum   'Nd2 Si3'
_cell_volume   117.59482666
_cell_formula_units_Z   1
loop_
 _symmetry_equiv_pos_site_id
 _symmetry_equiv_pos_as_xyz
  1  'x, y, z'
loop_
 _atom_site_type_symbol
 _atom_site_label
 _atom_site_symmetry_multiplicity
 _atom_site_fract_x
 _atom_site_fract_y
 _atom_site_fract_z
 _atom_site_occupancy
  Nd  Nd0  1  0.12654700  0.62654700  0.50000000  1
  Nd  Nd1  1  0.37311000  0.37311000  0.00000000  1
  Si  Si2  1  0.96393000  0.96393000  0.00000000  1
  Si  Si3  1  0.70187300  0.20187300  0.50000000  1
  Si  Si4  1  0.79854100  0.79854100  0.00000000  1
