# generated using pymatgen
data_Nd2Ga5Au3
_symmetry_space_group_name_H-M   'P 1'
_cell_length_a   4.39365900
_cell_length_b   4.39365900
_cell_length_c   10.96830800
_cell_angle_alpha   90.00000000
_cell_angle_beta   90.00000000
_cell_angle_gamma   90.00000000
_symmetry_Int_Tables_number   1
_chemical_formula_structural   Nd2Ga5Au3
_chemical_formula_sum   'Nd2 Ga5 Au3'
_cell_volume   211.73484354
_cell_formula_units_Z   1
loop_
 _symmetry_equiv_pos_site_id
 _symmetry_equiv_pos_as_xyz
  1  'x, y, z'
loop_
 _atom_site_type_symbol
 _atom_site_label
 _atom_site_symmetry_multiplicity
 _atom_site_fract_x
 _atom_site_fract_y
 _atom_site_fract_z
 _atom_site_occupancy
  Nd  Nd0  1  0.50000000  0.00000000  0.25540400  1
  Nd  Nd1  1  0.00000000  0.50000000  0.74459600  1
  Ga  Ga2  1  0.50000000  0.50000000  0.00000000  1
  Ga  Ga3  1  0.00000000  0.00000000  0.00000000  1
  Ga  Ga4  1  0.50000000  0.00000000  0.87115300  1
  Ga  Ga5  1  0.00000000  0.50000000  0.12884700  1
  Ga  Ga6  1  0.50000000  0.50000000  0.50000000  1
  Au  Au7  1  0.50000000  0.00000000  0.64638300  1
  Au  Au8  1  0.00000000  0.50000000  0.35361700  1
  Au  Au9  1  0.00000000  0.00000000  0.50000000  1
