# generated using pymatgen
data_NdBiRu2O7
_symmetry_space_group_name_H-M   'P 1'
_cell_length_a   7.36630912
_cell_length_b   7.36630912
_cell_length_c   7.36630912
_cell_angle_alpha   120.39028030
_cell_angle_beta   119.52259622
_cell_angle_gamma   90.07710807
_symmetry_Int_Tables_number   1
_chemical_formula_structural   NdBiRu2O7
_chemical_formula_sum   'Nd2 Bi2 Ru4 O14'
_cell_volume   282.80636575
_cell_formula_units_Z   2
loop_
 _symmetry_equiv_pos_site_id
 _symmetry_equiv_pos_as_xyz
  1  'x, y, z'
loop_
 _atom_site_type_symbol
 _atom_site_label
 _atom_site_symmetry_multiplicity
 _atom_site_fract_x
 _atom_site_fract_y
 _atom_site_fract_z
 _atom_site_occupancy
  Nd  Nd0  1  0.50000000  0.50000000  0.00000000  1
  Nd  Nd1  1  0.00000000  0.50000000  0.50000000  1
  Bi  Bi2  1  0.50000000  0.50000000  0.50000000  1
  Bi  Bi3  1  0.50000000  0.00000000  0.00000000  1
  Ru  Ru4  1  0.00000000  0.00000000  0.50000000  1
  Ru  Ru5  1  0.00000000  0.50000000  0.00000000  1
  Ru  Ru6  1  0.00000000  0.00000000  0.00000000  1
  Ru  Ru7  1  0.50000000  0.00000000  0.50000000  1
  O  O8  1  0.62637400  0.37637400  0.25000000  1
  O  O9  1  0.37362600  0.62362600  0.75000000  1
  O  O10  1  0.32750000  0.07386900  0.65453300  1
  O  O11  1  0.91933700  0.07386900  0.24637000  1
  O  O12  1  0.92112500  0.67112500  0.25000000  1
  O  O13  1  0.91933700  0.67296700  0.84546700  1
  O  O14  1  0.32750000  0.67296700  0.25363000  1
  O  O15  1  0.32722800  0.07722800  0.25000000  1
  O  O16  1  0.67250000  0.92613100  0.34546700  1
  O  O17  1  0.08066300  0.92613100  0.75363000  1
  O  O18  1  0.07887500  0.32887500  0.75000000  1
  O  O19  1  0.08066300  0.32703300  0.15453300  1
  O  O20  1  0.67250000  0.32703300  0.74637000  1
  O  O21  1  0.67277200  0.92277200  0.75000000  1
