# generated using pymatgen
data_NbMoS4
_symmetry_space_group_name_H-M   'P 1'
_cell_length_a   3.28917500
_cell_length_b   5.70296000
_cell_length_c   6.64775420
_cell_angle_alpha   73.18882993
_cell_angle_beta   90.00000000
_cell_angle_gamma   90.00000000
_symmetry_Int_Tables_number   1
_chemical_formula_structural   NbMoS4
_chemical_formula_sum   'Nb1 Mo1 S4'
_cell_volume   119.36955962
_cell_formula_units_Z   1
loop_
 _symmetry_equiv_pos_site_id
 _symmetry_equiv_pos_as_xyz
  1  'x, y, z'
loop_
 _atom_site_type_symbol
 _atom_site_label
 _atom_site_symmetry_multiplicity
 _atom_site_fract_x
 _atom_site_fract_y
 _atom_site_fract_z
 _atom_site_occupancy
  Nb  Nb0  1  0.50000000  0.49510500  0.00094900  1
  Mo  Mo1  1  0.00000000  0.00289300  0.00077100  1
  S  S2  1  0.00000000  0.41200500  0.75327000  1
  S  S3  1  0.50000000  0.91954900  0.75930000  1
  S  S4  1  0.50000000  0.75713400  0.24199800  1
  S  S5  1  0.00000000  0.24531200  0.24771300  1
