# generated using pymatgen
data_Nb3WS8
_symmetry_space_group_name_H-M   'P 1'
_cell_length_a   3.31735637
_cell_length_b   3.31735700
_cell_length_c   25.55152118
_cell_angle_alpha   90.00000000
_cell_angle_beta   86.27802565
_cell_angle_gamma   119.99999628
_symmetry_Int_Tables_number   1
_chemical_formula_structural   Nb3WS8
_chemical_formula_sum   'Nb3 W1 S8'
_cell_volume   242.83329976
_cell_formula_units_Z   1
loop_
 _symmetry_equiv_pos_site_id
 _symmetry_equiv_pos_as_xyz
  1  'x, y, z'
loop_
 _atom_site_type_symbol
 _atom_site_label
 _atom_site_symmetry_multiplicity
 _atom_site_fract_x
 _atom_site_fract_y
 _atom_site_fract_z
 _atom_site_occupancy
  Nb  Nb0  1  0.99996900  0.99998500  0.00004600  1
  Nb  Nb1  1  0.49998000  0.24999000  0.25003000  1
  Nb  Nb2  1  0.99997000  0.49998500  0.50004400  1
  W  W3  1  0.49993900  0.74996900  0.75009200  1
  S  S4  1  0.87334300  0.43667100  0.68998600  1
  S  S5  1  0.37478800  0.68739400  0.93781800  1
  S  S6  1  0.87480000  0.93740000  0.18780000  1
  S  S7  1  0.37472400  0.18736200  0.43791400  1
  S  S8  1  0.29183400  0.64591700  0.06224900  1
  S  S9  1  0.79174400  0.89587200  0.31238400  1
  S  S10  1  0.29174300  0.14587100  0.56238600  1
  S  S11  1  0.79316700  0.39658300  0.81025000  1
