# generated using pymatgen
data_Nb9AsO25
_symmetry_space_group_name_H-M   'P 1'
_cell_length_a   11.46586728
_cell_length_b   11.46586728
_cell_length_c   15.98101560
_cell_angle_alpha   45.82104012
_cell_angle_beta   45.82104012
_cell_angle_gamma   19.49433208
_symmetry_Int_Tables_number   1
_chemical_formula_structural   Nb9AsO25
_chemical_formula_sum   'Nb9 As1 O25'
_cell_volume   495.76465178
_cell_formula_units_Z   1
loop_
 _symmetry_equiv_pos_site_id
 _symmetry_equiv_pos_as_xyz
  1  'x, y, z'
loop_
 _atom_site_type_symbol
 _atom_site_label
 _atom_site_symmetry_multiplicity
 _atom_site_fract_x
 _atom_site_fract_y
 _atom_site_fract_z
 _atom_site_occupancy
  Nb  Nb0  1  0.78269800  0.78129900  0.32508600  1
  Nb  Nb1  1  0.21870100  0.21730200  0.67491400  1
  Nb  Nb2  1  0.10766900  0.10650900  0.11091300  1
  Nb  Nb3  1  0.89349100  0.89233100  0.88908700  1
  Nb  Nb4  1  0.96240500  0.03759500  0.00000000  1
  Nb  Nb5  1  0.67976500  0.66633700  0.21147500  1
  Nb  Nb6  1  0.33366300  0.32023500  0.78852500  1
  Nb  Nb7  1  0.87786200  0.89120200  0.44241400  1
  Nb  Nb8  1  0.10879800  0.12213800  0.55758600  1
  As  As9  1  0.24999900  0.75000100  0.50000000  1
  O  O10  1  0.54027200  0.56198400  0.37438600  1
  O  O11  1  0.43801600  0.45972800  0.62561400  1
  O  O12  1  0.93634400  0.91468100  0.52335900  1
  O  O13  1  0.08531900  0.06365600  0.47664100  1
  O  O14  1  0.88157300  0.88582600  0.16679600  1
  O  O15  1  0.11417400  0.11842700  0.83320400  1
  O  O16  1  0.04848600  0.05249800  0.06580600  1
  O  O17  1  0.94750200  0.95151400  0.93419400  1
  O  O18  1  0.49039400  0.50960600  0.00000000  1
  O  O19  1  0.82886100  0.82089700  0.39257600  1
  O  O20  1  0.17910300  0.17113900  0.60742400  1
  O  O21  1  0.21349000  0.22141800  0.95766100  1
  O  O22  1  0.77858200  0.78651000  0.04233900  1
  O  O23  1  0.71902300  0.71864300  0.26938500  1
  O  O24  1  0.28135700  0.28097700  0.73061500  1
  O  O25  1  0.98801900  0.98841300  0.29295300  1
  O  O26  1  0.01158700  0.01198100  0.70704700  1
  O  O27  1  0.65030000  0.64393800  0.51034500  1
  O  O28  1  0.35606200  0.34970000  0.48965500  1
  O  O29  1  0.15425900  0.16067900  0.19540800  1
  O  O30  1  0.83932100  0.84574100  0.80459200  1
  O  O31  1  0.25044000  0.24790200  0.36250900  1
  O  O32  1  0.75209800  0.74956000  0.63749100  1
  O  O33  1  0.61062000  0.61275100  0.13914200  1
  O  O34  1  0.38724900  0.38938000  0.86085800  1
