# generated using pymatgen
data_NbInBi2O7
_symmetry_space_group_name_H-M   'P 1'
_cell_length_a   7.63173305
_cell_length_b   7.63173305
_cell_length_c   7.63173305
_cell_angle_alpha   120.56043362
_cell_angle_beta   119.78630722
_cell_angle_gamma   89.70128928
_symmetry_Int_Tables_number   1
_chemical_formula_structural   NbInBi2O7
_chemical_formula_sum   'Nb2 In2 Bi4 O14'
_cell_volume   313.46107858
_cell_formula_units_Z   2
loop_
 _symmetry_equiv_pos_site_id
 _symmetry_equiv_pos_as_xyz
  1  'x, y, z'
loop_
 _atom_site_type_symbol
 _atom_site_label
 _atom_site_symmetry_multiplicity
 _atom_site_fract_x
 _atom_site_fract_y
 _atom_site_fract_z
 _atom_site_occupancy
  Nb  Nb0  1  0.50000000  0.50000000  0.00000000  1
  Nb  Nb1  1  0.00000000  0.50000000  0.50000000  1
  In  In2  1  0.50000000  0.50000000  0.50000000  1
  In  In3  1  0.50000000  0.00000000  0.00000000  1
  Bi  Bi4  1  0.00000000  0.00000000  0.50000000  1
  Bi  Bi5  1  0.00000000  0.50000000  0.00000000  1
  Bi  Bi6  1  0.00000000  0.00000000  0.00000000  1
  Bi  Bi7  1  0.50000000  0.00000000  0.50000000  1
  O  O8  1  0.79896600  0.54896600  0.25000000  1
  O  O9  1  0.39859600  0.14859600  0.25000000  1
  O  O10  1  0.84915900  0.17711100  0.27851900  1
  O  O11  1  0.39859200  0.57064000  0.22148100  1
  O  O12  1  0.84915900  0.57064000  0.67204800  1
  O  O13  1  0.39859200  0.17711100  0.82795200  1
  O  O14  1  0.20103400  0.45103400  0.75000000  1
  O  O15  1  0.60140400  0.85140400  0.75000000  1
  O  O16  1  0.15084100  0.82288900  0.72148100  1
  O  O17  1  0.60140800  0.42936000  0.77851900  1
  O  O18  1  0.15084100  0.42936000  0.32795200  1
  O  O19  1  0.60140800  0.82288900  0.17204800  1
  O  O20  1  0.12006100  0.87006100  0.25000000  1
  O  O21  1  0.87993900  0.12993900  0.75000000  1
