# generated using pymatgen
data_Nd2In3Cu
_symmetry_space_group_name_H-M   'P 1'
_cell_length_a   4.80676423
_cell_length_b   4.80676423
_cell_length_c   7.72979700
_cell_angle_alpha   90.00000000
_cell_angle_beta   90.00000000
_cell_angle_gamma   120.00000317
_symmetry_Int_Tables_number   1
_chemical_formula_structural   Nd2In3Cu
_chemical_formula_sum   'Nd2 In3 Cu1'
_cell_volume   154.66938114
_cell_formula_units_Z   1
loop_
 _symmetry_equiv_pos_site_id
 _symmetry_equiv_pos_as_xyz
  1  'x, y, z'
loop_
 _atom_site_type_symbol
 _atom_site_label
 _atom_site_symmetry_multiplicity
 _atom_site_fract_x
 _atom_site_fract_y
 _atom_site_fract_z
 _atom_site_occupancy
  Nd  Nd0  1  0.00000000  0.00000000  0.72515000  1
  Nd  Nd1  1  0.00000000  0.00000000  0.26335700  1
  In  In2  1  0.33333300  0.66666700  0.48326500  1
  In  In3  1  0.33333300  0.66666700  0.04971900  1
  In  In4  1  0.66666700  0.33333300  0.93786500  1
  Cu  Cu5  1  0.66666700  0.33333300  0.54064400  1
