# generated using pymatgen
data_Nb6V2(CS2)3
_symmetry_space_group_name_H-M   'P 1'
_cell_length_a   5.72833790
_cell_length_b   5.72833790
_cell_length_c   8.84223968
_cell_angle_alpha   83.78742532
_cell_angle_beta   83.78742532
_cell_angle_gamma   120.02060206
_symmetry_Int_Tables_number   1
_chemical_formula_structural   Nb6V2(CS2)3
_chemical_formula_sum   'Nb6 V2 C3 S6'
_cell_volume   245.26483387
_cell_formula_units_Z   1
loop_
 _symmetry_equiv_pos_site_id
 _symmetry_equiv_pos_as_xyz
  1  'x, y, z'
loop_
 _atom_site_type_symbol
 _atom_site_label
 _atom_site_symmetry_multiplicity
 _atom_site_fract_x
 _atom_site_fract_y
 _atom_site_fract_z
 _atom_site_occupancy
  Nb  Nb0  1  0.04371900  0.71100600  0.86862800  1
  Nb  Nb1  1  0.71100600  0.04371900  0.86862800  1
  Nb  Nb2  1  0.37699400  0.37699400  0.86720300  1
  Nb  Nb3  1  0.28899400  0.95628100  0.13137200  1
  Nb  Nb4  1  0.95628100  0.28899400  0.13137200  1
  Nb  Nb5  1  0.62300600  0.62300600  0.13279700  1
  V  V6  1  0.16888200  0.83111800  0.50000000  1
  V  V7  1  0.83111800  0.16888200  0.50000000  1
  C  C8  1  0.33378000  0.66622000  0.00000000  1
  C  C9  1  0.00000000  0.00000000  0.00000000  1
  C  C10  1  0.66622000  0.33378000  0.00000000  1
  S  S11  1  0.22848200  0.22848200  0.33495700  1
  S  S12  1  0.87970200  0.55460300  0.33697100  1
  S  S13  1  0.55460300  0.87970200  0.33697100  1
  S  S14  1  0.12029800  0.44539700  0.66302900  1
  S  S15  1  0.77151800  0.77151800  0.66504300  1
  S  S16  1  0.44539700  0.12029800  0.66302900  1
