# generated using pymatgen
data_NbAgWO7
_symmetry_space_group_name_H-M   'P 1'
_cell_length_a   7.46287061
_cell_length_b   7.46287061
_cell_length_c   7.46287061
_cell_angle_alpha   121.21565356
_cell_angle_beta   119.00486735
_cell_angle_gamma   89.81982743
_symmetry_Int_Tables_number   1
_chemical_formula_structural   NbAgWO7
_chemical_formula_sum   'Nb2 Ag2 W2 O14'
_cell_volume   293.27369064
_cell_formula_units_Z   2
loop_
 _symmetry_equiv_pos_site_id
 _symmetry_equiv_pos_as_xyz
  1  'x, y, z'
loop_
 _atom_site_type_symbol
 _atom_site_label
 _atom_site_symmetry_multiplicity
 _atom_site_fract_x
 _atom_site_fract_y
 _atom_site_fract_z
 _atom_site_occupancy
  Nb  Nb0  1  0.50000000  0.50000000  0.00000000  1
  Nb  Nb1  1  0.00000000  0.50000000  0.50000000  1
  Ag  Ag2  1  0.00000000  0.00000000  0.50000000  1
  Ag  Ag3  1  0.00000000  0.50000000  0.00000000  1
  W  W4  1  0.50000000  0.50000000  0.50000000  1
  W  W5  1  0.50000000  0.00000000  0.00000000  1
  O  O6  1  0.07433800  0.82433800  0.25000000  1
  O  O7  1  0.92566200  0.17566200  0.75000000  1
  O  O8  1  0.44295800  0.19295800  0.25000000  1
  O  O9  1  0.81899700  0.56899700  0.25000000  1
  O  O10  1  0.44170300  0.56000800  0.25644000  1
  O  O11  1  0.80356800  0.18526400  0.24356000  1
  O  O12  1  0.44170300  0.18526400  0.88169500  1
  O  O13  1  0.80356800  0.56000800  0.61830500  1
  O  O14  1  0.55704200  0.80704200  0.75000000  1
  O  O15  1  0.18100300  0.43100300  0.75000000  1
  O  O16  1  0.55829700  0.43999200  0.74356000  1
  O  O17  1  0.19643200  0.81473600  0.75644000  1
  O  O18  1  0.55829700  0.81473600  0.11830500  1
  O  O19  1  0.19643200  0.43999200  0.38169500  1
