# generated using pymatgen
data_Nd3Er(WO4)6
_symmetry_space_group_name_H-M   'P 1'
_cell_length_a   7.05216683
_cell_length_b   7.03903201
_cell_length_c   11.64770526
_cell_angle_alpha   101.04147235
_cell_angle_beta   100.78707044
_cell_angle_gamma   112.03108681
_symmetry_Int_Tables_number   1
_chemical_formula_structural   Nd3Er(WO4)6
_chemical_formula_sum   'Nd3 Er1 W6 O24'
_cell_volume   504.29026778
_cell_formula_units_Z   1
loop_
 _symmetry_equiv_pos_site_id
 _symmetry_equiv_pos_as_xyz
  1  'x, y, z'
loop_
 _atom_site_type_symbol
 _atom_site_label
 _atom_site_symmetry_multiplicity
 _atom_site_fract_x
 _atom_site_fract_y
 _atom_site_fract_z
 _atom_site_occupancy
  Nd  Nd0  1  0.69427800  0.94618300  0.40533000  1
  Nd  Nd1  1  0.94708800  0.69511800  0.90709600  1
  Nd  Nd2  1  0.30573500  0.05345000  0.59502600  1
  Er  Er3  1  0.04976700  0.30705100  0.09341600  1
  W  W4  1  0.19805200  0.48840600  0.44659200  1
  W  W5  1  0.50861700  0.79892100  0.04989700  1
  W  W6  1  0.80061900  0.50998900  0.54970300  1
  W  W7  1  0.49256300  0.20282100  0.95450000  1
  W  W8  1  0.11764000  0.87784000  0.24741400  1
  W  W9  1  0.88239000  0.12045000  0.75248700  1
  O  O10  1  0.22607700  0.61995700  0.04194700  1
  O  O11  1  0.37174700  0.77275100  0.45824300  1
  O  O12  1  0.77786300  0.37327300  0.96291200  1
  O  O13  1  0.62761100  0.22686900  0.54068100  1
  O  O14  1  0.03098000  0.95470200  0.11061200  1
  O  O15  1  0.05333500  0.96803100  0.38855300  1
  O  O16  1  0.97218700  0.06302800  0.89655400  1
  O  O17  1  0.94768300  0.02959400  0.61139000  1
  O  O18  1  0.38713600  0.32329500  0.06011100  1
  O  O19  1  0.67289500  0.60373400  0.44073100  1
  O  O20  1  0.60350600  0.67097400  0.94137900  1
  O  O21  1  0.32553400  0.39390800  0.55533400  1
  O  O22  1  0.19622700  0.34897300  0.29580700  1
  O  O23  1  0.65380200  0.79585600  0.19642900  1
  O  O24  1  0.79767300  0.65503900  0.69748500  1
  O  O25  1  0.35058600  0.20405100  0.80613500  1
  O  O26  1  0.01331300  0.59075900  0.21481900  1
  O  O27  1  0.40269800  0.98723300  0.27821400  1
  O  O28  1  0.98724500  0.40503700  0.77873300  1
  O  O29  1  0.59740600  0.01253500  0.72109700  1
  O  O30  1  0.67939800  0.10231000  0.07646600  1
  O  O31  1  0.89762500  0.32658900  0.42230900  1
  O  O32  1  0.32871200  0.89977200  0.92668300  1
  O  O33  1  0.10201200  0.67150300  0.57591700  1
