data_image0
_chemical_formula_structural       Ge4Ni2Sr2
_chemical_formula_sum              "Ge4 Ni2 Sr2"
_cell_length_a       4.20059
_cell_length_b       4.42661
_cell_length_c       8.98248
_cell_angle_alpha    75.7353
_cell_angle_beta     90
_cell_angle_gamma    90

_space_group_name_H-M_alt    "P 1"
_space_group_IT_number       1

loop_
  _space_group_symop_operation_xyz
  'x, y, z'

loop_
  _atom_site_type_symbol
  _atom_site_label
  _atom_site_symmetry_multiplicity
  _atom_site_fract_x
  _atom_site_fract_y
  _atom_site_fract_z
  _atom_site_occupancy
  Ge  Ge1       1.0  0.75000  0.45700  0.08620  1.0000
  Ge  Ge2       1.0  0.25000  0.25000  0.50000  1.0000
  Ge  Ge3       1.0  0.75000  0.75000  0.50000  1.0000
  Ge  Ge4       1.0  0.25000  0.54300  0.91400  1.0000
  Ni  Ni1       1.0  0.75000  0.31900  0.36100  1.0000
  Ni  Ni2       1.0  0.25000  0.68100  0.63900  1.0000
  Sr  Sr1       1.0  0.25000  0.89200  0.21500  1.0000
  Sr  Sr2       1.0  0.75000  0.10800  0.78500  1.0000
