# generated using pymatgen
data_Nb5(NO)2
_symmetry_space_group_name_H-M   'P 1'
_cell_length_a   5.44271710
_cell_length_b   5.44271710
_cell_length_c   6.87043749
_cell_angle_alpha   51.15390858
_cell_angle_beta   51.15390858
_cell_angle_gamma   47.42133784
_symmetry_Int_Tables_number   1
_chemical_formula_structural   Nb5(NO)2
_chemical_formula_sum   'Nb5 N2 O2'
_cell_volume   109.17482308
_cell_formula_units_Z   1
loop_
 _symmetry_equiv_pos_site_id
 _symmetry_equiv_pos_as_xyz
  1  'x, y, z'
loop_
 _atom_site_type_symbol
 _atom_site_label
 _atom_site_symmetry_multiplicity
 _atom_site_fract_x
 _atom_site_fract_y
 _atom_site_fract_z
 _atom_site_occupancy
  Nb  Nb0  1  0.58278700  0.58278700  0.62039400  1
  Nb  Nb1  1  0.77186500  0.77186500  0.82287700  1
  Nb  Nb2  1  0.99900800  0.99900800  0.97904300  1
  Nb  Nb3  1  0.22193000  0.22193000  0.14012600  1
  Nb  Nb4  1  0.40057100  0.40057100  0.45117200  1
  N  N5  1  0.48604800  0.48604800  0.03901700  1
  N  N6  1  0.69693000  0.69693000  0.20930100  1
  O  O7  1  0.90424800  0.90424800  0.38690100  1
  O  O8  1  0.13661300  0.13661300  0.55116900  1
