# generated using pymatgen
data_Nb9PO25
_symmetry_space_group_name_H-M   'P 1'
_cell_length_a   11.39869797
_cell_length_b   11.39869797
_cell_length_c   15.88345820
_cell_angle_alpha   45.83486371
_cell_angle_beta   45.83486371
_cell_angle_gamma   19.65956474
_symmetry_Int_Tables_number   1
_chemical_formula_structural   Nb9PO25
_chemical_formula_sum   'Nb9 P1 O25'
_cell_volume   490.94688167
_cell_formula_units_Z   1
loop_
 _symmetry_equiv_pos_site_id
 _symmetry_equiv_pos_as_xyz
  1  'x, y, z'
loop_
 _atom_site_type_symbol
 _atom_site_label
 _atom_site_symmetry_multiplicity
 _atom_site_fract_x
 _atom_site_fract_y
 _atom_site_fract_z
 _atom_site_occupancy
  Nb  Nb0  1  0.66259900  0.67676900  0.44361600  1
  Nb  Nb1  1  0.32323100  0.33740100  0.55638400  1
  Nb  Nb2  1  0.89390900  0.87948400  0.78298500  1
  Nb  Nb3  1  0.12051600  0.10609100  0.21701500  1
  Nb  Nb4  1  0.96161100  0.03838900  0.00000000  1
  Nb  Nb5  1  0.89249500  0.88943700  0.32692300  1
  Nb  Nb6  1  0.11056300  0.10750600  0.67307700  1
  Nb  Nb7  1  0.78282200  0.78140400  0.10885100  1
  Nb  Nb8  1  0.21859600  0.21717800  0.89114900  1
  P  P9  1  0.74997500  0.25002500  0.50000000  1
  O  O10  1  0.84944800  0.83935500  0.51032300  1
  O  O11  1  0.16064500  0.15055200  0.48967700  1
  O  O12  1  0.64035800  0.65020600  0.19912200  1
  O  O13  1  0.34979400  0.35964200  0.80087800  1
  O  O14  1  0.71510500  0.72032800  0.29272200  1
  O  O15  1  0.27967200  0.28489500  0.70727800  1
  O  O16  1  0.99202700  0.98708300  0.72815800  1
  O  O17  1  0.01291700  0.00797300  0.27184200  1
  O  O18  1  0.58254100  0.51677600  0.51547800  1
  O  O19  1  0.48322400  0.41745900  0.48452200  1
  O  O20  1  0.90193300  0.96778600  0.61479800  1
  O  O21  1  0.03221400  0.09806700  0.38520200  1
  O  O22  1  0.61490300  0.60967300  0.63615600  1
  O  O23  1  0.39032700  0.38509700  0.36384400  1
  O  O24  1  0.74953200  0.75357200  0.86073600  1
  O  O25  1  0.24642800  0.25046800  0.13926400  1
  O  O26  1  0.78747100  0.77487200  0.39181300  1
  O  O27  1  0.22512800  0.21252900  0.60818700  1
  O  O28  1  0.82067400  0.83336800  0.95415100  1
  O  O29  1  0.16663200  0.17932600  0.04584900  1
  O  O30  1  0.95026400  0.95154500  0.16677300  1
  O  O31  1  0.04845500  0.04973600  0.83322700  1
  O  O32  1  0.88194100  0.88271000  0.06858200  1
  O  O33  1  0.11729000  0.11805900  0.93141800  1
  O  O34  1  0.49175900  0.50824100  0.00000000  1
