# generated using pymatgen
data_NbCo
_symmetry_space_group_name_H-M   'P 1'
_cell_length_a   4.94082168
_cell_length_b   4.94082168
_cell_length_c   17.74425519
_cell_angle_alpha   98.00289553
_cell_angle_beta   98.00289553
_cell_angle_gamma   60.00000426
_symmetry_Int_Tables_number   1
_chemical_formula_structural   NbCo
_chemical_formula_sum   'Nb13 Co13'
_cell_volume   370.25507072
_cell_formula_units_Z   13
loop_
 _symmetry_equiv_pos_site_id
 _symmetry_equiv_pos_as_xyz
  1  'x, y, z'
loop_
 _atom_site_type_symbol
 _atom_site_label
 _atom_site_symmetry_multiplicity
 _atom_site_fract_x
 _atom_site_fract_y
 _atom_site_fract_z
 _atom_site_occupancy
  Nb  Nb0  1  0.41664800  0.41664800  0.24994400  1
  Nb  Nb1  1  0.91762200  0.91762200  0.75286500  1
  Nb  Nb2  1  0.08237800  0.08237800  0.24713500  1
  Nb  Nb3  1  0.58335200  0.58335200  0.75005600  1
  Nb  Nb4  1  0.77447900  0.77447900  0.32343800  1
  Nb  Nb5  1  0.27571300  0.27571300  0.82714000  1
  Nb  Nb6  1  0.72428700  0.72428700  0.17286000  1
  Nb  Nb7  1  0.22552100  0.22552100  0.67656200  1
  Nb  Nb8  1  0.82621200  0.82621200  0.47863500  1
  Nb  Nb9  1  0.32814100  0.32814100  0.98442300  1
  Nb  Nb10  1  0.67185900  0.67185900  0.01557700  1
  Nb  Nb11  1  0.17378800  0.17378800  0.52136500  1
  Nb  Nb12  1  0.50000000  0.50000000  0.50000000  1
  Co  Co13  1  0.70697300  0.20317000  0.11331300  1
  Co  Co14  1  0.19776800  0.71026100  0.61829100  1
  Co  Co15  1  0.20317000  0.20317000  0.11331300  1
  Co  Co16  1  0.71026100  0.71026100  0.61829100  1
  Co  Co17  1  0.20317000  0.70697300  0.11331300  1
  Co  Co18  1  0.71026100  0.19776800  0.61829100  1
  Co  Co19  1  0.80223200  0.28973900  0.38170900  1
  Co  Co20  1  0.29302700  0.79683000  0.88668700  1
  Co  Co21  1  0.28973900  0.28973900  0.38170900  1
  Co  Co22  1  0.79683000  0.79683000  0.88668700  1
  Co  Co23  1  0.28973900  0.80223200  0.38170900  1
  Co  Co24  1  0.79683000  0.29302700  0.88668700  1
  Co  Co25  1  0.00000000  0.00000000  0.00000000  1
