# generated using pymatgen
data_Nb12ZnSe16
_symmetry_space_group_name_H-M   'P 1'
_cell_length_a   6.97195900
_cell_length_b   10.13184498
_cell_length_c   10.74629293
_cell_angle_alpha   118.04091392
_cell_angle_beta   108.90647273
_cell_angle_gamma   90.04393950
_symmetry_Int_Tables_number   1
_chemical_formula_structural   Nb12ZnSe16
_chemical_formula_sum   'Nb12 Zn1 Se16'
_cell_volume   623.10396326
_cell_formula_units_Z   1
loop_
 _symmetry_equiv_pos_site_id
 _symmetry_equiv_pos_as_xyz
  1  'x, y, z'
loop_
 _atom_site_type_symbol
 _atom_site_label
 _atom_site_symmetry_multiplicity
 _atom_site_fract_x
 _atom_site_fract_y
 _atom_site_fract_z
 _atom_site_occupancy
  Nb  Nb0  1  0.67949800  0.61940000  0.10800300  1
  Nb  Nb1  1  0.17963400  0.61994600  0.10885500  1
  Nb  Nb2  1  0.87956300  0.89105700  0.51084800  1
  Nb  Nb3  1  0.38218400  0.89171800  0.51204400  1
  Nb  Nb4  1  0.81614300  0.48801800  0.38006200  1
  Nb  Nb5  1  0.31452400  0.48921400  0.38057400  1
  Nb  Nb6  1  0.82036600  0.38005400  0.89114500  1
  Nb  Nb7  1  0.32050200  0.38060000  0.89199700  1
  Nb  Nb8  1  0.61781600  0.10828200  0.48795600  1
  Nb  Nb9  1  0.12043700  0.10894300  0.48915200  1
  Nb  Nb10  1  0.68547600  0.51078600  0.61942600  1
  Nb  Nb11  1  0.18385700  0.51198200  0.61993800  1
  Zn  Zn12  1  0.00000000  0.00000000  0.00000000  1
  Se  Se13  1  0.26454500  0.93954200  0.27987600  1
  Se  Se14  1  0.76592000  0.93968100  0.28075600  1
  Se  Se15  1  0.45478000  0.71892700  0.65899300  1
  Se  Se16  1  0.95440100  0.72010200  0.65982100  1
  Se  Se17  1  0.15517200  0.34015300  0.06001700  1
  Se  Se18  1  0.65562600  0.34106200  0.06023700  1
  Se  Se19  1  0.23408000  0.06031900  0.71924400  1
  Se  Se20  1  0.73545500  0.06045800  0.72012400  1
  Se  Se21  1  0.04559900  0.27989800  0.34017900  1
  Se  Se22  1  0.54522000  0.28107300  0.34100700  1
  Se  Se23  1  0.34437400  0.65893800  0.93976300  1
  Se  Se24  1  0.84482800  0.65984700  0.93998300  1
  Se  Se25  1  0.45838400  0.33334600  0.66628900  1
  Se  Se26  1  0.95865900  0.33313900  0.66654300  1
  Se  Se27  1  0.04134100  0.66686100  0.33345700  1
  Se  Se28  1  0.54161600  0.66665400  0.33371100  1
