# generated using pymatgen
data_Nb2CuCS2
_symmetry_space_group_name_H-M   'P 1'
_cell_length_a   3.37069655
_cell_length_b   3.37069655
_cell_length_c   9.07378100
_cell_angle_alpha   90.00000000
_cell_angle_beta   90.00000000
_cell_angle_gamma   120.00001080
_symmetry_Int_Tables_number   1
_chemical_formula_structural   Nb2CuCS2
_chemical_formula_sum   'Nb2 Cu1 C1 S2'
_cell_volume   89.28082418
_cell_formula_units_Z   1
loop_
 _symmetry_equiv_pos_site_id
 _symmetry_equiv_pos_as_xyz
  1  'x, y, z'
loop_
 _atom_site_type_symbol
 _atom_site_label
 _atom_site_symmetry_multiplicity
 _atom_site_fract_x
 _atom_site_fract_y
 _atom_site_fract_z
 _atom_site_occupancy
  Nb  Nb0  1  0.66666700  0.33333300  0.11834100  1
  Nb  Nb1  1  0.00000000  0.00000000  0.87165300  1
  Cu  Cu2  1  0.66666700  0.33333300  0.44996500  1
  C  C3  1  0.33333300  0.66666700  0.99739900  1
  S  S4  1  0.66666700  0.33333300  0.69194200  1
  S  S5  1  0.00000000  0.00000000  0.31070000  1
