# generated using pymatgen
data_NdDyFe14C
_symmetry_space_group_name_H-M   'P 1'
_cell_length_a   8.74535800
_cell_length_b   8.74535800
_cell_length_c   11.82508900
_cell_angle_alpha   90.00000000
_cell_angle_beta   90.00000000
_cell_angle_gamma   90.00000000
_symmetry_Int_Tables_number   1
_chemical_formula_structural   NdDyFe14C
_chemical_formula_sum   'Nd4 Dy4 Fe56 C4'
_cell_volume   904.39802027
_cell_formula_units_Z   4
loop_
 _symmetry_equiv_pos_site_id
 _symmetry_equiv_pos_as_xyz
  1  'x, y, z'
loop_
 _atom_site_type_symbol
 _atom_site_label
 _atom_site_symmetry_multiplicity
 _atom_site_fract_x
 _atom_site_fract_y
 _atom_site_fract_z
 _atom_site_occupancy
  Nd  Nd0  1  0.24303900  0.75696100  0.50000000  1
  Nd  Nd1  1  0.75696100  0.24303900  0.50000000  1
  Nd  Nd2  1  0.25696100  0.25696100  0.00000000  1
  Nd  Nd3  1  0.74303900  0.74303900  0.00000000  1
  Dy  Dy4  1  0.64696800  0.64696800  0.50000000  1
  Dy  Dy5  1  0.35303200  0.35303200  0.50000000  1
  Dy  Dy6  1  0.85303200  0.14696800  0.00000000  1
  Dy  Dy7  1  0.14696800  0.85303200  0.00000000  1
  Fe  Fe8  1  0.50000000  0.50000000  0.10850200  1
  Fe  Fe9  1  0.00000000  0.00000000  0.60850200  1
  Fe  Fe10  1  0.50000000  0.50000000  0.89149800  1
  Fe  Fe11  1  0.00000000  0.00000000  0.39149800  1
  Fe  Fe12  1  0.14142400  0.53391200  0.32369300  1
  Fe  Fe13  1  0.85857600  0.46608800  0.32369300  1
  Fe  Fe14  1  0.35857600  0.03391200  0.82369300  1
  Fe  Fe15  1  0.64142400  0.96608800  0.82369300  1
  Fe  Fe16  1  0.85857600  0.46608800  0.67630700  1
  Fe  Fe17  1  0.14142400  0.53391200  0.67630700  1
  Fe  Fe18  1  0.64142400  0.96608800  0.17630700  1
  Fe  Fe19  1  0.35857600  0.03391200  0.17630700  1
  Fe  Fe20  1  0.53391200  0.14142400  0.32369300  1
  Fe  Fe21  1  0.46608800  0.85857600  0.32369300  1
  Fe  Fe22  1  0.03391200  0.35857600  0.82369300  1
  Fe  Fe23  1  0.96608800  0.64142400  0.82369300  1
  Fe  Fe24  1  0.46608800  0.85857600  0.67630700  1
  Fe  Fe25  1  0.53391200  0.14142400  0.67630700  1
  Fe  Fe26  1  0.96608800  0.64142400  0.17630700  1
  Fe  Fe27  1  0.03391200  0.35857600  0.17630700  1
  Fe  Fe28  1  0.93548300  0.72639000  0.37883900  1
  Fe  Fe29  1  0.06451700  0.27361000  0.37883900  1
  Fe  Fe30  1  0.56451700  0.22639000  0.87883900  1
  Fe  Fe31  1  0.43548300  0.77361000  0.87883900  1
  Fe  Fe32  1  0.06451700  0.27361000  0.62116100  1
  Fe  Fe33  1  0.93548300  0.72639000  0.62116100  1
  Fe  Fe34  1  0.43548300  0.77361000  0.12116100  1
  Fe  Fe35  1  0.56451700  0.22639000  0.12116100  1
  Fe  Fe36  1  0.72639000  0.93548300  0.37883900  1
  Fe  Fe37  1  0.27361000  0.06451700  0.37883900  1
  Fe  Fe38  1  0.22639000  0.56451700  0.87883900  1
  Fe  Fe39  1  0.77361000  0.43548300  0.87883900  1
  Fe  Fe40  1  0.27361000  0.06451700  0.62116100  1
  Fe  Fe41  1  0.72639000  0.93548300  0.62116100  1
  Fe  Fe42  1  0.77361000  0.43548300  0.12116100  1
  Fe  Fe43  1  0.22639000  0.56451700  0.12116100  1
  Fe  Fe44  1  0.18517200  0.81482800  0.25238600  1
  Fe  Fe45  1  0.81482800  0.18517200  0.25238600  1
  Fe  Fe46  1  0.31482800  0.31482800  0.75238600  1
  Fe  Fe47  1  0.68517200  0.68517200  0.75238600  1
  Fe  Fe48  1  0.81482800  0.18517200  0.74761400  1
  Fe  Fe49  1  0.18517200  0.81482800  0.74761400  1
  Fe  Fe50  1  0.68517200  0.68517200  0.24761400  1
  Fe  Fe51  1  0.31482800  0.31482800  0.24761400  1
  Fe  Fe52  1  0.40336000  0.59664000  0.29575600  1
  Fe  Fe53  1  0.59664000  0.40336000  0.29575600  1
  Fe  Fe54  1  0.09664000  0.09664000  0.79575600  1
  Fe  Fe55  1  0.90336000  0.90336000  0.79575600  1
  Fe  Fe56  1  0.59664000  0.40336000  0.70424400  1
  Fe  Fe57  1  0.40336000  0.59664000  0.70424400  1
  Fe  Fe58  1  0.90336000  0.90336000  0.20424400  1
  Fe  Fe59  1  0.09664000  0.09664000  0.20424400  1
  Fe  Fe60  1  0.00000000  0.50000000  0.50000000  1
  Fe  Fe61  1  0.50000000  0.00000000  0.00000000  1
  Fe  Fe62  1  0.50000000  0.00000000  0.50000000  1
  Fe  Fe63  1  0.00000000  0.50000000  0.00000000  1
  C  C64  1  0.87405100  0.87405100  0.50000000  1
  C  C65  1  0.12594900  0.12594900  0.50000000  1
  C  C66  1  0.62594900  0.37405100  0.00000000  1
  C  C67  1  0.37405100  0.62594900  0.00000000  1
