# generated using pymatgen
data_NaZn3H3S2O9
_symmetry_space_group_name_H-M   'P 1'
_cell_length_a   5.94324958
_cell_length_b   5.94324958
_cell_length_c   13.80149800
_cell_angle_alpha   90.00000000
_cell_angle_beta   90.00000000
_cell_angle_gamma   119.99999536
_symmetry_Int_Tables_number   1
_chemical_formula_structural   NaZn3H3S2O9
_chemical_formula_sum   'Na2 Zn6 H6 S4 O18'
_cell_volume   422.18696076
_cell_formula_units_Z   2
loop_
 _symmetry_equiv_pos_site_id
 _symmetry_equiv_pos_as_xyz
  1  'x, y, z'
loop_
 _atom_site_type_symbol
 _atom_site_label
 _atom_site_symmetry_multiplicity
 _atom_site_fract_x
 _atom_site_fract_y
 _atom_site_fract_z
 _atom_site_occupancy
  Na  Na0  1  0.33333300  0.66666700  0.99004200  1
  Na  Na1  1  0.33333300  0.66666700  0.49004200  1
  Zn  Zn2  1  0.33161000  0.01008100  0.25400000  1
  Zn  Zn3  1  0.98991900  0.32152900  0.25400000  1
  Zn  Zn4  1  0.67847100  0.66839000  0.25400000  1
  Zn  Zn5  1  0.98991900  0.66839000  0.75400000  1
  Zn  Zn6  1  0.33161000  0.32152900  0.75400000  1
  Zn  Zn7  1  0.67847100  0.01008100  0.75400000  1
  H  H8  1  0.33333300  0.66666700  0.17143600  1
  H  H9  1  0.33333300  0.66666700  0.67143600  1
  H  H10  1  0.00000000  0.00000000  0.13254800  1
  H  H11  1  0.00000000  0.00000000  0.63254800  1
  H  H12  1  0.66666700  0.33333300  0.87039400  1
  H  H13  1  0.66666700  0.33333300  0.37039400  1
  S  S14  1  0.00000000  0.00000000  0.43960700  1
  S  S15  1  0.00000000  0.00000000  0.93960700  1
  S  S16  1  0.66666700  0.33333300  0.56372800  1
  S  S17  1  0.66666700  0.33333300  0.06372800  1
  O  O18  1  0.33333300  0.66666700  0.24219900  1
  O  O19  1  0.33333300  0.66666700  0.74219900  1
  O  O20  1  0.00000000  0.00000000  0.20395600  1
  O  O21  1  0.00000000  0.00000000  0.70395600  1
  O  O22  1  0.66666700  0.33333300  0.79908400  1
  O  O23  1  0.66666700  0.33333300  0.29908400  1
  O  O24  1  0.18307500  0.91211500  0.39479900  1
  O  O25  1  0.08788500  0.27096100  0.39479900  1
  O  O26  1  0.72903900  0.81692500  0.39479900  1
  O  O27  1  0.08788500  0.81692500  0.89479900  1
  O  O28  1  0.18307500  0.27096100  0.89479900  1
  O  O29  1  0.72903900  0.91211500  0.89479900  1
  O  O30  1  0.48243300  0.42024700  0.60830500  1
  O  O31  1  0.57975300  0.06218600  0.60830500  1
  O  O32  1  0.93781400  0.51756700  0.60830500  1
  O  O33  1  0.57975300  0.51756700  0.10830500  1
  O  O34  1  0.48243300  0.06218600  0.10830500  1
  O  O35  1  0.93781400  0.42024700  0.10830500  1
