# generated using pymatgen
data_Nb2V3(Cu3S4)5
_symmetry_space_group_name_H-M   'P 1'
_cell_length_a   5.45429400
_cell_length_b   5.45429400
_cell_length_c   27.26188800
_cell_angle_alpha   90.00000000
_cell_angle_beta   90.00000000
_cell_angle_gamma   90.00000000
_symmetry_Int_Tables_number   1
_chemical_formula_structural   Nb2V3(Cu3S4)5
_chemical_formula_sum   'Nb2 V3 Cu15 S20'
_cell_volume   811.02271275
_cell_formula_units_Z   1
loop_
 _symmetry_equiv_pos_site_id
 _symmetry_equiv_pos_as_xyz
  1  'x, y, z'
loop_
 _atom_site_type_symbol
 _atom_site_label
 _atom_site_symmetry_multiplicity
 _atom_site_fract_x
 _atom_site_fract_y
 _atom_site_fract_z
 _atom_site_occupancy
  Nb  Nb0  1  0.00000000  0.00000000  0.89978700  1
  Nb  Nb1  1  0.00000000  0.00000000  0.10021300  1
  V  V2  1  0.00000000  0.00000000  0.30016900  1
  V  V3  1  0.00000000  0.00000000  0.50000000  1
  V  V4  1  0.00000000  0.00000000  0.69983100  1
  Cu  Cu5  1  0.00000000  0.00000000  0.00000000  1
  Cu  Cu6  1  0.00000000  0.00000000  0.20117900  1
  Cu  Cu7  1  0.00000000  0.00000000  0.40002100  1
  Cu  Cu8  1  0.00000000  0.00000000  0.59997900  1
  Cu  Cu9  1  0.00000000  0.00000000  0.79882100  1
  Cu  Cu10  1  0.00000000  0.50000000  0.90000400  1
  Cu  Cu11  1  0.00000000  0.50000000  0.09999600  1
  Cu  Cu12  1  0.00000000  0.50000000  0.30001000  1
  Cu  Cu13  1  0.00000000  0.50000000  0.50000000  1
  Cu  Cu14  1  0.00000000  0.50000000  0.69999000  1
  Cu  Cu15  1  0.50000000  0.00000000  0.90000400  1
  Cu  Cu16  1  0.50000000  0.00000000  0.09999600  1
  Cu  Cu17  1  0.50000000  0.00000000  0.30001000  1
  Cu  Cu18  1  0.50000000  0.00000000  0.50000000  1
  Cu  Cu19  1  0.50000000  0.00000000  0.69999000  1
  S  S20  1  0.75332300  0.75332300  0.94932700  1
  S  S21  1  0.75325500  0.75325500  0.14945600  1
  S  S22  1  0.76521000  0.76521000  0.34698000  1
  S  S23  1  0.76530400  0.76530400  0.54693100  1
  S  S24  1  0.76509100  0.76509100  0.74683900  1
  S  S25  1  0.75332300  0.24667700  0.05067300  1
  S  S26  1  0.76509100  0.23490900  0.25316100  1
  S  S27  1  0.76530400  0.23469600  0.45306900  1
  S  S28  1  0.76521000  0.23479000  0.65302000  1
  S  S29  1  0.75325500  0.24674500  0.85054400  1
  S  S30  1  0.24667700  0.75332300  0.05067300  1
  S  S31  1  0.23490900  0.76509100  0.25316100  1
  S  S32  1  0.23469600  0.76530400  0.45306900  1
  S  S33  1  0.23479000  0.76521000  0.65302000  1
  S  S34  1  0.24674500  0.75325500  0.85054400  1
  S  S35  1  0.24667700  0.24667700  0.94932700  1
  S  S36  1  0.24674500  0.24674500  0.14945600  1
  S  S37  1  0.23479000  0.23479000  0.34698000  1
  S  S38  1  0.23469600  0.23469600  0.54693100  1
  S  S39  1  0.23490900  0.23490900  0.74683900  1
