# generated using pymatgen
data_Nb12Tl(Te3As)4
_symmetry_space_group_name_H-M   'P 1'
_cell_length_a   11.14202045
_cell_length_b   11.14202045
_cell_length_c   10.55022427
_cell_angle_alpha   61.75245867
_cell_angle_beta   61.75245867
_cell_angle_gamma   37.79426578
_symmetry_Int_Tables_number   1
_chemical_formula_structural   Nb12Tl(Te3As)4
_chemical_formula_sum   'Nb12 Tl1 Te12 As4'
_cell_volume   695.00520893
_cell_formula_units_Z   1
loop_
 _symmetry_equiv_pos_site_id
 _symmetry_equiv_pos_as_xyz
  1  'x, y, z'
loop_
 _atom_site_type_symbol
 _atom_site_label
 _atom_site_symmetry_multiplicity
 _atom_site_fract_x
 _atom_site_fract_y
 _atom_site_fract_z
 _atom_site_occupancy
  Nb  Nb0  1  0.62395400  0.62395400  0.12758100  1
  Nb  Nb1  1  0.12257700  0.12257700  0.12668800  1
  Nb  Nb2  1  0.43880000  0.43880000  0.37566300  1
  Nb  Nb3  1  0.93834300  0.93834300  0.37717700  1
  Nb  Nb4  1  0.56398800  0.56398800  0.49496900  1
  Nb  Nb5  1  0.06243400  0.06243400  0.49755800  1
  Nb  Nb6  1  0.37675300  0.87824300  0.87306800  1
  Nb  Nb7  1  0.87824300  0.37675300  0.87306800  1
  Nb  Nb8  1  0.56138100  0.06164700  0.62187600  1
  Nb  Nb9  1  0.06164700  0.56138100  0.62187600  1
  Nb  Nb10  1  0.43641100  0.93549500  0.50517200  1
  Nb  Nb11  1  0.93549500  0.43641100  0.50517200  1
  Tl  Tl12  1  0.37500900  0.37500900  0.99995900  1
  Te  Te13  1  0.01417100  0.01417100  0.05172400  1
  Te  Te14  1  0.51598500  0.51598500  0.05314200  1
  Te  Te15  1  0.90105100  0.90105100  0.66898400  1
  Te  Te16  1  0.40140300  0.40140300  0.66588800  1
  Te  Te17  1  0.20772000  0.20772000  0.28179700  1
  Te  Te18  1  0.70990900  0.70990900  0.27861100  1
  Te  Te19  1  0.98641000  0.48566300  0.94803800  1
  Te  Te20  1  0.48566300  0.98641000  0.94803800  1
  Te  Te21  1  0.09866800  0.59926600  0.32993700  1
  Te  Te22  1  0.59926600  0.09866800  0.32993700  1
  Te  Te23  1  0.78939100  0.29034800  0.72203200  1
  Te  Te24  1  0.29034800  0.78939100  0.72203200  1
  As  As25  1  0.20824900  0.20824900  0.66662900  1
  As  As26  1  0.70818900  0.70818900  0.66713200  1
  As  As27  1  0.79196000  0.29158200  0.33312600  1
  As  As28  1  0.29158200  0.79196000  0.33312600  1
