# generated using pymatgen
data_Nb3(IrSe5)2
_symmetry_space_group_name_H-M   'P 1'
_cell_length_a   5.79806300
_cell_length_b   7.75886412
_cell_length_c   9.25785619
_cell_angle_alpha   113.64211362
_cell_angle_beta   106.90686224
_cell_angle_gamma   90.18652687
_symmetry_Int_Tables_number   1
_chemical_formula_structural   Nb3(IrSe5)2
_chemical_formula_sum   'Nb3 Ir2 Se10'
_cell_volume   361.60141911
_cell_formula_units_Z   1
loop_
 _symmetry_equiv_pos_site_id
 _symmetry_equiv_pos_as_xyz
  1  'x, y, z'
loop_
 _atom_site_type_symbol
 _atom_site_label
 _atom_site_symmetry_multiplicity
 _atom_site_fract_x
 _atom_site_fract_y
 _atom_site_fract_z
 _atom_site_occupancy
  Nb  Nb0  1  0.33558400  0.64287200  0.64829200  1
  Nb  Nb1  1  0.50000000  0.00000000  0.00000000  1
  Nb  Nb2  1  0.66441600  0.35712800  0.35170800  1
  Ir  Ir3  1  0.88788900  0.79302900  0.79295600  1
  Ir  Ir4  1  0.11211100  0.20697100  0.20704400  1
  Se  Se5  1  0.26941600  0.65897800  0.91082000  1
  Se  Se6  1  0.46522300  0.03608900  0.29255000  1
  Se  Se7  1  0.68962200  0.45693500  0.68288000  1
  Se  Se8  1  0.89671500  0.86691800  0.09052700  1
  Se  Se9  1  0.08938800  0.27955100  0.49323600  1
  Se  Se10  1  0.10328500  0.13308200  0.90947300  1
  Se  Se11  1  0.31037800  0.54306500  0.31712000  1
  Se  Se12  1  0.53477700  0.96391100  0.70745000  1
  Se  Se13  1  0.73058400  0.34102200  0.08918000  1
  Se  Se14  1  0.91061200  0.72044900  0.50676400  1
