# generated using pymatgen
data_Nb2(AlGa)3
_symmetry_space_group_name_H-M   'P 1'
_cell_length_a   3.83500800
_cell_length_b   3.83500800
_cell_length_c   8.69063000
_cell_angle_alpha   90.00000000
_cell_angle_beta   90.00000000
_cell_angle_gamma   90.00000000
_symmetry_Int_Tables_number   1
_chemical_formula_structural   Nb2(AlGa)3
_chemical_formula_sum   'Nb2 Al3 Ga3'
_cell_volume   127.81558406
_cell_formula_units_Z   1
loop_
 _symmetry_equiv_pos_site_id
 _symmetry_equiv_pos_as_xyz
  1  'x, y, z'
loop_
 _atom_site_type_symbol
 _atom_site_label
 _atom_site_symmetry_multiplicity
 _atom_site_fract_x
 _atom_site_fract_y
 _atom_site_fract_z
 _atom_site_occupancy
  Nb  Nb0  1  0.50000000  0.00000000  0.74991100  1
  Nb  Nb1  1  0.00000000  0.50000000  0.25008900  1
  Al  Al2  1  0.00000000  0.50000000  0.75136900  1
  Al  Al3  1  0.50000000  0.00000000  0.24863100  1
  Al  Al4  1  0.50000000  0.50000000  0.00000000  1
  Ga  Ga5  1  0.00000000  0.00000000  0.50000000  1
  Ga  Ga6  1  0.00000000  0.00000000  0.00000000  1
  Ga  Ga7  1  0.50000000  0.50000000  0.50000000  1
