# generated using pymatgen
data_NaV4Cd3O12
_symmetry_space_group_name_H-M   'P 1'
_cell_length_a   7.64675600
_cell_length_b   5.34815700
_cell_length_c   5.38745333
_cell_angle_alpha   89.54172062
_cell_angle_beta   90.00000000
_cell_angle_gamma   90.00000000
_symmetry_Int_Tables_number   1
_chemical_formula_structural   NaV4Cd3O12
_chemical_formula_sum   'Na1 V4 Cd3 O12'
_cell_volume   220.31852191
_cell_formula_units_Z   1
loop_
 _symmetry_equiv_pos_site_id
 _symmetry_equiv_pos_as_xyz
  1  'x, y, z'
loop_
 _atom_site_type_symbol
 _atom_site_label
 _atom_site_symmetry_multiplicity
 _atom_site_fract_x
 _atom_site_fract_y
 _atom_site_fract_z
 _atom_site_occupancy
  Na  Na0  1  0.50000000  0.49356800  0.53401100  1
  V  V1  1  0.25533700  0.00085800  0.50247900  1
  V  V2  1  0.74677600  0.49850900  0.00348200  1
  V  V3  1  0.74466300  0.00085800  0.50247900  1
  V  V4  1  0.25322400  0.49850900  0.00348200  1
  Cd  Cd5  1  0.50000000  0.00576300  0.03325900  1
  Cd  Cd6  1  0.00000000  0.50566800  0.46887100  1
  Cd  Cd7  1  0.00000000  0.99297100  0.96582400  1
  O  O8  1  0.29369100  0.19394400  0.78711900  1
  O  O9  1  0.71215800  0.29376500  0.28506300  1
  O  O10  1  0.79157400  0.80308100  0.21227500  1
  O  O11  1  0.20807100  0.70141000  0.70701300  1
  O  O12  1  0.20842600  0.80308100  0.21227500  1
  O  O13  1  0.79192900  0.70141000  0.70701300  1
  O  O14  1  0.70630900  0.19394400  0.78711900  1
  O  O15  1  0.28784200  0.29376500  0.28506300  1
  O  O16  1  0.50000000  0.58848800  0.97838300  1
  O  O17  1  0.50000000  0.93084500  0.47867900  1
  O  O18  1  0.00000000  0.41482100  0.02302000  1
  O  O19  1  0.00000000  0.08474200  0.52309200  1
