# generated using pymatgen
data_Na5Si51
_symmetry_space_group_name_H-M   'P 1'
_cell_length_a   10.42030202
_cell_length_b   10.42030202
_cell_length_c   25.58443293
_cell_angle_alpha   89.98072250
_cell_angle_beta   89.98072250
_cell_angle_gamma   59.96606052
_symmetry_Int_Tables_number   1
_chemical_formula_structural   Na5Si51
_chemical_formula_sum   'Na10 Si102'
_cell_volume   2405.01826394
_cell_formula_units_Z   2
loop_
 _symmetry_equiv_pos_site_id
 _symmetry_equiv_pos_as_xyz
  1  'x, y, z'
loop_
 _atom_site_type_symbol
 _atom_site_label
 _atom_site_symmetry_multiplicity
 _atom_site_fract_x
 _atom_site_fract_y
 _atom_site_fract_z
 _atom_site_occupancy
  Na  Na0  1  0.83332700  0.83332700  0.20830200  1
  Na  Na1  1  0.50001200  0.50001200  0.87501300  1
  Na  Na2  1  0.16666800  0.16666800  0.54166200  1
  Na  Na3  1  0.49998800  0.49998800  0.12498700  1
  Na  Na4  1  0.16667300  0.16667300  0.79169800  1
  Na  Na5  1  0.83333200  0.83333200  0.45833800  1
  Na  Na6  1  0.83331300  0.83331300  0.83327800  1
  Na  Na7  1  0.50000000  0.50000000  0.50000000  1
  Na  Na8  1  0.16668700  0.16668700  0.16672200  1
  Na  Na9  1  0.00000000  0.00000000  0.00000000  1
  Si  Si10  1  0.83307500  0.83307500  0.05111900  1
  Si  Si11  1  0.50006200  0.50006200  0.71766500  1
  Si  Si12  1  0.16667200  0.16667200  0.38437400  1
  Si  Si13  1  0.04303200  0.04303200  0.26085400  1
  Si  Si14  1  0.70925700  0.70925700  0.92749000  1
  Si  Si15  1  0.37638500  0.37638500  0.59419000  1
  Si  Si16  1  0.04307900  0.41406100  0.26084000  1
  Si  Si17  1  0.70923900  0.08117800  0.92746100  1
  Si  Si18  1  0.37634200  0.74729900  0.59420300  1
  Si  Si19  1  0.41406100  0.04307900  0.26084000  1
  Si  Si20  1  0.08117900  0.70923900  0.92746100  1
  Si  Si21  1  0.74729900  0.37634200  0.59420300  1
  Si  Si22  1  0.49993800  0.49993800  0.28233500  1
  Si  Si23  1  0.16692500  0.16692500  0.94888100  1
  Si  Si24  1  0.83332800  0.83332800  0.61562600  1
  Si  Si25  1  0.29074300  0.29074300  0.07251000  1
  Si  Si26  1  0.95696800  0.95696800  0.73914600  1
  Si  Si27  1  0.62361500  0.62361500  0.40581000  1
  Si  Si28  1  0.29076100  0.91882200  0.07253900  1
  Si  Si29  1  0.95692100  0.58593900  0.73916000  1
  Si  Si30  1  0.62365800  0.25270100  0.40579700  1
  Si  Si31  1  0.91882200  0.29076100  0.07253900  1
  Si  Si32  1  0.58593900  0.95692100  0.73916000  1
  Si  Si33  1  0.25270100  0.62365800  0.40579700  1
  Si  Si34  1  0.16670400  0.16670400  0.29200500  1
  Si  Si35  1  0.83300900  0.83300900  0.95868100  1
  Si  Si36  1  0.49996200  0.49996200  0.62537300  1
  Si  Si37  1  0.16699100  0.16699100  0.04131900  1
  Si  Si38  1  0.83329600  0.83329600  0.70799500  1
  Si  Si39  1  0.50003800  0.50003800  0.37462700  1
  Si  Si40  1  0.08441900  0.70773600  0.07868600  1
  Si  Si41  1  0.75084600  0.37474900  0.74522000  1
  Si  Si42  1  0.41759300  0.04118100  0.41193000  1
  Si  Si43  1  0.83839400  0.21527700  0.20974100  1
  Si  Si44  1  0.50535100  0.88202900  0.87623000  1
  Si  Si45  1  0.17177300  0.54852100  0.54296100  1
  Si  Si46  1  0.83848400  0.44638100  0.20960200  1
  Si  Si47  1  0.50467000  0.11300100  0.87621300  1
  Si  Si48  1  0.17178500  0.77971200  0.54296200  1
  Si  Si49  1  0.23858100  0.63085200  0.00197400  1
  Si  Si50  1  0.90507200  0.29751600  0.66870000  1
  Si  Si51  1  0.57186500  0.96413400  0.33535100  1
  Si  Si52  1  0.21533300  0.44631300  0.20971400  1
  Si  Si53  1  0.88182700  0.11318500  0.87623600  1
  Si  Si54  1  0.54848000  0.77976000  0.54295600  1
  Si  Si55  1  0.70759700  0.70759700  0.07865800  1
  Si  Si56  1  0.37458700  0.37458700  0.74527200  1
  Si  Si57  1  0.04123700  0.04123700  0.41195200  1
  Si  Si58  1  0.63106700  0.63106700  0.00197400  1
  Si  Si59  1  0.29741100  0.29741100  0.66866700  1
  Si  Si60  1  0.96400800  0.96400800  0.33534400  1
  Si  Si61  1  0.44631300  0.21533300  0.20971400  1
  Si  Si62  1  0.11318500  0.88182700  0.87623600  1
  Si  Si63  1  0.77976000  0.54848000  0.54295600  1
  Si  Si64  1  0.21527700  0.83839400  0.20974100  1
  Si  Si65  1  0.88202900  0.50535100  0.87623000  1
  Si  Si66  1  0.54852100  0.17177300  0.54296100  1
  Si  Si67  1  0.63085200  0.23858100  0.00197400  1
  Si  Si68  1  0.29751600  0.90507200  0.66870000  1
  Si  Si69  1  0.96413400  0.57186500  0.33535100  1
  Si  Si70  1  0.70773600  0.08441900  0.07868600  1
  Si  Si71  1  0.37474900  0.75084600  0.74522000  1
  Si  Si72  1  0.04118100  0.41759300  0.41193000  1
  Si  Si73  1  0.44638100  0.83848400  0.20960200  1
  Si  Si74  1  0.11300100  0.50467000  0.87621300  1
  Si  Si75  1  0.77971200  0.17178500  0.54296200  1
  Si  Si76  1  0.24915400  0.62525100  0.25478000  1
  Si  Si77  1  0.91558100  0.29226400  0.92131400  1
  Si  Si78  1  0.58240700  0.95881900  0.58807000  1
  Si  Si79  1  0.49464900  0.11797100  0.12377000  1
  Si  Si80  1  0.16160600  0.78472300  0.79025900  1
  Si  Si81  1  0.82822700  0.45147900  0.45703900  1
  Si  Si82  1  0.49533000  0.88699900  0.12378700  1
  Si  Si83  1  0.16151600  0.55361900  0.79039800  1
  Si  Si84  1  0.82821500  0.22028800  0.45703800  1
  Si  Si85  1  0.09492800  0.70248400  0.33130000  1
  Si  Si86  1  0.76141900  0.36914800  0.99802600  1
  Si  Si87  1  0.42813500  0.03586600  0.66464900  1
  Si  Si88  1  0.11817300  0.88681500  0.12376400  1
  Si  Si89  1  0.78466700  0.55368700  0.79028600  1
  Si  Si90  1  0.45152000  0.22024000  0.45704400  1
  Si  Si91  1  0.62541300  0.62541300  0.25472800  1
  Si  Si92  1  0.29240300  0.29240300  0.92134200  1
  Si  Si93  1  0.95876300  0.95876300  0.58804800  1
  Si  Si94  1  0.70258900  0.70258900  0.33133300  1
  Si  Si95  1  0.36893300  0.36893300  0.99802600  1
  Si  Si96  1  0.03599200  0.03599200  0.66465600  1
  Si  Si97  1  0.88681500  0.11817300  0.12376400  1
  Si  Si98  1  0.55368700  0.78466700  0.79028600  1
  Si  Si99  1  0.22024000  0.45152000  0.45704400  1
  Si  Si100  1  0.11797100  0.49464900  0.12377000  1
  Si  Si101  1  0.78472300  0.16160600  0.79025900  1
  Si  Si102  1  0.45147900  0.82822700  0.45703900  1
  Si  Si103  1  0.70248400  0.09492800  0.33130000  1
  Si  Si104  1  0.36914800  0.76141900  0.99802600  1
  Si  Si105  1  0.03586600  0.42813500  0.66464900  1
  Si  Si106  1  0.62525100  0.24915400  0.25478000  1
  Si  Si107  1  0.29226400  0.91558100  0.92131400  1
  Si  Si108  1  0.95881900  0.58240700  0.58807000  1
  Si  Si109  1  0.88699900  0.49533000  0.12378700  1
  Si  Si110  1  0.55361900  0.16151600  0.79039800  1
  Si  Si111  1  0.22028800  0.82821500  0.45703800  1
