# generated using pymatgen
data_NaAl3Si3O11
_symmetry_space_group_name_H-M   'P 1'
_cell_length_a   5.23150545
_cell_length_b   5.32751535
_cell_length_c   20.44339440
_cell_angle_alpha   90.30483013
_cell_angle_beta   89.37916357
_cell_angle_gamma   119.40562888
_symmetry_Int_Tables_number   1
_chemical_formula_structural   NaAl3Si3O11
_chemical_formula_sum   'Na2 Al6 Si6 O22'
_cell_volume   496.34038284
_cell_formula_units_Z   2
loop_
 _symmetry_equiv_pos_site_id
 _symmetry_equiv_pos_as_xyz
  1  'x, y, z'
loop_
 _atom_site_type_symbol
 _atom_site_label
 _atom_site_symmetry_multiplicity
 _atom_site_fract_x
 _atom_site_fract_y
 _atom_site_fract_z
 _atom_site_occupancy
  Na  Na0  1  0.01585600  0.99886800  0.26266200  1
  Na  Na1  1  0.01698800  0.00113200  0.76266200  1
  Al  Al2  1  0.36231500  0.17680700  0.49715300  1
  Al  Al3  1  0.82586400  0.20135700  0.99665900  1
  Al  Al4  1  0.62450700  0.79864300  0.49665900  1
  Al  Al5  1  0.18550800  0.82319300  0.99715300  1
  Al  Al6  1  0.66110000  0.49873700  0.36318400  1
  Al  Al7  1  0.16236300  0.50126300  0.86318400  1
  Si  Si8  1  0.84189800  0.50486400  0.13413100  1
  Si  Si9  1  0.33703400  0.49513600  0.63413100  1
  Si  Si10  1  0.36457300  0.85508600  0.36129400  1
  Si  Si11  1  0.49634800  0.85850700  0.13383100  1
  Si  Si12  1  0.63784100  0.14149300  0.63383100  1
  Si  Si13  1  0.50948700  0.14491400  0.86129400  1
  O  O14  1  0.59412100  0.76407900  0.32858600  1
  O  O15  1  0.16608600  0.70591600  0.16845900  1
  O  O16  1  0.46017000  0.29408400  0.66845900  1
  O  O17  1  0.83004200  0.23592100  0.82858600  1
  O  O18  1  0.56478400  0.48425400  0.44623200  1
  O  O19  1  0.88899900  0.48388800  0.05691300  1
  O  O20  1  0.40511100  0.51611200  0.55691300  1
  O  O21  1  0.08053000  0.51574600  0.94623200  1
  O  O22  1  0.43254800  0.91893300  0.44154300  1
  O  O23  1  0.47698000  0.90598400  0.05642800  1
  O  O24  1  0.57099600  0.09401600  0.55642800  1
  O  O25  1  0.51361500  0.08106700  0.94154300  1
  O  O26  1  0.02931300  0.61022200  0.34569900  1
  O  O27  1  0.64943400  0.66352800  0.15393300  1
  O  O28  1  0.98590600  0.33647200  0.65393300  1
  O  O29  1  0.41909100  0.38977800  0.84569900  1
  O  O30  1  0.99334900  0.98566200  0.50658100  1
  O  O31  1  0.00768800  0.01433800  0.00658100  1
  O  O32  1  0.42205900  0.15949300  0.32896200  1
  O  O33  1  0.69271400  0.18050100  0.16774900  1
  O  O34  1  0.51221400  0.81949900  0.66774900  1
  O  O35  1  0.26256600  0.84050700  0.82896200  1
