# generated using pymatgen
data_NaAlSiO4
_symmetry_space_group_name_H-M   'P 1'
_cell_length_a   8.45517465
_cell_length_b   10.06538869
_cell_length_c   10.03117965
_cell_angle_alpha   119.93793984
_cell_angle_beta   90.17036924
_cell_angle_gamma   89.76689811
_symmetry_Int_Tables_number   1
_chemical_formula_structural   NaAlSiO4
_chemical_formula_sum   'Na8 Al8 Si8 O32'
_cell_volume   739.78099903
_cell_formula_units_Z   8
loop_
 _symmetry_equiv_pos_site_id
 _symmetry_equiv_pos_as_xyz
  1  'x, y, z'
loop_
 _atom_site_type_symbol
 _atom_site_label
 _atom_site_symmetry_multiplicity
 _atom_site_fract_x
 _atom_site_fract_y
 _atom_site_fract_z
 _atom_site_occupancy
  Na  Na0  1  0.24790800  0.00880500  0.56468100  1
  Na  Na1  1  0.24588800  0.44551300  0.44961200  1
  Na  Na2  1  0.24957500  0.55249100  0.00256500  1
  Na  Na3  1  0.74716300  0.00175600  0.45035300  1
  Na  Na4  1  0.75056800  0.55800800  0.55649400  1
  Na  Na5  1  0.74523300  0.44732600  0.01023800  1
  Na  Na6  1  0.23566000  0.97875600  0.01028000  1
  Na  Na7  1  0.73499000  0.01829800  0.02789900  1
  Al  Al8  1  0.45234500  0.33516400  0.66458700  1
  Al  Al9  1  0.95257800  0.66125600  0.32941600  1
  Al  Al10  1  0.43991900  0.90801500  0.23951400  1
  Al  Al11  1  0.44003600  0.76221000  0.66969500  1
  Al  Al12  1  0.43510100  0.32430600  0.08952600  1
  Al  Al13  1  0.93894800  0.09210100  0.76271500  1
  Al  Al14  1  0.93705800  0.23764800  0.32673000  1
  Al  Al15  1  0.93883400  0.66949300  0.90691800  1
  Si  Si16  1  0.06591100  0.90822800  0.24051400  1
  Si  Si17  1  0.06860100  0.76030600  0.66860900  1
  Si  Si18  1  0.07152600  0.32500300  0.08771700  1
  Si  Si19  1  0.56920800  0.09082400  0.76062000  1
  Si  Si20  1  0.56937700  0.23956000  0.32840400  1
  Si  Si21  1  0.56735900  0.66932100  0.90817400  1
  Si  Si22  1  0.05454800  0.33445100  0.66426100  1
  Si  Si23  1  0.55422400  0.66122100  0.32958900  1
  O  O24  1  0.24501700  0.97827800  0.29095700  1
  O  O25  1  0.24690500  0.71020100  0.69210300  1
  O  O26  1  0.24573100  0.29255800  0.00629300  1
  O  O27  1  0.74700400  0.01877300  0.70518900  1
  O  O28  1  0.74482700  0.27817400  0.28673300  1
  O  O29  1  0.74547100  0.68526200  0.97949500  1
  O  O30  1  0.01154700  0.83671700  0.34763300  1
  O  O31  1  0.01837900  0.64882700  0.48885100  1
  O  O32  1  0.03270600  0.50801800  0.16165100  1
  O  O33  1  0.51587000  0.16476600  0.65488600  1
  O  O34  1  0.53615100  0.35035100  0.51234000  1
  O  O35  1  0.50957400  0.49237500  0.84135200  1
  O  O36  1  0.49974100  0.82673700  0.35002500  1
  O  O37  1  0.49382100  0.64744000  0.47627200  1
  O  O38  1  0.48084100  0.52017000  0.17005400  1
  O  O39  1  0.99571500  0.17371900  0.65134600  1
  O  O40  1  0.97791500  0.35222900  0.52344200  1
  O  O41  1  0.00131800  0.47874100  0.83005500  1
  O  O42  1  0.57122100  0.05757100  0.27730200  1
  O  O43  1  0.57513900  0.72043300  0.77723500  1
  O  O44  1  0.57486600  0.21638000  0.94530000  1
  O  O45  1  0.07294200  0.94243600  0.72027700  1
  O  O46  1  0.07598600  0.27457000  0.21960000  1
  O  O47  1  0.07178500  0.78285300  0.05642400  1
  O  O48  1  0.93853600  0.04103700  0.26381900  1
  O  O49  1  0.93940700  0.73576200  0.77528300  1
  O  O50  1  0.93530400  0.22592700  0.96015600  1
  O  O51  1  0.44128200  0.95789900  0.73065100  1
  O  O52  1  0.43317800  0.26699400  0.22868700  1
  O  O53  1  0.43975900  0.78252100  0.03999300  1
  O  O54  1  0.74694300  0.64868900  0.31974500  1
  O  O55  1  0.24676000  0.33253200  0.64873600  1
