# generated using pymatgen
data_NaSr2LaTi4O12
_symmetry_space_group_name_H-M   'P 1'
_cell_length_a   8.78097406
_cell_length_b   8.78097406
_cell_length_c   8.78097406
_cell_angle_alpha   143.12031919
_cell_angle_beta   143.12031919
_cell_angle_gamma   53.14477736
_symmetry_Int_Tables_number   1
_chemical_formula_structural   NaSr2LaTi4O12
_chemical_formula_sum   'Na1 Sr2 La1 Ti4 O12'
_cell_volume   242.34144249
_cell_formula_units_Z   1
loop_
 _symmetry_equiv_pos_site_id
 _symmetry_equiv_pos_as_xyz
  1  'x, y, z'
loop_
 _atom_site_type_symbol
 _atom_site_label
 _atom_site_symmetry_multiplicity
 _atom_site_fract_x
 _atom_site_fract_y
 _atom_site_fract_z
 _atom_site_occupancy
  Na  Na0  1  0.50000000  0.50000000  0.00000000  1
  Sr  Sr1  1  0.25131700  0.25131700  0.00000000  1
  Sr  Sr2  1  0.74868300  0.74868300  0.00000000  1
  La  La3  1  0.00000000  0.00000000  0.00000000  1
  Ti  Ti4  1  0.37585900  0.87585900  0.50000000  1
  Ti  Ti5  1  0.12414100  0.62414100  0.50000000  1
  Ti  Ti6  1  0.87585900  0.37585900  0.50000000  1
  Ti  Ti7  1  0.62414100  0.12414100  0.50000000  1
  O  O8  1  0.25000000  0.75000000  0.50000000  1
  O  O9  1  0.00000000  0.50000000  0.50000000  1
  O  O10  1  0.75000000  0.25000000  0.50000000  1
  O  O11  1  0.50000000  0.00000000  0.50000000  1
  O  O12  1  0.36778700  0.36778700  0.48762300  1
  O  O13  1  0.11983600  0.11983600  0.48762300  1
  O  O14  1  0.88016400  0.88016400  0.51237700  1
  O  O15  1  0.63221300  0.63221300  0.51237700  1
  O  O16  1  0.36778700  0.88016400  0.00000000  1
  O  O17  1  0.11983600  0.63221300  0.00000000  1
  O  O18  1  0.88016400  0.36778700  0.00000000  1
  O  O19  1  0.63221300  0.11983600  0.00000000  1
