# generated using pymatgen
data_Rb2Mo6H2Cl14O
_symmetry_space_group_name_H-M   'P 1'
_cell_length_a   13.31106157
_cell_length_b   13.31106157
_cell_length_c   10.23740789
_cell_angle_alpha   70.12870202
_cell_angle_beta   70.12870202
_cell_angle_gamma   77.00075177
_symmetry_Int_Tables_number   1
_chemical_formula_structural   Rb2Mo6H2Cl14O
_chemical_formula_sum   'Rb4 Mo12 H4 Cl28 O2'
_cell_volume   1592.01347896
_cell_formula_units_Z   2
loop_
 _symmetry_equiv_pos_site_id
 _symmetry_equiv_pos_as_xyz
  1  'x, y, z'
loop_
 _atom_site_type_symbol
 _atom_site_label
 _atom_site_symmetry_multiplicity
 _atom_site_fract_x
 _atom_site_fract_y
 _atom_site_fract_z
 _atom_site_occupancy
  Rb  Rb0  1  0.55240800  0.44645200  0.75231700  1
  Rb  Rb1  1  0.44645200  0.55240800  0.25231700  1
  Rb  Rb2  1  0.04361600  0.95745400  0.02601300  1
  Rb  Rb3  1  0.95745400  0.04361600  0.52601300  1
  Mo  Mo4  1  0.52532300  0.08348400  0.65719100  1
  Mo  Mo5  1  0.08348400  0.52532300  0.15719100  1
  Mo  Mo6  1  0.47217300  0.83026300  0.70007100  1
  Mo  Mo7  1  0.83026300  0.47217300  0.20007100  1
  Mo  Mo8  1  0.53166000  0.16292800  0.29555400  1
  Mo  Mo9  1  0.16292800  0.53166000  0.79555400  1
  Mo  Mo10  1  0.31115200  0.05882200  0.56506700  1
  Mo  Mo11  1  0.05882200  0.31115200  0.06506700  1
  Mo  Mo12  1  0.68911100  0.93554600  0.43409700  1
  Mo  Mo13  1  0.93554600  0.68911100  0.93409700  1
  Mo  Mo14  1  0.47546600  0.91180400  0.34096200  1
  Mo  Mo15  1  0.91180400  0.47546600  0.84096200  1
  H  H16  1  0.17386100  0.74560200  0.24523400  1
  H  H17  1  0.74560200  0.17386100  0.74523400  1
  H  H18  1  0.25041700  0.83227600  0.20005100  1
  H  H19  1  0.83227600  0.25041700  0.70005100  1
  Cl  Cl20  1  0.46468700  0.65899900  0.89304800  1
  Cl  Cl21  1  0.65899900  0.46468700  0.39304800  1
  Cl  Cl22  1  0.37053000  0.21704100  0.59145900  1
  Cl  Cl23  1  0.21704100  0.37053000  0.09145900  1
  Cl  Cl24  1  0.29320200  0.88723400  0.52495800  1
  Cl  Cl25  1  0.88723400  0.29320200  0.02495800  1
  Cl  Cl26  1  0.88535600  0.89815700  0.36512400  1
  Cl  Cl27  1  0.89815700  0.88535600  0.86512400  1
  Cl  Cl28  1  0.65345400  0.18297300  0.42698700  1
  Cl  Cl29  1  0.18297300  0.65345400  0.92698700  1
  Cl  Cl30  1  0.44749900  0.82132800  0.19014300  1
  Cl  Cl31  1  0.82132800  0.44749900  0.69014300  1
  Cl  Cl32  1  0.40061000  0.09876800  0.22100900  1
  Cl  Cl33  1  0.09876800  0.40061000  0.72100900  1
  Cl  Cl34  1  0.55509000  0.17162100  0.81007200  1
  Cl  Cl35  1  0.17162100  0.55509000  0.31007200  1
  Cl  Cl36  1  0.55760300  0.74340200  0.49555700  1
  Cl  Cl37  1  0.74340200  0.55760300  0.99555700  1
  Cl  Cl38  1  0.67420900  0.93129300  0.69022900  1
  Cl  Cl39  1  0.93129300  0.67420900  0.19022900  1
  Cl  Cl40  1  0.54259300  0.33997500  0.11357800  1
  Cl  Cl41  1  0.33997500  0.54259300  0.61357800  1
  Cl  Cl42  1  0.39220400  0.96252500  0.85003100  1
  Cl  Cl43  1  0.96252500  0.39220400  0.35003100  1
  Cl  Cl44  1  0.66275400  0.95575500  0.19183400  1
  Cl  Cl45  1  0.95575500  0.66275400  0.69183400  1
  Cl  Cl46  1  0.11805000  0.10529300  0.66813000  1
  Cl  Cl47  1  0.10529300  0.11805000  0.16813000  1
  O  O48  1  0.18077700  0.82220300  0.19748500  1
  O  O49  1  0.82220300  0.18077700  0.69748500  1
