# generated using pymatgen
data_NaLa2TaTi2O10
_symmetry_space_group_name_H-M   'P 1'
_cell_length_a   3.88165300
_cell_length_b   3.88586604
_cell_length_c   15.18859613
_cell_angle_alpha   96.93167987
_cell_angle_beta   96.92743191
_cell_angle_gamma   89.99168401
_symmetry_Int_Tables_number   1
_chemical_formula_structural   NaLa2TaTi2O10
_chemical_formula_sum   'Na1 La2 Ta1 Ti2 O10'
_cell_volume   225.73952172
_cell_formula_units_Z   1
loop_
 _symmetry_equiv_pos_site_id
 _symmetry_equiv_pos_as_xyz
  1  'x, y, z'
loop_
 _atom_site_type_symbol
 _atom_site_label
 _atom_site_symmetry_multiplicity
 _atom_site_fract_x
 _atom_site_fract_y
 _atom_site_fract_z
 _atom_site_occupancy
  Na  Na0  1  0.75010400  0.25481900  0.50454800  1
  La  La1  1  0.56909500  0.56942100  0.13503200  1
  La  La2  1  0.41185800  0.41103000  0.83725200  1
  Ta  Ta3  1  0.14909200  0.14872500  0.29301100  1
  Ti  Ti4  1  0.01319600  0.01289500  0.99867600  1
  Ti  Ti5  1  0.85108100  0.85030000  0.70021400  1
  O  O6  1  0.79495100  0.79476700  0.58712600  1
  O  O7  1  0.20617600  0.20482300  0.41290000  1
  O  O8  1  0.86925700  0.37059300  0.73766100  1
  O  O9  1  0.37185000  0.86945800  0.73916800  1
  O  O10  1  0.13537500  0.63506600  0.26134500  1
  O  O11  1  0.63589700  0.13593000  0.26259100  1
  O  O12  1  0.95198000  0.95260900  0.87415700  1
  O  O13  1  0.08396400  0.08326600  0.13627100  1
  O  O14  1  0.04787500  0.52906700  0.00981500  1
  O  O15  1  0.52924800  0.04823100  0.01023300  1
