# generated using pymatgen
data_NaP2H5O6
_symmetry_space_group_name_H-M   'P 1'
_cell_length_a   5.96643158
_cell_length_b   6.02374153
_cell_length_c   9.88887913
_cell_angle_alpha   90.73316147
_cell_angle_beta   90.00230045
_cell_angle_gamma   119.68559239
_symmetry_Int_Tables_number   1
_chemical_formula_structural   NaP2H5O6
_chemical_formula_sum   'Na2 P4 H10 O12'
_cell_volume   308.72987502
_cell_formula_units_Z   2
loop_
 _symmetry_equiv_pos_site_id
 _symmetry_equiv_pos_as_xyz
  1  'x, y, z'
loop_
 _atom_site_type_symbol
 _atom_site_label
 _atom_site_symmetry_multiplicity
 _atom_site_fract_x
 _atom_site_fract_y
 _atom_site_fract_z
 _atom_site_occupancy
  Na  Na0  1  0.02012000  0.00503200  0.49018400  1
  Na  Na1  1  0.98490800  0.00504100  0.99018100  1
  P  P2  1  0.66848700  0.32523700  0.09706200  1
  P  P3  1  0.65673500  0.32524800  0.59705900  1
  P  P4  1  0.33212900  0.65328100  0.89899700  1
  P  P5  1  0.32118300  0.65328200  0.39899600  1
  H  H6  1  0.66377900  0.33186600  0.95593400  1
  H  H7  1  0.66801800  0.33186200  0.45593400  1
  H  H8  1  0.33412900  0.66293500  0.04072100  1
  H  H9  1  0.32887600  0.66293800  0.54072100  1
  H  H10  1  0.97841000  0.64734200  0.23158500  1
  H  H11  1  0.35055800  0.32646000  0.22991000  1
  H  H12  1  0.97589300  0.32645400  0.72990100  1
  H  H13  1  0.66892800  0.64734400  0.73159000  1
  H  H14  1  0.32601100  0.96659600  0.77593700  1
  H  H15  1  0.64059200  0.96660000  0.27593000  1
  O  O16  1  0.86877900  0.60743500  0.13904200  1
  O  O17  1  0.38796300  0.26230700  0.13596600  1
  O  O18  1  0.73650400  0.12752100  0.14336000  1
  O  O19  1  0.87432600  0.26230700  0.63596000  1
  O  O20  1  0.73864500  0.60743500  0.63904400  1
  O  O21  1  0.39099200  0.12752000  0.64336600  1
  O  O22  1  0.11809400  0.38961500  0.85410100  1
  O  O23  1  0.60393900  0.72790300  0.85198000  1
  O  O24  1  0.26223100  0.87045500  0.86523100  1
  O  O25  1  0.12398200  0.72790400  0.35198300  1
  O  O26  1  0.27154300  0.38962100  0.35410200  1
  O  O27  1  0.60824600  0.87045800  0.36522500  1
