# generated using pymatgen
data_Na7Fe4P9O32
_symmetry_space_group_name_H-M   'P 1'
_cell_length_a   6.46555053
_cell_length_b   14.30755476
_cell_length_c   14.30764290
_cell_angle_alpha   90.00000000
_cell_angle_beta   89.89411953
_cell_angle_gamma   90.00000000
_symmetry_Int_Tables_number   1
_chemical_formula_structural   Na7Fe4P9O32
_chemical_formula_sum   'Na14 Fe8 P18 O64'
_cell_volume   1323.54367674
_cell_formula_units_Z   2
loop_
 _symmetry_equiv_pos_site_id
 _symmetry_equiv_pos_as_xyz
  1  'x, y, z'
loop_
 _atom_site_type_symbol
 _atom_site_label
 _atom_site_symmetry_multiplicity
 _atom_site_fract_x
 _atom_site_fract_y
 _atom_site_fract_z
 _atom_site_occupancy
  Na  Na0  1  0.61087691  0.25749152  0.09285368  1
  Na  Na1  1  0.88912309  0.75749152  0.40714632  1
  Na  Na2  1  0.61141426  0.74228003  0.90734208  1
  Na  Na3  1  0.88858574  0.24228003  0.59265792  1
  Na  Na4  1  0.38857516  0.09273621  0.74233123  1
  Na  Na5  1  0.11087299  0.40722702  0.24245817  1
  Na  Na6  1  0.38912701  0.90722702  0.25754183  1
  Na  Na7  1  0.11142484  0.59273621  0.75766877  1
  Na  Na8  1  0.49999824  0.00004288  0.00002380  1
  Na  Na9  1  0.00000176  0.50004288  0.49997620  1
  Na  Na10  1  0.83167876  0.48394749  0.98499802  1
  Na  Na11  1  0.66832124  0.98394749  0.51500198  1
  Na  Na12  1  0.33166164  0.51500017  0.01606584  1
  Na  Na13  1  0.16833836  0.01500017  0.48393416  1
  Fe  Fe14  1  0.87480287  0.19080696  0.88033417  1
  Fe  Fe15  1  0.62519713  0.69080696  0.61966583  1
  Fe  Fe16  1  0.87465376  0.80876751  0.11978752  1
  Fe  Fe17  1  0.62534624  0.30876751  0.38021248  1
  Fe  Fe18  1  0.12533078  0.88024778  0.80876977  1
  Fe  Fe19  1  0.37478762  0.61969143  0.30918396  1
  Fe  Fe20  1  0.12521238  0.11969143  0.19081604  1
  Fe  Fe21  1  0.37466922  0.38024778  0.69123023  1
  P  P22  1  0.10690673  0.30034465  0.05538484  1
  P  P23  1  0.39309327  0.80034465  0.44461516  1
  P  P24  1  0.10501796  0.69967526  0.94449047  1
  P  P25  1  0.39498204  0.19967526  0.55550953  1
  P  P26  1  0.89512788  0.05551851  0.69965826  1
  P  P27  1  0.60705570  0.44462962  0.19967697  1
  P  P28  1  0.89294430  0.94462962  0.30032303  1
  P  P29  1  0.60487212  0.55551851  0.80034174  1
  P  P30  1  0.35983013  0.24869488  0.88667066  1
  P  P31  1  0.14016987  0.74869488  0.61332934  1
  P  P32  1  0.35971877  0.75156092  0.11322799  1
  P  P33  1  0.14028123  0.25156092  0.38677201  1
  P  P34  1  0.64030520  0.88673538  0.75158103  1
  P  P35  1  0.85985332  0.61329228  0.25128428  1
  P  P36  1  0.64014668  0.11329228  0.24871572  1
  P  P37  1  0.85969480  0.38673538  0.74841897  1
  P  P38  1  0.00000117  0.99993561  0.00000875  1
  P  P39  1  0.49999883  0.49993561  0.49999125  1
  O  O40  1  0.37828647  0.33499398  0.82570006  1
  O  O41  1  0.12171353  0.83499398  0.67429994  1
  O  O42  1  0.37787031  0.66447212  0.17355414  1
  O  O43  1  0.12212969  0.16447212  0.32644586  1
  O  O44  1  0.62218941  0.82643303  0.66447760  1
  O  O45  1  0.87834814  0.67428612  0.16500022  1
  O  O46  1  0.62165186  0.17428612  0.33499978  1
  O  O47  1  0.87781059  0.32643303  0.83552240  1
  O  O48  1  0.56048581  0.19290627  0.90035579  1
  O  O49  1  0.93951419  0.69290627  0.59964421  1
  O  O50  1  0.56033811  0.80717464  0.09964054  1
  O  O51  1  0.93966189  0.30717464  0.40035946  1
  O  O52  1  0.43957913  0.90032957  0.80721265  1
  O  O53  1  0.06040094  0.59961316  0.30705606  1
  O  O54  1  0.43959906  0.09961316  0.19294394  1
  O  O55  1  0.06042087  0.40032957  0.69278735  1
  O  O56  1  0.31350778  0.28661253  0.99141476  1
  O  O57  1  0.18649222  0.78661253  0.50858524  1
  O  O58  1  0.31303266  0.71263849  0.00862339  1
  O  O59  1  0.18696734  0.21263849  0.49137661  1
  O  O60  1  0.68698240  0.99137527  0.71266771  1
  O  O61  1  0.81351963  0.50858310  0.21335931  1
  O  O62  1  0.68648037  0.00858310  0.28664069  1
  O  O63  1  0.81301760  0.49137527  0.78733229  1
  O  O64  1  0.16894987  0.25358166  0.14835003  1
  O  O65  1  0.33105013  0.75358166  0.35164997  1
  O  O66  1  0.16891190  0.74639410  0.85170450  1
  O  O67  1  0.33108810  0.24639410  0.64829550  1
  O  O68  1  0.83121117  0.14833545  0.74641145  1
  O  O69  1  0.66907119  0.35169039  0.24639917  1
  O  O70  1  0.83092881  0.85169039  0.25360083  1
  O  O71  1  0.66878883  0.64833545  0.75358855  1
  O  O72  1  0.18552229  0.18141263  0.85928340  1
  O  O73  1  0.31447771  0.68141263  0.64071660  1
  O  O74  1  0.18561942  0.81869820  0.14080898  1
  O  O75  1  0.31438058  0.31869820  0.35919102  1
  O  O76  1  0.81421656  0.85920866  0.81864848  1
  O  O77  1  0.68535829  0.64073332  0.31863691  1
  O  O78  1  0.81464171  0.14073332  0.18136309  1
  O  O79  1  0.68578344  0.35920866  0.68135152  1
  O  O80  1  0.07999515  0.40483657  0.06854591  1
  O  O81  1  0.42000485  0.90483657  0.43145409  1
  O  O82  1  0.07867278  0.59510250  0.93164271  1
  O  O83  1  0.42132722  0.09510250  0.56835729  1
  O  O84  1  0.92141082  0.06837887  0.59509886  1
  O  O85  1  0.58008084  0.43147515  0.09516707  1
  O  O86  1  0.91991916  0.93147515  0.40483293  1
  O  O87  1  0.57858918  0.56837887  0.90490114  1
  O  O88  1  0.92513458  0.25155265  0.00741328  1
  O  O89  1  0.57486542  0.75155265  0.49258672  1
  O  O90  1  0.92492628  0.74920194  0.99262989  1
  O  O91  1  0.57507372  0.24920194  0.50737011  1
  O  O92  1  0.07493140  0.00741929  0.74916147  1
  O  O93  1  0.42499999  0.49263405  0.24848644  1
  O  O94  1  0.07500001  0.99263405  0.25151356  1
  O  O95  1  0.42506860  0.50741929  0.75083853  1
  O  O96  1  0.85488589  0.06386368  0.94088876  1
  O  O97  1  0.64511411  0.56386368  0.55911124  1
  O  O98  1  0.85478201  0.93614186  0.05921230  1
  O  O99  1  0.64521799  0.43614186  0.44078770  1
  O  O100  1  0.14521156  0.94083492  0.93609340  1
  O  O101  1  0.35487824  0.55915972  0.43618315  1
  O  O102  1  0.14512176  0.05915972  0.06381685  1
  O  O103  1  0.35478844  0.44083492  0.56390660  1
