# generated using pymatgen
data_NaPr9Si6(SO12)2
_symmetry_space_group_name_H-M   'P 1'
_cell_length_a   9.96158777
_cell_length_b   9.96158777
_cell_length_c   6.96634100
_cell_angle_alpha   90.00000000
_cell_angle_beta   90.00000000
_cell_angle_gamma   119.99999845
_symmetry_Int_Tables_number   1
_chemical_formula_structural   NaPr9Si6(SO12)2
_chemical_formula_sum   'Na1 Pr9 Si6 S2 O24'
_cell_volume   598.67689698
_cell_formula_units_Z   1
loop_
 _symmetry_equiv_pos_site_id
 _symmetry_equiv_pos_as_xyz
  1  'x, y, z'
loop_
 _atom_site_type_symbol
 _atom_site_label
 _atom_site_symmetry_multiplicity
 _atom_site_fract_x
 _atom_site_fract_y
 _atom_site_fract_z
 _atom_site_occupancy
  Na  Na0  1  0.33333300  0.66666700  0.50735700  1
  Pr  Pr1  1  0.66857800  0.58238700  0.74875500  1
  Pr  Pr2  1  0.41761300  0.08619100  0.74875500  1
  Pr  Pr3  1  0.91380900  0.33142200  0.74875500  1
  Pr  Pr4  1  0.65556400  0.08206900  0.25259200  1
  Pr  Pr5  1  0.91793100  0.57349500  0.25259200  1
  Pr  Pr6  1  0.42650500  0.34443600  0.25259200  1
  Pr  Pr7  1  0.00000000  0.00000000  0.00228500  1
  Pr  Pr8  1  0.00000000  0.00000000  0.49791900  1
  Pr  Pr9  1  0.33333300  0.66666700  0.99538000  1
  Si  Si10  1  0.04287300  0.74179500  0.75236600  1
  Si  Si11  1  0.25820500  0.30107800  0.75236600  1
  Si  Si12  1  0.69892200  0.95712700  0.75236600  1
  Si  Si13  1  0.28637900  0.92173600  0.24935800  1
  Si  Si14  1  0.07826400  0.36464300  0.24935800  1
  Si  Si15  1  0.63535700  0.71362100  0.24935800  1
  S  S16  1  0.66666700  0.33333300  0.50868200  1
  S  S17  1  0.66666700  0.33333300  0.99828300  1
  O  O18  1  0.13921200  0.93520100  0.75000900  1
  O  O19  1  0.06479900  0.20401100  0.75000900  1
  O  O20  1  0.79598900  0.86078800  0.75000900  1
  O  O21  1  0.18948200  0.73171800  0.24339000  1
  O  O22  1  0.26828200  0.45776400  0.24339000  1
  O  O23  1  0.54223600  0.81051800  0.24339000  1
  O  O24  1  0.93009200  0.69702800  0.56057300  1
  O  O25  1  0.30297200  0.23306400  0.56057300  1
  O  O26  1  0.76693600  0.06990800  0.56057300  1
  O  O27  1  0.40168500  0.97302500  0.05974300  1
  O  O28  1  0.02697500  0.42866000  0.05974300  1
  O  O29  1  0.57134000  0.59831500  0.05974300  1
  O  O30  1  0.40660200  0.98993000  0.43087900  1
  O  O31  1  0.01007000  0.41667200  0.43087900  1
  O  O32  1  0.58332800  0.59339800  0.43087900  1
  O  O33  1  0.92600100  0.69782600  0.94041000  1
  O  O34  1  0.30217400  0.22817500  0.94041000  1
  O  O35  1  0.77182500  0.07399900  0.94041000  1
  O  O36  1  0.14945900  0.66246700  0.75891500  1
  O  O37  1  0.33753300  0.48699200  0.75891500  1
  O  O38  1  0.51300800  0.85054100  0.75891500  1
  O  O39  1  0.16955900  0.99407200  0.24971200  1
  O  O40  1  0.00592800  0.17548700  0.24971200  1
  O  O41  1  0.82451300  0.83044100  0.24971200  1
