# generated using pymatgen
data_Nd9Ni24Sn49
_symmetry_space_group_name_H-M   'P 1'
_cell_length_a   10.40052865
_cell_length_b   10.40052865
_cell_length_c   17.11282481
_cell_angle_alpha   89.88282626
_cell_angle_beta   89.88282626
_cell_angle_gamma   70.72407511
_symmetry_Int_Tables_number   1
_chemical_formula_structural   Nd9Ni24Sn49
_chemical_formula_sum   'Nd9 Ni24 Sn49'
_cell_volume   1747.33204449
_cell_formula_units_Z   1
loop_
 _symmetry_equiv_pos_site_id
 _symmetry_equiv_pos_as_xyz
  1  'x, y, z'
loop_
 _atom_site_type_symbol
 _atom_site_label
 _atom_site_symmetry_multiplicity
 _atom_site_fract_x
 _atom_site_fract_y
 _atom_site_fract_z
 _atom_site_occupancy
  Nd  Nd0  1  0.75046000  0.24975700  0.75040600  1
  Nd  Nd1  1  0.24954000  0.75024300  0.24959400  1
  Nd  Nd2  1  0.00000000  0.50000000  0.00000000  1
  Nd  Nd3  1  0.50000000  0.00000000  0.50000000  1
  Nd  Nd4  1  0.00000000  0.50000000  0.50000000  1
  Nd  Nd5  1  0.50000000  0.00000000  0.00000000  1
  Nd  Nd6  1  0.24975700  0.75046000  0.75040600  1
  Nd  Nd7  1  0.75024300  0.24954000  0.24959400  1
  Nd  Nd8  1  0.00000000  0.00000000  0.00000000  1
  Ni  Ni9  1  0.74263000  0.09716800  0.57973900  1
  Ni  Ni10  1  0.24272500  0.59831200  0.07918200  1
  Ni  Ni11  1  0.75727500  0.40168800  0.92081800  1
  Ni  Ni12  1  0.25737000  0.90283200  0.42026100  1
  Ni  Ni13  1  0.09716800  0.74263000  0.57973900  1
  Ni  Ni14  1  0.59831200  0.24272500  0.07918200  1
  Ni  Ni15  1  0.40168800  0.75727500  0.92081800  1
  Ni  Ni16  1  0.90283200  0.25737000  0.42026100  1
  Ni  Ni17  1  0.67996700  0.99825700  0.83916600  1
  Ni  Ni18  1  0.17917600  0.49945000  0.33869200  1
  Ni  Ni19  1  0.82082400  0.50055000  0.66130800  1
  Ni  Ni20  1  0.32003300  0.00174300  0.16083400  1
  Ni  Ni21  1  0.50055000  0.82082400  0.66130800  1
  Ni  Ni22  1  0.00174300  0.32003300  0.16083400  1
  Ni  Ni23  1  0.99825700  0.67996700  0.83916600  1
  Ni  Ni24  1  0.49945000  0.17917600  0.33869200  1
  Ni  Ni25  1  0.23989900  0.23989900  0.91922900  1
  Ni  Ni26  1  0.74076100  0.74076100  0.41929100  1
  Ni  Ni27  1  0.25923900  0.25923900  0.58070900  1
  Ni  Ni28  1  0.76010100  0.76010100  0.08077100  1
  Ni  Ni29  1  0.41852300  0.41852300  0.74086600  1
  Ni  Ni30  1  0.91818500  0.91818500  0.23974500  1
  Ni  Ni31  1  0.08181500  0.08181500  0.76025500  1
  Ni  Ni32  1  0.58147700  0.58147700  0.25913400  1
  Sn  Sn33  1  0.50417200  0.25156900  0.62269300  1
  Sn  Sn34  1  0.00284700  0.74011900  0.12880200  1
  Sn  Sn35  1  0.99715300  0.25988100  0.87119800  1
  Sn  Sn36  1  0.49582800  0.74843100  0.37730700  1
  Sn  Sn37  1  0.25156900  0.50417200  0.62269300  1
  Sn  Sn38  1  0.74011900  0.00284700  0.12880200  1
  Sn  Sn39  1  0.25988100  0.99715300  0.87119800  1
  Sn  Sn40  1  0.74843100  0.49582800  0.37730700  1
  Sn  Sn41  1  0.68063800  0.18902800  0.93532600  1
  Sn  Sn42  1  0.19121000  0.68274400  0.43668200  1
  Sn  Sn43  1  0.80879000  0.31725600  0.56331800  1
  Sn  Sn44  1  0.31936200  0.81097200  0.06467400  1
  Sn  Sn45  1  0.31725600  0.80879000  0.56331800  1
  Sn  Sn46  1  0.81097200  0.31936200  0.06467400  1
  Sn  Sn47  1  0.18902800  0.68063800  0.93532600  1
  Sn  Sn48  1  0.68274400  0.19121000  0.43668200  1
  Sn  Sn49  1  0.68424700  0.68424700  0.55876200  1
  Sn  Sn50  1  0.19348900  0.19348900  0.06250300  1
  Sn  Sn51  1  0.80651100  0.80651100  0.93749700  1
  Sn  Sn52  1  0.31575300  0.31575300  0.44123800  1
  Sn  Sn53  1  0.55948500  0.55948500  0.68623500  1
  Sn  Sn54  1  0.06240300  0.06240300  0.19283800  1
  Sn  Sn55  1  0.93759700  0.93759700  0.80716200  1
  Sn  Sn56  1  0.44051500  0.44051500  0.31376500  1
  Sn  Sn57  1  0.81227600  0.55573500  0.81498600  1
  Sn  Sn58  1  0.31327100  0.05688000  0.31596700  1
  Sn  Sn59  1  0.68672900  0.94312000  0.68403300  1
  Sn  Sn60  1  0.18772400  0.44426500  0.18501400  1
  Sn  Sn61  1  0.55573500  0.81227600  0.81498600  1
  Sn  Sn62  1  0.05688000  0.31327100  0.31596700  1
  Sn  Sn63  1  0.94312000  0.68672900  0.68403300  1
  Sn  Sn64  1  0.44426500  0.18772400  0.18501400  1
  Sn  Sn65  1  0.05520300  0.31671300  0.68517500  1
  Sn  Sn66  1  0.55475900  0.81755700  0.18695800  1
  Sn  Sn67  1  0.44524100  0.18244300  0.81304200  1
  Sn  Sn68  1  0.94479700  0.68328700  0.31482500  1
  Sn  Sn69  1  0.18244300  0.44524100  0.81304200  1
  Sn  Sn70  1  0.68328700  0.94479700  0.31482500  1
  Sn  Sn71  1  0.31671300  0.05520300  0.68517500  1
  Sn  Sn72  1  0.81755700  0.55475900  0.18695800  1
  Sn  Sn73  1  0.12967100  0.12967100  0.50176400  1
  Sn  Sn74  1  0.62836900  0.62836900  0.00228100  1
  Sn  Sn75  1  0.37163100  0.37163100  0.99771900  1
  Sn  Sn76  1  0.87032900  0.87032900  0.49823600  1
  Sn  Sn77  1  0.00155200  0.00155200  0.63036600  1
  Sn  Sn78  1  0.50076700  0.50076700  0.13071700  1
  Sn  Sn79  1  0.49923300  0.49923300  0.86928300  1
  Sn  Sn80  1  0.99844800  0.99844800  0.36963400  1
  Sn  Sn81  1  0.50000000  0.50000000  0.50000000  1
