# generated using pymatgen
data_Na6Zr2Si4O17
_symmetry_space_group_name_H-M   'P 1'
_cell_length_a   5.38857740
_cell_length_b   5.38857740
_cell_length_c   14.26004485
_cell_angle_alpha   89.12388093
_cell_angle_beta   89.12388093
_cell_angle_gamma   62.28620250
_symmetry_Int_Tables_number   1
_chemical_formula_structural   Na6Zr2Si4O17
_chemical_formula_sum   'Na6 Zr2 Si4 O17'
_cell_volume   366.50617040
_cell_formula_units_Z   1
loop_
 _symmetry_equiv_pos_site_id
 _symmetry_equiv_pos_as_xyz
  1  'x, y, z'
loop_
 _atom_site_type_symbol
 _atom_site_label
 _atom_site_symmetry_multiplicity
 _atom_site_fract_x
 _atom_site_fract_y
 _atom_site_fract_z
 _atom_site_occupancy
  Na  Na0  1  0.17436800  0.17436800  0.11887600  1
  Na  Na1  1  0.82563200  0.82563200  0.88112400  1
  Na  Na2  1  0.49297000  0.49297000  0.24456300  1
  Na  Na3  1  0.50703100  0.50703100  0.75543700  1
  Na  Na4  1  0.81667800  0.81667800  0.37620500  1
  Na  Na5  1  0.18332200  0.18332200  0.62379500  1
  Zr  Zr6  1  0.50000000  0.50000000  0.00000000  1
  Zr  Zr7  1  0.50000000  0.50000000  0.50000000  1
  Si  Si8  1  0.15948000  0.15948000  0.37747100  1
  Si  Si9  1  0.84052000  0.84052000  0.62252900  1
  Si  Si10  1  0.84408100  0.84408100  0.11785100  1
  Si  Si11  1  0.15591900  0.15591900  0.88214900  1
  O  O12  1  0.76658700  0.76658700  0.22259300  1
  O  O13  1  0.23341300  0.23341300  0.77740700  1
  O  O14  1  0.71109600  0.18683400  0.10429400  1
  O  O15  1  0.18683400  0.71109600  0.10429400  1
  O  O16  1  0.28890400  0.81316600  0.89570600  1
  O  O17  1  0.81316600  0.28890400  0.89570600  1
  O  O18  1  0.23176400  0.23176400  0.27184800  1
  O  O19  1  0.76823600  0.76823600  0.72815200  1
  O  O20  1  0.80903100  0.31805500  0.38497300  1
  O  O21  1  0.31805500  0.80903100  0.38497300  1
  O  O22  1  0.19096900  0.68194500  0.61502700  1
  O  O23  1  0.68194500  0.19096900  0.61502700  1
  O  O24  1  0.71717500  0.71717500  0.03845000  1
  O  O25  1  0.28282500  0.28282500  0.96155000  1
  O  O26  1  0.29271800  0.29271800  0.45331200  1
  O  O27  1  0.70728200  0.70728200  0.54668800  1
  O  O28  1  0.00000000  0.00000000  0.50000000  1
