# generated using pymatgen
data_NaBeSi3HO8
_symmetry_space_group_name_H-M   'P 1'
_cell_length_a   7.39376200
_cell_length_b   7.40329410
_cell_length_c   14.14897412
_cell_angle_alpha   78.15753879
_cell_angle_beta   78.20278140
_cell_angle_gamma   60.56522371
_symmetry_Int_Tables_number   1
_chemical_formula_structural   NaBeSi3HO8
_chemical_formula_sum   'Na4 Be4 Si12 H4 O32'
_cell_volume   655.26435229
_cell_formula_units_Z   4
loop_
 _symmetry_equiv_pos_site_id
 _symmetry_equiv_pos_as_xyz
  1  'x, y, z'
loop_
 _atom_site_type_symbol
 _atom_site_label
 _atom_site_symmetry_multiplicity
 _atom_site_fract_x
 _atom_site_fract_y
 _atom_site_fract_z
 _atom_site_occupancy
  Na  Na0  1  0.63123700  0.31184800  0.42836100  1
  Na  Na1  1  0.68962700  0.36919500  0.07057500  1
  Na  Na2  1  0.36876300  0.68815200  0.57163900  1
  Na  Na3  1  0.31037300  0.63080500  0.92942500  1
  Be  Be4  1  0.50841200  0.15339400  0.99720200  1
  Be  Be5  1  0.84615500  0.49172200  0.50283200  1
  Be  Be6  1  0.49158800  0.84660600  0.00279800  1
  Be  Be7  1  0.15384500  0.50827800  0.49716800  1
  Si  Si8  1  0.64668800  0.84998300  0.36615300  1
  Si  Si9  1  0.14925700  0.35335300  0.13355400  1
  Si  Si10  1  0.35331200  0.15001700  0.63384700  1
  Si  Si11  1  0.85074300  0.64664700  0.86644600  1
  Si  Si12  1  0.87576000  0.06442500  0.86202200  1
  Si  Si13  1  0.93568200  0.12442200  0.63814400  1
  Si  Si14  1  0.12424000  0.93557500  0.13797800  1
  Si  Si15  1  0.06431800  0.87557800  0.36185600  1
  Si  Si16  1  0.77650700  0.81520600  0.14132000  1
  Si  Si17  1  0.18392600  0.22270200  0.35933400  1
  Si  Si18  1  0.22349300  0.18479400  0.85868000  1
  Si  Si19  1  0.81607400  0.77729800  0.64066600  1
  H  H20  1  0.47812400  0.56870800  0.24805900  1
  H  H21  1  0.52187600  0.43129200  0.75194100  1
  H  H22  1  0.44840800  0.37970100  0.24479900  1
  H  H23  1  0.55159200  0.62029900  0.75520100  1
  O  O24  1  0.59665200  0.92357300  0.06972800  1
  O  O25  1  0.07611400  0.40344300  0.43022900  1
  O  O26  1  0.40334800  0.07642700  0.93027200  1
  O  O27  1  0.92388600  0.59655700  0.56977100  1
  O  O28  1  0.57864400  0.94021500  0.61601900  1
  O  O29  1  0.05950500  0.42116500  0.88409100  1
  O  O30  1  0.42135600  0.05978500  0.38398100  1
  O  O31  1  0.94049500  0.57883500  0.11590900  1
  O  O32  1  0.81830000  0.92546300  0.37506800  1
  O  O33  1  0.07454300  0.18145600  0.12520000  1
  O  O34  1  0.18170000  0.07453700  0.62493200  1
  O  O35  1  0.92545700  0.81854400  0.87480000  1
  O  O36  1  0.82544800  0.17339000  0.74997000  1
  O  O37  1  0.17455200  0.82661000  0.25003000  1
  O  O38  1  0.34469100  0.34451000  0.55571200  1
  O  O39  1  0.65524100  0.65587700  0.94387700  1
  O  O40  1  0.65530900  0.65549000  0.44428800  1
  O  O41  1  0.34475900  0.34412300  0.05612300  1
  O  O42  1  0.68940300  0.20268800  0.93763200  1
  O  O43  1  0.79693700  0.31075600  0.56233500  1
  O  O44  1  0.31059700  0.79731200  0.06236800  1
  O  O45  1  0.20306300  0.68924400  0.43766500  1
  O  O46  1  0.89578400  0.95899600  0.12594100  1
  O  O47  1  0.04026800  0.10416700  0.37408700  1
  O  O48  1  0.10421600  0.04100400  0.87405900  1
  O  O49  1  0.95973200  0.89583300  0.62591300  1
  O  O50  1  0.32433200  0.20043300  0.74510300  1
  O  O51  1  0.79598000  0.67652500  0.75488700  1
  O  O52  1  0.67566800  0.79956700  0.25489700  1
  O  O53  1  0.20402000  0.32347500  0.24511300  1
  O  O54  1  0.55858000  0.41678800  0.24576200  1
  O  O55  1  0.44142000  0.58321200  0.75423800  1
