# generated using pymatgen
data_NaTbTi2O6
_symmetry_space_group_name_H-M   'P 1'
_cell_length_a   5.34677900
_cell_length_b   5.54270300
_cell_length_c   7.64938900
_cell_angle_alpha   90.00000000
_cell_angle_beta   90.00000000
_cell_angle_gamma   90.00000000
_symmetry_Int_Tables_number   1
_chemical_formula_structural   NaTbTi2O6
_chemical_formula_sum   'Na2 Tb2 Ti4 O12'
_cell_volume   226.69429387
_cell_formula_units_Z   2
loop_
 _symmetry_equiv_pos_site_id
 _symmetry_equiv_pos_as_xyz
  1  'x, y, z'
loop_
 _atom_site_type_symbol
 _atom_site_label
 _atom_site_symmetry_multiplicity
 _atom_site_fract_x
 _atom_site_fract_y
 _atom_site_fract_z
 _atom_site_occupancy
  Na  Na0  1  0.49521500  0.78206100  0.50000000  1
  Na  Na1  1  0.99521500  0.21793900  0.00000000  1
  Tb  Tb2  1  0.01634800  0.31898300  0.50000000  1
  Tb  Tb3  1  0.51634800  0.68101700  0.00000000  1
  Ti  Ti4  1  0.51186100  0.23597400  0.75254400  1
  Ti  Ti5  1  0.01186100  0.76402600  0.25254400  1
  Ti  Ti6  1  0.51186100  0.23597400  0.24745600  1
  Ti  Ti7  1  0.01186100  0.76402600  0.74745600  1
  O  O8  1  0.59737300  0.22572700  0.50000000  1
  O  O9  1  0.92475000  0.72794400  0.50000000  1
  O  O10  1  0.42475000  0.27205600  0.00000000  1
  O  O11  1  0.09737300  0.77427300  0.00000000  1
  O  O12  1  0.27857300  0.53629300  0.71076300  1
  O  O13  1  0.19272300  0.05356000  0.30068900  1
  O  O14  1  0.69272300  0.94644000  0.19931100  1
  O  O15  1  0.77857300  0.46370700  0.78923700  1
  O  O16  1  0.69272300  0.94644000  0.80068900  1
  O  O17  1  0.77857300  0.46370700  0.21076300  1
  O  O18  1  0.27857300  0.53629300  0.28923700  1
  O  O19  1  0.19272300  0.05356000  0.69931100  1
