# generated using pymatgen
data_NaSi68
_symmetry_space_group_name_H-M   'P 1'
_cell_length_a   18.03683829
_cell_length_b   18.03683829
_cell_length_c   18.03683766
_cell_angle_alpha   33.55526009
_cell_angle_beta   33.55526009
_cell_angle_gamma   33.55526118
_symmetry_Int_Tables_number   1
_chemical_formula_structural   NaSi68
_chemical_formula_sum   'Na1 Si68'
_cell_volume   1596.85703136
_cell_formula_units_Z   1
loop_
 _symmetry_equiv_pos_site_id
 _symmetry_equiv_pos_as_xyz
  1  'x, y, z'
loop_
 _atom_site_type_symbol
 _atom_site_label
 _atom_site_symmetry_multiplicity
 _atom_site_fract_x
 _atom_site_fract_y
 _atom_site_fract_z
 _atom_site_occupancy
  Na  Na0  1  0.06250500  0.06250500  0.06250500  1
  Si  Si1  1  0.25273400  0.25273400  0.87669600  1
  Si  Si2  1  0.75268200  0.75268200  0.37669900  1
  Si  Si3  1  0.44922900  0.68021200  0.05586400  1
  Si  Si4  1  0.94967100  0.17962400  0.55595800  1
  Si  Si5  1  0.68021200  0.44922900  0.05586400  1
  Si  Si6  1  0.17962400  0.94967100  0.55595800  1
  Si  Si7  1  0.36794800  0.36794800  0.76145100  1
  Si  Si8  1  0.86778200  0.86778200  0.26168800  1
  Si  Si9  1  0.05586400  0.44922900  0.68021200  1
  Si  Si10  1  0.55595800  0.94967100  0.17962400  1
  Si  Si11  1  0.87669600  0.25273400  0.25273400  1
  Si  Si12  1  0.37669900  0.75268200  0.75268200  1
  Si  Si13  1  0.76145100  0.36794800  0.36794800  1
  Si  Si14  1  0.26168800  0.86778200  0.86778200  1
  Si  Si15  1  0.05586400  0.68021200  0.44922900  1
  Si  Si16  1  0.55595800  0.17962400  0.94967100  1
  Si  Si17  1  0.44922900  0.05586400  0.68021200  1
  Si  Si18  1  0.94967100  0.55595800  0.17962400  1
  Si  Si19  1  0.36794800  0.76145100  0.36794800  1
  Si  Si20  1  0.86778200  0.26168800  0.86778200  1
  Si  Si21  1  0.25273400  0.87669600  0.25273400  1
  Si  Si22  1  0.75268200  0.37669900  0.75268200  1
  Si  Si23  1  0.68021200  0.05586400  0.44922900  1
  Si  Si24  1  0.17962400  0.55595800  0.94967100  1
  Si  Si25  1  0.24703000  0.24703000  0.62379300  1
  Si  Si26  1  0.74729600  0.74729600  0.12320300  1
  Si  Si27  1  0.05036600  0.82043200  0.44382500  1
  Si  Si28  1  0.55033600  0.32025400  0.94413600  1
  Si  Si29  1  0.82043200  0.05036600  0.44382500  1
  Si  Si30  1  0.32025400  0.55033600  0.94413600  1
  Si  Si31  1  0.13218200  0.13218200  0.73852600  1
  Si  Si32  1  0.63222500  0.63222500  0.23834800  1
  Si  Si33  1  0.44382500  0.05036600  0.82043200  1
  Si  Si34  1  0.94413600  0.55033600  0.32025400  1
  Si  Si35  1  0.62379300  0.24703000  0.24703000  1
  Si  Si36  1  0.12320300  0.74729600  0.74729600  1
  Si  Si37  1  0.73852600  0.13218200  0.13218200  1
  Si  Si38  1  0.23834800  0.63222500  0.63222500  1
  Si  Si39  1  0.44382500  0.82043200  0.05036600  1
  Si  Si40  1  0.94413600  0.32025400  0.55033600  1
  Si  Si41  1  0.05036600  0.44382500  0.82043200  1
  Si  Si42  1  0.55033600  0.94413600  0.32025400  1
  Si  Si43  1  0.13218200  0.73852600  0.13218200  1
  Si  Si44  1  0.63222500  0.23834800  0.63222500  1
  Si  Si45  1  0.24703000  0.62379300  0.24703000  1
  Si  Si46  1  0.74729600  0.12320300  0.74729600  1
  Si  Si47  1  0.82043200  0.44382500  0.05036600  1
  Si  Si48  1  0.32025400  0.94413600  0.55033600  1
  Si  Si49  1  0.68746900  0.68746900  0.68746900  1
  Si  Si50  1  0.18751900  0.18751900  0.18751900  1
  Si  Si51  1  0.81250800  0.81250800  0.81250800  1
  Si  Si52  1  0.31251200  0.31251200  0.31251200  1
  Si  Si53  1  0.14134800  0.14134800  0.14134800  1
  Si  Si54  1  0.64141000  0.64141000  0.64141000  1
  Si  Si55  1  0.45675800  0.82594800  0.82594800  1
  Si  Si56  1  0.95705600  0.32576200  0.32576200  1
  Si  Si57  1  0.82594800  0.45675800  0.82594800  1
  Si  Si58  1  0.32576200  0.95705600  0.32576200  1
  Si  Si59  1  0.82594800  0.82594800  0.45675800  1
  Si  Si60  1  0.32576200  0.32576200  0.95705600  1
  Si  Si61  1  0.35852500  0.35852500  0.35852500  1
  Si  Si62  1  0.85860900  0.85860900  0.85860900  1
  Si  Si63  1  0.04290500  0.67434200  0.67434200  1
  Si  Si64  1  0.54274000  0.17427700  0.17427700  1
  Si  Si65  1  0.67434200  0.04290500  0.67434200  1
  Si  Si66  1  0.17427700  0.54274000  0.17427700  1
  Si  Si67  1  0.67434200  0.67434200  0.04290500  1
  Si  Si68  1  0.17427700  0.17427700  0.54274000  1
