# generated using pymatgen
data_NaPr3Mn4O12
_symmetry_space_group_name_H-M   'P 1'
_cell_length_a   7.73306300
_cell_length_b   5.50763600
_cell_length_c   5.51722862
_cell_angle_alpha   89.61955736
_cell_angle_beta   90.00000000
_cell_angle_gamma   90.00000000
_symmetry_Int_Tables_number   1
_chemical_formula_structural   NaPr3Mn4O12
_chemical_formula_sum   'Na1 Pr3 Mn4 O12'
_cell_volume   234.97853139
_cell_formula_units_Z   1
loop_
 _symmetry_equiv_pos_site_id
 _symmetry_equiv_pos_as_xyz
  1  'x, y, z'
loop_
 _atom_site_type_symbol
 _atom_site_label
 _atom_site_symmetry_multiplicity
 _atom_site_fract_x
 _atom_site_fract_y
 _atom_site_fract_z
 _atom_site_occupancy
  Na  Na0  1  0.00000000  0.49519600  0.47878300  1
  Pr  Pr1  1  0.00000000  0.00924300  0.96357600  1
  Pr  Pr2  1  0.50000000  0.50797900  0.53536500  1
  Pr  Pr3  1  0.50000000  0.99758300  0.03105800  1
  Mn  Mn4  1  0.24482400  0.00155500  0.49790800  1
  Mn  Mn5  1  0.75569200  0.50006700  0.00388100  1
  Mn  Mn6  1  0.75517600  0.00155500  0.49790800  1
  Mn  Mn7  1  0.24430800  0.50006700  0.00388100  1
  O  O8  1  0.22322200  0.20641000  0.20741200  1
  O  O9  1  0.78309500  0.27468700  0.72381500  1
  O  O10  1  0.71018500  0.77914800  0.77943600  1
  O  O11  1  0.29805400  0.72770300  0.27491200  1
  O  O12  1  0.28981500  0.77914800  0.77943600  1
  O  O13  1  0.70194600  0.72770300  0.27491200  1
  O  O14  1  0.77677800  0.20641000  0.20741200  1
  O  O15  1  0.21690500  0.27468700  0.72381500  1
  O  O16  1  0.00000000  0.57439600  0.01920100  1
  O  O17  1  0.00000000  0.92845700  0.51565500  1
  O  O18  1  0.50000000  0.43547300  0.98784000  1
  O  O19  1  0.50000000  0.07253300  0.49379400  1
