# generated using pymatgen
data_Nb3Co8Si
_symmetry_space_group_name_H-M   'P 1'
_cell_length_a   8.14524503
_cell_length_b   8.14524503
_cell_length_c   8.14524515
_cell_angle_alpha   33.78015383
_cell_angle_beta   33.78015383
_cell_angle_gamma   33.78015670
_symmetry_Int_Tables_number   1
_chemical_formula_structural   Nb3Co8Si
_chemical_formula_sum   'Nb3 Co8 Si1'
_cell_volume   148.85956269
_cell_formula_units_Z   1
loop_
 _symmetry_equiv_pos_site_id
 _symmetry_equiv_pos_as_xyz
  1  'x, y, z'
loop_
 _atom_site_type_symbol
 _atom_site_label
 _atom_site_symmetry_multiplicity
 _atom_site_fract_x
 _atom_site_fract_y
 _atom_site_fract_z
 _atom_site_occupancy
  Nb  Nb0  1  0.62214000  0.62214000  0.62214000  1
  Nb  Nb1  1  0.00630300  0.00630300  0.00630300  1
  Nb  Nb2  1  0.49596300  0.49596300  0.49596300  1
  Co  Co3  1  0.56283700  0.05971200  0.56283700  1
  Co  Co4  1  0.06190000  0.56117100  0.06190000  1
  Co  Co5  1  0.05971200  0.56283700  0.56283700  1
  Co  Co6  1  0.56117100  0.06190000  0.06190000  1
  Co  Co7  1  0.81080100  0.81080100  0.81080100  1
  Co  Co8  1  0.31158800  0.31158800  0.31158800  1
  Co  Co9  1  0.56283700  0.56283700  0.05971100  1
  Co  Co10  1  0.06190000  0.06190000  0.56117100  1
  Si  Si11  1  0.13285000  0.13285000  0.13285000  1
