# generated using pymatgen
data_NaU2Cl6
_symmetry_space_group_name_H-M   'P 1'
_cell_length_a   7.72883709
_cell_length_b   7.72883709
_cell_length_c   4.12327700
_cell_angle_alpha   90.00000000
_cell_angle_beta   90.00000000
_cell_angle_gamma   119.99999222
_symmetry_Int_Tables_number   1
_chemical_formula_structural   NaU2Cl6
_chemical_formula_sum   'Na1 U2 Cl6'
_cell_volume   213.30522011
_cell_formula_units_Z   1
loop_
 _symmetry_equiv_pos_site_id
 _symmetry_equiv_pos_as_xyz
  1  'x, y, z'
loop_
 _atom_site_type_symbol
 _atom_site_label
 _atom_site_symmetry_multiplicity
 _atom_site_fract_x
 _atom_site_fract_y
 _atom_site_fract_z
 _atom_site_occupancy
  Na  Na0  1  0.00000000  0.00000000  0.50000000  1
  U  U1  1  0.66666700  0.33333300  0.75527000  1
  U  U2  1  0.33333300  0.66666700  0.24473000  1
  Cl  Cl3  1  0.30199100  0.38242800  0.74734300  1
  Cl  Cl4  1  0.61757200  0.91956300  0.74734300  1
  Cl  Cl5  1  0.08043700  0.69800900  0.74734300  1
  Cl  Cl6  1  0.69800900  0.61757200  0.25265700  1
  Cl  Cl7  1  0.38242800  0.08043700  0.25265700  1
  Cl  Cl8  1  0.91956300  0.30199100  0.25265700  1
