# generated using pymatgen
data_NaCaSb2O7
_symmetry_space_group_name_H-M   'P 1'
_cell_length_a   7.39069028
_cell_length_b   7.39069028
_cell_length_c   7.39069028
_cell_angle_alpha   119.81259006
_cell_angle_beta   119.67050183
_cell_angle_gamma   90.44828524
_symmetry_Int_Tables_number   1
_chemical_formula_structural   NaCaSb2O7
_chemical_formula_sum   'Na2 Ca2 Sb4 O14'
_cell_volume   286.56165009
_cell_formula_units_Z   2
loop_
 _symmetry_equiv_pos_site_id
 _symmetry_equiv_pos_as_xyz
  1  'x, y, z'
loop_
 _atom_site_type_symbol
 _atom_site_label
 _atom_site_symmetry_multiplicity
 _atom_site_fract_x
 _atom_site_fract_y
 _atom_site_fract_z
 _atom_site_occupancy
  Na  Na0  1  0.50000000  0.00000000  0.00000000  1
  Na  Na1  1  0.50000000  0.50000000  0.50000000  1
  Ca  Ca2  1  0.00000000  0.00000000  0.00000000  1
  Ca  Ca3  1  0.50000000  0.00000000  0.50000000  1
  Sb  Sb4  1  0.00000000  0.50000000  0.50000000  1
  Sb  Sb5  1  0.50000000  0.50000000  0.00000000  1
  Sb  Sb6  1  0.00000000  0.00000000  0.50000000  1
  Sb  Sb7  1  0.00000000  0.50000000  0.00000000  1
  O  O8  1  0.36816300  0.11816300  0.25000000  1
  O  O9  1  0.63183700  0.88183700  0.75000000  1
  O  O10  1  0.67645300  0.82524100  0.25518000  1
  O  O11  1  0.07006100  0.82524100  0.64878800  1
  O  O12  1  0.67657400  0.42657400  0.25000000  1
  O  O13  1  0.07006100  0.42127300  0.24482000  1
  O  O14  1  0.67645300  0.42127300  0.85121200  1
  O  O15  1  0.07786800  0.82786800  0.25000000  1
  O  O16  1  0.32354700  0.17475900  0.74482000  1
  O  O17  1  0.92993900  0.17475900  0.35121200  1
  O  O18  1  0.32342600  0.57342600  0.75000000  1
  O  O19  1  0.92993900  0.57872700  0.75518000  1
  O  O20  1  0.32354700  0.57872700  0.14878800  1
  O  O21  1  0.92213200  0.17213200  0.75000000  1
