# generated using pymatgen
data_Na3LaTi2Nb2O12
_symmetry_space_group_name_H-M   'P 1'
_cell_length_a   5.58113990
_cell_length_b   5.58113990
_cell_length_c   7.91144041
_cell_angle_alpha   89.91293936
_cell_angle_beta   89.91293936
_cell_angle_gamma   90.45687649
_symmetry_Int_Tables_number   1
_chemical_formula_structural   Na3LaTi2Nb2O12
_chemical_formula_sum   'Na3 La1 Ti2 Nb2 O12'
_cell_volume   246.42601861
_cell_formula_units_Z   1
loop_
 _symmetry_equiv_pos_site_id
 _symmetry_equiv_pos_as_xyz
  1  'x, y, z'
loop_
 _atom_site_type_symbol
 _atom_site_label
 _atom_site_symmetry_multiplicity
 _atom_site_fract_x
 _atom_site_fract_y
 _atom_site_fract_z
 _atom_site_occupancy
  Na  Na0  1  0.00239300  0.99760700  0.50000000  1
  Na  Na1  1  0.50266000  0.49734000  0.50000000  1
  Na  Na2  1  0.49627800  0.50372200  0.00000000  1
  La  La3  1  0.98738600  0.01261400  0.00000000  1
  Ti  Ti4  1  0.99636800  0.50371800  0.75478800  1
  Ti  Ti5  1  0.49628200  0.00363200  0.24521200  1
  Nb  Nb6  1  0.49682000  0.00221100  0.73838700  1
  Nb  Nb7  1  0.99778900  0.50318000  0.26161300  1
  O  O8  1  0.26210300  0.26255800  0.76040900  1
  O  O9  1  0.26631800  0.25915600  0.23955200  1
  O  O10  1  0.74084400  0.73368200  0.76044800  1
  O  O11  1  0.73744200  0.73789700  0.23959100  1
  O  O12  1  0.03397200  0.53194200  0.50339100  1
  O  O13  1  0.54197900  0.03021600  0.00273400  1
  O  O14  1  0.96978400  0.45802100  0.99726600  1
  O  O15  1  0.46805800  0.96602800  0.49660900  1
  O  O16  1  0.77602100  0.22807000  0.72563700  1
  O  O17  1  0.22560200  0.77003300  0.79201600  1
  O  O18  1  0.77193000  0.22397900  0.27436300  1
  O  O19  1  0.22996700  0.77439800  0.20798400  1
