# generated using pymatgen
data_Na5Br4Cl
_symmetry_space_group_name_H-M   'P 1'
_cell_length_a   15.21626381
_cell_length_b   15.21626381
_cell_length_c   15.21626381
_cell_angle_alpha   164.05184547
_cell_angle_beta   164.05184547
_cell_angle_gamma   22.62812894
_symmetry_Int_Tables_number   1
_chemical_formula_structural   Na5Br4Cl
_chemical_formula_sum   'Na5 Br4 Cl1'
_cell_volume   265.93220917
_cell_formula_units_Z   1
loop_
 _symmetry_equiv_pos_site_id
 _symmetry_equiv_pos_as_xyz
  1  'x, y, z'
loop_
 _atom_site_type_symbol
 _atom_site_label
 _atom_site_symmetry_multiplicity
 _atom_site_fract_x
 _atom_site_fract_y
 _atom_site_fract_z
 _atom_site_occupancy
  Na  Na0  1  0.80000600  0.80000600  0.00000000  1
  Na  Na1  1  0.19999400  0.19999400  0.00000000  1
  Na  Na2  1  0.59905900  0.59905900  0.00000000  1
  Na  Na3  1  0.00000000  0.00000000  0.00000000  1
  Na  Na4  1  0.40094100  0.40094100  0.00000000  1
  Br  Br5  1  0.90025300  0.90025300  0.00000000  1
  Br  Br6  1  0.30003700  0.30003700  0.00000000  1
  Br  Br7  1  0.69996300  0.69996300  0.00000000  1
  Br  Br8  1  0.09974700  0.09974700  0.00000000  1
  Cl  Cl9  1  0.50000000  0.50000000  0.00000000  1
