# generated using pymatgen
data_NaCd3(RhO2)8
_symmetry_space_group_name_H-M   'P 1'
_cell_length_a   3.11807100
_cell_length_b   9.22677680
_cell_length_c   11.00448767
_cell_angle_alpha   90.25069583
_cell_angle_beta   90.00000000
_cell_angle_gamma   90.00000000
_symmetry_Int_Tables_number   1
_chemical_formula_structural   NaCd3(RhO2)8
_chemical_formula_sum   'Na1 Cd3 Rh8 O16'
_cell_volume   316.59327539
_cell_formula_units_Z   1
loop_
 _symmetry_equiv_pos_site_id
 _symmetry_equiv_pos_as_xyz
  1  'x, y, z'
loop_
 _atom_site_type_symbol
 _atom_site_label
 _atom_site_symmetry_multiplicity
 _atom_site_fract_x
 _atom_site_fract_y
 _atom_site_fract_z
 _atom_site_occupancy
  Na  Na0  1  0.75000000  0.73466000  0.15850700  1
  Cd  Cd1  1  0.75000000  0.23569000  0.33837000  1
  Cd  Cd2  1  0.25000000  0.26443600  0.83903000  1
  Cd  Cd3  1  0.25000000  0.76350000  0.66202200  1
  Rh  Rh4  1  0.75000000  0.09113900  0.59682800  1
  Rh  Rh5  1  0.75000000  0.59269000  0.90330200  1
  Rh  Rh6  1  0.25000000  0.90586900  0.39827900  1
  Rh  Rh7  1  0.25000000  0.41138100  0.09965000  1
  Rh  Rh8  1  0.75000000  0.04957500  0.11749800  1
  Rh  Rh9  1  0.75000000  0.55637600  0.38216300  1
  Rh  Rh10  1  0.25000000  0.94614100  0.88474400  1
  Rh  Rh11  1  0.25000000  0.44624800  0.61586600  1
  O  O12  1  0.75000000  0.08578300  0.93225700  1
  O  O13  1  0.75000000  0.58588500  0.56876800  1
  O  O14  1  0.25000000  0.91501800  0.06909600  1
  O  O15  1  0.25000000  0.41333800  0.42921300  1
  O  O16  1  0.75000000  0.96399200  0.29091300  1
  O  O17  1  0.75000000  0.44821000  0.21499600  1
  O  O18  1  0.25000000  0.04957000  0.71190800  1
  O  O19  1  0.25000000  0.54940800  0.78716000  1
  O  O20  1  0.75000000  0.30401300  0.66355300  1
  O  O21  1  0.75000000  0.80423000  0.83743500  1
  O  O22  1  0.25000000  0.69285000  0.33940600  1
  O  O23  1  0.25000000  0.19482400  0.16541400  1
  O  O24  1  0.75000000  0.38542300  0.96983800  1
  O  O25  1  0.75000000  0.88185200  0.52874700  1
  O  O26  1  0.25000000  0.61517500  0.02573600  1
  O  O27  1  0.25000000  0.11271900  0.46930100  1
