# generated using pymatgen
data_NaCa3Fe(SiO3)8
_symmetry_space_group_name_H-M   'P 1'
_cell_length_a   9.19654300
_cell_length_b   5.20714500
_cell_length_c   10.12609749
_cell_angle_alpha   79.41024236
_cell_angle_beta   90.00000000
_cell_angle_gamma   90.00000000
_symmetry_Int_Tables_number   1
_chemical_formula_structural   NaCa3Fe(SiO3)8
_chemical_formula_sum   'Na1 Ca3 Fe1 Si8 O24'
_cell_volume   476.65687060
_cell_formula_units_Z   1
loop_
 _symmetry_equiv_pos_site_id
 _symmetry_equiv_pos_as_xyz
  1  'x, y, z'
loop_
 _atom_site_type_symbol
 _atom_site_label
 _atom_site_symmetry_multiplicity
 _atom_site_fract_x
 _atom_site_fract_y
 _atom_site_fract_z
 _atom_site_occupancy
  Na  Na0  1  0.20961900  0.00000000  0.50000000  1
  Ca  Ca1  1  0.76823800  0.50000000  0.50000000  1
  Ca  Ca2  1  0.26333700  0.00000000  0.00000000  1
  Ca  Ca3  1  0.74092700  0.50000000  0.00000000  1
  Fe  Fe4  1  0.40523800  0.50000000  0.50000000  1
  Si  Si5  1  0.11171200  0.64146700  0.30346400  1
  Si  Si6  1  0.57473000  0.20253100  0.76852400  1
  Si  Si7  1  0.11171200  0.35853300  0.69653600  1
  Si  Si8  1  0.57473000  0.79746900  0.23147600  1
  Si  Si9  1  0.91643400  0.85664500  0.69673500  1
  Si  Si10  1  0.40433700  0.31405700  0.22492000  1
  Si  Si11  1  0.91643400  0.14335500  0.30326500  1
  Si  Si12  1  0.40433700  0.68594300  0.77508000  1
  O  O13  1  0.13465900  0.69597200  0.14077900  1
  O  O14  1  0.56197300  0.31499600  0.60868000  1
  O  O15  1  0.13465900  0.30402800  0.85922100  1
  O  O16  1  0.56197300  0.68500400  0.39132000  1
  O  O17  1  0.87536600  0.78468800  0.85583900  1
  O  O18  1  0.40553300  0.25460700  0.38836800  1
  O  O19  1  0.87536600  0.21531200  0.14416100  1
  O  O20  1  0.40553300  0.74539300  0.61163200  1
  O  O21  1  0.26161400  0.67970700  0.38278100  1
  O  O22  1  0.74007000  0.22087400  0.82673100  1
  O  O23  1  0.26161400  0.32029300  0.61721900  1
  O  O24  1  0.74007000  0.77912600  0.17326900  1
  O  O25  1  0.76754600  0.85985200  0.60889300  1
  O  O26  1  0.24553600  0.29073700  0.15612700  1
  O  O27  1  0.76754600  0.14014800  0.39110700  1
  O  O28  1  0.24553600  0.70926300  0.84387300  1
  O  O29  1  0.02185600  0.36664500  0.35516000  1
  O  O30  1  0.50120100  0.91573600  0.83043400  1
  O  O31  1  0.02185600  0.63335500  0.64484000  1
  O  O32  1  0.50120100  0.08426400  0.16956600  1
  O  O33  1  0.00286900  0.13385500  0.65389900  1
  O  O34  1  0.48333400  0.59153500  0.15170300  1
  O  O35  1  0.00286900  0.86614500  0.34610100  1
  O  O36  1  0.48333400  0.40846500  0.84829700  1
