# generated using pymatgen
data_NaMg3(SiO3)4
_symmetry_space_group_name_H-M   'P 1'
_cell_length_a   18.43004100
_cell_length_b   5.28634200
_cell_length_c   9.87959524
_cell_angle_alpha   77.09516762
_cell_angle_beta   90.00000000
_cell_angle_gamma   90.00000000
_symmetry_Int_Tables_number   1
_chemical_formula_structural   NaMg3(SiO3)4
_chemical_formula_sum   'Na4 Mg12 Si16 O48'
_cell_volume   938.23266872
_cell_formula_units_Z   4
loop_
 _symmetry_equiv_pos_site_id
 _symmetry_equiv_pos_as_xyz
  1  'x, y, z'
loop_
 _atom_site_type_symbol
 _atom_site_label
 _atom_site_symmetry_multiplicity
 _atom_site_fract_x
 _atom_site_fract_y
 _atom_site_fract_z
 _atom_site_occupancy
  Na  Na0  1  0.24946800  0.94371200  0.27161100  1
  Na  Na1  1  0.74946800  0.05628800  0.72838900  1
  Na  Na2  1  0.97664900  0.52018400  0.74319100  1
  Na  Na3  1  0.47664900  0.47981600  0.25680900  1
  Mg  Mg4  1  0.06718000  0.01314300  0.75049900  1
  Mg  Mg5  1  0.56718000  0.98685700  0.24950100  1
  Mg  Mg6  1  0.92998500  0.98672300  0.24947800  1
  Mg  Mg7  1  0.42998500  0.01327700  0.75052200  1
  Mg  Mg8  1  0.24805600  0.01337500  0.75137200  1
  Mg  Mg9  1  0.74805600  0.98662500  0.24862800  1
  Mg  Mg10  1  0.14802900  0.51328000  0.74945500  1
  Mg  Mg11  1  0.64802900  0.48672000  0.25054500  1
  Mg  Mg12  1  0.84699600  0.48747200  0.24923000  1
  Mg  Mg13  1  0.34699600  0.51252800  0.75077000  1
  Mg  Mg14  1  0.00869600  0.48791900  0.24606300  1
  Mg  Mg15  1  0.50869600  0.51208100  0.75393700  1
  Si  Si16  1  0.58199100  0.20483200  0.54723900  1
  Si  Si17  1  0.08199100  0.79516800  0.45276100  1
  Si  Si18  1  0.42089800  0.79740700  0.45971600  1
  Si  Si19  1  0.92089800  0.20259300  0.54028400  1
  Si  Si20  1  0.07943300  0.23223100  0.04403300  1
  Si  Si21  1  0.57943300  0.76776900  0.95596700  1
  Si  Si22  1  0.92130100  0.77624900  0.95955300  1
  Si  Si23  1  0.42130100  0.22375100  0.04044700  1
  Si  Si24  1  0.16419500  0.74144500  0.03222300  1
  Si  Si25  1  0.66419500  0.25855500  0.96777700  1
  Si  Si26  1  0.83371900  0.26707900  0.97065000  1
  Si  Si27  1  0.33371900  0.73292100  0.02935000  1
  Si  Si28  1  0.66554000  0.71081000  0.53104800  1
  Si  Si29  1  0.16554000  0.28919000  0.46895200  1
  Si  Si30  1  0.33371600  0.29032100  0.47184800  1
  Si  Si31  1  0.83371600  0.70967900  0.52815200  1
  O  O32  1  0.75014800  0.74103500  0.58565700  1
  O  O33  1  0.25014800  0.25896500  0.41434300  1
  O  O34  1  0.74834000  0.37319400  0.31662900  1
  O  O35  1  0.24834000  0.62680600  0.68337100  1
  O  O36  1  0.61699700  0.90528000  0.60535600  1
  O  O37  1  0.11699700  0.09472000  0.39464400  1
  O  O38  1  0.38145200  0.08735800  0.40398900  1
  O  O39  1  0.88145200  0.91264200  0.59601100  1
  O  O40  1  0.13159400  0.97160600  0.10270500  1
  O  O41  1  0.63159400  0.02839400  0.89729500  1
  O  O42  1  0.86808800  0.03484300  0.90478500  1
  O  O43  1  0.36808800  0.96515700  0.09521500  1
  O  O44  1  0.16134600  0.81414700  0.86468200  1
  O  O45  1  0.66134600  0.18585300  0.13531800  1
  O  O46  1  0.83742000  0.18688000  0.13846900  1
  O  O47  1  0.33742000  0.81312000  0.86153100  1
  O  O48  1  0.07824400  0.28975100  0.87610400  1
  O  O49  1  0.57824400  0.71024900  0.12389600  1
  O  O50  1  0.92465400  0.70558700  0.13147600  1
  O  O51  1  0.42465400  0.29441300  0.86852400  1
  O  O52  1  0.11993200  0.47472700  0.10267600  1
  O  O53  1  0.61993200  0.52527300  0.89732400  1
  O  O54  1  0.87545000  0.54039000  0.90736700  1
  O  O55  1  0.37545000  0.45961000  0.09263300  1
  O  O56  1  0.51012700  0.24268700  0.63549500  1
  O  O57  1  0.01012700  0.75731300  0.36450500  1
  O  O58  1  0.49630600  0.78244100  0.38499500  1
  O  O59  1  0.99630600  0.21755900  0.61500500  1
  O  O60  1  0.00410100  0.21685600  0.12928900  1
  O  O61  1  0.50410100  0.78314400  0.87071100  1
  O  O62  1  0.99850200  0.80445000  0.88745300  1
  O  O63  1  0.49850200  0.19555000  0.11254700  1
  O  O64  1  0.57844300  0.26226000  0.37914300  1
  O  O65  1  0.07844300  0.73774000  0.62085700  1
  O  O66  1  0.42502000  0.72934500  0.63143300  1
  O  O67  1  0.92502000  0.27065500  0.36856700  1
  O  O68  1  0.64301800  0.40686400  0.59546500  1
  O  O69  1  0.14301800  0.59313600  0.40453500  1
  O  O70  1  0.36108100  0.59056900  0.41101500  1
  O  O71  1  0.86108100  0.40943100  0.58898500  1
  O  O72  1  0.24823500  0.39483700  0.81668300  1
  O  O73  1  0.74823500  0.60516300  0.18331700  1
  O  O74  1  0.24927400  0.70782000  0.08967300  1
  O  O75  1  0.74927400  0.29218000  0.91032700  1
  O  O76  1  0.66112900  0.79181300  0.36373500  1
  O  O77  1  0.16112900  0.20818700  0.63626500  1
  O  O78  1  0.33834600  0.20995900  0.63941100  1
  O  O79  1  0.83834600  0.79004100  0.36058900  1
