# generated using pymatgen
data_NaCa2Mg5AlSi7(O11F)2
_symmetry_space_group_name_H-M   'P 1'
_cell_length_a   5.33283900
_cell_length_b   9.98113284
_cell_length_c   10.36892942
_cell_angle_alpha   61.35742179
_cell_angle_beta   82.87706862
_cell_angle_gamma   75.18841610
_symmetry_Int_Tables_number   1
_chemical_formula_structural   NaCa2Mg5AlSi7(O11F)2
_chemical_formula_sum   'Na1 Ca2 Mg5 Al1 Si7 O22 F2'
_cell_volume   468.27988311
_cell_formula_units_Z   1
loop_
 _symmetry_equiv_pos_site_id
 _symmetry_equiv_pos_as_xyz
  1  'x, y, z'
loop_
 _atom_site_type_symbol
 _atom_site_label
 _atom_site_symmetry_multiplicity
 _atom_site_fract_x
 _atom_site_fract_y
 _atom_site_fract_z
 _atom_site_occupancy
  Na  Na0  1  0.00381300  0.49587200  0.99283200  1
  Ca  Ca1  1  0.49782000  0.27605300  0.44865800  1
  Ca  Ca2  1  0.51034000  0.70818100  0.56184500  1
  Mg  Mg3  1  0.50095500  0.09258300  0.82138000  1
  Mg  Mg4  1  0.49995400  0.91210600  0.17733700  1
  Mg  Mg5  1  0.99563200  0.00231500  0.99835800  1
  Mg  Mg6  1  0.99675200  0.17918900  0.64934100  1
  Mg  Mg7  1  0.00117500  0.82207800  0.35551200  1
  Al  Al8  1  0.69902600  0.36452400  0.83144400  1
  Si  Si9  1  0.18915600  0.46621200  0.65395900  1
  Si  Si10  1  0.19634700  0.11340900  0.34610600  1
  Si  Si11  1  0.80431600  0.54209500  0.34019100  1
  Si  Si12  1  0.80453600  0.88219000  0.65815100  1
  Si  Si13  1  0.70352400  0.19541600  0.17048300  1
  Si  Si14  1  0.29749700  0.63894800  0.16724000  1
  Si  Si15  1  0.30016900  0.80539000  0.83249400  1
  O  O16  1  0.21915900  0.61283200  0.49469700  1
  O  O17  1  0.20839800  0.11675800  0.49842600  1
  O  O18  1  0.79298900  0.38671700  0.49107400  1
  O  O19  1  0.79165100  0.87845800  0.50689200  1
  O  O20  1  0.27341100  0.29395700  0.65560500  1
  O  O21  1  0.27602100  0.94638400  0.34250500  1
  O  O22  1  0.72570800  0.71108000  0.33990500  1
  O  O23  1  0.72300400  0.05181200  0.65645200  1
  O  O24  1  0.78683100  0.18635500  0.82889500  1
  O  O25  1  0.78087500  0.02574200  0.17266800  1
  O  O26  1  0.21744700  0.80554000  0.16820500  1
  O  O27  1  0.22738900  0.97274700  0.83104700  1
  O  O28  1  0.89254200  0.49701500  0.71778000  1
  O  O29  1  0.89763400  0.20728300  0.27632000  1
  O  O30  1  0.09922600  0.52169600  0.26338700  1
  O  O31  1  0.09897700  0.78778900  0.73530600  1
  O  O32  1  0.72188600  0.34170700  0.00959600  1
  O  O33  1  0.28483200  0.66014200  0.99972800  1
  O  O34  1  0.38514200  0.47055400  0.76383500  1
  O  O35  1  0.40508400  0.22494100  0.23598900  1
  O  O36  1  0.59349100  0.54195400  0.23015000  1
  O  O37  1  0.59610800  0.77076000  0.76939300  1
  F  F38  1  0.28808100  0.10016600  0.00170700  1
  F  F39  1  0.71310300  0.89104600  0.00510700  1
