# generated using pymatgen
data_NaMg3V3Cr3Si6B3H3O31
_symmetry_space_group_name_H-M   'P 1'
_cell_length_a   7.61734100
_cell_length_b   9.79093791
_cell_length_c   9.81504757
_cell_angle_alpha   113.34029928
_cell_angle_beta   105.13967871
_cell_angle_gamma   104.99257743
_symmetry_Int_Tables_number   1
_chemical_formula_structural   NaMg3V3Cr3Si6B3H3O31
_chemical_formula_sum   'Na1 Mg3 V3 Cr3 Si6 B3 H3 O31'
_cell_volume   592.14646827
_cell_formula_units_Z   1
loop_
 _symmetry_equiv_pos_site_id
 _symmetry_equiv_pos_as_xyz
  1  'x, y, z'
loop_
 _atom_site_type_symbol
 _atom_site_label
 _atom_site_symmetry_multiplicity
 _atom_site_fract_x
 _atom_site_fract_y
 _atom_site_fract_z
 _atom_site_occupancy
  Na  Na0  1  0.77057100  0.99987600  0.00002200  1
  Mg  Mg1  1  0.42319100  0.76967300  0.33793500  1
  Mg  Mg2  1  0.09174200  0.66494200  0.43481100  1
  Mg  Mg3  1  0.42660300  0.33656400  0.77167800  1
  V  V4  1  0.42319500  0.99727600  0.19157400  1
  V  V5  1  0.23909000  0.81280700  0.80749400  1
  V  V6  1  0.40823800  0.18223400  0.99969900  1
  Cr  Cr7  1  0.65465300  0.56377900  0.22758300  1
  Cr  Cr8  1  0.65300000  0.22721900  0.56362600  1
  Cr  Cr9  1  0.09327100  0.43923400  0.66441900  1
  Si  Si10  1  0.00049800  0.81369500  0.18777800  1
  Si  Si11  1  0.81506100  0.80815800  0.62262200  1
  Si  Si12  1  0.18655800  0.37729600  0.18434300  1
  Si  Si13  1  0.00155600  0.18821900  0.81408800  1
  Si  Si14  1  0.18734900  0.18548100  0.37647500  1
  Si  Si15  1  0.81527000  0.62328800  0.80709300  1
  B  B16  1  0.43228700  0.67012900  0.99932800  1
  B  B17  1  0.43743600  0.00129000  0.66968100  1
  B  B18  1  0.75851900  0.33109800  0.32905600  1
  H  H19  1  0.74291200  0.00257200  0.38649000  1
  H  H20  1  0.35681400  0.61182800  0.61471600  1
  H  H21  1  0.73928900  0.38142900  0.00347200  1
  O  O22  1  0.00454100  0.99988600  0.27062400  1
  O  O23  1  0.73488200  0.72803900  0.72739300  1
  O  O24  1  0.00358400  0.26960300  0.99783600  1
  O  O25  1  0.61699100  0.00612000  0.38983300  1
  O  O26  1  0.22741700  0.60838900  0.61405500  1
  O  O27  1  0.61198400  0.38116700  0.00603400  1
  O  O28  1  0.84257800  0.72512800  0.99621900  1
  O  O29  1  0.84048900  0.99853100  0.72273900  1
  O  O30  1  0.11833300  0.27042700  0.26973600  1
  O  O31  1  0.24730000  0.01630300  0.00464400  1
  O  O32  1  0.22285300  0.82881200  0.19826700  1
  O  O33  1  0.02895800  0.80109200  0.63197700  1
  O  O34  1  0.39705800  0.37119700  0.16824100  1
  O  O35  1  0.22526600  0.19754700  0.83099200  1
  O  O36  1  0.39977900  0.17406700  0.37954100  1
  O  O37  1  0.02862200  0.62696900  0.79689900  1
  O  O38  1  0.92090300  0.71658200  0.27437800  1
  O  O39  1  0.65393100  0.71758600  0.43684700  1
  O  O40  1  0.20757200  0.55812600  0.27854800  1
  O  O41  1  0.92967700  0.27902000  0.71656800  1
  O  O42  1  0.20289400  0.28199400  0.55926100  1
  O  O43  1  0.65344600  0.43775500  0.71811100  1
  O  O44  1  0.50849600  0.67707300  0.14531200  1
  O  O45  1  0.35911700  0.85629700  0.53418300  1
  O  O46  1  0.82086800  0.47407300  0.32976600  1
  O  O47  1  0.51020200  0.14925300  0.67787600  1
  O  O48  1  0.82568300  0.32543100  0.47175700  1
  O  O49  1  0.34735000  0.52636700  0.85463900  1
  O  O50  1  0.43926000  0.81721200  0.99873000  1
  O  O51  1  0.44542700  0.00727400  0.82160300  1
  O  O52  1  0.62468600  0.18459400  0.18340300  1
