# generated using pymatgen
data_NaCe(MoO4)2
_symmetry_space_group_name_H-M   'P 1'
_cell_length_a   6.94910658
_cell_length_b   6.94910658
_cell_length_c   6.94910658
_cell_angle_alpha   134.37492214
_cell_angle_beta   134.37492214
_cell_angle_gamma   66.50299632
_symmetry_Int_Tables_number   1
_chemical_formula_structural   NaCe(MoO4)2
_chemical_formula_sum   'Na1 Ce1 Mo2 O8'
_cell_volume   168.74261768
_cell_formula_units_Z   1
loop_
 _symmetry_equiv_pos_site_id
 _symmetry_equiv_pos_as_xyz
  1  'x, y, z'
loop_
 _atom_site_type_symbol
 _atom_site_label
 _atom_site_symmetry_multiplicity
 _atom_site_fract_x
 _atom_site_fract_y
 _atom_site_fract_z
 _atom_site_occupancy
  Na  Na0  1  0.75000000  0.25000000  0.50000000  1
  Ce  Ce1  1  0.50000000  0.50000000  0.00000000  1
  Mo  Mo2  1  0.25000000  0.75000000  0.50000000  1
  Mo  Mo3  1  0.00000000  0.00000000  0.00000000  1
  O  O4  1  0.40123400  0.52270200  0.60117600  1
  O  O5  1  0.92152600  0.80005800  0.39882400  1
  O  O6  1  0.06843200  0.15733400  0.39122200  1
  O  O7  1  0.76611200  0.67721100  0.60877800  1
  O  O8  1  0.84266600  0.23388800  0.91109900  1
  O  O9  1  0.32278900  0.93156800  0.08890100  1
  O  O10  1  0.19994200  0.59876600  0.12146800  1
  O  O11  1  0.47729800  0.07847400  0.87853200  1
