# generated using pymatgen
data_Na7Sn12
_symmetry_space_group_name_H-M   'P 1'
_cell_length_a   9.52203900
_cell_length_b   13.76693320
_cell_length_c   17.98895738
_cell_angle_alpha   89.69900052
_cell_angle_beta   89.93865906
_cell_angle_gamma   89.90941750
_symmetry_Int_Tables_number   1
_chemical_formula_structural   Na7Sn12
_chemical_formula_sum   'Na28 Sn48'
_cell_volume   2358.12256107
_cell_formula_units_Z   4
loop_
 _symmetry_equiv_pos_site_id
 _symmetry_equiv_pos_as_xyz
  1  'x, y, z'
loop_
 _atom_site_type_symbol
 _atom_site_label
 _atom_site_symmetry_multiplicity
 _atom_site_fract_x
 _atom_site_fract_y
 _atom_site_fract_z
 _atom_site_occupancy
  Na  Na0  1  0.81703900  0.59506600  0.48758100  1
  Na  Na1  1  0.18296100  0.40493400  0.51241900  1
  Na  Na2  1  0.81635000  0.90363100  0.01241800  1
  Na  Na3  1  0.18365000  0.09636900  0.98758200  1
  Na  Na4  1  0.44406500  0.22556100  0.41851900  1
  Na  Na5  1  0.55593500  0.77443900  0.58148100  1
  Na  Na6  1  0.44638200  0.28134400  0.07760600  1
  Na  Na7  1  0.55361800  0.71865600  0.92239400  1
  Na  Na8  1  0.73255300  0.58760700  0.27874300  1
  Na  Na9  1  0.26744700  0.41239300  0.72125700  1
  Na  Na10  1  0.73215300  0.91076300  0.21990700  1
  Na  Na11  1  0.26784700  0.08923700  0.78009300  1
  Na  Na12  1  0.82319200  0.23612400  0.47778200  1
  Na  Na13  1  0.17680800  0.76387600  0.52221800  1
  Na  Na14  1  0.81485100  0.27194600  0.02076300  1
  Na  Na15  1  0.18514900  0.72805400  0.97923700  1
  Na  Na16  1  0.44469000  0.60240000  0.42455000  1
  Na  Na17  1  0.55531000  0.39760000  0.57545000  1
  Na  Na18  1  0.44541900  0.89720800  0.07511300  1
  Na  Na19  1  0.55458100  0.10279200  0.92488700  1
  Na  Na20  1  0.73204700  0.25133300  0.24911500  1
  Na  Na21  1  0.26795300  0.74866700  0.75088500  1
  Na  Na22  1  0.86013200  0.91481400  0.49002000  1
  Na  Na23  1  0.13986800  0.08518600  0.50998000  1
  Na  Na24  1  0.85062300  0.57893800  0.00810700  1
  Na  Na25  1  0.14937700  0.42106200  0.99189300  1
  Na  Na26  1  0.40107200  0.93221200  0.44746100  1
  Na  Na27  1  0.59892800  0.06778800  0.55253900  1
  Sn  Sn28  1  0.64922100  0.41193800  0.40032300  1
  Sn  Sn29  1  0.35077900  0.58806200  0.59967700  1
  Sn  Sn30  1  0.64937600  0.08853200  0.10080800  1
  Sn  Sn31  1  0.35062400  0.91146800  0.89919200  1
  Sn  Sn32  1  0.28312800  0.58371300  0.26010500  1
  Sn  Sn33  1  0.71687200  0.41628700  0.73989500  1
  Sn  Sn34  1  0.28495500  0.91591100  0.24010800  1
  Sn  Sn35  1  0.71504500  0.08408900  0.75989200  1
  Sn  Sn36  1  0.94255900  0.41614400  0.34180800  1
  Sn  Sn37  1  0.05744100  0.58385600  0.65819200  1
  Sn  Sn38  1  0.94251300  0.08413600  0.15794400  1
  Sn  Sn39  1  0.05748700  0.91586400  0.84205600  1
  Sn  Sn40  1  0.10078700  0.58816800  0.39060100  1
  Sn  Sn41  1  0.89921300  0.41183200  0.60939900  1
  Sn  Sn42  1  0.09970900  0.91132000  0.11090000  1
  Sn  Sn43  1  0.90029100  0.08868000  0.88910000  1
  Sn  Sn44  1  0.11534100  0.91716700  0.37326800  1
  Sn  Sn45  1  0.88465900  0.08283300  0.62673200  1
  Sn  Sn46  1  0.12399600  0.58262900  0.12425700  1
  Sn  Sn47  1  0.87600400  0.41737100  0.87574300  1
  Sn  Sn48  1  0.94179700  0.07823200  0.32504300  1
  Sn  Sn49  1  0.05820300  0.92176800  0.67495700  1
  Sn  Sn50  1  0.93804300  0.42477100  0.17376200  1
  Sn  Sn51  1  0.06195700  0.57522900  0.82623800  1
  Sn  Sn52  1  0.47510000  0.74934000  0.25012000  1
  Sn  Sn53  1  0.52490000  0.25066000  0.74988000  1
  Sn  Sn54  1  0.65007800  0.04105500  0.37293500  1
  Sn  Sn55  1  0.34992200  0.95894500  0.62706500  1
  Sn  Sn56  1  0.64114400  0.46222500  0.12314900  1
  Sn  Sn57  1  0.35885600  0.53777500  0.87685100  1
  Sn  Sn58  1  0.28939200  0.25128300  0.25023400  1
  Sn  Sn59  1  0.71060800  0.74871700  0.74976600  1
  Sn  Sn60  1  0.47883600  0.42040700  0.26166800  1
  Sn  Sn61  1  0.52116400  0.57959300  0.73833200  1
  Sn  Sn62  1  0.47650800  0.08110600  0.23851100  1
  Sn  Sn63  1  0.52349200  0.91889400  0.76148900  1
  Sn  Sn64  1  0.93751900  0.75655900  0.33390700  1
  Sn  Sn65  1  0.06248100  0.24344100  0.66609300  1
  Sn  Sn66  1  0.93720200  0.74130700  0.16488000  1
  Sn  Sn67  1  0.06279800  0.25869300  0.83512000  1
  Sn  Sn68  1  0.64402000  0.79907600  0.38407500  1
  Sn  Sn69  1  0.35598000  0.20092400  0.61592500  1
  Sn  Sn70  1  0.63972700  0.69676000  0.11545500  1
  Sn  Sn71  1  0.36027300  0.30324000  0.88454500  1
  Sn  Sn72  1  0.10740600  0.24423600  0.37994900  1
  Sn  Sn73  1  0.89259400  0.75576400  0.62005100  1
  Sn  Sn74  1  0.10534300  0.25664300  0.12140000  1
  Sn  Sn75  1  0.89465700  0.74335700  0.87860000  1
