# generated using pymatgen
data_NaMgAl3Si3O16
_symmetry_space_group_name_H-M   'P 1'
_cell_length_a   9.15663249
_cell_length_b   9.15663249
_cell_length_c   8.96400834
_cell_angle_alpha   89.48770462
_cell_angle_beta   89.48770462
_cell_angle_gamma   88.32955647
_symmetry_Int_Tables_number   1
_chemical_formula_structural   NaMgAl3Si3O16
_chemical_formula_sum   'Na2 Mg2 Al6 Si6 O32'
_cell_volume   751.19982850
_cell_formula_units_Z   2
loop_
 _symmetry_equiv_pos_site_id
 _symmetry_equiv_pos_as_xyz
  1  'x, y, z'
loop_
 _atom_site_type_symbol
 _atom_site_label
 _atom_site_symmetry_multiplicity
 _atom_site_fract_x
 _atom_site_fract_y
 _atom_site_fract_z
 _atom_site_occupancy
  Na  Na0  1  0.70454200  0.21050200  0.31396400  1
  Na  Na1  1  0.21050200  0.70454200  0.81396400  1
  Mg  Mg2  1  0.26313900  0.76114500  0.29457500  1
  Mg  Mg3  1  0.76114500  0.26313900  0.79457500  1
  Al  Al4  1  0.99826400  0.00604500  0.26972800  1
  Al  Al5  1  0.48743800  0.25304600  0.01218000  1
  Al  Al6  1  0.74845300  0.51357200  0.51614500  1
  Al  Al7  1  0.51357200  0.74845300  0.01614500  1
  Al  Al8  1  0.25304600  0.48743800  0.51218000  1
  Al  Al9  1  0.00604500  0.99826400  0.76972800  1
  Si  Si10  1  0.50494900  0.50150000  0.26391900  1
  Si  Si11  1  0.00343700  0.24931700  0.52329600  1
  Si  Si12  1  0.75032700  0.99855200  0.01572300  1
  Si  Si13  1  0.99855200  0.75032700  0.51572300  1
  Si  Si14  1  0.24931700  0.00343700  0.02329600  1
  Si  Si15  1  0.50150000  0.50494900  0.76391900  1
  O  O16  1  0.94196500  0.14953500  0.38869100  1
  O  O17  1  0.64548700  0.14390700  0.05975500  1
  O  O18  1  0.63649300  0.44675500  0.37560700  1
  O  O19  1  0.06023500  0.84510000  0.36991600  1
  O  O20  1  0.35494900  0.85807400  0.08593400  1
  O  O21  1  0.35460700  0.55879900  0.35770700  1
  O  O22  1  0.96464400  0.85043800  0.65916900  1
  O  O23  1  0.64999200  0.86669100  0.96633800  1
  O  O24  1  0.64323500  0.55537800  0.67159300  1
  O  O25  1  0.04750200  0.15354600  0.66829700  1
  O  O26  1  0.35379400  0.13164100  0.96734100  1
  O  O27  1  0.36420300  0.45806600  0.66468400  1
  O  O28  1  0.45806600  0.36420300  0.16468400  1
  O  O29  1  0.15354600  0.04750200  0.16829700  1
  O  O30  1  0.13164100  0.35379400  0.46734100  1
  O  O31  1  0.55879900  0.35460700  0.85770700  1
  O  O32  1  0.84510000  0.06023500  0.86991600  1
  O  O33  1  0.85807400  0.35494900  0.58593400  1
  O  O34  1  0.44675500  0.63649300  0.87560700  1
  O  O35  1  0.14953500  0.94196500  0.88869100  1
  O  O36  1  0.14390700  0.64548700  0.55975500  1
  O  O37  1  0.55537800  0.64323500  0.17159300  1
  O  O38  1  0.85043800  0.96464400  0.15916900  1
  O  O39  1  0.86669100  0.64999200  0.46633800  1
  O  O40  1  0.81262700  0.31680000  0.01318700  1
  O  O41  1  0.18712600  0.68125900  0.09372800  1
  O  O42  1  0.95154600  0.54068500  0.87143900  1
  O  O43  1  0.06138200  0.45931100  0.87248400  1
  O  O44  1  0.45931100  0.06138200  0.37248400  1
  O  O45  1  0.68125900  0.18712600  0.59372800  1
  O  O46  1  0.31680000  0.81262700  0.51318700  1
  O  O47  1  0.54068500  0.95154600  0.37143900  1
