# generated using pymatgen
data_Na3SmTi2Nb2O12
_symmetry_space_group_name_H-M   'P 1'
_cell_length_a   5.49253200
_cell_length_b   5.58736015
_cell_length_c   7.83152227
_cell_angle_alpha   89.88435611
_cell_angle_beta   89.96626571
_cell_angle_gamma   89.73860074
_symmetry_Int_Tables_number   1
_chemical_formula_structural   Na3SmTi2Nb2O12
_chemical_formula_sum   'Na3 Sm1 Ti2 Nb2 O12'
_cell_volume   240.33663237
_cell_formula_units_Z   1
loop_
 _symmetry_equiv_pos_site_id
 _symmetry_equiv_pos_as_xyz
  1  'x, y, z'
loop_
 _atom_site_type_symbol
 _atom_site_label
 _atom_site_symmetry_multiplicity
 _atom_site_fract_x
 _atom_site_fract_y
 _atom_site_fract_z
 _atom_site_occupancy
  Na  Na0  1  0.49334900  0.52090200  0.74929400  1
  Na  Na1  1  0.00387600  0.01823300  0.74978400  1
  Na  Na2  1  0.50607200  0.47270700  0.25017500  1
  Sm  Sm3  1  0.99341900  0.94758800  0.24999200  1
  Ti  Ti4  1  0.49678000  0.98524000  0.00556200  1
  Ti  Ti5  1  0.00310900  0.48302400  0.49505700  1
  Nb  Nb6  1  0.49671300  0.99443700  0.51186100  1
  Nb  Nb7  1  0.00433400  0.48316200  0.98743500  1
  O  O8  1  0.20962800  0.79898900  0.97599000  1
  O  O9  1  0.28486400  0.29485000  0.53389200  1
  O  O10  1  0.79548800  0.21598200  0.45360800  1
  O  O11  1  0.72136200  0.73406900  0.04822900  1
  O  O12  1  0.79096500  0.21352800  0.04683000  1
  O  O13  1  0.72540900  0.73105600  0.45224900  1
  O  O14  1  0.20728300  0.79528600  0.52493500  1
  O  O15  1  0.29001000  0.29117100  0.96492700  1
  O  O16  1  0.56608100  0.98538100  0.75321100  1
  O  O17  1  0.92365200  0.49108900  0.74707500  1
  O  O18  1  0.41741100  0.02014700  0.24674500  1
  O  O19  1  0.07019400  0.52315800  0.25315000  1
