# generated using pymatgen
data_Na4Ni3(SbO5)2
_symmetry_space_group_name_H-M   'P 1'
_cell_length_a   5.31807252
_cell_length_b   9.53881813
_cell_length_c   9.53881282
_cell_angle_alpha   108.50035161
_cell_angle_beta   95.91198983
_cell_angle_gamma   95.91210533
_symmetry_Int_Tables_number   1
_chemical_formula_structural   Na4Ni3(SbO5)2
_chemical_formula_sum   'Na8 Ni6 Sb4 O20'
_cell_volume   451.69217929
_cell_formula_units_Z   2
loop_
 _symmetry_equiv_pos_site_id
 _symmetry_equiv_pos_as_xyz
  1  'x, y, z'
loop_
 _atom_site_type_symbol
 _atom_site_label
 _atom_site_symmetry_multiplicity
 _atom_site_fract_x
 _atom_site_fract_y
 _atom_site_fract_z
 _atom_site_occupancy
  Na  Na0  1  0.75001200  0.44452900  0.05548600  1
  Na  Na1  1  0.24998700  0.94451300  0.55547000  1
  Na  Na2  1  0.75001400  0.25547900  0.24454100  1
  Na  Na3  1  0.24998300  0.75546000  0.74452000  1
  Na  Na4  1  0.25000200  0.54844100  0.95156000  1
  Na  Na5  1  0.75000100  0.04844100  0.45156000  1
  Na  Na6  1  0.75000000  0.65150300  0.84848600  1
  Na  Na7  1  0.25000100  0.15151500  0.34849800  1
  Ni  Ni8  1  0.99997100  0.60003900  0.39994600  1
  Ni  Ni9  1  0.99999300  0.79987900  0.20013600  1
  Ni  Ni10  1  0.50001600  0.90012700  0.09985900  1
  Ni  Ni11  1  0.49998200  0.10004300  0.89995100  1
  Ni  Ni12  1  0.50000400  0.29985100  0.70016200  1
  Ni  Ni13  1  0.00000600  0.40011800  0.59987400  1
  Sb  Sb14  1  0.50000100  0.49693100  0.50306900  1
  Sb  Sb15  1  0.00000700  0.99694700  0.00306100  1
  Sb  Sb16  1  0.50000400  0.70308800  0.29691200  1
  Sb  Sb17  1  0.00000100  0.20308000  0.79692000  1
  O  O18  1  0.87677700  0.19718600  0.99718900  1
  O  O19  1  0.37676000  0.69718000  0.49718300  1
  O  O20  1  0.62324200  0.50281800  0.30282100  1
  O  O21  1  0.12322400  0.00281200  0.80281500  1
  O  O22  1  0.35467300  0.29819500  0.89467400  1
  O  O23  1  0.85467700  0.79820200  0.39466600  1
  O  O24  1  0.85460800  0.59466500  0.59817700  1
  O  O25  1  0.35459500  0.09467600  0.09817500  1
  O  O26  1  0.64540900  0.90182600  0.90532600  1
  O  O27  1  0.14539400  0.40182300  0.40533500  1
  O  O28  1  0.14532300  0.60533200  0.20179800  1
  O  O29  1  0.64532900  0.10532600  0.70180500  1
  O  O30  1  0.87629500  0.39906200  0.80954500  1
  O  O31  1  0.37630000  0.89906600  0.30955200  1
  O  O32  1  0.37623400  0.50952100  0.69905300  1
  O  O33  1  0.87621700  0.00951700  0.19904000  1
  O  O34  1  0.62369800  0.69044600  0.10093300  1
  O  O35  1  0.12370600  0.19045500  0.60093800  1
  O  O36  1  0.12378500  0.80096000  0.99048300  1
  O  O37  1  0.62376800  0.30094700  0.49047900  1
