# generated using pymatgen
data_Na4Al3Ge3O13
_symmetry_space_group_name_H-M   'P 1'
_cell_length_a   9.10310520
_cell_length_b   9.10310520
_cell_length_c   9.10310502
_cell_angle_alpha   89.66249443
_cell_angle_beta   89.66249443
_cell_angle_gamma   89.66249309
_symmetry_Int_Tables_number   1
_chemical_formula_structural   Na4Al3Ge3O13
_chemical_formula_sum   'Na8 Al6 Ge6 O26'
_cell_volume   754.30356495
_cell_formula_units_Z   2
loop_
 _symmetry_equiv_pos_site_id
 _symmetry_equiv_pos_as_xyz
  1  'x, y, z'
loop_
 _atom_site_type_symbol
 _atom_site_label
 _atom_site_symmetry_multiplicity
 _atom_site_fract_x
 _atom_site_fract_y
 _atom_site_fract_z
 _atom_site_occupancy
  Na  Na0  1  0.31828300  0.31828300  0.31828300  1
  Na  Na1  1  0.34883500  0.66646400  0.66648500  1
  Na  Na2  1  0.66648500  0.34883500  0.66646400  1
  Na  Na3  1  0.66646400  0.66648500  0.34883500  1
  Na  Na4  1  0.16646400  0.84883500  0.16648500  1
  Na  Na5  1  0.84883500  0.16648500  0.16646400  1
  Na  Na6  1  0.81828300  0.81828300  0.81828300  1
  Na  Na7  1  0.16648500  0.16646400  0.84883500  1
  Al  Al8  1  0.25117200  0.50291100  0.99977200  1
  Al  Al9  1  0.50291100  0.99977200  0.25117200  1
  Al  Al10  1  0.99977200  0.25117200  0.50291100  1
  Al  Al11  1  0.49977200  0.00291100  0.75117200  1
  Al  Al12  1  0.00291100  0.75117200  0.49977200  1
  Al  Al13  1  0.75117200  0.49977200  0.00291100  1
  Ge  Ge14  1  0.25099000  0.99965300  0.50320400  1
  Ge  Ge15  1  0.99965300  0.50320400  0.25099000  1
  Ge  Ge16  1  0.50320400  0.25099000  0.99965300  1
  Ge  Ge17  1  0.00320400  0.49965300  0.75099000  1
  Ge  Ge18  1  0.49965300  0.75099000  0.00320400  1
  Ge  Ge19  1  0.75099000  0.00320400  0.49965300  1
  O  O20  1  0.36068600  0.36028800  0.07588300  1
  O  O21  1  0.36028800  0.07588300  0.36068600  1
  O  O22  1  0.07588300  0.36068600  0.36028800  1
  O  O23  1  0.35767200  0.64682500  0.92479300  1
  O  O24  1  0.35746500  0.92481200  0.64648400  1
  O  O25  1  0.07874800  0.64253200  0.64288400  1
  O  O26  1  0.64648400  0.35746500  0.92481200  1
  O  O27  1  0.64288400  0.07874800  0.64253200  1
  O  O28  1  0.92479300  0.35767200  0.64682500  1
  O  O29  1  0.64253200  0.64288400  0.07874800  1
  O  O30  1  0.64682500  0.92479300  0.35767200  1
  O  O31  1  0.92481200  0.64648400  0.35746500  1
  O  O32  1  0.42481200  0.85746500  0.14648400  1
  O  O33  1  0.14253200  0.57874800  0.14288400  1
  O  O34  1  0.14682500  0.85767200  0.42479300  1
  O  O35  1  0.57874800  0.14288400  0.14253200  1
  O  O36  1  0.85767200  0.42479300  0.14682500  1
  O  O37  1  0.85746500  0.14648400  0.42481200  1
  O  O38  1  0.57588300  0.86028800  0.86068600  1
  O  O39  1  0.86068600  0.57588300  0.86028800  1
  O  O40  1  0.86028800  0.86068600  0.57588300  1
  O  O41  1  0.42479300  0.14682500  0.85767200  1
  O  O42  1  0.14648400  0.42481200  0.85746500  1
  O  O43  1  0.14288400  0.14253200  0.57874800  1
  O  O44  1  0.04696100  0.04696100  0.04696100  1
  O  O45  1  0.54696100  0.54696100  0.54696100  1
