# generated using pymatgen
data_Na3B2PO5F4
_symmetry_space_group_name_H-M   'P 1'
_cell_length_a   7.07407459
_cell_length_b   7.07407459
_cell_length_c   9.17001900
_cell_angle_alpha   90.00000000
_cell_angle_beta   90.00000000
_cell_angle_gamma   122.17475338
_symmetry_Int_Tables_number   1
_chemical_formula_structural   Na3B2PO5F4
_chemical_formula_sum   'Na6 B4 P2 O10 F8'
_cell_volume   388.41810940
_cell_formula_units_Z   2
loop_
 _symmetry_equiv_pos_site_id
 _symmetry_equiv_pos_as_xyz
  1  'x, y, z'
loop_
 _atom_site_type_symbol
 _atom_site_label
 _atom_site_symmetry_multiplicity
 _atom_site_fract_x
 _atom_site_fract_y
 _atom_site_fract_z
 _atom_site_occupancy
  Na  Na0  1  0.19455300  0.80544700  0.00000000  1
  Na  Na1  1  0.19455300  0.80544700  0.50000000  1
  Na  Na2  1  0.80900200  0.19099800  0.00000000  1
  Na  Na3  1  0.80900200  0.19099800  0.50000000  1
  Na  Na4  1  0.49157100  0.50842900  0.00000000  1
  Na  Na5  1  0.49157100  0.50842900  0.50000000  1
  B  B6  1  0.93474400  0.92339600  0.25000000  1
  B  B7  1  0.07660400  0.06525600  0.75000000  1
  B  B8  1  0.36250300  0.14938000  0.25000000  1
  B  B9  1  0.85062000  0.63749700  0.75000000  1
  P  P10  1  0.61545100  0.84785300  0.75000000  1
  P  P11  1  0.15214700  0.38454900  0.25000000  1
  O  O12  1  0.14959400  0.94968400  0.25000000  1
  O  O13  1  0.05031600  0.85040600  0.75000000  1
  O  O14  1  0.86494800  0.06221300  0.75000000  1
  O  O15  1  0.93778700  0.13505200  0.25000000  1
  O  O16  1  0.36377700  0.35787000  0.25000000  1
  O  O17  1  0.64213000  0.63622300  0.75000000  1
  O  O18  1  0.50601300  0.84583100  0.89212800  1
  O  O19  1  0.15416900  0.49398700  0.10787200  1
  O  O20  1  0.50601300  0.84583100  0.60787200  1
  O  O21  1  0.15416900  0.49398700  0.39212800  1
  F  F22  1  0.80973400  0.79880100  0.12268400  1
  F  F23  1  0.20119900  0.19026600  0.87731600  1
  F  F24  1  0.80973400  0.79880100  0.37731600  1
  F  F25  1  0.20119900  0.19026600  0.62268400  1
  F  F26  1  0.49132300  0.15787700  0.12276700  1
  F  F27  1  0.84212300  0.50867700  0.87723300  1
  F  F28  1  0.49132300  0.15787700  0.37723300  1
  F  F29  1  0.84212300  0.50867700  0.62276700  1
