# generated using pymatgen
data_Na3BrCl2
_symmetry_space_group_name_H-M   'P 1'
_cell_length_a   4.11369802
_cell_length_b   4.11369802
_cell_length_c   10.08449000
_cell_angle_alpha   90.00000000
_cell_angle_beta   90.00000000
_cell_angle_gamma   120.00000040
_symmetry_Int_Tables_number   1
_chemical_formula_structural   Na3BrCl2
_chemical_formula_sum   'Na3 Br1 Cl2'
_cell_volume   147.79147582
_cell_formula_units_Z   1
loop_
 _symmetry_equiv_pos_site_id
 _symmetry_equiv_pos_as_xyz
  1  'x, y, z'
loop_
 _atom_site_type_symbol
 _atom_site_label
 _atom_site_symmetry_multiplicity
 _atom_site_fract_x
 _atom_site_fract_y
 _atom_site_fract_z
 _atom_site_occupancy
  Na  Na0  1  0.00000000  0.00000000  0.50000000  1
  Na  Na1  1  0.33333300  0.66666700  0.17536900  1
  Na  Na2  1  0.66666700  0.33333300  0.82463100  1
  Br  Br3  1  0.00000000  0.00000000  0.00000000  1
  Cl  Cl4  1  0.33333300  0.66666700  0.66343500  1
  Cl  Cl5  1  0.66666700  0.33333300  0.33656500  1
