# generated using pymatgen
data_Nb6InTe8
_symmetry_space_group_name_H-M   'P 1'
_cell_length_a   3.66438200
_cell_length_b   10.82107678
_cell_length_c   10.81750895
_cell_angle_alpha   119.98844918
_cell_angle_beta   90.00000000
_cell_angle_gamma   90.00000000
_symmetry_Int_Tables_number   1
_chemical_formula_structural   Nb6InTe8
_chemical_formula_sum   'Nb6 In1 Te8'
_cell_volume   371.51782168
_cell_formula_units_Z   1
loop_
 _symmetry_equiv_pos_site_id
 _symmetry_equiv_pos_as_xyz
  1  'x, y, z'
loop_
 _atom_site_type_symbol
 _atom_site_label
 _atom_site_symmetry_multiplicity
 _atom_site_fract_x
 _atom_site_fract_y
 _atom_site_fract_z
 _atom_site_occupancy
  Nb  Nb0  1  0.75000000  0.61431900  0.51253900  1
  Nb  Nb1  1  0.75000000  0.48744000  0.10173800  1
  Nb  Nb2  1  0.75000000  0.89818200  0.38565700  1
  Nb  Nb3  1  0.25000000  0.38877700  0.49047200  1
  Nb  Nb4  1  0.25000000  0.50946300  0.89827200  1
  Nb  Nb5  1  0.25000000  0.10175600  0.61113200  1
  In  In6  1  0.75000000  0.00012100  0.00039300  1
  Te  Te7  1  0.75000000  0.33333300  0.66660300  1
  Te  Te8  1  0.25000000  0.66666100  0.33332300  1
  Te  Te9  1  0.75000000  0.93679300  0.66186000  1
  Te  Te10  1  0.75000000  0.33821900  0.27500100  1
  Te  Te11  1  0.75000000  0.72498900  0.06320000  1
  Te  Te12  1  0.25000000  0.06356600  0.33489900  1
  Te  Te13  1  0.25000000  0.66496800  0.72852700  1
  Te  Te14  1  0.25000000  0.27141300  0.93638500  1
