# generated using pymatgen
data_Na4ScIn3(SiO3)8
_symmetry_space_group_name_H-M   'P 1'
_cell_length_a   7.73250161
_cell_length_b   7.73250161
_cell_length_c   10.05281391
_cell_angle_alpha   63.87967406
_cell_angle_beta   63.87967406
_cell_angle_gamma   73.33429824
_symmetry_Int_Tables_number   1
_chemical_formula_structural   Na4ScIn3(SiO3)8
_chemical_formula_sum   'Na4 Sc1 In3 Si8 O24'
_cell_volume   481.33709947
_cell_formula_units_Z   1
loop_
 _symmetry_equiv_pos_site_id
 _symmetry_equiv_pos_as_xyz
  1  'x, y, z'
loop_
 _atom_site_type_symbol
 _atom_site_label
 _atom_site_symmetry_multiplicity
 _atom_site_fract_x
 _atom_site_fract_y
 _atom_site_fract_z
 _atom_site_occupancy
  Na  Na0  1  0.42730700  0.57269300  0.50000000  1
  Na  Na1  1  0.92815000  0.07185000  0.00000000  1
  Na  Na2  1  0.07276000  0.42865400  0.24991300  1
  Na  Na3  1  0.57134600  0.92724000  0.75008700  1
  Sc  Sc4  1  0.01602600  0.98397400  0.50000000  1
  In  In5  1  0.51899500  0.48100500  0.00000000  1
  In  In6  1  0.47896800  0.01817000  0.25133600  1
  In  In7  1  0.98183000  0.52103200  0.74866400  1
  Si  Si8  1  0.71435300  0.28991000  0.70578200  1
  Si  Si9  1  0.21276200  0.79090200  0.20756100  1
  Si  Si10  1  0.71009000  0.28564700  0.29421800  1
  Si  Si11  1  0.20909800  0.78723800  0.79243900  1
  Si  Si12  1  0.78753400  0.70865500  0.04372300  1
  Si  Si13  1  0.28675900  0.20831700  0.54308700  1
  Si  Si14  1  0.79168300  0.71324100  0.45691300  1
  Si  Si15  1  0.29134500  0.21246600  0.95627700  1
  O  O16  1  0.84020800  0.09949200  0.66805300  1
  O  O17  1  0.33562100  0.59666800  0.17731800  1
  O  O18  1  0.90050800  0.15979200  0.33194700  1
  O  O19  1  0.40333200  0.66437900  0.82268200  1
  O  O20  1  0.66433000  0.90321300  0.07293100  1
  O  O21  1  0.16459400  0.40304200  0.57272900  1
  O  O22  1  0.59695800  0.83540600  0.42727100  1
  O  O23  1  0.09678700  0.33567000  0.92706900  1
  O  O24  1  0.75182200  0.48054800  0.53572500  1
  O  O25  1  0.25164000  0.98012800  0.03568100  1
  O  O26  1  0.51945200  0.24817800  0.46427500  1
  O  O27  1  0.01987200  0.74836000  0.96431900  1
  O  O28  1  0.75019500  0.51812700  0.21467100  1
  O  O29  1  0.24904000  0.01965000  0.71482600  1
  O  O30  1  0.98035000  0.75096000  0.28517400  1
  O  O31  1  0.48187300  0.24980500  0.78532900  1
  O  O32  1  0.75487500  0.34273100  0.83112200  1
  O  O33  1  0.24932700  0.84633400  0.33306700  1
  O  O34  1  0.65726900  0.24512500  0.16887800  1
  O  O35  1  0.15366600  0.75067300  0.66693300  1
  O  O36  1  0.74623200  0.65616500  0.91839400  1
  O  O37  1  0.24102300  0.15181600  0.42233900  1
  O  O38  1  0.84818400  0.75897700  0.57766100  1
  O  O39  1  0.34383500  0.25376800  0.08160600  1
