# generated using pymatgen
data_Nd2P2H8S4O15
_symmetry_space_group_name_H-M   'P 1'
_cell_length_a   16.74634200
_cell_length_b   7.17571200
_cell_length_c   8.38989441
_cell_angle_alpha   86.22626778
_cell_angle_beta   90.00000000
_cell_angle_gamma   90.00000000
_symmetry_Int_Tables_number   1
_chemical_formula_structural   Nd2P2H8S4O15
_chemical_formula_sum   'Nd4 P4 H16 S8 O30'
_cell_volume   1006.00182532
_cell_formula_units_Z   2
loop_
 _symmetry_equiv_pos_site_id
 _symmetry_equiv_pos_as_xyz
  1  'x, y, z'
loop_
 _atom_site_type_symbol
 _atom_site_label
 _atom_site_symmetry_multiplicity
 _atom_site_fract_x
 _atom_site_fract_y
 _atom_site_fract_z
 _atom_site_occupancy
  Nd  Nd0  1  0.92198900  0.50565000  0.71709400  1
  Nd  Nd1  1  0.56322700  0.99374400  0.22772200  1
  Nd  Nd2  1  0.06322700  0.00625600  0.77227800  1
  Nd  Nd3  1  0.42198900  0.49435000  0.28290600  1
  P  P4  1  0.90011000  0.99390300  0.59523300  1
  P  P5  1  0.60541300  0.51841500  0.10262800  1
  P  P6  1  0.10541300  0.48158500  0.89737200  1
  P  P7  1  0.40011000  0.00609700  0.40476700  1
  H  H8  1  0.54904100  0.91620300  0.59592900  1
  H  H9  1  0.84524000  0.39906800  0.05432000  1
  H  H10  1  0.34524000  0.60093200  0.94568000  1
  H  H11  1  0.04904100  0.08379700  0.40407100  1
  H  H12  1  0.00936300  0.58931700  0.38655900  1
  H  H13  1  0.47334300  0.01856700  0.88481900  1
  H  H14  1  0.97334300  0.98143300  0.11518100  1
  H  H15  1  0.50936300  0.41068300  0.61344100  1
  H  H16  1  0.57389900  0.38846400  0.48672100  1
  H  H17  1  0.91784200  0.89368500  0.97639200  1
  H  H18  1  0.41784200  0.10631500  0.02360800  1
  H  H19  1  0.07389900  0.61153600  0.51327900  1
  H  H20  1  0.64245700  0.87558700  0.54986600  1
  H  H21  1  0.90909000  0.24402900  0.01868800  1
  H  H22  1  0.40909000  0.75597100  0.98131200  1
  H  H23  1  0.14245700  0.12441300  0.45013400  1
  S  S24  1  0.79951100  0.89667000  0.73271800  1
  S  S25  1  0.72551800  0.56527500  0.13878100  1
  S  S26  1  0.22551800  0.43472500  0.86121900  1
  S  S27  1  0.29951100  0.10333000  0.26728200  1
  S  S28  1  0.88784300  0.02689600  0.34687000  1
  S  S29  1  0.67013000  0.57826000  0.90022900  1
  S  S30  1  0.17013000  0.42174000  0.09977100  1
  S  S31  1  0.38784300  0.97310400  0.65313000  1
  O  O32  1  0.82126800  0.53381800  0.51900600  1
  O  O33  1  0.68404600  0.01445400  0.05612200  1
  O  O34  1  0.18404600  0.98554600  0.94387800  1
  O  O35  1  0.32126800  0.46618200  0.48099400  1
  O  O36  1  0.69452700  0.09631600  0.31314200  1
  O  O37  1  0.84504900  0.73975900  0.84791600  1
  O  O38  1  0.34504900  0.26024100  0.15208400  1
  O  O39  1  0.19452700  0.90368400  0.68685800  1
  O  O40  1  0.96234200  0.83424500  0.63276600  1
  O  O41  1  0.56497000  0.33129200  0.13668900  1
  O  O42  1  0.06497000  0.66870800  0.86331100  1
  O  O43  1  0.46234200  0.16575500  0.36723400  1
  O  O44  1  0.58862800  0.88988200  0.50658400  1
  O  O45  1  0.89517800  0.37683000  0.99756300  1
  O  O46  1  0.39517800  0.62317000  0.00243700  1
  O  O47  1  0.08862800  0.11011800  0.49341600  1
  O  O48  1  0.79235000  0.42374500  0.64368400  1
  O  O49  1  0.72997200  0.10106200  0.16344000  1
  O  O50  1  0.22997200  0.89893800  0.83656000  1
  O  O51  1  0.29235000  0.57625500  0.35631600  1
  O  O52  1  0.93815900  0.17080800  0.66106200  1
  O  O53  1  0.55134700  0.67176800  0.16093000  1
  O  O54  1  0.05134700  0.32823200  0.83907000  1
  O  O55  1  0.43815900  0.82919200  0.33893800  1
  O  O56  1  0.53022300  0.47038000  0.51404000  1
  O  O57  1  0.96049500  0.98580200  0.99413200  1
  O  O58  1  0.46049500  0.01419800  0.00586800  1
  O  O59  1  0.03022300  0.52962000  0.48596000  1
  O  O60  1  0.48143000  0.99301300  0.70589300  1
  O  O61  1  0.98143000  0.00698700  0.29410700  1
