# generated using pymatgen
data_Na3HoTi2Nb2O12
_symmetry_space_group_name_H-M   'P 1'
_cell_length_a   5.44065500
_cell_length_b   5.59591114
_cell_length_c   7.77075579
_cell_angle_alpha   89.88746042
_cell_angle_beta   89.95951344
_cell_angle_gamma   89.24320299
_symmetry_Int_Tables_number   1
_chemical_formula_structural   Na3HoTi2Nb2O12
_chemical_formula_sum   'Na3 Ho1 Ti2 Nb2 O12'
_cell_volume   236.56278997
_cell_formula_units_Z   1
loop_
 _symmetry_equiv_pos_site_id
 _symmetry_equiv_pos_as_xyz
  1  'x, y, z'
loop_
 _atom_site_type_symbol
 _atom_site_label
 _atom_site_symmetry_multiplicity
 _atom_site_fract_x
 _atom_site_fract_y
 _atom_site_fract_z
 _atom_site_occupancy
  Na  Na0  1  0.49107900  0.53067500  0.74836000  1
  Na  Na1  1  0.00268400  0.02069600  0.74991900  1
  Na  Na2  1  0.50856800  0.46168500  0.25024700  1
  Ho  Ho3  1  0.99007500  0.93364300  0.25022000  1
  Ti  Ti4  1  0.48868400  0.98299000  0.00733700  1
  Ti  Ti5  1  0.00382300  0.47660700  0.49329100  1
  Nb  Nb6  1  0.49376900  0.99286400  0.51132900  1
  Nb  Nb7  1  0.00271800  0.47771300  0.98906100  1
  O  O8  1  0.56893700  0.98367200  0.75321000  1
  O  O9  1  0.91933100  0.48823000  0.74705400  1
  O  O10  1  0.39947700  0.02843100  0.24655300  1
  O  O11  1  0.07752700  0.53300800  0.25308600  1
  O  O12  1  0.20489800  0.80432200  0.97557800  1
  O  O13  1  0.29321600  0.30345500  0.53718700  1
  O  O14  1  0.80674500  0.20905100  0.44594400  1
  O  O15  1  0.71885300  0.73385100  0.05316500  1
  O  O16  1  0.80460700  0.20627900  0.05489100  1
  O  O17  1  0.72294200  0.73099400  0.44724400  1
  O  O18  1  0.20239900  0.80265200  0.52576600  1
  O  O19  1  0.29966600  0.29918000  0.96055600  1
