# generated using pymatgen
data_NaFeRuO4
_symmetry_space_group_name_H-M   'P 1'
_cell_length_a   2.98617600
_cell_length_b   9.45333700
_cell_length_c   10.97484000
_cell_angle_alpha   90.00000000
_cell_angle_beta   90.00000000
_cell_angle_gamma   90.00000000
_symmetry_Int_Tables_number   1
_chemical_formula_structural   NaFeRuO4
_chemical_formula_sum   'Na4 Fe4 Ru4 O16'
_cell_volume   309.81235887
_cell_formula_units_Z   4
loop_
 _symmetry_equiv_pos_site_id
 _symmetry_equiv_pos_as_xyz
  1  'x, y, z'
loop_
 _atom_site_type_symbol
 _atom_site_label
 _atom_site_symmetry_multiplicity
 _atom_site_fract_x
 _atom_site_fract_y
 _atom_site_fract_z
 _atom_site_occupancy
  Na  Na0  1  0.25000000  0.23907700  0.65063400  1
  Na  Na1  1  0.25000000  0.73907700  0.84936600  1
  Na  Na2  1  0.75000000  0.76092300  0.34936600  1
  Na  Na3  1  0.75000000  0.26092300  0.15063400  1
  Fe  Fe4  1  0.25000000  0.08057600  0.40235700  1
  Fe  Fe5  1  0.25000000  0.58057600  0.09764300  1
  Fe  Fe6  1  0.75000000  0.91942400  0.59764300  1
  Fe  Fe7  1  0.75000000  0.41942400  0.90235700  1
  Ru  Ru8  1  0.25000000  0.05914500  0.87880800  1
  Ru  Ru9  1  0.25000000  0.55914500  0.62119200  1
  Ru  Ru10  1  0.75000000  0.94085500  0.12119200  1
  Ru  Ru11  1  0.75000000  0.44085500  0.37880800  1
  O  O12  1  0.25000000  0.96748900  0.71638600  1
  O  O13  1  0.25000000  0.46748900  0.78361400  1
  O  O14  1  0.75000000  0.03251100  0.28361400  1
  O  O15  1  0.75000000  0.53251100  0.21638600  1
  O  O16  1  0.25000000  0.88265200  0.47898200  1
  O  O17  1  0.25000000  0.38265200  0.02101800  1
  O  O18  1  0.75000000  0.11734800  0.52101800  1
  O  O19  1  0.75000000  0.61734800  0.97898200  1
  O  O20  1  0.25000000  0.30376900  0.34567800  1
  O  O21  1  0.25000000  0.80376900  0.15432200  1
  O  O22  1  0.75000000  0.69623100  0.65432200  1
  O  O23  1  0.75000000  0.19623100  0.84567800  1
  O  O24  1  0.25000000  0.07740800  0.06134100  1
  O  O25  1  0.25000000  0.57740800  0.43865900  1
  O  O26  1  0.75000000  0.92259200  0.93865900  1
  O  O27  1  0.75000000  0.42259200  0.56134100  1
