# generated using pymatgen
data_NaDyIrO4
_symmetry_space_group_name_H-M   'P 1'
_cell_length_a   3.25155700
_cell_length_b   9.38213080
_cell_length_c   9.38212950
_cell_angle_alpha   61.76176203
_cell_angle_beta   90.00000000
_cell_angle_gamma   90.00000000
_symmetry_Int_Tables_number   1
_chemical_formula_structural   NaDyIrO4
_chemical_formula_sum   'Na3 Dy3 Ir3 O12'
_cell_volume   252.15304351
_cell_formula_units_Z   3
loop_
 _symmetry_equiv_pos_site_id
 _symmetry_equiv_pos_as_xyz
  1  'x, y, z'
loop_
 _atom_site_type_symbol
 _atom_site_label
 _atom_site_symmetry_multiplicity
 _atom_site_fract_x
 _atom_site_fract_y
 _atom_site_fract_z
 _atom_site_occupancy
  Na  Na0  1  0.00000000  0.02062100  0.97937900  1
  Na  Na1  1  0.50000000  0.30092300  0.00021800  1
  Na  Na2  1  0.50000000  0.99978200  0.69907700  1
  Dy  Dy3  1  0.50000000  0.31461000  0.34249600  1
  Dy  Dy4  1  0.50000000  0.65750400  0.68539000  1
  Dy  Dy5  1  0.50000000  0.70226500  0.29773500  1
  Ir  Ir6  1  0.00000000  0.33266100  0.66733900  1
  Ir  Ir7  1  0.00000000  0.67340600  0.00308900  1
  Ir  Ir8  1  0.00000000  0.99691100  0.32659400  1
  O  O9  1  0.50000000  0.46248600  0.53751400  1
  O  O10  1  0.50000000  0.54620500  0.99965800  1
  O  O11  1  0.50000000  0.00034200  0.45379500  1
  O  O12  1  0.00000000  0.46487800  0.78543800  1
  O  O13  1  0.00000000  0.78360700  0.75898100  1
  O  O14  1  0.00000000  0.74336600  0.45058300  1
  O  O15  1  0.00000000  0.21456200  0.53512200  1
  O  O16  1  0.00000000  0.24101900  0.21639300  1
  O  O17  1  0.00000000  0.54941700  0.25663400  1
  O  O18  1  0.50000000  0.20240500  0.79759500  1
  O  O19  1  0.50000000  0.80673900  0.01380800  1
  O  O20  1  0.50000000  0.98619200  0.19326100  1
