# generated using pymatgen
data_Na4Eu2SnP4
_symmetry_space_group_name_H-M   'P 1'
_cell_length_a   9.54974131
_cell_length_b   9.54974131
_cell_length_c   7.23790647
_cell_angle_alpha   89.08154347
_cell_angle_beta   89.08154347
_cell_angle_gamma   120.11590640
_symmetry_Int_Tables_number   1
_chemical_formula_structural   Na4Eu2SnP4
_chemical_formula_sum   'Na8 Eu4 Sn2 P8'
_cell_volume   570.68218666
_cell_formula_units_Z   2
loop_
 _symmetry_equiv_pos_site_id
 _symmetry_equiv_pos_as_xyz
  1  'x, y, z'
loop_
 _atom_site_type_symbol
 _atom_site_label
 _atom_site_symmetry_multiplicity
 _atom_site_fract_x
 _atom_site_fract_y
 _atom_site_fract_z
 _atom_site_occupancy
  Na  Na0  1  0.46765300  0.93066500  0.38001300  1
  Na  Na1  1  0.93066500  0.46765300  0.88001300  1
  Na  Na2  1  0.86617100  0.72376200  0.18647700  1
  Na  Na3  1  0.28788400  0.13562200  0.22334800  1
  Na  Na4  1  0.85152700  0.13645100  0.20876800  1
  Na  Na5  1  0.13562200  0.28788400  0.72334800  1
  Na  Na6  1  0.72376200  0.86617100  0.68647700  1
  Na  Na7  1  0.13645100  0.85152700  0.70876800  1
  Eu  Eu8  1  0.05467100  0.53073400  0.38375800  1
  Eu  Eu9  1  0.48388200  0.53393600  0.37466700  1
  Eu  Eu10  1  0.53073400  0.05467100  0.88375800  1
  Eu  Eu11  1  0.53393600  0.48388200  0.87466700  1
  Sn  Sn12  1  0.66131200  0.32427400  0.49838700  1
  Sn  Sn13  1  0.32427400  0.66131200  0.99838700  1
  P  P14  1  0.19265500  0.37303300  0.12963300  1
  P  P15  1  0.62623200  0.81193000  0.08950700  1
  P  P16  1  0.19371700  0.81785600  0.10686900  1
  P  P17  1  0.81193000  0.62623200  0.58950700  1
  P  P18  1  0.37303300  0.19265500  0.62963300  1
  P  P19  1  0.81785600  0.19371700  0.60686900  1
  P  P20  1  0.65872700  0.33494800  0.14237600  1
  P  P21  1  0.33494800  0.65872700  0.64237600  1
