# generated using pymatgen
data_Na3Mn2BO6
_symmetry_space_group_name_H-M   'P 1'
_cell_length_a   5.55983358
_cell_length_b   5.88225767
_cell_length_c   9.43259317
_cell_angle_alpha   78.56476099
_cell_angle_beta   87.72728019
_cell_angle_gamma   74.91879211
_symmetry_Int_Tables_number   1
_chemical_formula_structural   Na3Mn2BO6
_chemical_formula_sum   'Na6 Mn4 B2 O12'
_cell_volume   291.92621938
_cell_formula_units_Z   2
loop_
 _symmetry_equiv_pos_site_id
 _symmetry_equiv_pos_as_xyz
  1  'x, y, z'
loop_
 _atom_site_type_symbol
 _atom_site_label
 _atom_site_symmetry_multiplicity
 _atom_site_fract_x
 _atom_site_fract_y
 _atom_site_fract_z
 _atom_site_occupancy
  Na  Na0  1  0.49992500  0.00015100  0.50001800  1
  Na  Na1  1  0.50000800  0.50009700  0.50001900  1
  Na  Na2  1  0.47152100  0.65368000  0.82374600  1
  Na  Na3  1  0.47155900  0.15365300  0.82380300  1
  Na  Na4  1  0.52837800  0.84633800  0.17622300  1
  Na  Na5  1  0.52841600  0.34636400  0.17622300  1
  Mn  Mn6  1  0.03646400  0.91370000  0.35115400  1
  Mn  Mn7  1  0.96337000  0.08636000  0.64871300  1
  Mn  Mn8  1  0.03655200  0.41376400  0.35124100  1
  Mn  Mn9  1  0.96353000  0.58621700  0.64865800  1
  B  B10  1  0.00015600  0.49991800  0.00009700  1
  B  B11  1  0.99993900  0.99996000  0.00004700  1
  O  O12  1  0.24775300  0.13112700  0.28899200  1
  O  O13  1  0.24781100  0.63112300  0.28899100  1
  O  O14  1  0.75219500  0.36888500  0.71093500  1
  O  O15  1  0.75218300  0.86887400  0.71093600  1
  O  O16  1  0.18777000  0.79769400  0.59475800  1
  O  O17  1  0.18776800  0.29768600  0.59475300  1
  O  O18  1  0.81222300  0.70232900  0.40520300  1
  O  O19  1  0.81224100  0.20231900  0.40519600  1
  O  O20  1  0.20608600  0.93074200  0.93908400  1
  O  O21  1  0.20619300  0.43072700  0.93908800  1
  O  O22  1  0.79408700  0.56912900  0.06111900  1
  O  O23  1  0.79387300  0.06916400  0.06100100  1
