# generated using pymatgen
data_Na4CrH6ClO7
_symmetry_space_group_name_H-M   'P 1'
_cell_length_a   5.94360512
_cell_length_b   8.85692358
_cell_length_c   8.85772504
_cell_angle_alpha   98.81490761
_cell_angle_beta   99.39340352
_cell_angle_gamma   100.40910873
_symmetry_Int_Tables_number   1
_chemical_formula_structural   Na4CrH6ClO7
_chemical_formula_sum   'Na8 Cr2 H12 Cl2 O14'
_cell_volume   444.37031737
_cell_formula_units_Z   2
loop_
 _symmetry_equiv_pos_site_id
 _symmetry_equiv_pos_as_xyz
  1  'x, y, z'
loop_
 _atom_site_type_symbol
 _atom_site_label
 _atom_site_symmetry_multiplicity
 _atom_site_fract_x
 _atom_site_fract_y
 _atom_site_fract_z
 _atom_site_occupancy
  Na  Na0  1  0.73356900  0.43555100  0.04208600  1
  Na  Na1  1  0.76423400  0.95442100  0.56730800  1
  Na  Na2  1  0.26643100  0.56444900  0.95791400  1
  Na  Na3  1  0.23576600  0.04557900  0.43269200  1
  Na  Na4  1  0.24651100  0.68384600  0.31414100  1
  Na  Na5  1  0.75348900  0.31615400  0.68585900  1
  Na  Na6  1  0.25031400  0.93862000  0.05758800  1
  Na  Na7  1  0.74968600  0.06138000  0.94241200  1
  Cr  Cr8  1  0.24917600  0.18777600  0.81311700  1
  Cr  Cr9  1  0.75082400  0.81222400  0.18688300  1
  H  H10  1  0.41216200  0.96232000  0.68956600  1
  H  H11  1  0.08185300  0.30720400  0.03861600  1
  H  H12  1  0.58783800  0.03768000  0.31043400  1
  H  H13  1  0.91814700  0.69279600  0.96138400  1
  H  H14  1  0.40259000  0.43966900  0.72121000  1
  H  H15  1  0.08657200  0.27968600  0.55752600  1
  H  H16  1  0.59741000  0.56033100  0.27879000  1
  H  H17  1  0.91342800  0.72031400  0.44247400  1
  H  H18  1  0.41385100  0.23600500  0.10937800  1
  H  H19  1  0.07468500  0.88797600  0.76868900  1
  H  H20  1  0.58614900  0.76399500  0.89062200  1
  H  H21  1  0.92531500  0.11202400  0.23131100  1
  Cl  Cl22  1  0.98937300  0.37186700  0.29978800  1
  Cl  Cl23  1  0.01062700  0.62813300  0.70021200  1
  O  O24  1  0.45634900  0.18851000  0.01402500  1
  O  O25  1  0.03799400  0.98853600  0.81083200  1
  O  O26  1  0.54365100  0.81149000  0.98597500  1
  O  O27  1  0.96200600  0.01146400  0.18916800  1
  O  O28  1  0.46868400  0.07538000  0.70450500  1
  O  O29  1  0.03424300  0.29991000  0.92588000  1
  O  O30  1  0.53131600  0.92462000  0.29549500  1
  O  O31  1  0.96575700  0.70009000  0.07412000  1
  O  O32  1  0.45773800  0.39179700  0.80817200  1
  O  O33  1  0.04704500  0.19126200  0.60891400  1
  O  O34  1  0.54226200  0.60820300  0.19182800  1
  O  O35  1  0.95295500  0.80873800  0.39108600  1
  O  O36  1  0.46800700  0.73267500  0.57580700  1
  O  O37  1  0.53199300  0.26732500  0.42419300  1
