# generated using pymatgen
data_Na2Th(MoO4)3
_symmetry_space_group_name_H-M   'P 1'
_cell_length_a   6.97183335
_cell_length_b   6.97183335
_cell_length_c   12.01438113
_cell_angle_alpha   80.25574186
_cell_angle_beta   80.25574186
_cell_angle_gamma   114.53857084
_symmetry_Int_Tables_number   1
_chemical_formula_structural   Na2Th(MoO4)3
_chemical_formula_sum   'Na4 Th2 Mo6 O24'
_cell_volume   504.53545027
_cell_formula_units_Z   2
loop_
 _symmetry_equiv_pos_site_id
 _symmetry_equiv_pos_as_xyz
  1  'x, y, z'
loop_
 _atom_site_type_symbol
 _atom_site_label
 _atom_site_symmetry_multiplicity
 _atom_site_fract_x
 _atom_site_fract_y
 _atom_site_fract_z
 _atom_site_occupancy
  Na  Na0  1  0.20936600  0.46070500  0.57820600  1
  Na  Na1  1  0.53929500  0.79063400  0.92179400  1
  Na  Na2  1  0.46070500  0.20936600  0.07820600  1
  Na  Na3  1  0.79063400  0.53929500  0.42179400  1
  Th  Th4  1  0.87733000  0.12267000  0.25000000  1
  Th  Th5  1  0.12267000  0.87733000  0.75000000  1
  Mo  Mo6  1  0.70708600  0.95814900  0.58647600  1
  Mo  Mo7  1  0.04185100  0.29291400  0.91352400  1
  Mo  Mo8  1  0.37366300  0.62633700  0.25000000  1
  Mo  Mo9  1  0.29291400  0.04185100  0.41352400  1
  Mo  Mo10  1  0.62633700  0.37366300  0.75000000  1
  Mo  Mo11  1  0.95814900  0.70708600  0.08647600  1
  O  O12  1  0.07198100  0.50253800  0.78825300  1
  O  O13  1  0.38455600  0.81172500  0.12547100  1
  O  O14  1  0.74530100  0.14452400  0.44809800  1
  O  O15  1  0.49746200  0.92801900  0.71174700  1
  O  O16  1  0.85547600  0.25469900  0.05190200  1
  O  O17  1  0.18827500  0.61544400  0.37452900  1
  O  O18  1  0.74111200  0.64635000  0.77924700  1
  O  O19  1  0.04601100  0.97122800  0.11945100  1
  O  O20  1  0.38209900  0.30197100  0.43987200  1
  O  O21  1  0.35365000  0.25888800  0.72075300  1
  O  O22  1  0.69802900  0.61790100  0.06012800  1
  O  O23  1  0.02877200  0.95398900  0.38054900  1
  O  O24  1  0.61544400  0.18827500  0.87452900  1
  O  O25  1  0.92801900  0.49746200  0.21174700  1
  O  O26  1  0.25469900  0.85547600  0.55190200  1
  O  O27  1  0.14452400  0.74530100  0.94809800  1
  O  O28  1  0.50253800  0.07198100  0.28825300  1
  O  O29  1  0.81172500  0.38455600  0.62547100  1
  O  O30  1  0.95398900  0.02877200  0.88054900  1
  O  O31  1  0.25888800  0.35365000  0.22075300  1
  O  O32  1  0.61790100  0.69802900  0.56012800  1
  O  O33  1  0.30197100  0.38209900  0.93987200  1
  O  O34  1  0.64635000  0.74111200  0.27924700  1
  O  O35  1  0.97122800  0.04601100  0.61945100  1
