# generated using pymatgen
data_Na3CaMgCr3(SiO3)8
_symmetry_space_group_name_H-M   'P 1'
_cell_length_a   8.88072000
_cell_length_b   5.33028000
_cell_length_c   9.63825095
_cell_angle_alpha   75.26814252
_cell_angle_beta   90.00000000
_cell_angle_gamma   90.00000000
_symmetry_Int_Tables_number   1
_chemical_formula_structural   Na3CaMgCr3(SiO3)8
_chemical_formula_sum   'Na3 Ca1 Mg1 Cr3 Si8 O24'
_cell_volume   441.24491967
_cell_formula_units_Z   1
loop_
 _symmetry_equiv_pos_site_id
 _symmetry_equiv_pos_as_xyz
  1  'x, y, z'
loop_
 _atom_site_type_symbol
 _atom_site_label
 _atom_site_symmetry_multiplicity
 _atom_site_fract_x
 _atom_site_fract_y
 _atom_site_fract_z
 _atom_site_occupancy
  Na  Na0  1  0.79776100  0.50000000  0.50000000  1
  Na  Na1  1  0.30320700  0.00000000  0.00000000  1
  Na  Na2  1  0.69683100  0.50000000  0.00000000  1
  Ca  Ca3  1  0.20226600  0.00000000  0.50000000  1
  Mg  Mg4  1  0.41177900  0.50000000  0.50000000  1
  Cr  Cr5  1  0.90334900  0.00000000  0.00000000  1
  Cr  Cr6  1  0.59325400  0.00000000  0.50000000  1
  Cr  Cr7  1  0.09547100  0.50000000  0.00000000  1
  Si  Si8  1  0.09045100  0.69056400  0.28871900  1
  Si  Si9  1  0.59198800  0.18932300  0.79044900  1
  Si  Si10  1  0.09045100  0.30943600  0.71128100  1
  Si  Si11  1  0.59198800  0.81067700  0.20955100  1
  Si  Si12  1  0.90597700  0.80832800  0.71034200  1
  Si  Si13  1  0.41052500  0.30840200  0.20762600  1
  Si  Si14  1  0.90597700  0.19167200  0.28965800  1
  Si  Si15  1  0.41052500  0.69159800  0.79237400  1
  O  O16  1  0.25153200  0.70189600  0.36075000  1
  O  O17  1  0.75654900  0.19500300  0.86092400  1
  O  O18  1  0.25153200  0.29810400  0.63925000  1
  O  O19  1  0.75654900  0.80499700  0.13907600  1
  O  O20  1  0.74345200  0.80261400  0.63948900  1
  O  O21  1  0.24382700  0.30538400  0.14063800  1
  O  O22  1  0.74345200  0.19738600  0.36051100  1
  O  O23  1  0.24382700  0.69461600  0.85936200  1
  O  O24  1  0.07774300  0.77347500  0.11258800  1
  O  O25  1  0.58442000  0.26653000  0.61533800  1
  O  O26  1  0.07774300  0.22652500  0.88741200  1
  O  O27  1  0.58442000  0.73347000  0.38466200  1
  O  O28  1  0.92049800  0.72598800  0.88632300  1
  O  O29  1  0.41718500  0.21693100  0.38406900  1
  O  O30  1  0.92049800  0.27401200  0.11367700  1
  O  O31  1  0.41718500  0.78306900  0.61593100  1
  O  O32  1  0.01331400  0.39888600  0.35127000  1
  O  O33  1  0.51191300  0.90209000  0.85394300  1
  O  O34  1  0.01331400  0.60111400  0.64873000  1
  O  O35  1  0.51191300  0.09791000  0.14605700  1
  O  O36  1  0.98944000  0.09451900  0.64857700  1
  O  O37  1  0.48922700  0.59678800  0.14974700  1
  O  O38  1  0.98944000  0.90548100  0.35142300  1
  O  O39  1  0.48922700  0.40321200  0.85025300  1
