# generated using pymatgen
data_Na2Nb2O7
_symmetry_space_group_name_H-M   'P 1'
_cell_length_a   5.03245700
_cell_length_b   8.86413207
_cell_length_c   15.91669263
_cell_angle_alpha   85.24594480
_cell_angle_beta   80.90410255
_cell_angle_gamma   106.49109129
_symmetry_Int_Tables_number   1
_chemical_formula_structural   Na2Nb2O7
_chemical_formula_sum   'Na8 Nb8 O28'
_cell_volume   666.10133587
_cell_formula_units_Z   4
loop_
 _symmetry_equiv_pos_site_id
 _symmetry_equiv_pos_as_xyz
  1  'x, y, z'
loop_
 _atom_site_type_symbol
 _atom_site_label
 _atom_site_symmetry_multiplicity
 _atom_site_fract_x
 _atom_site_fract_y
 _atom_site_fract_z
 _atom_site_occupancy
  Na  Na0  1  0.70132300  0.42842400  0.23879400  1
  Na  Na1  1  0.01026000  0.07071600  0.26443400  1
  Na  Na2  1  0.29602300  0.57071600  0.76443400  1
  Na  Na3  1  0.98830600  0.92842400  0.73879400  1
  Na  Na4  1  0.38096400  0.74879100  0.24948800  1
  Na  Na5  1  0.61833900  0.24879100  0.74948800  1
  Na  Na6  1  0.05405000  0.99939100  0.51019200  1
  Na  Na7  1  0.93514900  0.49939100  0.01019200  1
  Nb  Nb8  1  0.66507900  0.66126100  0.41568800  1
  Nb  Nb9  1  0.92390100  0.84290700  0.08409900  1
  Nb  Nb10  1  0.33490700  0.34290700  0.58409900  1
  Nb  Nb11  1  0.08049400  0.16126100  0.91568800  1
  Nb  Nb12  1  0.03421900  0.40041300  0.40618600  1
  Nb  Nb13  1  0.54204600  0.10060900  0.09391700  1
  Nb  Nb14  1  0.96464600  0.60060900  0.59391700  1
  Nb  Nb15  1  0.46000800  0.90041300  0.90618600  1
  O  O16  1  0.97262300  0.60830600  0.34958200  1
  O  O17  1  0.21663800  0.89433800  0.15103800  1
  O  O18  1  0.02666200  0.39433800  0.65103800  1
  O  O19  1  0.78610100  0.10830600  0.84958200  1
  O  O20  1  0.71049400  0.42450300  0.49605000  1
  O  O21  1  0.28075600  0.07725400  0.00492700  1
  O  O22  1  0.29157100  0.57725400  0.50492700  1
  O  O23  1  0.71795900  0.92450300  0.99605000  1
  O  O24  1  0.12906300  0.25970000  0.49233700  1
  O  O25  1  0.86287800  0.24227900  0.00743800  1
  O  O26  1  0.87196300  0.74227900  0.50743800  1
  O  O27  1  0.13829900  0.75969900  0.99233700  1
  O  O28  1  0.36130800  0.01035300  0.36863700  1
  O  O29  1  0.21945700  0.48949600  0.13363600  1
  O  O30  1  0.63640300  0.98949600  0.63363600  1
  O  O31  1  0.78040900  0.51035300  0.86863700  1
  O  O32  1  0.66322400  0.84744700  0.35621900  1
  O  O33  1  0.68316500  0.65101900  0.14028400  1
  O  O34  1  0.32757000  0.15101900  0.64028400  1
  O  O35  1  0.32800400  0.34744700  0.85621900  1
  O  O36  1  0.87896300  0.26517400  0.33560500  1
  O  O37  1  0.45672100  0.23985300  0.16262500  1
  O  O38  1  0.12050700  0.73985300  0.66262500  1
  O  O39  1  0.55060600  0.76517400  0.83560500  1
  O  O40  1  0.42055400  0.50237200  0.34845500  1
  O  O41  1  0.76774000  0.99889600  0.15246900  1
  O  O42  1  0.57868800  0.49889600  0.65246900  1
  O  O43  1  0.23336300  0.00237200  0.84845500  1
