# generated using pymatgen
data_Na2Zr(MoO5)2
_symmetry_space_group_name_H-M   'P 1'
_cell_length_a   3.51728331
_cell_length_b   5.07694000
_cell_length_c   10.44849396
_cell_angle_alpha   75.93923516
_cell_angle_beta   95.18063930
_cell_angle_gamma   90.00000000
_symmetry_Int_Tables_number   1
_chemical_formula_structural   Na2Zr(MoO5)2
_chemical_formula_sum   'Na2 Zr1 Mo2 O10'
_cell_volume   180.20314164
_cell_formula_units_Z   1
loop_
 _symmetry_equiv_pos_site_id
 _symmetry_equiv_pos_as_xyz
  1  'x, y, z'
loop_
 _atom_site_type_symbol
 _atom_site_label
 _atom_site_symmetry_multiplicity
 _atom_site_fract_x
 _atom_site_fract_y
 _atom_site_fract_z
 _atom_site_occupancy
  Na  Na0  1  0.07740800  0.81190200  0.37619500  1
  Na  Na1  1  0.92259200  0.18809800  0.62380500  1
  Zr  Zr2  1  0.00000000  0.00000000  0.00000000  1
  Mo  Mo3  1  0.58859200  0.41005100  0.17989900  1
  Mo  Mo4  1  0.41140800  0.58994900  0.82010100  1
  O  O5  1  0.04521800  0.64978700  0.17492200  1
  O  O6  1  0.95478200  0.82471000  0.82507800  1
  O  O7  1  0.95478200  0.35021300  0.82507800  1
  O  O8  1  0.04521800  0.17529000  0.17492200  1
  O  O9  1  0.50000000  0.74046600  0.00000000  1
  O  O10  1  0.50000000  0.25953400  0.00000000  1
  O  O11  1  0.58787500  0.46164400  0.36942200  1
  O  O12  1  0.41212500  0.83106600  0.63057800  1
  O  O13  1  0.41212500  0.53835600  0.63057800  1
  O  O14  1  0.58787500  0.16893400  0.36942200  1
