# generated using pymatgen
data_Na2TbO3
_symmetry_space_group_name_H-M   'P 1'
_cell_length_a   6.00980372
_cell_length_b   6.00980372
_cell_length_c   6.00980372
_cell_angle_alpha   146.68185549
_cell_angle_beta   134.12859137
_cell_angle_gamma   57.86577397
_symmetry_Int_Tables_number   1
_chemical_formula_structural   Na2TbO3
_chemical_formula_sum   'Na2 Tb1 O3'
_cell_volume   84.89097256
_cell_formula_units_Z   1
loop_
 _symmetry_equiv_pos_site_id
 _symmetry_equiv_pos_as_xyz
  1  'x, y, z'
loop_
 _atom_site_type_symbol
 _atom_site_label
 _atom_site_symmetry_multiplicity
 _atom_site_fract_x
 _atom_site_fract_y
 _atom_site_fract_z
 _atom_site_occupancy
  Na  Na0  1  0.67524900  0.67524900  0.00000000  1
  Na  Na1  1  0.32475100  0.32475100  0.00000000  1
  Tb  Tb2  1  0.00000000  0.00000000  0.00000000  1
  O  O3  1  0.50000000  0.00000000  0.50000000  1
  O  O4  1  0.14441200  0.64441200  0.50000000  1
  O  O5  1  0.85558800  0.35558800  0.50000000  1
