# generated using pymatgen
data_Na2UI6
_symmetry_space_group_name_H-M   'P 1'
_cell_length_a   8.62888628
_cell_length_b   8.62888628
_cell_length_c   8.62888710
_cell_angle_alpha   54.62568092
_cell_angle_beta   54.62568092
_cell_angle_gamma   54.62567850
_symmetry_Int_Tables_number   1
_chemical_formula_structural   Na2UI6
_chemical_formula_sum   'Na2 U1 I6'
_cell_volume   397.41295626
_cell_formula_units_Z   1
loop_
 _symmetry_equiv_pos_site_id
 _symmetry_equiv_pos_as_xyz
  1  'x, y, z'
loop_
 _atom_site_type_symbol
 _atom_site_label
 _atom_site_symmetry_multiplicity
 _atom_site_fract_x
 _atom_site_fract_y
 _atom_site_fract_z
 _atom_site_occupancy
  Na  Na0  1  0.49845500  0.49845500  0.49845500  1
  Na  Na1  1  0.68138300  0.68138300  0.68138300  1
  U  U2  1  0.99876100  0.99876100  0.99876100  1
  I  I3  1  0.09304700  0.76981800  0.38216700  1
  I  I4  1  0.38216700  0.09304700  0.76981800  1
  I  I5  1  0.76981800  0.38216700  0.09304700  1
  I  I6  1  0.90539900  0.23929500  0.61667500  1
  I  I7  1  0.61667500  0.90539900  0.23929500  1
  I  I8  1  0.23929500  0.61667500  0.90539900  1
