# generated using pymatgen
data_Na2LaCeTi4O12
_symmetry_space_group_name_H-M   'P 1'
_cell_length_a   5.48135287
_cell_length_b   5.48135287
_cell_length_c   9.52092910
_cell_angle_alpha   73.15876502
_cell_angle_beta   73.15876502
_cell_angle_gamma   60.22055709
_symmetry_Int_Tables_number   1
_chemical_formula_structural   Na2LaCeTi4O12
_chemical_formula_sum   'Na2 La1 Ce1 Ti4 O12'
_cell_volume   233.94407629
_cell_formula_units_Z   1
loop_
 _symmetry_equiv_pos_site_id
 _symmetry_equiv_pos_as_xyz
  1  'x, y, z'
loop_
 _atom_site_type_symbol
 _atom_site_label
 _atom_site_symmetry_multiplicity
 _atom_site_fract_x
 _atom_site_fract_y
 _atom_site_fract_z
 _atom_site_occupancy
  Na  Na0  1  0.37486300  0.12479800  0.75122800  1
  Na  Na1  1  0.87520200  0.62513700  0.24877200  1
  La  La2  1  0.62472600  0.37527400  0.00000000  1
  Ce  Ce3  1  0.12591600  0.87408400  0.50000000  1
  Ti  Ti4  1  0.25218100  0.99961900  0.12556100  1
  Ti  Ti5  1  0.75117000  0.50383100  0.62335300  1
  Ti  Ti6  1  0.00038100  0.74781900  0.87443900  1
  Ti  Ti7  1  0.49616900  0.24883000  0.37664700  1
  O  O8  1  0.43242300  0.06628300  0.25154400  1
  O  O9  1  0.93371700  0.56757700  0.74845600  1
  O  O10  1  0.59898800  0.90263000  0.97215800  1
  O  O11  1  0.09283300  0.40573600  0.46988000  1
  O  O12  1  0.09737000  0.40101200  0.02784200  1
  O  O13  1  0.59426400  0.90716700  0.53012000  1
  O  O14  1  0.90966200  0.09090000  0.28580100  1
  O  O15  1  0.40696100  0.59264100  0.78112100  1
  O  O16  1  0.40735900  0.59303900  0.21887900  1
  O  O17  1  0.90910000  0.09033800  0.71419900  1
  O  O18  1  0.06486800  0.93513200  0.00000000  1
  O  O19  1  0.55184700  0.44815300  0.50000000  1
