# generated using pymatgen
data_Na2Fe7(PO4)6
_symmetry_space_group_name_H-M   'P 1'
_cell_length_a   6.56557900
_cell_length_b   8.52478616
_cell_length_c   8.77107778
_cell_angle_alpha   92.87333061
_cell_angle_beta   107.35730176
_cell_angle_gamma   106.07950357
_symmetry_Int_Tables_number   1
_chemical_formula_structural   Na2Fe7(PO4)6
_chemical_formula_sum   'Na2 Fe7 P6 O24'
_cell_volume   445.49063186
_cell_formula_units_Z   1
loop_
 _symmetry_equiv_pos_site_id
 _symmetry_equiv_pos_as_xyz
  1  'x, y, z'
loop_
 _atom_site_type_symbol
 _atom_site_label
 _atom_site_symmetry_multiplicity
 _atom_site_fract_x
 _atom_site_fract_y
 _atom_site_fract_z
 _atom_site_occupancy
  Na  Na0  1  0.24878400  0.97978100  0.02172300  1
  Na  Na1  1  0.75121600  0.02021900  0.97827700  1
  Fe  Fe2  1  0.62992300  0.05876600  0.38477100  1
  Fe  Fe3  1  0.87136600  0.62000200  0.94323400  1
  Fe  Fe4  1  0.37007700  0.94123400  0.61522900  1
  Fe  Fe5  1  0.12863400  0.37999800  0.05676600  1
  Fe  Fe6  1  0.74839700  0.72853500  0.27233600  1
  Fe  Fe7  1  0.25160300  0.27146500  0.72766400  1
  Fe  Fe8  1  0.00000000  0.50000000  0.50000000  1
  P  P9  1  0.11603900  0.12858800  0.34100200  1
  P  P10  1  0.36889800  0.65875700  0.87201000  1
  P  P11  1  0.88396100  0.87141200  0.65899800  1
  P  P12  1  0.63110200  0.34124300  0.12799000  1
  P  P13  1  0.24603300  0.70235000  0.29221300  1
  P  P14  1  0.75396700  0.29765000  0.70778700  1
  O  O15  1  0.61228100  0.16588700  0.17363200  1
  O  O16  1  0.89299300  0.83075300  0.83140300  1
  O  O17  1  0.38771900  0.83411300  0.82636800  1
  O  O18  1  0.10700700  0.16924700  0.16859700  1
  O  O19  1  0.68831300  0.94853400  0.59835800  1
  O  O20  1  0.80762300  0.38953400  0.03957000  1
  O  O21  1  0.31168700  0.05146600  0.40164200  1
  O  O22  1  0.19237700  0.61046600  0.96043000  1
  O  O23  1  0.46102200  0.82096600  0.27116500  1
  O  O24  1  0.03560900  0.73960100  0.17756500  1
  O  O25  1  0.53897800  0.17903400  0.72883500  1
  O  O26  1  0.96439100  0.26039900  0.82243500  1
  O  O27  1  0.70971600  0.47358300  0.28006700  1
  O  O28  1  0.85166600  0.72440200  0.53615700  1
  O  O29  1  0.29028400  0.52641700  0.71993300  1
  O  O30  1  0.14833400  0.27559800  0.46384300  1
  O  O31  1  0.76714200  0.27502600  0.53382100  1
  O  O32  1  0.75428300  0.47533800  0.73691200  1
  O  O33  1  0.23285800  0.72497400  0.46617900  1
  O  O34  1  0.24571700  0.52466200  0.26308800  1
  O  O35  1  0.88920200  0.99096100  0.32174800  1
  O  O36  1  0.60082900  0.66705200  0.99408400  1
  O  O37  1  0.11079800  0.00903900  0.67825200  1
  O  O38  1  0.39917100  0.33294800  0.00591600  1
