# generated using pymatgen
data_MoPd3
_symmetry_space_group_name_H-M   'P 1'
_cell_length_a   9.27285598
_cell_length_b   9.27285598
_cell_length_c   9.27285657
_cell_angle_alpha   17.33635628
_cell_angle_beta   17.33635628
_cell_angle_gamma   17.33635961
_symmetry_Int_Tables_number   1
_chemical_formula_structural   MoPd3
_chemical_formula_sum   'Mo1 Pd3'
_cell_volume   61.77996817
_cell_formula_units_Z   1
loop_
 _symmetry_equiv_pos_site_id
 _symmetry_equiv_pos_as_xyz
  1  'x, y, z'
loop_
 _atom_site_type_symbol
 _atom_site_label
 _atom_site_symmetry_multiplicity
 _atom_site_fract_x
 _atom_site_fract_y
 _atom_site_fract_z
 _atom_site_occupancy
  Mo  Mo0  1  0.00000000  0.00000000  0.00000000  1
  Pd  Pd1  1  0.25209600  0.25209600  0.25209600  1
  Pd  Pd2  1  0.50000000  0.50000000  0.50000000  1
  Pd  Pd3  1  0.74790400  0.74790400  0.74790400  1
