# generated using pymatgen
data_Na2AlFe(SiO3)4
_symmetry_space_group_name_H-M   'P 1'
_cell_length_a   6.53199646
_cell_length_b   6.53199646
_cell_length_c   5.33493675
_cell_angle_alpha   76.91104289
_cell_angle_beta   76.91104289
_cell_angle_gamma   84.51247604
_symmetry_Int_Tables_number   1
_chemical_formula_structural   Na2AlFe(SiO3)4
_chemical_formula_sum   'Na2 Al1 Fe1 Si4 O12'
_cell_volume   215.71565624
_cell_formula_units_Z   1
loop_
 _symmetry_equiv_pos_site_id
 _symmetry_equiv_pos_as_xyz
  1  'x, y, z'
loop_
 _atom_site_type_symbol
 _atom_site_label
 _atom_site_symmetry_multiplicity
 _atom_site_fract_x
 _atom_site_fract_y
 _atom_site_fract_z
 _atom_site_occupancy
  Na  Na0  1  0.29888300  0.70111700  0.50000000  1
  Na  Na1  1  0.70146500  0.29853500  0.00000000  1
  Al  Al2  1  0.90115200  0.09884800  0.50000000  1
  Fe  Fe3  1  0.09788200  0.90211800  0.00000000  1
  Si  Si4  1  0.80091100  0.61543800  0.48449100  1
  Si  Si5  1  0.38456200  0.19908900  0.51550900  1
  Si  Si6  1  0.19944800  0.37813000  0.02101400  1
  Si  Si7  1  0.62187000  0.80055200  0.97898600  1
  O  O8  1  0.96084300  0.81304600  0.39450400  1
  O  O9  1  0.18695400  0.03915700  0.60549600  1
  O  O10  1  0.02944200  0.19015700  0.13071700  1
  O  O11  1  0.80984300  0.97055800  0.86928300  1
  O  O12  1  0.89548400  0.37691900  0.54752800  1
  O  O13  1  0.62308100  0.10451600  0.45247200  1
  O  O14  1  0.09967600  0.61453800  0.95123700  1
  O  O15  1  0.38546200  0.90032400  0.04876300  1
  O  O16  1  0.65797700  0.64262200  0.25840300  1
  O  O17  1  0.35737800  0.34202300  0.74159700  1
  O  O18  1  0.34843800  0.36075100  0.23776500  1
  O  O19  1  0.63924900  0.65156200  0.76223500  1
