# generated using pymatgen
data_Na3V2PO9
_symmetry_space_group_name_H-M   'P 1'
_cell_length_a   7.23043487
_cell_length_b   12.02692776
_cell_length_c   10.14652208
_cell_angle_alpha   100.29990601
_cell_angle_beta   78.94777316
_cell_angle_gamma   99.08227777
_symmetry_Int_Tables_number   1
_chemical_formula_structural   Na3V2PO9
_chemical_formula_sum   'Na12 V8 P4 O36'
_cell_volume   845.01524390
_cell_formula_units_Z   4
loop_
 _symmetry_equiv_pos_site_id
 _symmetry_equiv_pos_as_xyz
  1  'x, y, z'
loop_
 _atom_site_type_symbol
 _atom_site_label
 _atom_site_symmetry_multiplicity
 _atom_site_fract_x
 _atom_site_fract_y
 _atom_site_fract_z
 _atom_site_occupancy
  Na  Na0  1  0.71294600  0.50909300  0.77056400  1
  Na  Na1  1  0.72122300  0.84451100  0.43726500  1
  Na  Na2  1  0.71153000  0.17491600  0.10414000  1
  Na  Na3  1  0.28828500  0.82622000  0.89150300  1
  Na  Na4  1  0.28562200  0.15418900  0.55895200  1
  Na  Na5  1  0.28876600  0.49159500  0.22321000  1
  Na  Na6  1  0.09592200  0.72067300  0.19270300  1
  Na  Na7  1  0.09708600  0.04942300  0.84633600  1
  Na  Na8  1  0.09539900  0.38611600  0.52202600  1
  Na  Na9  1  0.90808600  0.61395300  0.47835000  1
  Na  Na10  1  0.90637300  0.94299000  0.14507100  1
  Na  Na11  1  0.90703400  0.27609900  0.81200700  1
  V  V12  1  0.19820400  0.21288700  0.17027400  1
  V  V13  1  0.19844800  0.54958500  0.83434000  1
  V  V14  1  0.37889200  0.98150900  0.21874700  1
  V  V15  1  0.38441100  0.31852400  0.87822300  1
  V  V16  1  0.37823700  0.65909900  0.54250900  1
  V  V17  1  0.79091400  0.12270900  0.50659800  1
  V  V18  1  0.79101700  0.45556400  0.17300100  1
  V  V19  1  0.79110700  0.78887100  0.83921800  1
  P  P20  1  0.61941200  0.01408700  0.78939000  1
  P  P21  1  0.61884800  0.34749600  0.45625000  1
  P  P22  1  0.61985700  0.68078200  0.12262600  1
  P  P23  1  0.19641000  0.88065700  0.50049100  1
  O  O24  1  0.41308700  0.68160600  0.18485800  1
  O  O25  1  0.41345900  0.01580600  0.85319600  1
  O  O26  1  0.41232900  0.34830700  0.51906500  1
  O  O27  1  0.10875000  0.64462700  0.96062100  1
  O  O28  1  0.13093300  0.97008200  0.61673100  1
  O  O29  1  0.10878900  0.31063400  0.29342000  1
  O  O30  1  0.60182700  0.65131200  0.46468300  1
  O  O31  1  0.60157900  0.97667500  0.13769700  1
  O  O32  1  0.60587400  0.31125300  0.79519900  1
  O  O33  1  0.87438000  0.69243000  0.71164000  1
  O  O34  1  0.87347800  0.02729500  0.37741200  1
  O  O35  1  0.87473700  0.35991400  0.04453300  1
  O  O36  1  0.76853400  0.75946100  0.19318500  1
  O  O37  1  0.76906700  0.09241500  0.85960200  1
  O  O38  1  0.76803000  0.42681200  0.52582200  1
  O  O39  1  0.02524600  0.46493400  0.76097700  1
  O  O40  1  0.04742300  0.80209000  0.42977000  1
  O  O41  1  0.02538000  0.13082700  0.09422800  1
  O  O42  1  0.22533700  0.56532400  0.46057300  1
  O  O43  1  0.22454100  0.89783300  0.12829400  1
  O  O44  1  0.22514100  0.23116100  0.79421200  1
  O  O45  1  0.97056600  0.86838900  0.90618400  1
  O  O46  1  0.97135900  0.20216500  0.57234300  1
  O  O47  1  0.97066000  0.53550400  0.23952200  1
  O  O48  1  0.64476500  0.70249500  0.96644000  1
  O  O49  1  0.64515800  0.03560400  0.63331500  1
  O  O50  1  0.64399100  0.36886800  0.29976500  1
  O  O51  1  0.34566000  0.46674900  0.89594900  1
  O  O52  1  0.33156600  0.80670900  0.54884400  1
  O  O53  1  0.34058400  0.12939900  0.23662000  1
  O  O54  1  0.36068400  0.63447700  0.71698000  1
  O  O55  1  0.34980300  0.94700300  0.39311500  1
  O  O56  1  0.36719100  0.29359700  0.05293300  1
  O  O57  1  0.65812200  0.88202300  0.77258800  1
  O  O58  1  0.65859100  0.21567200  0.43976400  1
  O  O59  1  0.65935000  0.54899900  0.10612700  1
