# generated using pymatgen
data_Na3Sc2(PO4)3
_symmetry_space_group_name_H-M   'P 1'
_cell_length_a   8.99336607
_cell_length_b   8.99336607
_cell_length_c   9.18382204
_cell_angle_alpha   61.65718875
_cell_angle_beta   61.65718875
_cell_angle_gamma   59.99730704
_symmetry_Int_Tables_number   1
_chemical_formula_structural   Na3Sc2(PO4)3
_chemical_formula_sum   'Na6 Sc4 P6 O24'
_cell_volume   537.99671587
_cell_formula_units_Z   2
loop_
 _symmetry_equiv_pos_site_id
 _symmetry_equiv_pos_as_xyz
  1  'x, y, z'
loop_
 _atom_site_type_symbol
 _atom_site_label
 _atom_site_symmetry_multiplicity
 _atom_site_fract_x
 _atom_site_fract_y
 _atom_site_fract_z
 _atom_site_occupancy
  Na  Na0  1  0.89333100  0.10713900  0.74964100  1
  Na  Na1  1  0.10713900  0.89333100  0.24964100  1
  Na  Na2  1  0.19878100  0.44073600  0.58807900  1
  Na  Na3  1  0.44073600  0.19878100  0.08807900  1
  Na  Na4  1  0.84083800  0.54158600  0.44214700  1
  Na  Na5  1  0.54158600  0.84083800  0.94214700  1
  Sc  Sc6  1  0.84746100  0.35459800  0.94675700  1
  Sc  Sc7  1  0.35459800  0.84746100  0.44675700  1
  Sc  Sc8  1  0.15167800  0.64977600  0.05159400  1
  Sc  Sc9  1  0.64977600  0.15167800  0.55159400  1
  P  P10  1  0.96907300  0.74896800  0.73857800  1
  P  P11  1  0.74896800  0.96907300  0.23857800  1
  P  P12  1  0.54594600  0.45502600  0.74806000  1
  P  P13  1  0.45502600  0.54594600  0.24806000  1
  P  P14  1  0.03175100  0.25189300  0.26121800  1
  P  P15  1  0.25189300  0.03175100  0.76121800  1
  O  O16  1  0.01553700  0.75026600  0.87954700  1
  O  O17  1  0.75026600  0.01553700  0.37954700  1
  O  O18  1  0.93932800  0.57284800  0.78974700  1
  O  O19  1  0.57284800  0.93932800  0.28974700  1
  O  O20  1  0.27353000  0.56671200  0.24550600  1
  O  O21  1  0.56671200  0.27353000  0.74550600  1
  O  O22  1  0.51596000  0.61102100  0.58002000  1
  O  O23  1  0.61102100  0.51596000  0.08002000  1
  O  O24  1  0.98192600  0.25274000  0.12130600  1
  O  O25  1  0.25274000  0.98192600  0.62130600  1
  O  O26  1  0.20748000  0.08375600  0.27964900  1
  O  O27  1  0.08375600  0.20748000  0.77964900  1
  O  O28  1  0.72774000  0.42844400  0.75562200  1
  O  O29  1  0.42844400  0.72774000  0.25562200  1
  O  O30  1  0.87663900  0.23894900  0.43777100  1
  O  O31  1  0.23894900  0.87663900  0.93777100  1
  O  O32  1  0.79241200  0.91466600  0.72011100  1
  O  O33  1  0.91466600  0.79241200  0.22011100  1
  O  O34  1  0.06949500  0.42388400  0.20805300  1
  O  O35  1  0.42388400  0.06949500  0.70805300  1
  O  O36  1  0.12563200  0.76303700  0.56306900  1
  O  O37  1  0.76303700  0.12563200  0.06306900  1
  O  O38  1  0.49452600  0.38749400  0.41162500  1
  O  O39  1  0.38749400  0.49452600  0.91162500  1
