# generated using pymatgen
data_Na2Zr(Si2O5)3
_symmetry_space_group_name_H-M   'P 1'
_cell_length_a   10.26020205
_cell_length_b   10.26020205
_cell_length_c   14.56812800
_cell_angle_alpha   90.00000000
_cell_angle_beta   90.00000000
_cell_angle_gamma   91.68244210
_symmetry_Int_Tables_number   1
_chemical_formula_structural   Na2Zr(Si2O5)3
_chemical_formula_sum   'Na8 Zr4 Si24 O60'
_cell_volume   1532.95113934
_cell_formula_units_Z   4
loop_
 _symmetry_equiv_pos_site_id
 _symmetry_equiv_pos_as_xyz
  1  'x, y, z'
loop_
 _atom_site_type_symbol
 _atom_site_label
 _atom_site_symmetry_multiplicity
 _atom_site_fract_x
 _atom_site_fract_y
 _atom_site_fract_z
 _atom_site_occupancy
  Na  Na0  1  0.98909200  0.51090800  0.75000000  1
  Na  Na1  1  0.51090800  0.98909200  0.25000000  1
  Na  Na2  1  0.01090800  0.48909200  0.25000000  1
  Na  Na3  1  0.48909200  0.01090800  0.75000000  1
  Na  Na4  1  0.24757200  0.75242800  0.48476000  1
  Na  Na5  1  0.75242800  0.24757200  0.51524000  1
  Na  Na6  1  0.25242800  0.74757200  0.98476000  1
  Na  Na7  1  0.74757200  0.25242800  0.01524000  1
  Zr  Zr8  1  0.00000000  0.50000000  0.50000000  1
  Zr  Zr9  1  0.50000000  0.00000000  0.50000000  1
  Zr  Zr10  1  0.00000000  0.50000000  0.00000000  1
  Zr  Zr11  1  0.50000000  0.00000000  0.00000000  1
  Si  Si12  1  0.99234300  0.22986100  0.66189000  1
  Si  Si13  1  0.22986100  0.99234300  0.33811000  1
  Si  Si14  1  0.72986100  0.49234300  0.16189000  1
  Si  Si15  1  0.49234300  0.72986100  0.83811000  1
  Si  Si16  1  0.00765700  0.77013900  0.33811000  1
  Si  Si17  1  0.77013900  0.00765700  0.66189000  1
  Si  Si18  1  0.27013900  0.50765700  0.83811000  1
  Si  Si19  1  0.50765700  0.27013900  0.16189000  1
  Si  Si20  1  0.70869400  0.50972400  0.37686300  1
  Si  Si21  1  0.50972400  0.70869400  0.62313700  1
  Si  Si22  1  0.00972400  0.20869400  0.87686300  1
  Si  Si23  1  0.20869400  0.00972400  0.12313700  1
  Si  Si24  1  0.29130600  0.49027600  0.62313700  1
  Si  Si25  1  0.49027600  0.29130600  0.37686300  1
  Si  Si26  1  0.99027600  0.79130600  0.12313700  1
  Si  Si27  1  0.79130600  0.99027600  0.87686300  1
  Si  Si28  1  0.81398900  0.71591400  0.64168800  1
  Si  Si29  1  0.71591400  0.81398900  0.35831200  1
  Si  Si30  1  0.21591400  0.31398900  0.14168800  1
  Si  Si31  1  0.31398900  0.21591400  0.85831200  1
  Si  Si32  1  0.18601100  0.28408600  0.35831200  1
  Si  Si33  1  0.28408600  0.18601100  0.64168800  1
  Si  Si34  1  0.78408600  0.68601100  0.85831200  1
  Si  Si35  1  0.68601100  0.78408600  0.14168800  1
  O  O36  1  0.66430800  0.68239400  0.60832800  1
  O  O37  1  0.68239400  0.66430800  0.39167200  1
  O  O38  1  0.18239400  0.16430800  0.10832800  1
  O  O39  1  0.16430800  0.18239400  0.89167200  1
  O  O40  1  0.33569200  0.31760600  0.39167200  1
  O  O41  1  0.31760600  0.33569200  0.60832800  1
  O  O42  1  0.81760600  0.83569200  0.89167200  1
  O  O43  1  0.83569200  0.81760600  0.10832800  1
  O  O44  1  0.99103300  0.26935000  0.77172600  1
  O  O45  1  0.26935000  0.99103300  0.22827400  1
  O  O46  1  0.76935000  0.49103300  0.27172600  1
  O  O47  1  0.49103300  0.76935000  0.72827400  1
  O  O48  1  0.00896700  0.73065000  0.22827400  1
  O  O49  1  0.73065000  0.00896700  0.77172600  1
  O  O50  1  0.23065000  0.50896700  0.72827400  1
  O  O51  1  0.50896700  0.23065000  0.27172600  1
  O  O52  1  0.82934600  0.67065400  0.75000000  1
  O  O53  1  0.67065400  0.82934600  0.25000000  1
  O  O54  1  0.17065400  0.32934600  0.25000000  1
  O  O55  1  0.32934600  0.17065400  0.75000000  1
  O  O56  1  0.92139800  0.63860200  0.58610900  1
  O  O57  1  0.63860200  0.92139800  0.41389100  1
  O  O58  1  0.13860200  0.42139800  0.08610900  1
  O  O59  1  0.42139800  0.13860200  0.91389100  1
  O  O60  1  0.07860200  0.36139800  0.41389100  1
  O  O61  1  0.36139800  0.07860200  0.58610900  1
  O  O62  1  0.86139800  0.57860200  0.91389100  1
  O  O63  1  0.57860200  0.86139800  0.08610900  1
  O  O64  1  0.56671200  0.43328800  0.38234400  1
  O  O65  1  0.43328800  0.56671200  0.61765600  1
  O  O66  1  0.93328800  0.06671200  0.88234400  1
  O  O67  1  0.06671200  0.93328800  0.11765600  1
  O  O68  1  0.03082000  0.63713200  0.39368400  1
  O  O69  1  0.63713200  0.03082000  0.60631600  1
  O  O70  1  0.13713200  0.53082000  0.89368400  1
  O  O71  1  0.53082000  0.13713200  0.10631600  1
  O  O72  1  0.96918000  0.36286800  0.60631600  1
  O  O73  1  0.36286800  0.96918000  0.39368400  1
  O  O74  1  0.86286800  0.46918000  0.10631600  1
  O  O75  1  0.46918000  0.86286800  0.89368400  1
  O  O76  1  0.87403900  0.84289700  0.36416300  1
  O  O77  1  0.84289700  0.87403900  0.63583800  1
  O  O78  1  0.34289700  0.37403900  0.86416200  1
  O  O79  1  0.37403900  0.34289700  0.13583700  1
  O  O80  1  0.12596100  0.15710300  0.63583800  1
  O  O81  1  0.15710300  0.12596100  0.36416300  1
  O  O82  1  0.65710300  0.62596100  0.13583700  1
  O  O83  1  0.62596100  0.65710300  0.86416200  1
  O  O84  1  0.13058900  0.86941100  0.36298500  1
  O  O85  1  0.86941100  0.13058900  0.63701500  1
  O  O86  1  0.36941100  0.63058900  0.86298500  1
  O  O87  1  0.63058900  0.36941100  0.13701500  1
  O  O88  1  0.81033500  0.44935000  0.44841400  1
  O  O89  1  0.44935000  0.81033500  0.55158600  1
  O  O90  1  0.94935000  0.31033500  0.94841400  1
  O  O91  1  0.31033500  0.94935000  0.05158600  1
  O  O92  1  0.18966500  0.55065000  0.55158600  1
  O  O93  1  0.55065000  0.18966500  0.44841400  1
  O  O94  1  0.05065000  0.68966500  0.05158600  1
  O  O95  1  0.68966500  0.05065000  0.94841400  1
