# generated using pymatgen
data_Na(NbSe2)2
_symmetry_space_group_name_H-M   'P 1'
_cell_length_a   3.54743043
_cell_length_b   3.54743043
_cell_length_c   15.24266900
_cell_angle_alpha   90.00000000
_cell_angle_beta   90.00000000
_cell_angle_gamma   120.00000811
_symmetry_Int_Tables_number   1
_chemical_formula_structural   Na(NbSe2)2
_chemical_formula_sum   'Na1 Nb2 Se4'
_cell_volume   166.11903149
_cell_formula_units_Z   1
loop_
 _symmetry_equiv_pos_site_id
 _symmetry_equiv_pos_as_xyz
  1  'x, y, z'
loop_
 _atom_site_type_symbol
 _atom_site_label
 _atom_site_symmetry_multiplicity
 _atom_site_fract_x
 _atom_site_fract_y
 _atom_site_fract_z
 _atom_site_occupancy
  Na  Na0  1  0.66666700  0.33333300  0.99950800  1
  Nb  Nb1  1  0.00000000  0.00000000  0.25106500  1
  Nb  Nb2  1  0.66666700  0.33333300  0.74880000  1
  Se  Se3  1  0.33333300  0.66666700  0.14068600  1
  Se  Se4  1  0.33333300  0.66666700  0.85912500  1
  Se  Se5  1  0.33333300  0.66666700  0.64122500  1
  Se  Se6  1  0.33333300  0.66666700  0.35869100  1
