# generated using pymatgen
data_Na2NbO4F5
_symmetry_space_group_name_H-M   'P 1'
_cell_length_a   6.12659652
_cell_length_b   6.12659652
_cell_length_c   10.73088900
_cell_angle_alpha   90.00000000
_cell_angle_beta   90.00000000
_cell_angle_gamma   106.14835881
_symmetry_Int_Tables_number   1
_chemical_formula_structural   Na2NbO4F5
_chemical_formula_sum   'Na4 Nb2 O8 F10'
_cell_volume   386.89388535
_cell_formula_units_Z   2
loop_
 _symmetry_equiv_pos_site_id
 _symmetry_equiv_pos_as_xyz
  1  'x, y, z'
loop_
 _atom_site_type_symbol
 _atom_site_label
 _atom_site_symmetry_multiplicity
 _atom_site_fract_x
 _atom_site_fract_y
 _atom_site_fract_z
 _atom_site_occupancy
  Na  Na0  1  0.60769400  0.35295700  0.85823600  1
  Na  Na1  1  0.35295700  0.60769400  0.14176400  1
  Na  Na2  1  0.10769400  0.85295700  0.64176400  1
  Na  Na3  1  0.85295700  0.10769400  0.35823600  1
  Nb  Nb4  1  0.51651200  0.51651100  0.50000000  1
  Nb  Nb5  1  0.01651200  0.01651200  0.00000000  1
  O  O6  1  0.96848700  0.49424100  0.74437000  1
  O  O7  1  0.49424100  0.96848700  0.25563000  1
  O  O8  1  0.46848700  0.99424100  0.75563000  1
  O  O9  1  0.99424100  0.46848700  0.24437000  1
  O  O10  1  0.25000500  0.25091800  0.56463300  1
  O  O11  1  0.25091800  0.25000500  0.43536700  1
  O  O12  1  0.75000500  0.75091800  0.93536700  1
  O  O13  1  0.75091800  0.75000500  0.06463300  1
  F  F14  1  0.57002900  0.55578000  0.68195300  1
  F  F15  1  0.55578000  0.57002900  0.31804700  1
  F  F16  1  0.07002900  0.05578000  0.81804700  1
  F  F17  1  0.05578000  0.07002900  0.18195300  1
  F  F18  1  0.71047600  0.31403400  0.49793800  1
  F  F19  1  0.31403400  0.71047600  0.50206200  1
  F  F20  1  0.21047600  0.81403400  0.00206200  1
  F  F21  1  0.81403400  0.21047600  0.99793800  1
  F  F22  1  0.78926900  0.78926900  0.50000000  1
  F  F23  1  0.28926900  0.28926900  0.00000000  1
