# generated using pymatgen
data_Na2PHO4
_symmetry_space_group_name_H-M   'P 1'
_cell_length_a   6.98350700
_cell_length_b   5.51356900
_cell_length_c   5.52268948
_cell_angle_alpha   63.60917330
_cell_angle_beta   90.00000000
_cell_angle_gamma   90.00000000
_symmetry_Int_Tables_number   1
_chemical_formula_structural   Na2PHO4
_chemical_formula_sum   'Na4 P2 H2 O8'
_cell_volume   190.48456803
_cell_formula_units_Z   2
loop_
 _symmetry_equiv_pos_site_id
 _symmetry_equiv_pos_as_xyz
  1  'x, y, z'
loop_
 _atom_site_type_symbol
 _atom_site_label
 _atom_site_symmetry_multiplicity
 _atom_site_fract_x
 _atom_site_fract_y
 _atom_site_fract_z
 _atom_site_occupancy
  Na  Na0  1  0.25136900  0.74970400  0.61990200  1
  Na  Na1  1  0.75136900  0.25029600  0.38009800  1
  Na  Na2  1  0.00807300  0.01331300  0.00579800  1
  Na  Na3  1  0.50807300  0.98668700  0.99420200  1
  P  P4  1  0.23770700  0.38803300  0.33354300  1
  P  P5  1  0.73770700  0.61196700  0.66645700  1
  H  H6  1  0.47530100  0.45549100  0.04132200  1
  H  H7  1  0.97530100  0.54450900  0.95867800  1
  O  O8  1  0.42787000  0.29783100  0.21707700  1
  O  O9  1  0.92787000  0.70216900  0.78292300  1
  O  O10  1  0.56255100  0.69777500  0.78324700  1
  O  O11  1  0.06255100  0.30222500  0.21675300  1
  O  O12  1  0.24851300  0.69692100  0.22124100  1
  O  O13  1  0.74851300  0.30307900  0.77875900  1
  O  O14  1  0.24981700  0.23337100  0.64067200  1
  O  O15  1  0.74981700  0.76662900  0.35932800  1
