# generated using pymatgen
data_MoWO6
_symmetry_space_group_name_H-M   'P 1'
_cell_length_a   3.93112371
_cell_length_b   3.93112371
_cell_length_c   7.55806201
_cell_angle_alpha   89.97706937
_cell_angle_beta   90.02293063
_cell_angle_gamma   89.97745769
_symmetry_Int_Tables_number   1
_chemical_formula_structural   MoWO6
_chemical_formula_sum   'Mo1 W1 O6'
_cell_volume   116.80024906
_cell_formula_units_Z   1
loop_
 _symmetry_equiv_pos_site_id
 _symmetry_equiv_pos_as_xyz
  1  'x, y, z'
loop_
 _atom_site_type_symbol
 _atom_site_label
 _atom_site_symmetry_multiplicity
 _atom_site_fract_x
 _atom_site_fract_y
 _atom_site_fract_z
 _atom_site_occupancy
  Mo  Mo0  1  0.92891000  0.07109000  0.74298300  1
  W  W1  1  0.05438500  0.94561500  0.24329500  1
  O  O2  1  0.02917100  0.47745500  0.24147300  1
  O  O3  1  0.52254500  0.97082900  0.24147300  1
  O  O4  1  0.97161600  0.51752800  0.74107700  1
  O  O5  1  0.48247200  0.02838400  0.74107700  1
  O  O6  1  0.00613800  0.99386200  0.49342200  1
  O  O7  1  0.00476400  0.99523600  0.98920100  1
