# generated using pymatgen
data_Na2In2Mo5O16
_symmetry_space_group_name_H-M   'P 1'
_cell_length_a   6.17964650
_cell_length_b   6.17964650
_cell_length_c   10.81577600
_cell_angle_alpha   90.00000000
_cell_angle_beta   90.00000000
_cell_angle_gamma   120.00000536
_symmetry_Int_Tables_number   1
_chemical_formula_structural   Na2In2Mo5O16
_chemical_formula_sum   'Na2 In2 Mo5 O16'
_cell_volume   357.69721389
_cell_formula_units_Z   1
loop_
 _symmetry_equiv_pos_site_id
 _symmetry_equiv_pos_as_xyz
  1  'x, y, z'
loop_
 _atom_site_type_symbol
 _atom_site_label
 _atom_site_symmetry_multiplicity
 _atom_site_fract_x
 _atom_site_fract_y
 _atom_site_fract_z
 _atom_site_occupancy
  Na  Na0  1  0.33333300  0.66666700  0.99849000  1
  Na  Na1  1  0.00000000  0.00000000  0.76527200  1
  In  In2  1  0.33333300  0.66666700  0.28701800  1
  In  In3  1  0.33333300  0.66666700  0.69498500  1
  Mo  Mo4  1  0.66666700  0.33333300  0.86406100  1
  Mo  Mo5  1  0.33400500  0.16700300  0.49115900  1
  Mo  Mo6  1  0.83299700  0.66599500  0.49115900  1
  Mo  Mo7  1  0.83299700  0.16700300  0.49115900  1
  Mo  Mo8  1  0.00000000  0.00000000  0.13257600  1
  O  O9  1  0.16711900  0.83288100  0.16745900  1
  O  O10  1  0.66576200  0.83288100  0.16745900  1
  O  O11  1  0.16711900  0.33423800  0.16745900  1
  O  O12  1  0.66666700  0.33333300  0.59573400  1
  O  O13  1  0.66666700  0.33333300  0.02374200  1
  O  O14  1  0.00000000  0.00000000  0.97027600  1
  O  O15  1  0.49917500  0.99835100  0.82383900  1
  O  O16  1  0.49917500  0.50082500  0.82383900  1
  O  O17  1  0.00164900  0.50082500  0.82383900  1
  O  O18  1  0.50497200  0.00994400  0.39716400  1
  O  O19  1  0.50497200  0.49502800  0.39716400  1
  O  O20  1  0.99005600  0.49502800  0.39716400  1
  O  O21  1  0.15453900  0.84546100  0.59806700  1
  O  O22  1  0.69092100  0.84546100  0.59806700  1
  O  O23  1  0.15453900  0.30907900  0.59806700  1
  O  O24  1  0.00000000  0.00000000  0.38702100  1
