# generated using pymatgen
data_Na3Ga3Si3O16
_symmetry_space_group_name_H-M   'P 1'
_cell_length_a   9.12454128
_cell_length_b   9.12454128
_cell_length_c   9.12454101
_cell_angle_alpha   90.76829213
_cell_angle_beta   90.76829213
_cell_angle_gamma   90.76829194
_symmetry_Int_Tables_number   1
_chemical_formula_structural   Na3Ga3Si3O16
_chemical_formula_sum   'Na6 Ga6 Si6 O32'
_cell_volume   759.47748210
_cell_formula_units_Z   2
loop_
 _symmetry_equiv_pos_site_id
 _symmetry_equiv_pos_as_xyz
  1  'x, y, z'
loop_
 _atom_site_type_symbol
 _atom_site_label
 _atom_site_symmetry_multiplicity
 _atom_site_fract_x
 _atom_site_fract_y
 _atom_site_fract_z
 _atom_site_occupancy
  Na  Na0  1  0.31697500  0.68420300  0.31236200  1
  Na  Na1  1  0.68420300  0.31236200  0.31697500  1
  Na  Na2  1  0.31236200  0.31697500  0.68420300  1
  Na  Na3  1  0.18420300  0.81697500  0.81236200  1
  Na  Na4  1  0.81236200  0.18420300  0.81697500  1
  Na  Na5  1  0.81697500  0.81236200  0.18420300  1
  Ga  Ga6  1  0.50475300  0.75274900  0.99219500  1
  Ga  Ga7  1  0.99219500  0.50475300  0.75274900  1
  Ga  Ga8  1  0.75274900  0.99219500  0.50475300  1
  Ga  Ga9  1  0.00475300  0.49219500  0.25274900  1
  Ga  Ga10  1  0.25274900  0.00475300  0.49219500  1
  Ga  Ga11  1  0.49219500  0.25274900  0.00475300  1
  Si  Si12  1  0.00184500  0.74995300  0.50196600  1
  Si  Si13  1  0.50196600  0.00184500  0.74995300  1
  Si  Si14  1  0.74995300  0.50196600  0.00184500  1
  Si  Si15  1  0.50184500  0.00196600  0.24995300  1
  Si  Si16  1  0.24995300  0.50184500  0.00196600  1
  Si  Si17  1  0.00196600  0.24995300  0.50184500  1
  O  O18  1  0.65947600  0.64107800  0.93839600  1
  O  O19  1  0.93839600  0.65947600  0.64107800  1
  O  O20  1  0.64107800  0.93839600  0.65947600  1
  O  O21  1  0.35501300  0.63708800  0.06569800  1
  O  O22  1  0.07085100  0.64770900  0.37086000  1
  O  O23  1  0.36808900  0.92902900  0.34564700  1
  O  O24  1  0.64770900  0.37086000  0.07085100  1
  O  O25  1  0.92902900  0.34564700  0.36808900  1
  O  O26  1  0.63708800  0.06569800  0.35501300  1
  O  O27  1  0.34564700  0.36808900  0.92902900  1
  O  O28  1  0.06569800  0.35501300  0.63708800  1
  O  O29  1  0.37086000  0.07085100  0.64770900  1
  O  O30  1  0.14770900  0.57085100  0.87086000  1
  O  O31  1  0.42902900  0.86808900  0.84564700  1
  O  O32  1  0.13708800  0.85501300  0.56569800  1
  O  O33  1  0.84564700  0.42902900  0.86808900  1
  O  O34  1  0.56569800  0.13708800  0.85501300  1
  O  O35  1  0.87086000  0.14770900  0.57085100  1
  O  O36  1  0.15947600  0.43839600  0.14107800  1
  O  O37  1  0.43839600  0.14107800  0.15947600  1
  O  O38  1  0.14107800  0.15947600  0.43839600  1
  O  O39  1  0.85501300  0.56569800  0.13708800  1
  O  O40  1  0.57085100  0.87086000  0.14770900  1
  O  O41  1  0.86808900  0.84564700  0.42902900  1
  O  O42  1  0.00637300  0.00637300  0.00637300  1
  O  O43  1  0.06380300  0.88108200  0.05680700  1
  O  O44  1  0.88108200  0.05680700  0.06380300  1
  O  O45  1  0.05680700  0.06380300  0.88108200  1
  O  O46  1  0.38108200  0.56380300  0.55680700  1
  O  O47  1  0.55680700  0.38108200  0.56380300  1
  O  O48  1  0.50637300  0.50637300  0.50637300  1
  O  O49  1  0.56380300  0.55680700  0.38108200  1
