# generated using pymatgen
data_Na16Al12Si12I3ClO48
_symmetry_space_group_name_H-M   'P 1'
_cell_length_a   9.08175200
_cell_length_b   9.08179000
_cell_length_c   18.16343100
_cell_angle_alpha   90.00000000
_cell_angle_beta   90.00000000
_cell_angle_gamma   90.00000000
_symmetry_Int_Tables_number   1
_chemical_formula_structural   Na16Al12Si12I3ClO48
_chemical_formula_sum   'Na16 Al12 Si12 I3 Cl1 O48'
_cell_volume   1498.09371520
_cell_formula_units_Z   1
loop_
 _symmetry_equiv_pos_site_id
 _symmetry_equiv_pos_as_xyz
  1  'x, y, z'
loop_
 _atom_site_type_symbol
 _atom_site_label
 _atom_site_symmetry_multiplicity
 _atom_site_fract_x
 _atom_site_fract_y
 _atom_site_fract_z
 _atom_site_occupancy
  Na  Na0  1  0.30409700  0.69590300  0.15205200  1
  Na  Na1  1  0.30411200  0.69588800  0.65205400  1
  Na  Na2  1  0.69590300  0.30409700  0.15205200  1
  Na  Na3  1  0.69588800  0.30411200  0.65205400  1
  Na  Na4  1  0.30411200  0.30411200  0.34794600  1
  Na  Na5  1  0.30409700  0.30409700  0.84794800  1
  Na  Na6  1  0.69588800  0.69588800  0.34794600  1
  Na  Na7  1  0.69590300  0.69590300  0.84794800  1
  Na  Na8  1  0.80406300  0.80406200  0.09797100  1
  Na  Na9  1  0.80926500  0.80925800  0.59537800  1
  Na  Na10  1  0.19073500  0.80925800  0.40462200  1
  Na  Na11  1  0.19593700  0.80406200  0.90202900  1
  Na  Na12  1  0.80926500  0.19074200  0.40462200  1
  Na  Na13  1  0.80406300  0.19593800  0.90202900  1
  Na  Na14  1  0.19593700  0.19593800  0.09797100  1
  Na  Na15  1  0.19073500  0.19074200  0.59537800  1
  Al  Al16  1  0.50000000  0.00000000  0.12501700  1
  Al  Al17  1  0.50000000  0.00000000  0.62502100  1
  Al  Al18  1  0.00005000  0.74995400  0.25002700  1
  Al  Al19  1  0.99995000  0.74995400  0.74997300  1
  Al  Al20  1  0.25000300  0.50000000  0.00000000  1
  Al  Al21  1  0.25007300  0.50000000  0.50000000  1
  Al  Al22  1  0.99995000  0.25004600  0.25002700  1
  Al  Al23  1  0.00005000  0.25004600  0.74997300  1
  Al  Al24  1  0.74999700  0.50000000  0.00000000  1
  Al  Al25  1  0.74992700  0.50000000  0.50000000  1
  Al  Al26  1  0.50000000  0.00000000  0.37497900  1
  Al  Al27  1  0.50000000  0.00000000  0.87498300  1
  Si  Si28  1  0.00000000  0.50000000  0.12499500  1
  Si  Si29  1  0.00000000  0.50000000  0.62491400  1
  Si  Si30  1  0.50000000  0.74998800  0.00000000  1
  Si  Si31  1  0.50000000  0.75014900  0.50000000  1
  Si  Si32  1  0.24993100  0.99987400  0.25007500  1
  Si  Si33  1  0.24993100  0.00012600  0.74992500  1
  Si  Si34  1  0.50000000  0.25001200  0.00000000  1
  Si  Si35  1  0.50000000  0.24985100  0.50000000  1
  Si  Si36  1  0.75006900  0.00012600  0.25007500  1
  Si  Si37  1  0.75006900  0.99987400  0.74992500  1
  Si  Si38  1  0.00000000  0.50000000  0.37508600  1
  Si  Si39  1  0.00000000  0.50000000  0.87500500  1
  I  I40  1  0.50000000  0.50000000  0.24997600  1
  I  I41  1  0.50000000  0.50000000  0.75002400  1
  I  I42  1  0.00000000  0.00000000  0.00000000  1
  Cl  Cl43  1  0.00000000  0.00000000  0.50000000  1
  O  O44  1  0.34881400  0.94748200  0.17915800  1
  O  O45  1  0.34865700  0.94743500  0.67911500  1
  O  O46  1  0.05249700  0.64166800  0.17439500  1
  O  O47  1  0.05259000  0.64179300  0.67434400  1
  O  O48  1  0.35831600  0.65120700  0.02624600  1
  O  O49  1  0.35822700  0.65131700  0.52629800  1
  O  O50  1  0.65118600  0.05251800  0.17915800  1
  O  O51  1  0.65134300  0.05256500  0.67911500  1
  O  O52  1  0.94750300  0.35833200  0.17439500  1
  O  O53  1  0.94741000  0.35820700  0.67434400  1
  O  O54  1  0.64168400  0.34879300  0.02624600  1
  O  O55  1  0.64177300  0.34868300  0.52629800  1
  O  O56  1  0.34865700  0.05256500  0.32088500  1
  O  O57  1  0.34881400  0.05251800  0.82084200  1
  O  O58  1  0.05259000  0.35820700  0.32565600  1
  O  O59  1  0.05249700  0.35833200  0.82560500  1
  O  O60  1  0.35822700  0.34868300  0.47370200  1
  O  O61  1  0.35831600  0.34879300  0.97375400  1
  O  O62  1  0.65134300  0.94743500  0.32088500  1
  O  O63  1  0.65118600  0.94748200  0.82084200  1
  O  O64  1  0.94741000  0.64179300  0.32565600  1
  O  O65  1  0.94750300  0.64166800  0.82560500  1
  O  O66  1  0.64177300  0.65131700  0.47370200  1
  O  O67  1  0.64168400  0.65120700  0.97375400  1
  O  O68  1  0.84883500  0.85830000  0.22376700  1
  O  O69  1  0.84893000  0.85847700  0.72354100  1
  O  O70  1  0.55249500  0.84881400  0.07084300  1
  O  O71  1  0.55289600  0.84895300  0.57077000  1
  O  O72  1  0.85830400  0.55250100  0.07558900  1
  O  O73  1  0.85846100  0.55289000  0.57552400  1
  O  O74  1  0.15107000  0.85847700  0.27645900  1
  O  O75  1  0.15116500  0.85830000  0.77623300  1
  O  O76  1  0.44710400  0.84895300  0.42923000  1
  O  O77  1  0.44750500  0.84881400  0.92915700  1
  O  O78  1  0.14153900  0.55289000  0.42447600  1
  O  O79  1  0.14169600  0.55250100  0.92441100  1
  O  O80  1  0.84893000  0.14152300  0.27645900  1
  O  O81  1  0.84883500  0.14170000  0.77623300  1
  O  O82  1  0.55289600  0.15104700  0.42923000  1
  O  O83  1  0.55249500  0.15118600  0.92915700  1
  O  O84  1  0.85846100  0.44711000  0.42447600  1
  O  O85  1  0.85830400  0.44749900  0.92441100  1
  O  O86  1  0.15116500  0.14170000  0.22376700  1
  O  O87  1  0.15107000  0.14152300  0.72354100  1
  O  O88  1  0.44750500  0.15118600  0.07084300  1
  O  O89  1  0.44710400  0.15104700  0.57077000  1
  O  O90  1  0.14169600  0.44749900  0.07558900  1
  O  O91  1  0.14153900  0.44711000  0.57552400  1
