# generated using pymatgen
data_Na2Cd2Fe(PO4)3
_symmetry_space_group_name_H-M   'P 1'
_cell_length_a   8.97639775
_cell_length_b   8.97639775
_cell_length_c   6.70029315
_cell_angle_alpha   72.96610006
_cell_angle_beta   72.96610006
_cell_angle_gamma   92.15005666
_symmetry_Int_Tables_number   1
_chemical_formula_structural   Na2Cd2Fe(PO4)3
_chemical_formula_sum   'Na4 Cd4 Fe2 P6 O24'
_cell_volume   489.04062784
_cell_formula_units_Z   2
loop_
 _symmetry_equiv_pos_site_id
 _symmetry_equiv_pos_as_xyz
  1  'x, y, z'
loop_
 _atom_site_type_symbol
 _atom_site_label
 _atom_site_symmetry_multiplicity
 _atom_site_fract_x
 _atom_site_fract_y
 _atom_site_fract_z
 _atom_site_occupancy
  Na  Na0  1  0.02802400  0.97197600  0.00000000  1
  Na  Na1  1  0.98014700  0.01985300  0.50000000  1
  Na  Na2  1  0.50155900  0.50060000  0.24649100  1
  Na  Na3  1  0.49940000  0.49844100  0.75350900  1
  Cd  Cd4  1  0.92299100  0.62514200  0.39860000  1
  Cd  Cd5  1  0.37485800  0.07700900  0.60140000  1
  Cd  Cd6  1  0.27392400  0.72607600  0.50000000  1
  Cd  Cd7  1  0.72844100  0.27155900  0.00000000  1
  Fe  Fe8  1  0.06787300  0.38486600  0.11172300  1
  Fe  Fe9  1  0.61513400  0.93212700  0.88827700  1
  P  P10  1  0.28743500  0.71256500  0.00000000  1
  P  P11  1  0.72307100  0.27692900  0.50000000  1
  P  P12  1  0.65826600  0.87514100  0.37472600  1
  P  P13  1  0.12485900  0.34173400  0.62527400  1
  P  P14  1  0.34196900  0.13313800  0.11716700  1
  P  P15  1  0.86686200  0.65803100  0.88283300  1
  O  O16  1  0.26166300  0.53777300  0.00466700  1
  O  O17  1  0.46222700  0.73833700  0.99533300  1
  O  O18  1  0.73269000  0.42961200  0.55761500  1
  O  O19  1  0.57038800  0.26731000  0.44238500  1
  O  O20  1  0.18116200  0.74544500  0.20605500  1
  O  O21  1  0.25455500  0.81883800  0.79394500  1
  O  O22  1  0.85438600  0.26221000  0.29223400  1
  O  O23  1  0.73779000  0.14561400  0.70776600  1
  O  O24  1  0.83491300  0.85846200  0.33511800  1
  O  O25  1  0.14153800  0.16508700  0.66488200  1
  O  O26  1  0.17891700  0.19013100  0.10961000  1
  O  O27  1  0.80986900  0.82108300  0.89039000  1
  O  O28  1  0.55057000  0.71967300  0.42888100  1
  O  O29  1  0.28032700  0.44943000  0.57111900  1
  O  O30  1  0.45990500  0.27570700  0.08105900  1
  O  O31  1  0.72429300  0.54009500  0.91894100  1
  O  O32  1  0.60470000  0.94479600  0.56758900  1
  O  O33  1  0.05520400  0.39530000  0.43241100  1
  O  O34  1  0.40947900  0.05421000  0.93568300  1
  O  O35  1  0.94579000  0.59052100  0.06431700  1
  O  O36  1  0.64713300  0.99405100  0.15327000  1
  O  O37  1  0.00594900  0.35286700  0.84673000  1
  O  O38  1  0.30570700  0.00396300  0.34430400  1
  O  O39  1  0.99603700  0.69429300  0.65569600  1
