# generated using pymatgen
data_Na3Mg5Si8(HO8)3
_symmetry_space_group_name_H-M   'P 1'
_cell_length_a   5.34768900
_cell_length_b   10.05929991
_cell_length_c   27.84128493
_cell_angle_alpha   100.10593686
_cell_angle_beta   87.97989764
_cell_angle_gamma   102.73365092
_symmetry_Int_Tables_number   1
_chemical_formula_structural   Na3Mg5Si8(HO8)3
_chemical_formula_sum   'Na9 Mg15 Si24 H9 O72'
_cell_volume   1438.18450527
_cell_formula_units_Z   3
loop_
 _symmetry_equiv_pos_site_id
 _symmetry_equiv_pos_as_xyz
  1  'x, y, z'
loop_
 _atom_site_type_symbol
 _atom_site_label
 _atom_site_symmetry_multiplicity
 _atom_site_fract_x
 _atom_site_fract_y
 _atom_site_fract_z
 _atom_site_occupancy
  Na  Na0  1  0.54330800  0.27688700  0.48221400  1
  Na  Na1  1  0.45436300  0.73060800  0.51686900  1
  Na  Na2  1  0.47594600  0.88125700  0.81768500  1
  Na  Na3  1  0.52410100  0.11882600  0.18229400  1
  Na  Na4  1  0.96348800  0.81288100  0.66757300  1
  Na  Na5  1  0.03744500  0.18847600  0.33175500  1
  Na  Na6  1  0.54636700  0.45497200  0.85240400  1
  Na  Na7  1  0.45354000  0.54495500  0.14757100  1
  Na  Na8  1  0.99999700  0.49997300  0.99996300  1
  Mg  Mg9  1  0.52184900  0.35469800  0.72593700  1
  Mg  Mg10  1  0.47797200  0.64531400  0.27415900  1
  Mg  Mg11  1  0.49182500  0.96013300  0.94037400  1
  Mg  Mg12  1  0.50815700  0.03985800  0.05964300  1
  Mg  Mg13  1  0.02155300  0.32828900  0.66670300  1
  Mg  Mg14  1  0.97747100  0.67138900  0.33385600  1
  Mg  Mg15  1  0.03545600  0.39336400  0.78568100  1
  Mg  Mg16  1  0.96452800  0.60671000  0.21442000  1
  Mg  Mg17  1  0.52220900  0.29882100  0.60704200  1
  Mg  Mg18  1  0.47583000  0.69787900  0.39311300  1
  Mg  Mg19  1  0.99999800  0.99998900  0.99999000  1
  Mg  Mg20  1  0.03639800  0.28332700  0.54802900  1
  Mg  Mg21  1  0.98172000  0.72664500  0.45596300  1
  Mg  Mg22  1  0.99510700  0.92693300  0.87767900  1
  Mg  Mg23  1  0.00492300  0.07307600  0.12234700  1
  Si  Si24  1  0.70826000  0.69275100  0.94717100  1
  Si  Si25  1  0.29171100  0.30723200  0.05284100  1
  Si  Si26  1  0.30982500  0.57932600  0.61201100  1
  Si  Si27  1  0.69080300  0.42146500  0.38805500  1
  Si  Si28  1  0.76719600  0.99953100  0.44368100  1
  Si  Si29  1  0.22264800  0.98918100  0.55180400  1
  Si  Si30  1  0.78014100  0.21158300  0.88701500  1
  Si  Si31  1  0.21984600  0.78841000  0.11299900  1
  Si  Si32  1  0.73452500  0.07755600  0.72163700  1
  Si  Si33  1  0.26491100  0.92270200  0.27878000  1
  Si  Si34  1  0.27699700  0.24003800  0.94017900  1
  Si  Si35  1  0.72298800  0.75996100  0.05983500  1
  Si  Si36  1  0.19664700  0.64871800  0.89003400  1
  Si  Si37  1  0.80333300  0.35126200  0.10996400  1
  Si  Si38  1  0.81205500  0.66585500  0.78059500  1
  Si  Si39  1  0.18794900  0.33413700  0.21940900  1
  Si  Si40  1  0.73737600  0.02579600  0.60925400  1
  Si  Si41  1  0.26149400  0.97350500  0.39120500  1
  Si  Si42  1  0.81452100  0.56245100  0.55525800  1
  Si  Si43  1  0.18352400  0.43632300  0.44460500  1
  Si  Si44  1  0.22138000  0.09280400  0.77905100  1
  Si  Si45  1  0.77844900  0.90747300  0.22116500  1
  Si  Si46  1  0.30643600  0.63088400  0.72410600  1
  Si  Si47  1  0.69357600  0.36915300  0.27599500  1
  H  H48  1  0.74330700  0.19743900  0.99530000  1
  H  H49  1  0.25668200  0.80254400  0.00468700  1
  H  H50  1  0.75294300  0.52609600  0.66512900  1
  H  H51  1  0.24714500  0.47365900  0.33480600  1
  H  H52  1  0.26508000  0.12367900  0.66525200  1
  H  H53  1  0.73473800  0.87638200  0.33391200  1
  H  H54  1  0.63449600  0.07033900  0.51696800  1
  H  H55  1  0.62561000  0.22000000  0.81393800  1
  H  H56  1  0.37433200  0.77995200  0.18607800  1
  O  O57  1  0.60383900  0.70115800  0.74183400  1
  O  O58  1  0.39610700  0.29881600  0.25819200  1
  O  O59  1  0.96670500  0.94864500  0.58692400  1
  O  O60  1  0.03610800  0.05399100  0.41521800  1
  O  O61  1  0.46035200  0.02805000  0.74838300  1
  O  O62  1  0.53961900  0.97228600  0.25210600  1
  O  O63  1  0.80929900  0.24364300  0.72419400  1
  O  O64  1  0.19065600  0.75655600  0.27596600  1
  O  O65  1  0.53931400  0.05044200  0.41726500  1
  O  O66  1  0.46469600  0.95182500  0.58130100  1
  O  O67  1  0.60950400  0.63278700  0.59556600  1
  O  O68  1  0.39127500  0.36619400  0.40480900  1
  O  O69  1  0.29742600  0.15591300  0.55175100  1
  O  O70  1  0.70368900  0.83808000  0.44617400  1
  O  O71  1  0.79017300  0.10337000  0.49871900  1
  O  O72  1  0.19922500  0.88896700  0.50023700  1
  O  O73  1  0.31223400  0.22287300  0.66613000  1
  O  O74  1  0.68758300  0.77773000  0.33412700  1
  O  O75  1  0.71482700  0.04823700  0.88599500  1
  O  O76  1  0.28515300  0.95173400  0.11398200  1
  O  O77  1  0.26368000  0.81389100  0.88946100  1
  O  O78  1  0.73629700  0.18607300  0.11049800  1
  O  O79  1  0.20035800  0.04060000  0.83027100  1
  O  O80  1  0.79950500  0.95955300  0.16992000  1
  O  O81  1  0.28420200  0.66301500  0.66815700  1
  O  O82  1  0.71553100  0.33667500  0.33189100  1
  O  O83  1  0.72696000  0.42865400  0.66681100  1
  O  O84  1  0.27311600  0.57101600  0.33305900  1
  O  O85  1  0.10096000  0.71310800  0.75457300  1
  O  O86  1  0.89903000  0.28689600  0.24546000  1
  O  O87  1  0.70659300  0.10070500  0.99762200  1
  O  O88  1  0.29340500  0.89926300  0.00234200  1
  O  O89  1  0.81098200  0.19018200  0.60794500  1
  O  O90  1  0.19034300  0.80956900  0.39116000  1
  O  O91  1  0.89236400  0.36460700  0.41862900  1
  O  O92  1  0.10606400  0.63379800  0.58129600  1
  O  O93  1  0.23768200  0.41303000  0.60953400  1
  O  O94  1  0.76360500  0.58695800  0.39034200  1
  O  O95  1  0.56352500  0.29121600  0.91692400  1
  O  O96  1  0.43641800  0.70878500  0.08306600  1
  O  O97  1  0.20888000  0.07626900  0.94093700  1
  O  O98  1  0.79113400  0.92370700  0.05904300  1
  O  O99  1  0.79406000  0.76379500  0.83173300  1
  O  O100  1  0.20587500  0.23620300  0.16827200  1
  O  O101  1  0.96275600  0.01988100  0.74391200  1
  O  O102  1  0.03709800  0.98036000  0.25631500  1
  O  O103  1  0.19891800  0.38033700  0.49441000  1
  O  O104  1  0.79347800  0.61502700  0.50506000  1
  O  O105  1  0.74603700  0.49891200  0.77850100  1
  O  O106  1  0.25396600  0.50108100  0.22143700  1
  O  O107  1  0.19293200  0.54079800  0.84048100  1
  O  O108  1  0.80703500  0.45926600  0.15950600  1
  O  O109  1  0.74934100  0.39663300  0.55576400  1
  O  O110  1  0.25045100  0.60149600  0.44430300  1
  O  O111  1  0.05991200  0.29261000  0.91182100  1
  O  O112  1  0.94013700  0.70738800  0.08816800  1
  O  O113  1  0.91667100  0.60535200  0.92007700  1
  O  O114  1  0.08325700  0.39462500  0.07990700  1
  O  O115  1  0.78745100  0.26102400  0.83205700  1
  O  O116  1  0.21256600  0.73896100  0.16794200  1
  O  O117  1  0.29768800  0.26042300  0.78063500  1
  O  O118  1  0.70225100  0.73978900  0.21944800  1
  O  O119  1  0.78291700  0.85527400  0.94398100  1
  O  O120  1  0.21703700  0.14468400  0.05598600  1
  O  O121  1  0.70867800  0.99072000  0.66522500  1
  O  O122  1  0.28664100  0.01010200  0.33532500  1
  O  O123  1  0.41623700  0.61733500  0.92732500  1
  O  O124  1  0.58379200  0.38262800  0.07265000  1
  O  O125  1  0.71882500  0.66613100  0.00451500  1
  O  O126  1  0.28115200  0.33387100  0.99549000  1
  O  O127  1  0.23560800  0.46592100  0.72495900  1
  O  O128  1  0.76433300  0.53405700  0.27500100  1
