# generated using pymatgen
data_MnZn3(FeO2)8
_symmetry_space_group_name_H-M   'P 1'
_cell_length_a   6.07922500
_cell_length_b   6.07922500
_cell_length_c   8.59727100
_cell_angle_alpha   90.00000000
_cell_angle_beta   90.00000000
_cell_angle_gamma   90.00000000
_symmetry_Int_Tables_number   1
_chemical_formula_structural   MnZn3(FeO2)8
_chemical_formula_sum   'Mn1 Zn3 Fe8 O16'
_cell_volume   317.72914318
_cell_formula_units_Z   1
loop_
 _symmetry_equiv_pos_site_id
 _symmetry_equiv_pos_as_xyz
  1  'x, y, z'
loop_
 _atom_site_type_symbol
 _atom_site_label
 _atom_site_symmetry_multiplicity
 _atom_site_fract_x
 _atom_site_fract_y
 _atom_site_fract_z
 _atom_site_occupancy
  Mn  Mn0  1  0.50000000  0.50000000  0.00000000  1
  Zn  Zn1  1  0.00000000  0.00000000  0.50000000  1
  Zn  Zn2  1  0.50000000  0.00000000  0.74958900  1
  Zn  Zn3  1  0.00000000  0.50000000  0.25041100  1
  Fe  Fe4  1  0.50000000  0.75082800  0.37576000  1
  Fe  Fe5  1  0.00000000  0.24957800  0.87401800  1
  Fe  Fe6  1  0.24957800  0.00000000  0.12598200  1
  Fe  Fe7  1  0.75082800  0.50000000  0.62424000  1
  Fe  Fe8  1  0.75042200  0.00000000  0.12598200  1
  Fe  Fe9  1  0.24917200  0.50000000  0.62424000  1
  Fe  Fe10  1  0.50000000  0.24917200  0.37576000  1
  Fe  Fe11  1  0.00000000  0.75042200  0.87401800  1
  O  O12  1  0.50000000  0.27102400  0.61492200  1
  O  O13  1  0.00000000  0.77022300  0.11442700  1
  O  O14  1  0.27102400  0.50000000  0.38507800  1
  O  O15  1  0.77022300  0.00000000  0.88557300  1
  O  O16  1  0.72897600  0.50000000  0.38507800  1
  O  O17  1  0.22977700  0.00000000  0.88557300  1
  O  O18  1  0.50000000  0.72897600  0.61492200  1
  O  O19  1  0.00000000  0.22977700  0.11442700  1
  O  O20  1  0.50000000  0.22216100  0.13963700  1
  O  O21  1  0.00000000  0.73008700  0.63434500  1
  O  O22  1  0.73008700  0.00000000  0.36565500  1
  O  O23  1  0.22216100  0.50000000  0.86036300  1
  O  O24  1  0.26991300  0.00000000  0.36565500  1
  O  O25  1  0.77783900  0.50000000  0.86036300  1
  O  O26  1  0.50000000  0.77783900  0.13963700  1
  O  O27  1  0.00000000  0.26991300  0.63434500  1
