# generated using pymatgen
data_Mo4C3
_symmetry_space_group_name_H-M   'P 1'
_cell_length_a   9.87763844
_cell_length_b   9.87763844
_cell_length_c   9.87763810
_cell_angle_alpha   18.03861618
_cell_angle_beta   18.03861618
_cell_angle_gamma   18.03861995
_symmetry_Int_Tables_number   1
_chemical_formula_structural   Mo4C3
_chemical_formula_sum   'Mo4 C3'
_cell_volume   80.69122640
_cell_formula_units_Z   1
loop_
 _symmetry_equiv_pos_site_id
 _symmetry_equiv_pos_as_xyz
  1  'x, y, z'
loop_
 _atom_site_type_symbol
 _atom_site_label
 _atom_site_symmetry_multiplicity
 _atom_site_fract_x
 _atom_site_fract_y
 _atom_site_fract_z
 _atom_site_occupancy
  Mo  Mo0  1  0.87822300  0.87822300  0.87822300  1
  Mo  Mo1  1  0.12177700  0.12177700  0.12177700  1
  Mo  Mo2  1  0.37539700  0.37539700  0.37539700  1
  Mo  Mo3  1  0.62460300  0.62460300  0.62460300  1
  C  C4  1  0.25602300  0.25602300  0.25602300  1
  C  C5  1  0.50000000  0.50000000  0.50000000  1
  C  C6  1  0.74397700  0.74397700  0.74397700  1
