# generated using pymatgen
data_Na2Zr(SiO4)2
_symmetry_space_group_name_H-M   'P 1'
_cell_length_a   5.44076552
_cell_length_b   5.44076552
_cell_length_c   13.32347941
_cell_angle_alpha   91.86618381
_cell_angle_beta   91.86618381
_cell_angle_gamma   118.92467266
_symmetry_Int_Tables_number   1
_chemical_formula_structural   Na2Zr(SiO4)2
_chemical_formula_sum   'Na4 Zr2 Si4 O16'
_cell_volume   344.49197938
_cell_formula_units_Z   2
loop_
 _symmetry_equiv_pos_site_id
 _symmetry_equiv_pos_as_xyz
  1  'x, y, z'
loop_
 _atom_site_type_symbol
 _atom_site_label
 _atom_site_symmetry_multiplicity
 _atom_site_fract_x
 _atom_site_fract_y
 _atom_site_fract_z
 _atom_site_occupancy
  Na  Na0  1  0.94103100  0.01485500  0.25488800  1
  Na  Na1  1  0.01485500  0.94103100  0.75488800  1
  Na  Na2  1  0.28372700  0.65248000  0.40273800  1
  Na  Na3  1  0.65248000  0.28372700  0.90273800  1
  Zr  Zr4  1  0.99599800  0.99797800  0.50785000  1
  Zr  Zr5  1  0.99797800  0.99599800  0.00785000  1
  Si  Si6  1  0.63283200  0.32307400  0.37335100  1
  Si  Si7  1  0.67927000  0.37129500  0.13506300  1
  Si  Si8  1  0.37129500  0.67927000  0.63506300  1
  Si  Si9  1  0.32307400  0.63283200  0.87335100  1
  O  O10  1  0.72816200  0.65238200  0.40419600  1
  O  O11  1  0.34823800  0.27001400  0.10338700  1
  O  O12  1  0.27001400  0.34823800  0.60338700  1
  O  O13  1  0.65238200  0.72816200  0.90419600  1
  O  O14  1  0.83933300  0.22425100  0.42952900  1
  O  O15  1  0.77748200  0.18217800  0.06746000  1
  O  O16  1  0.18217800  0.77748200  0.56746000  1
  O  O17  1  0.22425100  0.83933300  0.92952900  1
  O  O18  1  0.30010300  0.11626700  0.38922900  1
  O  O19  1  0.87926300  0.70265200  0.11588800  1
  O  O20  1  0.70265200  0.87926300  0.61588800  1
  O  O21  1  0.11626700  0.30010300  0.88922900  1
  O  O22  1  0.70363100  0.30492800  0.25352900  1
  O  O23  1  0.30492800  0.70363100  0.75352900  1
  O  O24  1  0.40121900  0.61315800  0.23359200  1
  O  O25  1  0.61315800  0.40121900  0.73359200  1
