# generated using pymatgen
data_Mo2Ir2C
_symmetry_space_group_name_H-M   'P 1'
_cell_length_a   9.80564510
_cell_length_b   9.80564510
_cell_length_c   9.80564531
_cell_angle_alpha   16.69031825
_cell_angle_beta   16.69031825
_cell_angle_gamma   16.69032000
_symmetry_Int_Tables_number   1
_chemical_formula_structural   Mo2Ir2C
_chemical_formula_sum   'Mo2 Ir2 C1'
_cell_volume   67.82407074
_cell_formula_units_Z   1
loop_
 _symmetry_equiv_pos_site_id
 _symmetry_equiv_pos_as_xyz
  1  'x, y, z'
loop_
 _atom_site_type_symbol
 _atom_site_label
 _atom_site_symmetry_multiplicity
 _atom_site_fract_x
 _atom_site_fract_y
 _atom_site_fract_z
 _atom_site_occupancy
  Mo  Mo0  1  0.37566100  0.37566100  0.37566100  1
  Mo  Mo1  1  0.62433900  0.62433900  0.62433900  1
  Ir  Ir2  1  0.88044300  0.88044300  0.88044300  1
  Ir  Ir3  1  0.11955700  0.11955700  0.11955700  1
  C  C4  1  0.50000000  0.50000000  0.50000000  1
