# generated using pymatgen
data_Mo3Os3C2
_symmetry_space_group_name_H-M   'P 1'
_cell_length_a   2.88636887
_cell_length_b   2.88636887
_cell_length_c   14.14895504
_cell_angle_alpha   90.00000000
_cell_angle_beta   90.00000000
_cell_angle_gamma   120.00000000
_symmetry_Int_Tables_number   1
_chemical_formula_structural   Mo3Os3C2
_chemical_formula_sum   'Mo3 Os3 C2'
_cell_volume   102.08423102
_cell_formula_units_Z   1
loop_
 _symmetry_equiv_pos_site_id
 _symmetry_equiv_pos_as_xyz
  1  'x, y, z'
loop_
 _atom_site_type_symbol
 _atom_site_label
 _atom_site_symmetry_multiplicity
 _atom_site_fract_x
 _atom_site_fract_y
 _atom_site_fract_z
 _atom_site_occupancy
  Mo  Mo0  1  0.00000000  0.00000000  0.97841000  1
  Mo  Mo1  1  0.66666700  0.33333300  0.16666700  1
  Mo  Mo2  1  0.33333300  0.66666700  0.35492300  1
  Os  Os3  1  0.00000000  0.00000000  0.51368900  1
  Os  Os4  1  0.66666700  0.33333300  0.66666700  1
  Os  Os5  1  0.33333300  0.66666700  0.81964400  1
  C  C6  1  0.33333300  0.66666700  0.06846700  1
  C  C7  1  0.00000000  0.00000000  0.26486600  1
