# generated using pymatgen
data_Na2(NbSe2)3
_symmetry_space_group_name_H-M   'P 1'
_cell_length_a   3.55843962
_cell_length_b   3.55843962
_cell_length_c   45.44959700
_cell_angle_alpha   90.00000000
_cell_angle_beta   90.00000000
_cell_angle_gamma   119.99999295
_symmetry_Int_Tables_number   1
_chemical_formula_structural   Na2(NbSe2)3
_chemical_formula_sum   'Na4 Nb6 Se12'
_cell_volume   498.40214366
_cell_formula_units_Z   2
loop_
 _symmetry_equiv_pos_site_id
 _symmetry_equiv_pos_as_xyz
  1  'x, y, z'
loop_
 _atom_site_type_symbol
 _atom_site_label
 _atom_site_symmetry_multiplicity
 _atom_site_fract_x
 _atom_site_fract_y
 _atom_site_fract_z
 _atom_site_occupancy
  Na  Na0  1  0.00000000  0.00000000  0.08320900  1
  Na  Na1  1  0.00000000  0.00000000  0.41680800  1
  Na  Na2  1  0.00000000  0.00000000  0.75000800  1
  Na  Na3  1  0.00000000  0.00000000  0.24998900  1
  Nb  Nb4  1  0.00000000  0.00000000  0.33333700  1
  Nb  Nb5  1  0.00000000  0.00000000  0.66622800  1
  Nb  Nb6  1  0.00000000  0.00000000  0.99960500  1
  Nb  Nb7  1  0.66666700  0.33333300  0.16668200  1
  Nb  Nb8  1  0.66666700  0.33333300  0.50038100  1
  Nb  Nb9  1  0.66666700  0.33333300  0.83378600  1
  Se  Se10  1  0.33333300  0.66666700  0.03644400  1
  Se  Se11  1  0.33333300  0.66666700  0.36978200  1
  Se  Se12  1  0.33333300  0.66666700  0.70312400  1
  Se  Se13  1  0.33333300  0.66666700  0.29686300  1
  Se  Se14  1  0.33333300  0.66666700  0.63036000  1
  Se  Se15  1  0.33333300  0.66666700  0.96367400  1
  Se  Se16  1  0.33333300  0.66666700  0.13022300  1
  Se  Se17  1  0.33333300  0.66666700  0.46351100  1
  Se  Se18  1  0.33333300  0.66666700  0.79688100  1
  Se  Se19  1  0.33333300  0.66666700  0.20317300  1
  Se  Se20  1  0.33333300  0.66666700  0.53629200  1
  Se  Se21  1  0.33333300  0.66666700  0.86964100  1
