# generated using pymatgen
data_Mn2V2O7
_symmetry_space_group_name_H-M   'P 1'
_cell_length_a   5.09478604
_cell_length_b   5.55659958
_cell_length_c   5.55658193
_cell_angle_alpha   107.51192386
_cell_angle_beta   97.24219818
_cell_angle_gamma   97.24220263
_symmetry_Int_Tables_number   1
_chemical_formula_structural   Mn2V2O7
_chemical_formula_sum   'Mn2 V2 O7'
_cell_volume   146.56482346
_cell_formula_units_Z   1
loop_
 _symmetry_equiv_pos_site_id
 _symmetry_equiv_pos_as_xyz
  1  'x, y, z'
loop_
 _atom_site_type_symbol
 _atom_site_label
 _atom_site_symmetry_multiplicity
 _atom_site_fract_x
 _atom_site_fract_y
 _atom_site_fract_z
 _atom_site_occupancy
  Mn  Mn0  1  0.49999800  0.68618900  0.31381300  1
  Mn  Mn1  1  0.49999900  0.31119200  0.68880500  1
  V  V2  1  0.10301100  0.75362100  0.75907200  1
  V  V3  1  0.89698900  0.24093000  0.24638300  1
  O  O4  1  0.00000400  0.99256200  0.00742200  1
  O  O5  1  0.70464500  0.06751500  0.39646500  1
  O  O6  1  0.29535400  0.60354100  0.93248000  1
  O  O7  1  0.70912500  0.38798300  0.06779600  1
  O  O8  1  0.29087300  0.93219800  0.61201800  1
  O  O9  1  0.21762600  0.41735800  0.41909600  1
  O  O10  1  0.78237500  0.58091200  0.58265200  1
