# generated using pymatgen
data_Na2Ca2(SiO3)3
_symmetry_space_group_name_H-M   'P 1'
_cell_length_a   10.59884748
_cell_length_b   10.59884748
_cell_length_c   13.30743668
_cell_angle_alpha   89.71984346
_cell_angle_beta   89.71984346
_cell_angle_gamma   59.79703769
_symmetry_Int_Tables_number   1
_chemical_formula_structural   Na2Ca2(SiO3)3
_chemical_formula_sum   'Na12 Ca12 Si18 O54'
_cell_volume   1291.94363648
_cell_formula_units_Z   6
loop_
 _symmetry_equiv_pos_site_id
 _symmetry_equiv_pos_as_xyz
  1  'x, y, z'
loop_
 _atom_site_type_symbol
 _atom_site_label
 _atom_site_symmetry_multiplicity
 _atom_site_fract_x
 _atom_site_fract_y
 _atom_site_fract_z
 _atom_site_occupancy
  Na  Na0  1  0.16360200  0.33856500  0.00227900  1
  Na  Na1  1  0.50215300  0.16703700  0.66703600  1
  Na  Na2  1  0.34514900  0.49039800  0.33706200  1
  Na  Na3  1  0.83296300  0.49784700  0.33296400  1
  Na  Na4  1  0.66143500  0.83639800  0.99772100  1
  Na  Na5  1  0.50960200  0.65485100  0.66293800  1
  Na  Na6  1  0.31379900  0.97522400  0.05945500  1
  Na  Na7  1  0.71348900  0.31265500  0.72269300  1
  Na  Na8  1  0.68734500  0.28651100  0.27730700  1
  Na  Na9  1  0.02477600  0.68620100  0.94054500  1
  Na  Na10  1  0.15466700  0.37262900  0.51063100  1
  Na  Na11  1  0.62737100  0.84533300  0.48936900  1
  Ca  Ca12  1  0.30333600  0.00020300  0.33254700  1
  Ca  Ca13  1  0.70076900  0.29923100  0.00000000  1
  Ca  Ca14  1  0.99979700  0.69666400  0.66745300  1
  Ca  Ca15  1  0.82350600  0.00002000  0.83271700  1
  Ca  Ca16  1  0.18386300  0.81613700  0.50000000  1
  Ca  Ca17  1  0.99998000  0.17649400  0.16728300  1
  Ca  Ca18  1  0.97512500  0.69805300  0.40963000  1
  Ca  Ca19  1  0.30194700  0.02487500  0.59037000  1
  Ca  Ca20  1  0.46863500  0.15126300  0.18034300  1
  Ca  Ca21  1  0.38100100  0.46898200  0.84628100  1
  Ca  Ca22  1  0.84873700  0.53136500  0.81965700  1
  Ca  Ca23  1  0.53101800  0.61899900  0.15371900  1
  Si  Si24  1  0.04438200  0.15261800  0.88942800  1
  Si  Si25  1  0.80207900  0.04311900  0.55267500  1
  Si  Si26  1  0.14985800  0.80231100  0.22260600  1
  Si  Si27  1  0.95688100  0.19792100  0.44732500  1
  Si  Si28  1  0.84738200  0.95561800  0.11057200  1
  Si  Si29  1  0.19768900  0.85014200  0.77739400  1
  Si  Si30  1  0.17651100  0.32178300  0.77028100  1
  Si  Si31  1  0.49663400  0.17376400  0.43938200  1
  Si  Si32  1  0.32475100  0.50077200  0.10323700  1
  Si  Si33  1  0.82623600  0.50336600  0.56061800  1
  Si  Si34  1  0.67821700  0.82348900  0.22971900  1
  Si  Si35  1  0.49922800  0.67524900  0.89676300  1
  Si  Si36  1  0.47472300  0.14896600  0.90548000  1
  Si  Si37  1  0.37332800  0.47628300  0.56976200  1
  Si  Si38  1  0.14567000  0.38174200  0.23806900  1
  Si  Si39  1  0.52371700  0.62667200  0.43023800  1
  Si  Si40  1  0.85103400  0.52527700  0.09452000  1
  Si  Si41  1  0.61825800  0.85433000  0.76193100  1
  O  O42  1  0.05687500  0.28606200  0.82802000  1
  O  O43  1  0.65580400  0.05904600  0.49306000  1
  O  O44  1  0.28369300  0.65728400  0.16071700  1
  O  O45  1  0.94095400  0.34419600  0.50694000  1
  O  O46  1  0.71393800  0.94312500  0.17198000  1
  O  O47  1  0.34271600  0.71630700  0.83928300  1
  O  O48  1  0.57446800  0.22467600  0.89291600  1
  O  O49  1  0.19894700  0.58724500  0.55611200  1
  O  O50  1  0.22320300  0.20509000  0.22999500  1
  O  O51  1  0.41275500  0.80105300  0.44388800  1
  O  O52  1  0.77532400  0.42553200  0.10708400  1
  O  O53  1  0.79491000  0.77679700  0.77000500  1
  O  O54  1  0.23626400  0.24074800  0.66503700  1
  O  O55  1  0.51351200  0.22764400  0.32923500  1
  O  O56  1  0.25232200  0.51807100  0.99484500  1
  O  O57  1  0.77235600  0.48648800  0.67076500  1
  O  O58  1  0.75925200  0.76373600  0.33496300  1
  O  O59  1  0.48192900  0.74767800  0.00515500  1
  O  O60  1  0.31899000  0.26768300  0.84851200  1
  O  O61  1  0.41484400  0.32075900  0.51400500  1
  O  O62  1  0.26688500  0.41382000  0.17920700  1
  O  O63  1  0.67924100  0.58515600  0.48599500  1
  O  O64  1  0.73231700  0.68101000  0.15148800  1
  O  O65  1  0.58618000  0.73311500  0.82079300  1
  O  O66  1  0.16817900  0.00154900  0.83310500  1
  O  O67  1  0.83356400  0.16643600  0.50000000  1
  O  O68  1  0.99845100  0.83182100  0.16689500  1
  O  O69  1  0.88039200  0.18151700  0.87202000  1
  O  O70  1  0.93776700  0.87770000  0.53238400  1
  O  O71  1  0.18254900  0.93540600  0.20751000  1
  O  O72  1  0.12230000  0.06223300  0.46761600  1
  O  O73  1  0.81848300  0.11960800  0.12798000  1
  O  O74  1  0.06459400  0.81745100  0.79249000  1
  O  O75  1  0.55644800  0.99991200  0.83562900  1
  O  O76  1  0.44709300  0.55290700  0.50000000  1
  O  O77  1  0.00008800  0.44355200  0.16437100  1
  O  O78  1  0.43987500  0.11107100  0.01540600  1
  O  O79  1  0.44422400  0.44206600  0.68070900  1
  O  O80  1  0.10177900  0.46378700  0.34403000  1
  O  O81  1  0.55793400  0.55577600  0.31929100  1
  O  O82  1  0.88892900  0.56012500  0.98459400  1
  O  O83  1  0.53621300  0.89822100  0.65597000  1
  O  O84  1  0.08810400  0.15917100  0.00492500  1
  O  O85  1  0.75680100  0.08243400  0.66979800  1
  O  O86  1  0.15030600  0.75050200  0.33815700  1
  O  O87  1  0.91756600  0.24319900  0.33020200  1
  O  O88  1  0.84082900  0.91189600  0.99507500  1
  O  O89  1  0.24949800  0.84969400  0.66184300  1
  O  O90  1  0.09157600  0.49899600  0.77604500  1
  O  O91  1  0.39951000  0.09503500  0.45069800  1
  O  O92  1  0.50147100  0.40872000  0.11113500  1
  O  O93  1  0.90496500  0.60049000  0.54930200  1
  O  O94  1  0.50100400  0.90842400  0.22395500  1
  O  O95  1  0.59128000  0.49852900  0.88886500  1
