# generated using pymatgen
data_Mn2NbFeO6
_symmetry_space_group_name_H-M   'P 1'
_cell_length_a   5.61691250
_cell_length_b   5.61691250
_cell_length_c   5.61691250
_cell_angle_alpha   56.82461765
_cell_angle_beta   56.82461765
_cell_angle_gamma   56.82461867
_symmetry_Int_Tables_number   1
_chemical_formula_structural   Mn2NbFeO6
_chemical_formula_sum   'Mn2 Nb1 Fe1 O6'
_cell_volume   116.12519819
_cell_formula_units_Z   1
loop_
 _symmetry_equiv_pos_site_id
 _symmetry_equiv_pos_as_xyz
  1  'x, y, z'
loop_
 _atom_site_type_symbol
 _atom_site_label
 _atom_site_symmetry_multiplicity
 _atom_site_fract_x
 _atom_site_fract_y
 _atom_site_fract_z
 _atom_site_occupancy
  Mn  Mn0  1  0.50482400  0.50482400  0.50482400  1
  Mn  Mn1  1  0.99790200  0.99790200  0.99790200  1
  Nb  Nb2  1  0.78107600  0.78107600  0.78107600  1
  Fe  Fe3  1  0.28038400  0.28038400  0.28038400  1
  O  O4  1  0.05541200  0.42412100  0.65966300  1
  O  O5  1  0.42412100  0.65966300  0.05541200  1
  O  O6  1  0.65966300  0.05541200  0.42412100  1
  O  O7  1  0.92143400  0.56227700  0.15486700  1
  O  O8  1  0.56227700  0.15486700  0.92143400  1
  O  O9  1  0.15486700  0.92143400  0.56227700  1
