# generated using pymatgen
data_Na3Co2CuH8S4O17
_symmetry_space_group_name_H-M   'P 1'
_cell_length_a   7.59708428
_cell_length_b   7.89223496
_cell_length_c   14.33853800
_cell_angle_alpha   90.00000000
_cell_angle_beta   90.00000000
_cell_angle_gamma   101.35630887
_symmetry_Int_Tables_number   1
_chemical_formula_structural   Na3Co2CuH8S4O17
_chemical_formula_sum   'Na6 Co4 Cu2 H16 S8 O34'
_cell_volume   842.87796328
_cell_formula_units_Z   2
loop_
 _symmetry_equiv_pos_site_id
 _symmetry_equiv_pos_as_xyz
  1  'x, y, z'
loop_
 _atom_site_type_symbol
 _atom_site_label
 _atom_site_symmetry_multiplicity
 _atom_site_fract_x
 _atom_site_fract_y
 _atom_site_fract_z
 _atom_site_occupancy
  Na  Na0  1  0.61783200  0.29078000  0.74923000  1
  Na  Na1  1  0.38216800  0.70922000  0.24923000  1
  Na  Na2  1  0.05711200  0.32446000  0.60698100  1
  Na  Na3  1  0.94288800  0.67554000  0.10698100  1
  Na  Na4  1  0.96919700  0.68864400  0.40146100  1
  Na  Na5  1  0.03080300  0.31135600  0.90146100  1
  Co  Co6  1  0.26508200  0.84048500  0.61344800  1
  Co  Co7  1  0.73491800  0.15951500  0.11344800  1
  Co  Co8  1  0.73602200  0.16037600  0.38759500  1
  Co  Co9  1  0.26397800  0.83962400  0.88759500  1
  Cu  Cu10  1  0.78789100  0.77447900  0.74953400  1
  Cu  Cu11  1  0.21210900  0.22552100  0.24953400  1
  H  H12  1  0.54126500  0.69831100  0.53861300  1
  H  H13  1  0.45873500  0.30168900  0.03861300  1
  H  H14  1  0.45977100  0.30190500  0.46148000  1
  H  H15  1  0.54022900  0.69809500  0.96148000  1
  H  H16  1  0.35274100  0.62668200  0.48680800  1
  H  H17  1  0.64725900  0.37331800  0.98680800  1
  H  H18  1  0.64823100  0.37355400  0.51308900  1
  H  H19  1  0.35176900  0.62644600  0.01308900  1
  H  H20  1  0.80404400  0.94009200  0.51976000  1
  H  H21  1  0.19595600  0.05990800  0.01976000  1
  H  H22  1  0.19462600  0.05963400  0.47984700  1
  H  H23  1  0.80537400  0.94036600  0.97984700  1
  H  H24  1  0.68559100  0.05552700  0.56667300  1
  H  H25  1  0.31440900  0.94447300  0.06667300  1
  H  H26  1  0.31490400  0.94491700  0.43380700  1
  H  H27  1  0.68509600  0.05508300  0.93380700  1
  S  S28  1  0.84354200  0.63484700  0.61709800  1
  S  S29  1  0.15645800  0.36515300  0.11709800  1
  S  S30  1  0.15613700  0.36466900  0.38170800  1
  S  S31  1  0.84386300  0.63533100  0.88170800  1
  S  S32  1  0.00901900  0.02217100  0.75062700  1
  S  S33  1  0.99098100  0.97782900  0.25062700  1
  S  S34  1  0.53838300  0.89445600  0.75029500  1
  S  S35  1  0.46161700  0.10554400  0.25029500  1
  O  O36  1  0.53104600  0.00549100  0.66334100  1
  O  O37  1  0.46895400  0.99450900  0.16334100  1
  O  O38  1  0.46791900  0.99320800  0.33676400  1
  O  O39  1  0.53208100  0.00679200  0.83676400  1
  O  O40  1  0.77532700  0.71635800  0.53066300  1
  O  O41  1  0.22467300  0.28364200  0.03066300  1
  O  O42  1  0.22281300  0.28244000  0.46807000  1
  O  O43  1  0.77718700  0.71756000  0.96807000  1
  O  O44  1  0.93325600  0.18447100  0.75087500  1
  O  O45  1  0.06674400  0.81552900  0.25087500  1
  O  O46  1  0.12521300  0.02780000  0.66389000  1
  O  O47  1  0.87478700  0.97220000  0.16389000  1
  O  O48  1  0.87403800  0.97121700  0.33712000  1
  O  O49  1  0.12596200  0.02878300  0.83712000  1
  O  O50  1  0.75703600  0.44449700  0.61675000  1
  O  O51  1  0.24296400  0.55550300  0.11675000  1
  O  O52  1  0.24628100  0.55458400  0.38190600  1
  O  O53  1  0.75371900  0.44541600  0.88190600  1
  O  O54  1  0.40896900  0.68616100  0.54375100  1
  O  O55  1  0.59103100  0.31383900  0.04375100  1
  O  O56  1  0.59221700  0.31985400  0.45454400  1
  O  O57  1  0.40778300  0.68014600  0.95454400  1
  O  O58  1  0.04318500  0.63891000  0.59959400  1
  O  O59  1  0.95681500  0.36109000  0.09959400  1
  O  O60  1  0.95706700  0.36462000  0.39817500  1
  O  O61  1  0.04293300  0.63538000  0.89817500  1
  O  O62  1  0.78181500  0.06063300  0.51948300  1
  O  O63  1  0.21818500  0.93936700  0.01948300  1
  O  O64  1  0.21689400  0.93896700  0.48012000  1
  O  O65  1  0.78310600  0.06103300  0.98012000  1
  O  O66  1  0.34940300  0.77496300  0.75067900  1
  O  O67  1  0.65059700  0.22503700  0.25067900  1
  O  O68  1  0.33649400  0.37575700  0.70672200  1
  O  O69  1  0.66350600  0.62424300  0.20672200  1
