# generated using pymatgen
data_Na5(CuO2)3
_symmetry_space_group_name_H-M   'P 1'
_cell_length_a   5.70769007
_cell_length_b   8.21195704
_cell_length_c   17.01321600
_cell_angle_alpha   90.00000000
_cell_angle_beta   90.00000000
_cell_angle_gamma   107.88478806
_symmetry_Int_Tables_number   1
_chemical_formula_structural   Na5(CuO2)3
_chemical_formula_sum   'Na20 Cu12 O24'
_cell_volume   758.89653841
_cell_formula_units_Z   4
loop_
 _symmetry_equiv_pos_site_id
 _symmetry_equiv_pos_as_xyz
  1  'x, y, z'
loop_
 _atom_site_type_symbol
 _atom_site_label
 _atom_site_symmetry_multiplicity
 _atom_site_fract_x
 _atom_site_fract_y
 _atom_site_fract_z
 _atom_site_occupancy
  Na  Na0  1  0.26566000  0.38025800  0.63131400  1
  Na  Na1  1  0.76566000  0.88025800  0.86868600  1
  Na  Na2  1  0.73434000  0.61974200  0.36868600  1
  Na  Na3  1  0.23434000  0.11974200  0.13131400  1
  Na  Na4  1  0.21504600  0.05265100  0.55245600  1
  Na  Na5  1  0.71504600  0.55265100  0.94754400  1
  Na  Na6  1  0.78495400  0.94734900  0.44754400  1
  Na  Na7  1  0.28495400  0.44734900  0.05245600  1
  Na  Na8  1  0.26408300  0.38047900  0.45337700  1
  Na  Na9  1  0.76408300  0.88047900  0.04662300  1
  Na  Na10  1  0.73591700  0.61952100  0.54662300  1
  Na  Na11  1  0.23591700  0.11952100  0.95337700  1
  Na  Na12  1  0.22515000  0.09044200  0.76998800  1
  Na  Na13  1  0.72515000  0.59044200  0.73001200  1
  Na  Na14  1  0.77485000  0.90955800  0.23001200  1
  Na  Na15  1  0.27485000  0.40955800  0.26998800  1
  Na  Na16  1  0.22034400  0.08772100  0.32189800  1
  Na  Na17  1  0.72034400  0.58772100  0.17810200  1
  Na  Na18  1  0.77965600  0.91227900  0.67810200  1
  Na  Na19  1  0.27965600  0.41227900  0.82189800  1
  Cu  Cu20  1  0.74774900  0.25735000  0.28985200  1
  Cu  Cu21  1  0.24774900  0.75735000  0.21014800  1
  Cu  Cu22  1  0.25225100  0.74265000  0.71014800  1
  Cu  Cu23  1  0.75225100  0.24265000  0.78985200  1
  Cu  Cu24  1  0.73468500  0.25240300  0.62280000  1
  Cu  Cu25  1  0.23468500  0.75240300  0.87720000  1
  Cu  Cu26  1  0.26531500  0.74759700  0.37720000  1
  Cu  Cu27  1  0.76531500  0.24759700  0.12280000  1
  Cu  Cu28  1  0.73253800  0.26651900  0.45617100  1
  Cu  Cu29  1  0.23253800  0.76651900  0.04382900  1
  Cu  Cu30  1  0.26746200  0.73348100  0.54382900  1
  Cu  Cu31  1  0.76746200  0.23348100  0.95617100  1
  O  O32  1  0.53937500  0.31327700  0.54163100  1
  O  O33  1  0.03937500  0.81327700  0.95836900  1
  O  O34  1  0.46062500  0.68672300  0.45836900  1
  O  O35  1  0.96062500  0.18672300  0.04163100  1
  O  O36  1  0.56024500  0.29929900  0.20493000  1
  O  O37  1  0.06024500  0.79929900  0.29507000  1
  O  O38  1  0.43975500  0.70070100  0.79507000  1
  O  O39  1  0.93975500  0.20070100  0.70493000  1
  O  O40  1  0.55135400  0.30111900  0.71210400  1
  O  O41  1  0.05135400  0.80111900  0.78789600  1
  O  O42  1  0.44864600  0.69888100  0.28789600  1
  O  O43  1  0.94864600  0.19888100  0.21210400  1
  O  O44  1  0.92476300  0.20001900  0.53785600  1
  O  O45  1  0.42476300  0.70001900  0.96214400  1
  O  O46  1  0.07523700  0.79998100  0.46214400  1
  O  O47  1  0.57523700  0.29998100  0.03785600  1
  O  O48  1  0.55047900  0.31986400  0.36737300  1
  O  O49  1  0.05047900  0.81986400  0.13262700  1
  O  O50  1  0.44952100  0.68013600  0.63262700  1
  O  O51  1  0.94952100  0.18013600  0.86737300  1
  O  O52  1  0.93401800  0.21071900  0.37373300  1
  O  O53  1  0.43401800  0.71071900  0.12626700  1
  O  O54  1  0.06598200  0.78928100  0.62626700  1
  O  O55  1  0.56598200  0.28928100  0.87373300  1
