# generated using pymatgen
data_MnFeSiO4
_symmetry_space_group_name_H-M   'P 1'
_cell_length_a   4.93289300
_cell_length_b   6.27828100
_cell_length_c   10.58583800
_cell_angle_alpha   90.00000000
_cell_angle_beta   90.00000000
_cell_angle_gamma   90.00000000
_symmetry_Int_Tables_number   1
_chemical_formula_structural   MnFeSiO4
_chemical_formula_sum   'Mn4 Fe4 Si4 O16'
_cell_volume   327.84433862
_cell_formula_units_Z   4
loop_
 _symmetry_equiv_pos_site_id
 _symmetry_equiv_pos_as_xyz
  1  'x, y, z'
loop_
 _atom_site_type_symbol
 _atom_site_label
 _atom_site_symmetry_multiplicity
 _atom_site_fract_x
 _atom_site_fract_y
 _atom_site_fract_z
 _atom_site_occupancy
  Mn  Mn0  1  0.50000000  0.00000000  0.50000000  1
  Mn  Mn1  1  0.00000000  0.50000000  0.00000000  1
  Mn  Mn2  1  0.50000000  0.50000000  0.50000000  1
  Mn  Mn3  1  0.00000000  0.00000000  0.00000000  1
  Fe  Fe4  1  0.48234400  0.75000000  0.78011500  1
  Fe  Fe5  1  0.01765600  0.75000000  0.28011500  1
  Fe  Fe6  1  0.51765600  0.25000000  0.21988500  1
  Fe  Fe7  1  0.98234400  0.25000000  0.71988500  1
  Si  Si8  1  0.92935300  0.75000000  0.59846600  1
  Si  Si9  1  0.57064700  0.75000000  0.09846600  1
  Si  Si10  1  0.07064700  0.25000000  0.40153400  1
  Si  Si11  1  0.42935300  0.25000000  0.90153400  1
  O  O12  1  0.78784000  0.96049200  0.66652600  1
  O  O13  1  0.71216000  0.53950800  0.16652600  1
  O  O14  1  0.21216000  0.46049200  0.33347400  1
  O  O15  1  0.28784000  0.03950800  0.83347400  1
  O  O16  1  0.21216000  0.03950800  0.33347400  1
  O  O17  1  0.28784000  0.46049200  0.83347400  1
  O  O18  1  0.78784000  0.53950800  0.66652600  1
  O  O19  1  0.71216000  0.96049200  0.16652600  1
  O  O20  1  0.70565900  0.75000000  0.95355100  1
  O  O21  1  0.79434100  0.75000000  0.45355100  1
  O  O22  1  0.29434100  0.25000000  0.04644900  1
  O  O23  1  0.20565900  0.25000000  0.54644900  1
  O  O24  1  0.26063300  0.75000000  0.59579400  1
  O  O25  1  0.23936700  0.75000000  0.09579400  1
  O  O26  1  0.73936700  0.25000000  0.40420600  1
  O  O27  1  0.76063300  0.25000000  0.90420600  1
