# generated using pymatgen
data_MnAl2Sb2(PO4)6
_symmetry_space_group_name_H-M   'P 1'
_cell_length_a   8.54433562
_cell_length_b   8.54433562
_cell_length_c   8.54433514
_cell_angle_alpha   60.12156972
_cell_angle_beta   60.12156972
_cell_angle_gamma   60.12157556
_symmetry_Int_Tables_number   1
_chemical_formula_structural   MnAl2Sb2(PO4)6
_chemical_formula_sum   'Mn1 Al2 Sb2 P6 O24'
_cell_volume   442.29738396
_cell_formula_units_Z   1
loop_
 _symmetry_equiv_pos_site_id
 _symmetry_equiv_pos_as_xyz
  1  'x, y, z'
loop_
 _atom_site_type_symbol
 _atom_site_label
 _atom_site_symmetry_multiplicity
 _atom_site_fract_x
 _atom_site_fract_y
 _atom_site_fract_z
 _atom_site_occupancy
  Mn  Mn0  1  0.50000000  0.50000000  0.50000000  1
  Al  Al1  1  0.64443600  0.64443600  0.64443600  1
  Al  Al2  1  0.35556400  0.35556400  0.35556400  1
  Sb  Sb3  1  0.13759400  0.13759400  0.13759400  1
  Sb  Sb4  1  0.86240600  0.86240600  0.86240600  1
  P  P5  1  0.46485400  0.04277100  0.73854900  1
  P  P6  1  0.04277100  0.73854900  0.46485400  1
  P  P7  1  0.73854900  0.46485400  0.04277100  1
  P  P8  1  0.95722900  0.26145100  0.53514600  1
  P  P9  1  0.26145100  0.53514600  0.95722900  1
  P  P10  1  0.53514600  0.95722900  0.26145100  1
  O  O11  1  0.56339500  0.76148500  0.42191800  1
  O  O12  1  0.76148500  0.42191800  0.56339500  1
  O  O13  1  0.42191800  0.56339500  0.76148500  1
  O  O14  1  0.04984500  0.91521700  0.27730500  1
  O  O15  1  0.91521700  0.27730500  0.04984500  1
  O  O16  1  0.27730500  0.04984500  0.91521700  1
  O  O17  1  0.43660500  0.23851500  0.57808200  1
  O  O18  1  0.23851500  0.57808200  0.43660500  1
  O  O19  1  0.57808200  0.43660500  0.23851500  1
  O  O20  1  0.95015500  0.08478300  0.72269500  1
  O  O21  1  0.08478300  0.72269500  0.95015500  1
  O  O22  1  0.72269500  0.95015500  0.08478300  1
  O  O23  1  0.50944600  0.87534800  0.68951000  1
  O  O24  1  0.87534800  0.68951000  0.50944600  1
  O  O25  1  0.68951000  0.50944600  0.87534800  1
  O  O26  1  0.97587300  0.21335200  0.37016800  1
  O  O27  1  0.21335200  0.37016800  0.97587300  1
  O  O28  1  0.37016800  0.97587300  0.21335200  1
  O  O29  1  0.49055400  0.12465200  0.31049000  1
  O  O30  1  0.12465200  0.31049000  0.49055400  1
  O  O31  1  0.31049000  0.49055400  0.12465200  1
  O  O32  1  0.02412700  0.78664800  0.62983200  1
  O  O33  1  0.78664800  0.62983200  0.02412700  1
  O  O34  1  0.62983200  0.02412700  0.78664800  1
