# generated using pymatgen
data_MnSnTe2
_symmetry_space_group_name_H-M   'P 1'
_cell_length_a   7.26049956
_cell_length_b   7.26049956
_cell_length_c   7.26049907
_cell_angle_alpha   32.52308515
_cell_angle_beta   32.52308515
_cell_angle_gamma   32.52309124
_symmetry_Int_Tables_number   1
_chemical_formula_structural   MnSnTe2
_chemical_formula_sum   'Mn1 Sn1 Te2'
_cell_volume   98.37764096
_cell_formula_units_Z   1
loop_
 _symmetry_equiv_pos_site_id
 _symmetry_equiv_pos_as_xyz
  1  'x, y, z'
loop_
 _atom_site_type_symbol
 _atom_site_label
 _atom_site_symmetry_multiplicity
 _atom_site_fract_x
 _atom_site_fract_y
 _atom_site_fract_z
 _atom_site_occupancy
  Mn  Mn0  1  0.00000000  0.00000000  0.00000000  1
  Sn  Sn1  1  0.50000000  0.50000000  0.50000000  1
  Te  Te2  1  0.27176000  0.27176000  0.27176000  1
  Te  Te3  1  0.72824000  0.72824000  0.72824000  1
