# generated using pymatgen
data_NaTi8(Bi3O10)3
_symmetry_space_group_name_H-M   'P 1'
_cell_length_a   5.50699711
_cell_length_b   5.50901095
_cell_length_c   20.48178808
_cell_angle_alpha   90.00000000
_cell_angle_beta   82.27396912
_cell_angle_gamma   90.00000000
_symmetry_Int_Tables_number   1
_chemical_formula_structural   NaTi8(Bi3O10)3
_chemical_formula_sum   'Na1 Ti8 Bi9 O30'
_cell_volume   615.73794959
_cell_formula_units_Z   1
loop_
 _symmetry_equiv_pos_site_id
 _symmetry_equiv_pos_as_xyz
  1  'x, y, z'
loop_
 _atom_site_type_symbol
 _atom_site_label
 _atom_site_symmetry_multiplicity
 _atom_site_fract_x
 _atom_site_fract_y
 _atom_site_fract_z
 _atom_site_occupancy
  Na  Na0  1  0.00000000  0.00000000  0.00000000  1
  Ti  Ti1  1  0.35007400  0.00000000  0.29985300  1
  Ti  Ti2  1  0.85005200  0.50000000  0.29989700  1
  Ti  Ti3  1  0.14994800  0.50000000  0.70010300  1
  Ti  Ti4  1  0.64992600  0.00000000  0.70014700  1
  Ti  Ti5  1  0.45176400  0.00000000  0.09647100  1
  Ti  Ti6  1  0.95177300  0.50000000  0.09645500  1
  Ti  Ti7  1  0.04822700  0.50000000  0.90354500  1
  Ti  Ti8  1  0.54823600  0.00000000  0.90352900  1
  Bi  Bi9  1  0.10655300  0.00000000  0.78689400  1
  Bi  Bi10  1  0.59360000  0.50000000  0.81280000  1
  Bi  Bi11  1  0.40640000  0.50000000  0.18720000  1
  Bi  Bi12  1  0.89344700  0.00000000  0.21310600  1
  Bi  Bi13  1  0.21880100  0.00000000  0.56239700  1
  Bi  Bi14  1  0.71892500  0.50000000  0.56215100  1
  Bi  Bi15  1  0.28107500  0.50000000  0.43784900  1
  Bi  Bi16  1  0.78119900  0.00000000  0.43760300  1
  Bi  Bi17  1  0.50000000  0.50000000  0.00000000  1
  O  O18  1  0.40476200  0.00000000  0.19047500  1
  O  O19  1  0.90480900  0.50000000  0.19038300  1
  O  O20  1  0.09519100  0.50000000  0.80961700  1
  O  O21  1  0.59523800  0.00000000  0.80952500  1
  O  O22  1  0.38595200  0.24530400  0.71863300  1
  O  O23  1  0.89541500  0.75469600  0.71863300  1
  O  O24  1  0.89541500  0.24530400  0.71863300  1
  O  O25  1  0.38595200  0.75469600  0.71863300  1
  O  O26  1  0.10458500  0.24530400  0.28136700  1
  O  O27  1  0.61404800  0.75469600  0.28136700  1
  O  O28  1  0.61404800  0.24530400  0.28136700  1
  O  O29  1  0.10458500  0.75469600  0.28136700  1
  O  O30  1  0.30590400  0.00000000  0.38819200  1
  O  O31  1  0.80588300  0.50000000  0.38823400  1
  O  O32  1  0.19411700  0.50000000  0.61176600  1
  O  O33  1  0.69409600  0.00000000  0.61180800  1
  O  O34  1  0.50000000  0.00000000  0.00000000  1
  O  O35  1  0.00000000  0.50000000  0.00000000  1
  O  O36  1  0.31054100  0.26262800  0.90424200  1
  O  O37  1  0.78521600  0.73737200  0.90424200  1
  O  O38  1  0.78521600  0.26262800  0.90424200  1
  O  O39  1  0.31054100  0.73737200  0.90424200  1
  O  O40  1  0.21478400  0.26262800  0.09575800  1
  O  O41  1  0.68945900  0.73737200  0.09575800  1
  O  O42  1  0.68945900  0.26262800  0.09575800  1
  O  O43  1  0.21478400  0.73737200  0.09575800  1
  O  O44  1  0.50000000  0.25005100  0.50000000  1
  O  O45  1  0.00000000  0.74994900  0.50000000  1
  O  O46  1  0.00000000  0.25005100  0.50000000  1
  O  O47  1  0.50000000  0.74994900  0.50000000  1
