# generated using pymatgen
data_MnCo5(BO5)2
_symmetry_space_group_name_H-M   'P 1'
_cell_length_a   3.05988800
_cell_length_b   9.31318200
_cell_length_c   12.52744400
_cell_angle_alpha   90.00000000
_cell_angle_beta   90.00000000
_cell_angle_gamma   90.00000000
_symmetry_Int_Tables_number   1
_chemical_formula_structural   MnCo5(BO5)2
_chemical_formula_sum   'Mn2 Co10 B4 O20'
_cell_volume   356.99825278
_cell_formula_units_Z   2
loop_
 _symmetry_equiv_pos_site_id
 _symmetry_equiv_pos_as_xyz
  1  'x, y, z'
loop_
 _atom_site_type_symbol
 _atom_site_label
 _atom_site_symmetry_multiplicity
 _atom_site_fract_x
 _atom_site_fract_y
 _atom_site_fract_z
 _atom_site_occupancy
  Mn  Mn0  1  0.00000000  0.00677400  0.61420600  1
  Mn  Mn1  1  0.00000000  0.99322600  0.11420600  1
  Co  Co2  1  0.50000000  0.25601500  0.22190700  1
  Co  Co3  1  0.50000000  0.24756800  0.78035300  1
  Co  Co4  1  0.50000000  0.75243200  0.28035300  1
  Co  Co5  1  0.50000000  0.74398500  0.72190700  1
  Co  Co6  1  0.50000000  0.25242400  0.49807800  1
  Co  Co7  1  0.50000000  0.74757600  0.99807800  1
  Co  Co8  1  0.00000000  0.74467800  0.49829100  1
  Co  Co9  1  0.00000000  0.25532200  0.99829100  1
  Co  Co10  1  0.00000000  0.49312400  0.38607200  1
  Co  Co11  1  0.00000000  0.50687600  0.88607200  1
  B  B12  1  0.00000000  0.52576100  0.13925500  1
  B  B13  1  0.00000000  0.97307700  0.86067200  1
  B  B14  1  0.00000000  0.02692300  0.36067200  1
  B  B15  1  0.00000000  0.47423900  0.63925500  1
  O  O16  1  0.50000000  0.63687700  0.42167400  1
  O  O17  1  0.50000000  0.86831200  0.57947200  1
  O  O18  1  0.50000000  0.13168800  0.07947200  1
  O  O19  1  0.50000000  0.36312300  0.92167400  1
  O  O20  1  0.50000000  0.36538100  0.35739200  1
  O  O21  1  0.50000000  0.13690900  0.64311100  1
  O  O22  1  0.50000000  0.86309100  0.14311100  1
  O  O23  1  0.50000000  0.63461900  0.85739200  1
  O  O24  1  0.00000000  0.60033200  0.23550000  1
  O  O25  1  0.00000000  0.89618900  0.76581400  1
  O  O26  1  0.00000000  0.10381100  0.26581400  1
  O  O27  1  0.00000000  0.39966800  0.73550000  1
  O  O28  1  0.00000000  0.37649700  0.13927900  1
  O  O29  1  0.00000000  0.12227400  0.85954800  1
  O  O30  1  0.00000000  0.87772600  0.35954800  1
  O  O31  1  0.00000000  0.62350300  0.63927900  1
  O  O32  1  0.00000000  0.39904700  0.54315200  1
  O  O33  1  0.00000000  0.10260100  0.45622300  1
  O  O34  1  0.00000000  0.89739900  0.95622300  1
  O  O35  1  0.00000000  0.60095300  0.04315200  1
