# generated using pymatgen
data_Na4Co12P8H4O37
_symmetry_space_group_name_H-M   'P 1'
_cell_length_a   7.94238100
_cell_length_b   9.89737119
_cell_length_c   10.25658127
_cell_angle_alpha   80.35522475
_cell_angle_beta   89.83892040
_cell_angle_gamma   89.92191229
_symmetry_Int_Tables_number   1
_chemical_formula_structural   Na4Co12P8H4O37
_chemical_formula_sum   'Na4 Co12 P8 H4 O37'
_cell_volume   794.85687715
_cell_formula_units_Z   1
loop_
 _symmetry_equiv_pos_site_id
 _symmetry_equiv_pos_as_xyz
  1  'x, y, z'
loop_
 _atom_site_type_symbol
 _atom_site_label
 _atom_site_symmetry_multiplicity
 _atom_site_fract_x
 _atom_site_fract_y
 _atom_site_fract_z
 _atom_site_occupancy
  Na  Na0  1  0.47346300  0.93354600  0.68559100  1
  Na  Na1  1  0.97352000  0.06665900  0.81373700  1
  Na  Na2  1  0.52653700  0.06645400  0.31440900  1
  Na  Na3  1  0.02648000  0.93334100  0.18626300  1
  Co  Co4  1  0.48934900  0.62033200  0.56626400  1
  Co  Co5  1  0.98944700  0.37881800  0.93248100  1
  Co  Co6  1  0.51065100  0.37966800  0.43373600  1
  Co  Co7  1  0.01055300  0.62118200  0.06751900  1
  Co  Co8  1  0.15648700  0.18727300  0.48414700  1
  Co  Co9  1  0.65670800  0.81509700  0.01645900  1
  Co  Co10  1  0.84351300  0.81272700  0.51585300  1
  Co  Co11  1  0.34329200  0.18490300  0.98354100  1
  Co  Co12  1  0.32833600  0.68429900  0.23292100  1
  Co  Co13  1  0.82989700  0.31510300  0.27009600  1
  Co  Co14  1  0.67166400  0.31570100  0.76707900  1
  Co  Co15  1  0.17010300  0.68489700  0.72990400  1
  P  P16  1  0.24179400  0.88413000  0.44483100  1
  P  P17  1  0.74196200  0.11682600  0.05506200  1
  P  P18  1  0.75820600  0.11587000  0.55516900  1
  P  P19  1  0.25803800  0.88317400  0.94493800  1
  P  P20  1  0.72495700  0.64549600  0.28452300  1
  P  P21  1  0.22625100  0.35464500  0.21464400  1
  P  P22  1  0.27504300  0.35450400  0.71547700  1
  P  P23  1  0.77374900  0.64535500  0.78535600  1
  H  H24  1  0.25378300  0.53515700  0.44623900  1
  H  H25  1  0.76041100  0.46617900  0.05237600  1
  H  H26  1  0.74621700  0.46484300  0.55376100  1
  H  H27  1  0.23958900  0.53382100  0.94762400  1
  O  O28  1  0.21509900  0.51313100  0.18033400  1
  O  O29  1  0.71233800  0.48686100  0.31635900  1
  O  O30  1  0.78490100  0.48686900  0.81966600  1
  O  O31  1  0.28766200  0.51313900  0.68364100  1
  O  O32  1  0.95007800  0.11970800  0.57661200  1
  O  O33  1  0.45012900  0.87896300  0.92322400  1
  O  O34  1  0.04992200  0.88029200  0.42338800  1
  O  O35  1  0.54987100  0.12103700  0.07677600  1
  O  O36  1  0.33085000  0.86023000  0.31662100  1
  O  O37  1  0.82997100  0.14072400  0.18333300  1
  O  O38  1  0.66915000  0.13977000  0.68337900  1
  O  O39  1  0.17002900  0.85927600  0.81666700  1
  O  O40  1  0.60740400  0.69718100  0.71776000  1
  O  O41  1  0.10849300  0.30214600  0.78310300  1
  O  O42  1  0.39259600  0.30281900  0.28224000  1
  O  O43  1  0.89150700  0.69785400  0.21689700  1
  O  O44  1  0.36848900  0.55772800  0.41196600  1
  O  O45  1  0.87138200  0.44081200  0.08905300  1
  O  O46  1  0.63151100  0.44227200  0.58803400  1
  O  O47  1  0.12861800  0.55918800  0.91094700  1
  O  O48  1  0.30375500  0.29540800  0.58515400  1
  O  O49  1  0.80205500  0.70428700  0.91557000  1
  O  O50  1  0.69624500  0.70459200  0.41484600  1
  O  O51  1  0.19794500  0.29571300  0.08443000  1
  O  O52  1  0.57893700  0.69827500  0.18414500  1
  O  O53  1  0.07970000  0.30151000  0.31523600  1
  O  O54  1  0.42106300  0.30172500  0.81585500  1
  O  O55  1  0.92030000  0.69849000  0.68476400  1
  O  O56  1  0.19973100  0.77542800  0.06663800  1
  O  O57  1  0.69918100  0.22360800  0.43375600  1
  O  O58  1  0.80026900  0.22457200  0.93336200  1
  O  O59  1  0.30081900  0.77639200  0.56624400  1
  O  O60  1  0.29876200  0.02667000  0.47502200  1
  O  O61  1  0.79968000  0.97432200  0.02504800  1
  O  O62  1  0.70123800  0.97333000  0.52497800  1
  O  O63  1  0.20032000  0.02567800  0.97495200  1
  O  O64  1  0.00000000  0.50000000  0.50000000  1
