# generated using pymatgen
data_MnRe(PbO3)2
_symmetry_space_group_name_H-M   'P 1'
_cell_length_a   7.22819825
_cell_length_b   7.43021175
_cell_length_c   7.42956276
_cell_angle_alpha   119.43813546
_cell_angle_beta   60.89265042
_cell_angle_gamma   119.10466453
_symmetry_Int_Tables_number   1
_chemical_formula_structural   MnRe(PbO3)2
_chemical_formula_sum   'Mn2 Re2 Pb4 O12'
_cell_volume   287.12869269
_cell_formula_units_Z   2
loop_
 _symmetry_equiv_pos_site_id
 _symmetry_equiv_pos_as_xyz
  1  'x, y, z'
loop_
 _atom_site_type_symbol
 _atom_site_label
 _atom_site_symmetry_multiplicity
 _atom_site_fract_x
 _atom_site_fract_y
 _atom_site_fract_z
 _atom_site_occupancy
  Mn  Mn0  1  0.49999400  0.99997200  0.50000100  1
  Mn  Mn1  1  0.99999700  0.99994900  0.49997600  1
  Re  Re2  1  0.00000200  0.50000900  0.49999900  1
  Re  Re3  1  0.99999900  0.00000800  0.00000500  1
  Pb  Pb4  1  0.50000200  0.49999000  0.00000500  1
  Pb  Pb5  1  0.00000700  0.49999600  0.99999300  1
  Pb  Pb6  1  0.50000200  0.00000600  0.00000400  1
  Pb  Pb7  1  0.50000000  0.49999800  0.49999900  1
  O  O8  1  0.05201900  0.30196300  0.19791900  1
  O  O9  1  0.94797800  0.69804600  0.80208400  1
  O  O10  1  0.67794700  0.92803600  0.57196500  1
  O  O11  1  0.32205300  0.07197800  0.42803600  1
  O  O12  1  0.68866000  0.91844500  0.16523000  1
  O  O13  1  0.06462300  0.33483400  0.58168300  1
  O  O14  1  0.06458200  0.91841000  0.16519100  1
  O  O15  1  0.68856400  0.33480300  0.58164200  1
  O  O16  1  0.31133800  0.08156500  0.83477400  1
  O  O17  1  0.93537700  0.66518000  0.41832500  1
  O  O18  1  0.93541900  0.08160200  0.83480900  1
  O  O19  1  0.31143500  0.66521000  0.41836100  1
