# generated using pymatgen
data_Mn7SnN2
_symmetry_space_group_name_H-M   'P 1'
_cell_length_a   3.84300600
_cell_length_b   3.84300600
_cell_length_c   7.72999100
_cell_angle_alpha   90.00000000
_cell_angle_beta   90.00000000
_cell_angle_gamma   90.00000000
_symmetry_Int_Tables_number   1
_chemical_formula_structural   Mn7SnN2
_chemical_formula_sum   'Mn7 Sn1 N2'
_cell_volume   114.16188033
_cell_formula_units_Z   1
loop_
 _symmetry_equiv_pos_site_id
 _symmetry_equiv_pos_as_xyz
  1  'x, y, z'
loop_
 _atom_site_type_symbol
 _atom_site_label
 _atom_site_symmetry_multiplicity
 _atom_site_fract_x
 _atom_site_fract_y
 _atom_site_fract_z
 _atom_site_occupancy
  Mn  Mn0  1  0.50000000  0.50000000  0.00000000  1
  Mn  Mn1  1  0.50000000  0.50000000  0.50000000  1
  Mn  Mn2  1  0.50000000  0.00000000  0.24863900  1
  Mn  Mn3  1  0.50000000  0.00000000  0.75136100  1
  Mn  Mn4  1  0.00000000  0.50000000  0.24863900  1
  Mn  Mn5  1  0.00000000  0.50000000  0.75136100  1
  Mn  Mn6  1  0.00000000  0.00000000  0.50000000  1
  Sn  Sn7  1  0.00000000  0.00000000  0.00000000  1
  N  N8  1  0.50000000  0.50000000  0.25362300  1
  N  N9  1  0.50000000  0.50000000  0.74637700  1
