# generated using pymatgen
data_MnFeSn4
_symmetry_space_group_name_H-M   'P 1'
_cell_length_a   5.31347233
_cell_length_b   5.31347233
_cell_length_c   5.31347233
_cell_angle_alpha   104.44570089
_cell_angle_beta   104.44570089
_cell_angle_gamma   120.07116285
_symmetry_Int_Tables_number   1
_chemical_formula_structural   MnFeSn4
_chemical_formula_sum   'Mn1 Fe1 Sn4'
_cell_volume   112.47092396
_cell_formula_units_Z   1
loop_
 _symmetry_equiv_pos_site_id
 _symmetry_equiv_pos_as_xyz
  1  'x, y, z'
loop_
 _atom_site_type_symbol
 _atom_site_label
 _atom_site_symmetry_multiplicity
 _atom_site_fract_x
 _atom_site_fract_y
 _atom_site_fract_z
 _atom_site_occupancy
  Mn  Mn0  1  0.50000000  0.50000000  0.00000000  1
  Fe  Fe1  1  0.00000000  0.00000000  0.00000000  1
  Sn  Sn2  1  0.91275400  0.41275400  0.82550800  1
  Sn  Sn3  1  0.58724600  0.08724600  0.17449200  1
  Sn  Sn4  1  0.08724600  0.91275400  0.50000000  1
  Sn  Sn5  1  0.41275400  0.58724600  0.50000000  1
