data_image0
_chemical_formula_structural       K2S4Sb2
_chemical_formula_sum              "K2 S4 Sb2"
_cell_length_a       6.4104
_cell_length_b       6.4104
_cell_length_c       6.95338
_cell_angle_alpha    111.417
_cell_angle_beta     111.417
_cell_angle_gamma    92.1939

_space_group_name_H-M_alt    "P 1"
_space_group_IT_number       1

loop_
  _space_group_symop_operation_xyz
  'x, y, z'

loop_
  _atom_site_type_symbol
  _atom_site_label
  _atom_site_symmetry_multiplicity
  _atom_site_fract_x
  _atom_site_fract_y
  _atom_site_fract_z
  _atom_site_occupancy
  K   K1        1.0  0.14000  0.86000  0.25000  1.0000
  K   K2        1.0  0.86000  0.14000  0.75000  1.0000
  S   S1        1.0  0.62700  0.78000  0.22100  1.0000
  S   S2        1.0  0.22000  0.37300  0.27900  1.0000
  S   S3        1.0  0.78000  0.62700  0.72100  1.0000
  S   S4        1.0  0.37300  0.22000  0.77900  1.0000
  Sb  Sb1       1.0  0.59000  0.41000  0.25000  1.0000
  Sb  Sb2       1.0  0.41000  0.59000  0.75000  1.0000
