# generated using pymatgen
data_MgSi2
_symmetry_space_group_name_H-M   'P 1'
_cell_length_a   3.70969100
_cell_length_b   5.30969400
_cell_length_c   12.15983172
_cell_angle_alpha   77.91341298
_cell_angle_beta   90.00000000
_cell_angle_gamma   90.00000000
_symmetry_Int_Tables_number   1
_chemical_formula_structural   MgSi2
_chemical_formula_sum   'Mg4 Si8'
_cell_volume   234.20661935
_cell_formula_units_Z   4
loop_
 _symmetry_equiv_pos_site_id
 _symmetry_equiv_pos_as_xyz
  1  'x, y, z'
loop_
 _atom_site_type_symbol
 _atom_site_label
 _atom_site_symmetry_multiplicity
 _atom_site_fract_x
 _atom_site_fract_y
 _atom_site_fract_z
 _atom_site_occupancy
  Mg  Mg0  1  0.00000000  0.25164800  0.20192100  1
  Mg  Mg1  1  0.50000000  0.62856100  0.95483500  1
  Mg  Mg2  1  0.00000000  0.00279900  0.71377000  1
  Mg  Mg3  1  0.50000000  0.70760300  0.30149300  1
  Si  Si4  1  0.50000000  0.17614200  0.85990200  1
  Si  Si5  1  0.50000000  0.06982800  0.06056000  1
  Si  Si6  1  0.00000000  0.38593500  0.43234200  1
  Si  Si7  1  0.50000000  0.84340600  0.57214400  1
  Si  Si8  1  0.00000000  0.77840800  0.11155500  1
  Si  Si9  1  0.00000000  0.45458300  0.80024800  1
  Si  Si10  1  0.00000000  0.56383100  0.59553000  1
  Si  Si11  1  0.50000000  0.13701800  0.39552100  1
