# generated using pymatgen
data_Na2CaV12O36
_symmetry_space_group_name_H-M   'P 1'
_cell_length_a   7.26018600
_cell_length_b   13.40098874
_cell_length_c   8.63362443
_cell_angle_alpha   100.87016876
_cell_angle_beta   114.86362729
_cell_angle_gamma   74.28321400
_symmetry_Int_Tables_number   1
_chemical_formula_structural   Na2CaV12O36
_chemical_formula_sum   'Na2 Ca1 V12 O36'
_cell_volume   730.95661183
_cell_formula_units_Z   1
loop_
 _symmetry_equiv_pos_site_id
 _symmetry_equiv_pos_as_xyz
  1  'x, y, z'
loop_
 _atom_site_type_symbol
 _atom_site_label
 _atom_site_symmetry_multiplicity
 _atom_site_fract_x
 _atom_site_fract_y
 _atom_site_fract_z
 _atom_site_occupancy
  Na  Na0  1  0.54055800  0.69207400  0.51986200  1
  Na  Na1  1  0.03723000  0.69207400  0.51986200  1
  Ca  Ca2  1  0.95985500  0.31137500  0.48108600  1
  V  V3  1  0.40368400  0.08421300  0.14158100  1
  V  V4  1  0.91641800  0.06785400  0.15069100  1
  V  V5  1  0.08850300  0.93166400  0.86149400  1
  V  V6  1  0.59132600  0.93166400  0.86149400  1
  V  V7  1  0.53152900  0.54166000  0.85471800  1
  V  V8  1  0.02981100  0.54262700  0.85224900  1
  V  V9  1  0.96919600  0.45989100  0.14771600  1
  V  V10  1  0.46862900  0.45989100  0.14771600  1
  V  V11  1  0.04820200  0.81750800  0.16391200  1
  V  V12  1  0.54662200  0.80359000  0.14683300  1
  V  V13  1  0.45371000  0.18068000  0.84047200  1
  V  V14  1  0.95608200  0.18068000  0.84047200  1
  O  O15  1  0.73670600  0.16764600  0.89105700  1
  O  O16  1  0.25451300  0.16384000  0.92286700  1
  O  O17  1  0.75898700  0.83550400  0.09301200  1
  O  O18  1  0.24852100  0.83550400  0.09301200  1
  O  O19  1  0.44369100  0.16854100  0.30592300  1
  O  O20  1  0.93925400  0.16723300  0.29574100  1
  O  O21  1  0.07671500  0.83211200  0.71997700  1
  O  O22  1  0.56114900  0.83211200  0.71997700  1
  O  O23  1  0.02989100  0.96077000  0.27055200  1
  O  O24  1  0.51222600  0.96244700  0.23689900  1
  O  O25  1  0.46573600  0.03873800  0.73719300  1
  O  O26  1  0.98271900  0.03873800  0.73719300  1
  O  O27  1  0.16614000  0.76155900  0.34383800  1
  O  O28  1  0.66368200  0.76575400  0.34311700  1
  O  O29  1  0.30786500  0.23562900  0.66101100  1
  O  O30  1  0.86751800  0.23562900  0.66101100  1
  O  O31  1  0.50417300  0.44379500  0.70214000  1
  O  O32  1  0.99829400  0.44729800  0.69388600  1
  O  O33  1  0.99699900  0.55499300  0.30239700  1
  O  O34  1  0.50040600  0.55499300  0.30239700  1
  O  O35  1  0.18383100  0.45655800  0.07422000  1
  O  O36  1  0.67914800  0.46080700  0.06910300  1
  O  O37  1  0.31552600  0.54106300  0.92680200  1
  O  O38  1  0.82021300  0.54106300  0.92680200  1
  O  O39  1  0.03679700  0.69346900  0.01706300  1
  O  O40  1  0.53900000  0.68996500  0.01796600  1
  O  O41  1  0.46902500  0.30376200  0.98623200  1
  O  O42  1  0.96344500  0.30376200  0.98623200  1
  O  O43  1  0.38032800  0.93347600  0.94413100  1
  O  O44  1  0.87020500  0.94031700  0.93072600  1
  O  O45  1  0.12105400  0.07127700  0.07117100  1
  O  O46  1  0.62884000  0.07127700  0.07117100  1
  O  O47  1  0.40801000  0.63021900  0.69624000  1
  O  O48  1  0.91283300  0.64474000  0.72040600  1
  O  O49  1  0.06319700  0.35748200  0.27918900  1
  O  O50  1  0.60851000  0.35748200  0.27918900  1
