# generated using pymatgen
data_Na2CaV12O32
_symmetry_space_group_name_H-M   'P 1'
_cell_length_a   7.20636500
_cell_length_b   13.76448924
_cell_length_c   8.60899298
_cell_angle_alpha   102.11349230
_cell_angle_beta   114.74226322
_cell_angle_gamma   74.82465927
_symmetry_Int_Tables_number   1
_chemical_formula_structural   Na2CaV12O32
_chemical_formula_sum   'Na2 Ca1 V12 O32'
_cell_volume   743.59116751
_cell_formula_units_Z   1
loop_
 _symmetry_equiv_pos_site_id
 _symmetry_equiv_pos_as_xyz
  1  'x, y, z'
loop_
 _atom_site_type_symbol
 _atom_site_label
 _atom_site_symmetry_multiplicity
 _atom_site_fract_x
 _atom_site_fract_y
 _atom_site_fract_z
 _atom_site_occupancy
  Na  Na0  1  0.58507200  0.65544900  0.57925700  1
  Na  Na1  1  0.08873600  0.65544900  0.57925700  1
  Ca  Ca2  1  0.91154900  0.34561500  0.41871300  1
  V  V3  1  0.01395300  0.84324600  0.12115100  1
  V  V4  1  0.51415400  0.84363400  0.12194100  1
  V  V5  1  0.48493000  0.15952300  0.88114700  1
  V  V6  1  0.98669400  0.15952300  0.88114700  1
  V  V7  1  0.53213200  0.52497300  0.83923700  1
  V  V8  1  0.03348900  0.52487100  0.84184800  1
  V  V9  1  0.96428700  0.47703400  0.15476000  1
  V  V10  1  0.46343900  0.47703400  0.15476000  1
  V  V11  1  0.42278900  0.08676600  0.18234500  1
  V  V12  1  0.92204700  0.08432000  0.17841300  1
  V  V13  1  0.07779500  0.91694900  0.82245200  1
  V  V14  1  0.57770700  0.91694900  0.82245200  1
  O  O15  1  0.43285500  0.63886300  0.75457400  1
  O  O16  1  0.93488000  0.63758100  0.75734000  1
  O  O17  1  0.03130000  0.35921400  0.22259000  1
  O  O18  1  0.58207500  0.35921400  0.22259000  1
  O  O19  1  0.46852000  0.16523000  0.35227100  1
  O  O20  1  0.96941200  0.16363500  0.35245800  1
  O  O21  1  0.03028300  0.83729400  0.65147200  1
  O  O22  1  0.53389500  0.83729400  0.65147200  1
  O  O23  1  0.17984900  0.46911100  0.07880800  1
  O  O24  1  0.67154300  0.48741100  0.08049700  1
  O  O25  1  0.31640100  0.52857300  0.91904300  1
  O  O26  1  0.82406900  0.52857300  0.91904300  1
  O  O27  1  0.12120100  0.75735000  0.24975100  1
  O  O28  1  0.62116100  0.75718200  0.24950500  1
  O  O29  1  0.37202200  0.24415600  0.75062300  1
  O  O30  1  0.88444500  0.24415600  0.75062300  1
  O  O31  1  0.02546900  0.95921700  0.26015500  1
  O  O32  1  0.52556100  0.95924800  0.26036900  1
  O  O33  1  0.47495000  0.04283600  0.74335600  1
  O  O34  1  0.97557000  0.04283600  0.74335600  1
  O  O35  1  0.77750000  0.16599900  0.97100000  1
  O  O36  1  0.27848500  0.16585700  0.97282800  1
  O  O37  1  0.72198500  0.83653900  0.03004200  1
  O  O38  1  0.22151900  0.83653900  0.03004200  1
  O  O39  1  0.50075000  0.43164700  0.68314700  1
  O  O40  1  0.99777500  0.43166400  0.67721300  1
  O  O41  1  0.00510000  0.56396500  0.32433700  1
  O  O42  1  0.50527100  0.56396500  0.32433700  1
  O  O43  1  0.35934600  0.92590500  0.89459700  1
  O  O44  1  0.85944900  0.92742700  0.89632500  1
  O  O45  1  0.14018000  0.07509200  0.10768000  1
  O  O46  1  0.64240800  0.07509200  0.10768000  1
