# generated using pymatgen
data_MgIn2
_symmetry_space_group_name_H-M   'P 1'
_cell_length_a   7.04329174
_cell_length_b   7.04329174
_cell_length_c   7.04329174
_cell_angle_alpha   152.42026642
_cell_angle_beta   152.42026642
_cell_angle_gamma   39.39988948
_symmetry_Int_Tables_number   1
_chemical_formula_structural   MgIn2
_chemical_formula_sum   'Mg1 In2'
_cell_volume   74.75958181
_cell_formula_units_Z   1
loop_
 _symmetry_equiv_pos_site_id
 _symmetry_equiv_pos_as_xyz
  1  'x, y, z'
loop_
 _atom_site_type_symbol
 _atom_site_label
 _atom_site_symmetry_multiplicity
 _atom_site_fract_x
 _atom_site_fract_y
 _atom_site_fract_z
 _atom_site_occupancy
  Mg  Mg0  1  0.00000000  0.00000000  0.00000000  1
  In  In1  1  0.33933400  0.33933400  0.00000000  1
  In  In2  1  0.66066600  0.66066600  0.00000000  1
