# generated using pymatgen
data_Mn3Cu(Te2O5)4
_symmetry_space_group_name_H-M   'P 1'
_cell_length_a   8.93867700
_cell_length_b   8.93867700
_cell_length_c   13.03491100
_cell_angle_alpha   90.00000000
_cell_angle_beta   90.00000000
_cell_angle_gamma   90.00000000
_symmetry_Int_Tables_number   1
_chemical_formula_structural   Mn3Cu(Te2O5)4
_chemical_formula_sum   'Mn6 Cu2 Te16 O40'
_cell_volume   1041.48869167
_cell_formula_units_Z   2
loop_
 _symmetry_equiv_pos_site_id
 _symmetry_equiv_pos_as_xyz
  1  'x, y, z'
loop_
 _atom_site_type_symbol
 _atom_site_label
 _atom_site_symmetry_multiplicity
 _atom_site_fract_x
 _atom_site_fract_y
 _atom_site_fract_z
 _atom_site_occupancy
  Mn  Mn0  1  0.00000000  0.50000000  0.25148800  1
  Mn  Mn1  1  0.50000000  0.00000000  0.25148800  1
  Mn  Mn2  1  0.50000000  0.00000000  0.74851200  1
  Mn  Mn3  1  0.00000000  0.50000000  0.74851200  1
  Mn  Mn4  1  0.00000000  0.50000000  0.00000000  1
  Mn  Mn5  1  0.50000000  0.00000000  0.00000000  1
  Cu  Cu6  1  0.50000000  0.00000000  0.50000000  1
  Cu  Cu7  1  0.00000000  0.50000000  0.50000000  1
  Te  Te8  1  0.31380500  0.28735600  0.86538700  1
  Te  Te9  1  0.18619500  0.78735600  0.86538700  1
  Te  Te10  1  0.81380500  0.21264400  0.86538700  1
  Te  Te11  1  0.68619500  0.71264400  0.86538700  1
  Te  Te12  1  0.28414000  0.31923500  0.36863300  1
  Te  Te13  1  0.21586000  0.81923500  0.36863300  1
  Te  Te14  1  0.78414000  0.18076500  0.36863300  1
  Te  Te15  1  0.71586000  0.68076500  0.36863300  1
  Te  Te16  1  0.18076500  0.21586000  0.63136700  1
  Te  Te17  1  0.31923500  0.71586000  0.63136700  1
  Te  Te18  1  0.68076500  0.28414000  0.63136700  1
  Te  Te19  1  0.81923500  0.78414000  0.63136700  1
  Te  Te20  1  0.21264400  0.18619500  0.13461300  1
  Te  Te21  1  0.28735600  0.68619500  0.13461300  1
  Te  Te22  1  0.71264400  0.31380500  0.13461300  1
  Te  Te23  1  0.78735600  0.81380500  0.13461300  1
  O  O24  1  0.85249400  0.42128100  0.88209700  1
  O  O25  1  0.64750600  0.92128100  0.88209700  1
  O  O26  1  0.35249400  0.07871900  0.88209700  1
  O  O27  1  0.14750600  0.57871900  0.88209700  1
  O  O28  1  0.42403100  0.86558600  0.38847500  1
  O  O29  1  0.07596900  0.36558600  0.38847500  1
  O  O30  1  0.92403100  0.63441400  0.38847500  1
  O  O31  1  0.57596900  0.13441400  0.38847500  1
  O  O32  1  0.63441400  0.07596900  0.61152500  1
  O  O33  1  0.86558600  0.57596900  0.61152500  1
  O  O34  1  0.13441400  0.42403100  0.61152500  1
  O  O35  1  0.36558600  0.92403100  0.61152500  1
  O  O36  1  0.07871900  0.64750600  0.11790300  1
  O  O37  1  0.42128100  0.14750600  0.11790300  1
  O  O38  1  0.57871900  0.85249400  0.11790300  1
  O  O39  1  0.92128100  0.35249400  0.11790300  1
  O  O40  1  0.12323500  0.27544000  0.79642200  1
  O  O41  1  0.37676500  0.77544000  0.79642200  1
  O  O42  1  0.62323500  0.22456000  0.79642200  1
  O  O43  1  0.87676500  0.72456000  0.79642200  1
  O  O44  1  0.26615900  0.12942500  0.29940000  1
  O  O45  1  0.23384100  0.62942500  0.29940000  1
  O  O46  1  0.76615900  0.37057500  0.29940000  1
  O  O47  1  0.73384100  0.87057500  0.29940000  1
  O  O48  1  0.37057500  0.23384100  0.70060000  1
  O  O49  1  0.12942500  0.73384100  0.70060000  1
  O  O50  1  0.87057500  0.26615900  0.70060000  1
  O  O51  1  0.62942500  0.76615900  0.70060000  1
  O  O52  1  0.22456000  0.37676500  0.20357800  1
  O  O53  1  0.27544000  0.87676500  0.20357800  1
  O  O54  1  0.72456000  0.12323500  0.20357800  1
  O  O55  1  0.77544000  0.62323500  0.20357800  1
  O  O56  1  0.30364600  0.80364600  0.00000000  1
  O  O57  1  0.19635400  0.30364600  0.00000000  1
  O  O58  1  0.80364600  0.69635400  0.00000000  1
  O  O59  1  0.69635400  0.19635400  0.00000000  1
  O  O60  1  0.79654700  0.29654700  0.50000000  1
  O  O61  1  0.70345300  0.79654700  0.50000000  1
  O  O62  1  0.29654700  0.20345300  0.50000000  1
  O  O63  1  0.20345300  0.70345300  0.50000000  1
