# generated using pymatgen
data_MgTa2N3
_symmetry_space_group_name_H-M   'P 1'
_cell_length_a   5.39176599
_cell_length_b   5.39176599
_cell_length_c   5.39176599
_cell_angle_alpha   146.67287654
_cell_angle_beta   132.59086299
_cell_angle_gamma   59.18245040
_symmetry_Int_Tables_number   1
_chemical_formula_structural   MgTa2N3
_chemical_formula_sum   'Mg1 Ta2 N3'
_cell_volume   62.85095145
_cell_formula_units_Z   1
loop_
 _symmetry_equiv_pos_site_id
 _symmetry_equiv_pos_as_xyz
  1  'x, y, z'
loop_
 _atom_site_type_symbol
 _atom_site_label
 _atom_site_symmetry_multiplicity
 _atom_site_fract_x
 _atom_site_fract_y
 _atom_site_fract_z
 _atom_site_occupancy
  Mg  Mg0  1  0.00000000  0.00000000  0.00000000  1
  Ta  Ta1  1  0.66738400  0.66738400  0.00000000  1
  Ta  Ta2  1  0.33261600  0.33261600  0.00000000  1
  N  N3  1  0.50000000  0.00000000  0.50000000  1
  N  N4  1  0.16060000  0.66060000  0.50000000  1
  N  N5  1  0.83940000  0.33940000  0.50000000  1
