# generated using pymatgen
data_Mn8O17
_symmetry_space_group_name_H-M   'P 1'
_cell_length_a   5.83466700
_cell_length_b   7.16340660
_cell_length_c   7.17895543
_cell_angle_alpha   87.60025867
_cell_angle_beta   78.36668649
_cell_angle_gamma   78.12680490
_symmetry_Int_Tables_number   1
_chemical_formula_structural   Mn8O17
_chemical_formula_sum   'Mn8 O17'
_cell_volume   287.60099097
_cell_formula_units_Z   1
loop_
 _symmetry_equiv_pos_site_id
 _symmetry_equiv_pos_as_xyz
  1  'x, y, z'
loop_
 _atom_site_type_symbol
 _atom_site_label
 _atom_site_symmetry_multiplicity
 _atom_site_fract_x
 _atom_site_fract_y
 _atom_site_fract_z
 _atom_site_occupancy
  Mn  Mn0  1  0.92472700  0.48400100  0.81802600  1
  Mn  Mn1  1  0.42413900  0.48520000  0.81811600  1
  Mn  Mn2  1  0.57586100  0.51480000  0.18188400  1
  Mn  Mn3  1  0.07527300  0.51599900  0.18197400  1
  Mn  Mn4  1  0.33326300  0.18227200  0.48453900  1
  Mn  Mn5  1  0.83296200  0.18249100  0.48530000  1
  Mn  Mn6  1  0.16703800  0.81750900  0.51470000  1
  Mn  Mn7  1  0.66673700  0.81772800  0.51546100  1
  O  O8  1  0.52083900  0.29367700  0.62171200  1
  O  O9  1  0.02171700  0.29361300  0.62163500  1
  O  O10  1  0.97828300  0.70638700  0.37836500  1
  O  O11  1  0.47916100  0.70632300  0.37828800  1
  O  O12  1  0.83215100  0.37838900  0.29355900  1
  O  O13  1  0.33254100  0.37771700  0.29228600  1
  O  O14  1  0.66745900  0.62228300  0.70771400  1
  O  O15  1  0.16784900  0.62161100  0.70644100  1
  O  O16  1  0.82679900  0.64041600  0.04722900  1
  O  O17  1  0.32771000  0.64090900  0.04777100  1
  O  O18  1  0.67229000  0.35909100  0.95222900  1
  O  O19  1  0.17320100  0.35958400  0.95277100  1
  O  O20  1  0.85265600  0.95176900  0.64008500  1
  O  O21  1  0.35183200  0.95254300  0.64008200  1
  O  O22  1  0.64816800  0.04745700  0.35991800  1
  O  O23  1  0.14734400  0.04823100  0.35991500  1
  O  O24  1  0.50000000  0.00000000  0.00000000  1
