# generated using pymatgen
data_Na26Ge14Au41
_symmetry_space_group_name_H-M   'P 1'
_cell_length_a   12.88852331
_cell_length_b   12.88852331
_cell_length_c   12.88852331
_cell_angle_alpha   109.61583417
_cell_angle_beta   109.55476706
_cell_angle_gamma   109.24330658
_symmetry_Int_Tables_number   1
_chemical_formula_structural   Na26Ge14Au41
_chemical_formula_sum   'Na26 Ge14 Au41'
_cell_volume   1648.09528979
_cell_formula_units_Z   1
loop_
 _symmetry_equiv_pos_site_id
 _symmetry_equiv_pos_as_xyz
  1  'x, y, z'
loop_
 _atom_site_type_symbol
 _atom_site_label
 _atom_site_symmetry_multiplicity
 _atom_site_fract_x
 _atom_site_fract_y
 _atom_site_fract_z
 _atom_site_occupancy
  Na  Na0  1  0.00010300  0.11994100  0.50003900  1
  Na  Na1  1  0.38009800  0.88005900  0.88016200  1
  Na  Na2  1  0.99989700  0.49993600  0.11983800  1
  Na  Na3  1  0.61990200  0.50006400  0.49996100  1
  Na  Na4  1  0.99989700  0.88005900  0.49996100  1
  Na  Na5  1  0.61990200  0.11994100  0.11983800  1
  Na  Na6  1  0.00010300  0.50006400  0.88016200  1
  Na  Na7  1  0.38009800  0.49993600  0.50003900  1
  Na  Na8  1  0.69493900  0.69493900  0.00000000  1
  Na  Na9  1  0.30506100  0.30506100  0.00000000  1
  Na  Na10  1  0.19423800  0.00000000  0.19423800  1
  Na  Na11  1  0.80576200  0.00000000  0.80576200  1
  Na  Na12  1  0.50000000  0.80226700  0.30226700  1
  Na  Na13  1  0.50000000  0.19773300  0.69773300  1
  Na  Na14  1  0.69114200  0.07902600  0.38788400  1
  Na  Na15  1  0.30885800  0.92097400  0.61211600  1
  Na  Na16  1  0.30885800  0.69674200  0.38788400  1
  Na  Na17  1  0.69114200  0.30325800  0.61211600  1
  Na  Na18  1  0.80015800  0.61091900  0.18923900  1
  Na  Na19  1  0.19984200  0.38908100  0.81076100  1
  Na  Na20  1  0.42168000  0.61091900  0.81076100  1
  Na  Na21  1  0.57832000  0.38908100  0.18923900  1
  Na  Na22  1  0.11113100  0.81073900  0.92187000  1
  Na  Na23  1  0.88886900  0.18926100  0.07813000  1
  Na  Na24  1  0.11113100  0.18926100  0.30039200  1
  Na  Na25  1  0.88886900  0.81073900  0.69960800  1
  Ge  Ge26  1  0.80089600  0.99294200  0.19204600  1
  Ge  Ge27  1  0.19910400  0.00705800  0.80795400  1
  Ge  Ge28  1  0.19910400  0.39115000  0.19204600  1
  Ge  Ge29  1  0.80089600  0.60885000  0.80795400  1
  Ge  Ge30  1  0.10531500  0.80550800  0.29980700  1
  Ge  Ge31  1  0.89468500  0.19449200  0.70019300  1
  Ge  Ge32  1  0.50570100  0.80550800  0.70019300  1
  Ge  Ge33  1  0.49429900  0.19449200  0.29980700  1
  Ge  Ge34  1  0.30758300  0.69929700  0.00688000  1
  Ge  Ge35  1  0.69241700  0.30070300  0.99312000  1
  Ge  Ge36  1  0.30758300  0.30070300  0.60828600  1
  Ge  Ge37  1  0.69241700  0.69929700  0.39171400  1
  Ge  Ge38  1  0.59008500  0.00000000  0.59008500  1
  Ge  Ge39  1  0.40991500  0.00000000  0.40991500  1
  Au  Au40  1  0.95734500  0.90855700  0.24429300  1
  Au  Au41  1  0.33573700  0.09144300  0.04878900  1
  Au  Au42  1  0.04265500  0.28694800  0.95121100  1
  Au  Au43  1  0.66426300  0.71305200  0.75570700  1
  Au  Au44  1  0.21564000  0.75931300  0.16785000  1
  Au  Au45  1  0.78436000  0.95221000  0.54367300  1
  Au  Au46  1  0.59146300  0.04779000  0.83215000  1
  Au  Au47  1  0.40853700  0.24068700  0.45632700  1
  Au  Au48  1  0.54869500  0.83611400  0.09172800  1
  Au  Au49  1  0.74438600  0.45696800  0.90827200  1
  Au  Au50  1  0.25561400  0.16388600  0.71258200  1
  Au  Au51  1  0.45130500  0.54303200  0.28741800  1
  Au  Au52  1  0.04265500  0.09144300  0.75570700  1
  Au  Au53  1  0.66426300  0.90855700  0.95121100  1
  Au  Au54  1  0.95734500  0.71305200  0.04878900  1
  Au  Au55  1  0.33573700  0.28694800  0.24429300  1
  Au  Au56  1  0.78436000  0.24068700  0.83215000  1
  Au  Au57  1  0.21564000  0.04779000  0.45632700  1
  Au  Au58  1  0.40853700  0.95221000  0.16785000  1
  Au  Au59  1  0.59146300  0.75931300  0.54367300  1
  Au  Au60  1  0.45130500  0.16388600  0.90827200  1
  Au  Au61  1  0.25561400  0.54303200  0.09172800  1
  Au  Au62  1  0.74438600  0.83611400  0.28741800  1
  Au  Au63  1  0.54869500  0.45696800  0.71258200  1
  Au  Au64  1  0.89659200  0.23127500  0.33468200  1
  Au  Au65  1  0.10340800  0.76872500  0.66531800  1
  Au  Au66  1  0.10340800  0.43809000  0.33468200  1
  Au  Au67  1  0.89659200  0.56191000  0.66531800  1
  Au  Au68  1  0.06194000  0.66498200  0.39695800  1
  Au  Au69  1  0.93806000  0.33501800  0.60304200  1
  Au  Au70  1  0.26802400  0.66498200  0.60304200  1
  Au  Au71  1  0.73197600  0.33501800  0.39695800  1
  Au  Au72  1  0.16523000  0.60358800  0.76881700  1
  Au  Au73  1  0.83477000  0.39641200  0.23118300  1
  Au  Au74  1  0.16523000  0.39641200  0.56164200  1
  Au  Au75  1  0.83477000  0.60358800  0.43835800  1
  Au  Au76  1  0.00000000  0.50000000  0.50000000  1
  Au  Au77  1  0.50000000  0.40746600  0.90746600  1
  Au  Au78  1  0.50000000  0.59253400  0.09253400  1
  Au  Au79  1  0.09220500  0.09220500  0.00000000  1
  Au  Au80  1  0.90779500  0.90779500  0.00000000  1
