# generated using pymatgen
data_Na13Mn5(SiO3)12
_symmetry_space_group_name_H-M   'P 1'
_cell_length_a   10.39847300
_cell_length_b   7.49424400
_cell_length_c   10.41981602
_cell_angle_alpha   89.32456406
_cell_angle_beta   90.00000000
_cell_angle_gamma   90.00000000
_symmetry_Int_Tables_number   1
_chemical_formula_structural   Na13Mn5(SiO3)12
_chemical_formula_sum   'Na13 Mn5 Si12 O36'
_cell_volume   811.94623107
_cell_formula_units_Z   1
loop_
 _symmetry_equiv_pos_site_id
 _symmetry_equiv_pos_as_xyz
  1  'x, y, z'
loop_
 _atom_site_type_symbol
 _atom_site_label
 _atom_site_symmetry_multiplicity
 _atom_site_fract_x
 _atom_site_fract_y
 _atom_site_fract_z
 _atom_site_occupancy
  Na  Na0  1  0.74330400  0.76682600  0.48935200  1
  Na  Na1  1  0.25669600  0.76682600  0.48935200  1
  Na  Na2  1  0.75590300  0.23060200  0.99030700  1
  Na  Na3  1  0.24409700  0.23060200  0.99030700  1
  Na  Na4  1  0.76804500  0.26740500  0.52216400  1
  Na  Na5  1  0.23195500  0.26740500  0.52216400  1
  Na  Na6  1  0.73330000  0.72243400  0.02116500  1
  Na  Na7  1  0.26670000  0.72243400  0.02116500  1
  Na  Na8  1  0.00000000  0.75752600  0.24978300  1
  Na  Na9  1  0.50000000  0.25651500  0.76203900  1
  Na  Na10  1  0.50000000  0.25484700  0.24576700  1
  Na  Na11  1  0.00000000  0.76182900  0.75117100  1
  Na  Na12  1  0.50000000  0.48964200  0.01412100  1
  Mn  Mn13  1  0.50000000  0.74873100  0.25881800  1
  Mn  Mn14  1  0.00000000  0.25194800  0.75760500  1
  Mn  Mn15  1  0.00000000  0.51251700  0.52120000  1
  Mn  Mn16  1  0.50000000  0.02556300  0.49443000  1
  Mn  Mn17  1  0.00000000  0.98645700  0.99125600  1
  Si  Si18  1  0.50000000  0.49529600  0.52784500  1
  Si  Si19  1  0.00000000  0.50406200  0.03699800  1
  Si  Si20  1  0.00000000  0.00124300  0.47237600  1
  Si  Si21  1  0.50000000  0.98842400  0.98143400  1
  Si  Si22  1  0.76998600  0.03498800  0.25794100  1
  Si  Si23  1  0.23001400  0.03498800  0.25794100  1
  Si  Si24  1  0.72605900  0.96317900  0.76164100  1
  Si  Si25  1  0.27394100  0.96317900  0.76164100  1
  Si  Si26  1  0.77371700  0.46970500  0.25354200  1
  Si  Si27  1  0.22628300  0.46970500  0.25354200  1
  Si  Si28  1  0.73276200  0.53402100  0.74042700  1
  Si  Si29  1  0.26723800  0.53402100  0.74042700  1
  O  O30  1  0.50000000  0.30636300  0.45559300  1
  O  O31  1  0.00000000  0.69363000  0.95971100  1
  O  O32  1  0.50000000  0.81243000  0.07614200  1
  O  O33  1  0.00000000  0.18510700  0.55053700  1
  O  O34  1  0.87129200  0.00022000  0.37789300  1
  O  O35  1  0.12870800  0.00022000  0.37789300  1
  O  O36  1  0.62658600  0.96841600  0.88619000  1
  O  O37  1  0.37341400  0.96841600  0.88619000  1
  O  O38  1  0.50000000  0.18398700  0.03962500  1
  O  O39  1  0.00000000  0.80645400  0.54020600  1
  O  O40  1  0.87349200  0.51818300  0.13447600  1
  O  O41  1  0.12650800  0.51818300  0.13447600  1
  O  O42  1  0.62599000  0.49513300  0.62339200  1
  O  O43  1  0.37401000  0.49513300  0.62339200  1
  O  O44  1  0.74562300  0.25216200  0.24448000  1
  O  O45  1  0.25437700  0.25216200  0.24448000  1
  O  O46  1  0.75668400  0.75211700  0.73296300  1
  O  O47  1  0.24331600  0.75211700  0.73296300  1
  O  O48  1  0.63465900  0.95200300  0.31319800  1
  O  O49  1  0.36534100  0.95200300  0.31319800  1
  O  O50  1  0.85890600  0.04811600  0.81651800  1
  O  O51  1  0.14109400  0.04811600  0.81651800  1
  O  O52  1  0.83478900  0.96244600  0.12714900  1
  O  O53  1  0.16521100  0.96244600  0.12714900  1
  O  O54  1  0.65708500  0.04604300  0.63376300  1
  O  O55  1  0.34291500  0.04604300  0.63376300  1
  O  O56  1  0.50000000  0.68549700  0.44515300  1
  O  O57  1  0.00000000  0.31133600  0.96759600  1
  O  O58  1  0.83891100  0.52226600  0.38855200  1
  O  O59  1  0.16108900  0.52226600  0.38855200  1
  O  O60  1  0.67662000  0.46910100  0.87620400  1
  O  O61  1  0.32338000  0.46910100  0.87620400  1
  O  O62  1  0.63948500  0.56399200  0.21382100  1
  O  O63  1  0.36051500  0.56399200  0.21382100  1
  O  O64  1  0.86551100  0.45094000  0.68615900  1
  O  O65  1  0.13448900  0.45094000  0.68615900  1
