# generated using pymatgen
data_MnFe2(PO4)3
_symmetry_space_group_name_H-M   'P 1'
_cell_length_a   17.81699700
_cell_length_b   4.87005500
_cell_length_c   9.88921408
_cell_angle_alpha   89.63011190
_cell_angle_beta   90.00000000
_cell_angle_gamma   90.00000000
_symmetry_Int_Tables_number   1
_chemical_formula_structural   MnFe2(PO4)3
_chemical_formula_sum   'Mn4 Fe8 P12 O48'
_cell_volume   858.06680457
_cell_formula_units_Z   4
loop_
 _symmetry_equiv_pos_site_id
 _symmetry_equiv_pos_as_xyz
  1  'x, y, z'
loop_
 _atom_site_type_symbol
 _atom_site_label
 _atom_site_symmetry_multiplicity
 _atom_site_fract_x
 _atom_site_fract_y
 _atom_site_fract_z
 _atom_site_occupancy
  Mn  Mn0  1  0.50000000  0.57366100  0.78182100  1
  Mn  Mn1  1  0.83337800  0.57301000  0.78183800  1
  Mn  Mn2  1  0.16662200  0.57301000  0.78183800  1
  Mn  Mn3  1  0.50000000  0.92449900  0.28256600  1
  Fe  Fe4  1  0.83335600  0.94979600  0.27481300  1
  Fe  Fe5  1  0.16664400  0.94979600  0.27481300  1
  Fe  Fe6  1  0.66617000  0.45015900  0.22443400  1
  Fe  Fe7  1  0.00000000  0.45192100  0.22562100  1
  Fe  Fe8  1  0.33383000  0.45015900  0.22443400  1
  Fe  Fe9  1  0.66688200  0.05300900  0.72297600  1
  Fe  Fe10  1  0.00000000  0.05296900  0.72292600  1
  Fe  Fe11  1  0.33311800  0.05300900  0.72297600  1
  P  P12  1  0.50000000  0.09840500  0.59584300  1
  P  P13  1  0.83340100  0.09984700  0.59670400  1
  P  P14  1  0.16659900  0.09984700  0.59670400  1
  P  P15  1  0.50000000  0.40281900  0.09632000  1
  P  P16  1  0.83329600  0.40144500  0.09400600  1
  P  P17  1  0.16670400  0.40144500  0.09400600  1
  P  P18  1  0.66765800  0.89860000  0.40591200  1
  P  P19  1  0.00000000  0.89801500  0.40559600  1
  P  P20  1  0.33234200  0.89860000  0.40591200  1
  P  P21  1  0.66666400  0.59922500  0.90564900  1
  P  P22  1  0.00000000  0.59889900  0.90570100  1
  P  P23  1  0.33333600  0.59922500  0.90564900  1
  O  O24  1  0.50000000  0.78358800  0.61869400  1
  O  O25  1  0.83333800  0.78476900  0.61979700  1
  O  O26  1  0.16666200  0.78476900  0.61979700  1
  O  O27  1  0.50000000  0.71697300  0.11911300  1
  O  O28  1  0.83338300  0.70989000  0.11844700  1
  O  O29  1  0.16661700  0.70989000  0.11844700  1
  O  O30  1  0.66671200  0.20737600  0.37963700  1
  O  O31  1  0.00000000  0.20753400  0.37941100  1
  O  O32  1  0.33328800  0.20737600  0.37963700  1
  O  O33  1  0.66650000  0.29162400  0.88011100  1
  O  O34  1  0.00000000  0.29139000  0.88035900  1
  O  O35  1  0.33350000  0.29162400  0.88011100  1
  O  O36  1  0.43150600  0.24008500  0.66555300  1
  O  O37  1  0.76482300  0.24046900  0.66722900  1
  O  O38  1  0.09811400  0.24053900  0.66729400  1
  O  O39  1  0.56857700  0.25994300  0.16623000  1
  O  O40  1  0.90092000  0.25223200  0.16683300  1
  O  O41  1  0.23427300  0.25217700  0.16683300  1
  O  O42  1  0.60047000  0.74791500  0.33181800  1
  O  O43  1  0.93241300  0.75182200  0.33135600  1
  O  O44  1  0.26512600  0.75223800  0.33159000  1
  O  O45  1  0.73355900  0.75166400  0.83190400  1
  O  O46  1  0.06691800  0.75170300  0.83227800  1
  O  O47  1  0.40031400  0.75173500  0.83192100  1
  O  O48  1  0.73487400  0.75223800  0.33159000  1
  O  O49  1  0.06758700  0.75182200  0.33135600  1
  O  O50  1  0.39953000  0.74791500  0.33181800  1
  O  O51  1  0.59968600  0.75173500  0.83192100  1
  O  O52  1  0.93308200  0.75170300  0.83227800  1
  O  O53  1  0.26644100  0.75166400  0.83190400  1
  O  O54  1  0.56849400  0.24008500  0.66555300  1
  O  O55  1  0.90188600  0.24053900  0.66729400  1
  O  O56  1  0.23517700  0.24046900  0.66722900  1
  O  O57  1  0.43142300  0.25994300  0.16623000  1
  O  O58  1  0.76572700  0.25217700  0.16683300  1
  O  O59  1  0.09908000  0.25223200  0.16683300  1
  O  O60  1  0.50000000  0.35059000  0.94232200  1
  O  O61  1  0.83330800  0.34245600  0.94090400  1
  O  O62  1  0.16669200  0.34245600  0.94090400  1
  O  O63  1  0.50000000  0.15011800  0.44131100  1
  O  O64  1  0.83335100  0.15130700  0.44332500  1
  O  O65  1  0.16664900  0.15130700  0.44332500  1
  O  O66  1  0.66716300  0.65994300  0.05705100  1
  O  O67  1  0.00000000  0.65811900  0.05748400  1
  O  O68  1  0.33283700  0.65994300  0.05705100  1
  O  O69  1  0.66670000  0.83680900  0.55742900  1
  O  O70  1  0.00000000  0.83692600  0.55716300  1
  O  O71  1  0.33330000  0.83680900  0.55742900  1
