# generated using pymatgen
data_Mn9Al8Fe3(SiO4)12
_symmetry_space_group_name_H-M   'P 1'
_cell_length_a   10.15492694
_cell_length_b   10.15492694
_cell_length_c   11.71756091
_cell_angle_alpha   54.75600995
_cell_angle_beta   54.75600995
_cell_angle_gamma   70.52033800
_symmetry_Int_Tables_number   1
_chemical_formula_structural   Mn9Al8Fe3(SiO4)12
_chemical_formula_sum   'Mn9 Al8 Fe3 Si12 O48'
_cell_volume   805.96846568
_cell_formula_units_Z   1
loop_
 _symmetry_equiv_pos_site_id
 _symmetry_equiv_pos_as_xyz
  1  'x, y, z'
loop_
 _atom_site_type_symbol
 _atom_site_label
 _atom_site_symmetry_multiplicity
 _atom_site_fract_x
 _atom_site_fract_y
 _atom_site_fract_z
 _atom_site_occupancy
  Mn  Mn0  1  0.62464100  0.37535900  0.50000000  1
  Mn  Mn1  1  0.87577100  0.37464200  0.62548300  1
  Mn  Mn2  1  0.62535800  0.12422900  0.37451700  1
  Mn  Mn3  1  0.75015800  0.75003700  0.87500100  1
  Mn  Mn4  1  0.24996300  0.24984200  0.12499900  1
  Mn  Mn5  1  0.12513700  0.87486300  0.50000000  1
  Mn  Mn6  1  0.37486800  0.62513200  0.00000000  1
  Mn  Mn7  1  0.12494900  0.62510500  0.87489400  1
  Mn  Mn8  1  0.37489500  0.87505100  0.12510600  1
  Al  Al9  1  0.49956800  0.49948900  0.25102200  1
  Al  Al10  1  0.50051100  0.50043200  0.74897800  1
  Al  Al11  1  0.99923900  0.99986800  0.24955700  1
  Al  Al12  1  0.00013200  0.00076100  0.75044300  1
  Al  Al13  1  0.49945100  0.00062100  0.74949300  1
  Al  Al14  1  0.50122700  0.99944400  0.25005400  1
  Al  Al15  1  0.99937900  0.50054900  0.25050700  1
  Al  Al16  1  0.00055600  0.49877300  0.74994600  1
  Fe  Fe17  1  0.24972200  0.24993000  0.62529100  1
  Fe  Fe18  1  0.75007000  0.75027800  0.37470900  1
  Fe  Fe19  1  0.87527700  0.12472300  0.00000000  1
  Si  Si20  1  0.24956200  0.24973900  0.87488400  1
  Si  Si21  1  0.75026100  0.75043800  0.12511600  1
  Si  Si22  1  0.62559500  0.37440500  0.00000000  1
  Si  Si23  1  0.87501900  0.12498100  0.50000000  1
  Si  Si24  1  0.12513400  0.62516100  0.37488300  1
  Si  Si25  1  0.37483900  0.87486600  0.62511700  1
  Si  Si26  1  0.75006400  0.75007700  0.62436700  1
  Si  Si27  1  0.24992300  0.24993600  0.37563300  1
  Si  Si28  1  0.37482200  0.62517800  0.50000000  1
  Si  Si29  1  0.12458500  0.87541500  0.00000000  1
  Si  Si30  1  0.87512600  0.37505200  0.12458300  1
  Si  Si31  1  0.62494800  0.12487400  0.87541700  1
  O  O32  1  0.48811900  0.41761800  0.94906800  1
  O  O33  1  0.58238300  0.51188100  0.05093200  1
  O  O34  1  0.91766300  0.98801800  0.64543700  1
  O  O35  1  0.01198200  0.08233700  0.35456300  1
  O  O36  1  0.31306300  0.61709600  0.23716300  1
  O  O37  1  0.11685500  0.81312100  0.33239700  1
  O  O38  1  0.18687900  0.88314500  0.66760300  1
  O  O39  1  0.38290400  0.68693700  0.76283700  1
  O  O40  1  0.19948100  0.10444000  0.06281100  1
  O  O41  1  0.30041200  0.39528800  0.86668900  1
  O  O42  1  0.89556000  0.80051900  0.93718900  1
  O  O43  1  0.60471200  0.69958800  0.13331100  1
  O  O44  1  0.51328200  0.58371100  0.54921200  1
  O  O45  1  0.41628900  0.48671800  0.45078800  1
  O  O46  1  0.08166400  0.01435500  0.85500500  1
  O  O47  1  0.98564500  0.91833600  0.14499500  1
  O  O48  1  0.68728900  0.38290900  0.26265700  1
  O  O49  1  0.88330200  0.18761700  0.16573000  1
  O  O50  1  0.81238300  0.11669800  0.83427000  1
  O  O51  1  0.61709100  0.31271100  0.73734300  1
  O  O52  1  0.80005300  0.89449900  0.43615200  1
  O  O53  1  0.69983700  0.60547600  0.63087100  1
  O  O54  1  0.10550100  0.19994700  0.56384800  1
  O  O55  1  0.39452400  0.30016300  0.36912900  1
  O  O56  1  0.51326300  0.91609200  0.43770500  1
  O  O57  1  0.41596000  0.01327000  0.63310500  1
  O  O58  1  0.08390800  0.48673700  0.56229500  1
  O  O59  1  0.98673000  0.58404000  0.36689500  1
  O  O60  1  0.68709600  0.11689500  0.55016200  1
  O  O61  1  0.88310500  0.31290400  0.44983800  1
  O  O62  1  0.81367100  0.38090500  0.85541300  1
  O  O63  1  0.61909500  0.18632900  0.14458700  1
  O  O64  1  0.80013300  0.60594600  0.26362000  1
  O  O65  1  0.70090300  0.89535600  0.16822700  1
  O  O66  1  0.10464400  0.29909700  0.83177300  1
  O  O67  1  0.39405400  0.19986700  0.73638000  1
  O  O68  1  0.48753100  0.08228500  0.06332900  1
  O  O69  1  0.58237300  0.98785900  0.86680500  1
  O  O70  1  0.91771500  0.51246900  0.93667100  1
  O  O71  1  0.01214100  0.41762700  0.13319500  1
  O  O72  1  0.31261900  0.88300300  0.94981200  1
  O  O73  1  0.11699700  0.68738100  0.05018800  1
  O  O74  1  0.18702000  0.61685700  0.64572700  1
  O  O75  1  0.38314300  0.81298000  0.35427300  1
  O  O76  1  0.19942500  0.39541800  0.23790000  1
  O  O77  1  0.30108700  0.10481600  0.33248400  1
  O  O78  1  0.89518400  0.69891300  0.66751600  1
  O  O79  1  0.60458200  0.80057500  0.76210000  1
