# generated using pymatgen
data_MgScAlO4
_symmetry_space_group_name_H-M   'P 1'
_cell_length_a   3.26850781
_cell_length_b   3.26864286
_cell_length_c   8.56701801
_cell_angle_alpha   90.00000214
_cell_angle_beta   100.99516588
_cell_angle_gamma   59.99861682
_symmetry_Int_Tables_number   1
_chemical_formula_structural   MgScAlO4
_chemical_formula_sum   'Mg1 Sc1 Al1 O4'
_cell_volume   77.31698283
_cell_formula_units_Z   1
loop_
 _symmetry_equiv_pos_site_id
 _symmetry_equiv_pos_as_xyz
  1  'x, y, z'
loop_
 _atom_site_type_symbol
 _atom_site_label
 _atom_site_symmetry_multiplicity
 _atom_site_fract_x
 _atom_site_fract_y
 _atom_site_fract_z
 _atom_site_occupancy
  Mg  Mg0  1  0.56643600  0.21678200  0.34958900  1
  Sc  Sc1  1  0.99086900  0.00456500  0.98633500  1
  Al  Al2  1  0.42667600  0.78666200  0.63998300  1
  O  O3  1  0.75809200  0.12095400  0.63710700  1
  O  O4  1  0.27658400  0.86170800  0.41479600  1
  O  O5  1  0.40625600  0.29687200  0.10948800  1
  O  O6  1  0.57508600  0.71245700  0.86270200  1
