# generated using pymatgen
data_Mn2CuSb2Pt
_symmetry_space_group_name_H-M   'P 1'
_cell_length_a   7.58346957
_cell_length_b   7.58346957
_cell_length_c   7.58346950
_cell_angle_alpha   33.59855328
_cell_angle_beta   33.59855328
_cell_angle_gamma   33.59855043
_symmetry_Int_Tables_number   1
_chemical_formula_structural   Mn2CuSb2Pt
_chemical_formula_sum   'Mn2 Cu1 Sb2 Pt1'
_cell_volume   118.96199996
_cell_formula_units_Z   1
loop_
 _symmetry_equiv_pos_site_id
 _symmetry_equiv_pos_as_xyz
  1  'x, y, z'
loop_
 _atom_site_type_symbol
 _atom_site_label
 _atom_site_symmetry_multiplicity
 _atom_site_fract_x
 _atom_site_fract_y
 _atom_site_fract_z
 _atom_site_occupancy
  Mn  Mn0  1  0.75046800  0.75046800  0.75046800  1
  Mn  Mn1  1  0.24937300  0.24937300  0.24937300  1
  Cu  Cu2  1  0.12461300  0.12461300  0.12461300  1
  Sb  Sb3  1  0.00223700  0.00223700  0.00223700  1
  Sb  Sb4  1  0.49797100  0.49797100  0.49797100  1
  Pt  Pt5  1  0.62533800  0.62533800  0.62533800  1
