# generated using pymatgen
data_Na12Ca3Fe2(SiO3)12
_symmetry_space_group_name_H-M   'P 1'
_cell_length_a   10.38100300
_cell_length_b   7.49746300
_cell_length_c   10.58532197
_cell_angle_alpha   89.97550186
_cell_angle_beta   90.00000000
_cell_angle_gamma   90.00000000
_symmetry_Int_Tables_number   1
_chemical_formula_structural   Na12Ca3Fe2(SiO3)12
_chemical_formula_sum   'Na12 Ca3 Fe2 Si12 O36'
_cell_volume   823.86808651
_cell_formula_units_Z   1
loop_
 _symmetry_equiv_pos_site_id
 _symmetry_equiv_pos_as_xyz
  1  'x, y, z'
loop_
 _atom_site_type_symbol
 _atom_site_label
 _atom_site_symmetry_multiplicity
 _atom_site_fract_x
 _atom_site_fract_y
 _atom_site_fract_z
 _atom_site_occupancy
  Na  Na0  1  0.23078900  0.48907800  0.25416500  1
  Na  Na1  1  0.25433900  0.51766400  0.73445100  1
  Na  Na2  1  0.20529200  0.94796200  0.23547500  1
  Na  Na3  1  0.24027400  0.01616300  0.76746200  1
  Na  Na4  1  0.74566100  0.51766400  0.73445100  1
  Na  Na5  1  0.76921100  0.48907800  0.25416500  1
  Na  Na6  1  0.75972600  0.01616300  0.76746200  1
  Na  Na7  1  0.79470800  0.94796200  0.23547500  1
  Na  Na8  1  0.00000000  0.56653700  0.43274500  1
  Na  Na9  1  0.50000000  0.00077800  0.00472100  1
  Na  Na10  1  0.50000000  0.00339400  0.49982600  1
  Na  Na11  1  0.00000000  0.55374500  0.02390700  1
  Ca  Ca12  1  0.00000000  0.26680500  0.76299900  1
  Ca  Ca13  1  0.50000000  0.24170300  0.26064200  1
  Ca  Ca14  1  0.50000000  0.75653000  0.73645000  1
  Fe  Fe15  1  0.50000000  0.49881200  0.49940300  1
  Fe  Fe16  1  0.00000000  0.99703900  0.00297800  1
  Si  Si17  1  0.00000000  0.23868200  0.28087100  1
  Si  Si18  1  0.00000000  0.75577700  0.72198200  1
  Si  Si19  1  0.50000000  0.74631300  0.22246300  1
  Si  Si20  1  0.50000000  0.25305000  0.77974600  1
  Si  Si21  1  0.23576300  0.78321800  0.51078700  1
  Si  Si22  1  0.23193500  0.21297300  0.49535800  1
  Si  Si23  1  0.26720400  0.28241200  0.99316000  1
  Si  Si24  1  0.27139400  0.71584300  0.00455100  1
  Si  Si25  1  0.76806500  0.21297300  0.49535800  1
  Si  Si26  1  0.76423700  0.78321800  0.51078700  1
  Si  Si27  1  0.72860600  0.71584300  0.00455100  1
  Si  Si28  1  0.73279600  0.28241200  0.99316000  1
  O  O29  1  0.13931700  0.81798200  0.03956700  1
  O  O30  1  0.13603600  0.18708700  0.94301700  1
  O  O31  1  0.36452700  0.31231500  0.44745600  1
  O  O32  1  0.36759000  0.68477600  0.56085500  1
  O  O33  1  0.86396400  0.18708700  0.94301700  1
  O  O34  1  0.86068300  0.81798200  0.03956700  1
  O  O35  1  0.63241000  0.68477600  0.56085500  1
  O  O36  1  0.63547300  0.31231500  0.44745600  1
  O  O37  1  0.17879500  0.71708300  0.38049800  1
  O  O38  1  0.17060100  0.27898600  0.62672700  1
  O  O39  1  0.33183200  0.21268800  0.12240500  1
  O  O40  1  0.33902700  0.77707300  0.87471400  1
  O  O41  1  0.82939900  0.27898600  0.62672700  1
  O  O42  1  0.82120500  0.71708300  0.38049800  1
  O  O43  1  0.66097300  0.77707300  0.87471400  1
  O  O44  1  0.66816800  0.21268800  0.12240500  1
  O  O45  1  0.27199400  0.99913500  0.51013500  1
  O  O46  1  0.23535500  0.49961300  0.00143400  1
  O  O47  1  0.72800600  0.99913500  0.51013500  1
  O  O48  1  0.76464500  0.49961300  0.00143400  1
  O  O49  1  0.00000000  0.43429700  0.22227300  1
  O  O50  1  0.00000000  0.56851400  0.79680500  1
  O  O51  1  0.50000000  0.93773300  0.29023800  1
  O  O52  1  0.50000000  0.06094300  0.71237100  1
  O  O53  1  0.37174200  0.74052400  0.12629400  1
  O  O54  1  0.37146100  0.25908500  0.87376500  1
  O  O55  1  0.12973000  0.22313900  0.37505200  1
  O  O56  1  0.13054600  0.75855800  0.62969400  1
  O  O57  1  0.62853900  0.25908500  0.87376500  1
  O  O58  1  0.62825800  0.74052400  0.12629400  1
  O  O59  1  0.86945400  0.75855800  0.62969400  1
  O  O60  1  0.87027000  0.22313900  0.37505200  1
  O  O61  1  0.50000000  0.56558300  0.30871300  1
  O  O62  1  0.50000000  0.43254500  0.69322700  1
  O  O63  1  0.00000000  0.07012600  0.18518900  1
  O  O64  1  0.00000000  0.94067800  0.80330700  1
