# generated using pymatgen
data_Na4Cd7(N5O6)6
_symmetry_space_group_name_H-M   'P 1'
_cell_length_a   12.14450565
_cell_length_b   12.14450565
_cell_length_c   12.14450574
_cell_angle_alpha   109.78941858
_cell_angle_beta   109.78941858
_cell_angle_gamma   109.78941858
_symmetry_Int_Tables_number   1
_chemical_formula_structural   Na4Cd7(N5O6)6
_chemical_formula_sum   'Na4 Cd7 N30 O36'
_cell_volume   1362.36571157
_cell_formula_units_Z   1
loop_
 _symmetry_equiv_pos_site_id
 _symmetry_equiv_pos_as_xyz
  1  'x, y, z'
loop_
 _atom_site_type_symbol
 _atom_site_label
 _atom_site_symmetry_multiplicity
 _atom_site_fract_x
 _atom_site_fract_y
 _atom_site_fract_z
 _atom_site_occupancy
  Na  Na0  1  0.00161700  0.00161700  0.50617600  1
  Na  Na1  1  0.00161700  0.50617600  0.00161700  1
  Na  Na2  1  0.50617600  0.00161700  0.00161700  1
  Na  Na3  1  0.52203300  0.52203300  0.52203300  1
  Cd  Cd4  1  0.96984500  0.96984500  0.75365000  1
  Cd  Cd5  1  0.96984500  0.75365000  0.96984500  1
  Cd  Cd6  1  0.75365000  0.96984500  0.96984500  1
  Cd  Cd7  1  0.23482300  0.23482300  0.23482300  1
  Cd  Cd8  1  0.99789800  0.99789800  0.23633200  1
  Cd  Cd9  1  0.23633200  0.99789800  0.99789800  1
  Cd  Cd10  1  0.99789800  0.23633200  0.99789800  1
  N  N11  1  0.26237500  0.26237500  0.99906300  1
  N  N12  1  0.26237500  0.99906300  0.26237500  1
  N  N13  1  0.99906300  0.26237500  0.26237500  1
  N  N14  1  0.73394600  0.00392000  0.73394600  1
  N  N15  1  0.00392000  0.73394600  0.73394600  1
  N  N16  1  0.73394600  0.73394600  0.00392000  1
  N  N17  1  0.00148400  0.73838400  0.26488400  1
  N  N18  1  0.73838400  0.26488400  0.00148400  1
  N  N19  1  0.26488400  0.00148400  0.73838400  1
  N  N20  1  0.73838400  0.00148400  0.26488400  1
  N  N21  1  0.26488400  0.73838400  0.00148400  1
  N  N22  1  0.00148400  0.26488400  0.73838400  1
  N  N23  1  0.46639800  0.73373900  0.73373900  1
  N  N24  1  0.26600600  0.53109700  0.26600600  1
  N  N25  1  0.73373900  0.46639800  0.73373900  1
  N  N26  1  0.53109700  0.26600600  0.26600600  1
  N  N27  1  0.26600600  0.26600600  0.53109700  1
  N  N28  1  0.73373900  0.73373900  0.46639800  1
  N  N29  1  0.34335800  0.34335800  0.99682600  1
  N  N30  1  0.34335800  0.99682600  0.34335800  1
  N  N31  1  0.99682600  0.34335800  0.34335800  1
  N  N32  1  0.64630000  0.99174400  0.64630000  1
  N  N33  1  0.99174400  0.64630000  0.64630000  1
  N  N34  1  0.64630000  0.64630000  0.99174400  1
  N  N35  1  0.17387900  0.17387900  0.00123200  1
  N  N36  1  0.17387800  0.00123200  0.17387900  1
  N  N37  1  0.00123200  0.17387900  0.17387900  1
  N  N38  1  0.82867800  0.01477700  0.82867800  1
  N  N39  1  0.01477700  0.82867800  0.82867800  1
  N  N40  1  0.82867800  0.82867800  0.01477700  1
  O  O41  1  0.00173100  0.69863700  0.15207400  1
  O  O42  1  0.69863700  0.15207400  0.00173100  1
  O  O43  1  0.15207400  0.00173100  0.69863700  1
  O  O44  1  0.69863700  0.00173100  0.15207400  1
  O  O45  1  0.15207400  0.69863700  0.00173100  1
  O  O46  1  0.00173100  0.15207400  0.69863700  1
  O  O47  1  0.52783500  0.84989600  0.84989600  1
  O  O48  1  0.31131800  0.46375000  0.31131800  1
  O  O49  1  0.84989600  0.52783500  0.84989600  1
  O  O50  1  0.46375000  0.31131800  0.31131800  1
  O  O51  1  0.31131800  0.31131800  0.46375000  1
  O  O52  1  0.84989600  0.84989600  0.52783500  1
  O  O53  1  0.00026000  0.67262500  0.32207200  1
  O  O54  1  0.67262500  0.32207200  0.00026000  1
  O  O55  1  0.32207200  0.00026000  0.67262500  1
  O  O56  1  0.67262500  0.00026000  0.32207200  1
  O  O57  1  0.32207200  0.67262500  0.00026000  1
  O  O58  1  0.00026000  0.32207200  0.67262500  1
  O  O59  1  0.34151000  0.66794100  0.66794100  1
  O  O60  1  0.32885300  0.65524700  0.32885300  1
  O  O61  1  0.66794100  0.34151000  0.66794100  1
  O  O62  1  0.65524700  0.32885300  0.32885300  1
  O  O63  1  0.32885300  0.32885300  0.65524700  1
  O  O64  1  0.66794100  0.66794100  0.34151000  1
  O  O65  1  0.00330700  0.85213000  0.31752500  1
  O  O66  1  0.85213000  0.31752500  0.00330700  1
  O  O67  1  0.31752500  0.00330700  0.85213000  1
  O  O68  1  0.85213000  0.00330700  0.31752500  1
  O  O69  1  0.31752500  0.85213000  0.00330700  1
  O  O70  1  0.00330700  0.31752500  0.85213000  1
  O  O71  1  0.54277100  0.70032200  0.70032200  1
  O  O72  1  0.15153500  0.46317700  0.15153500  1
  O  O73  1  0.70032200  0.54277100  0.70032200  1
  O  O74  1  0.46317700  0.15153500  0.15153500  1
  O  O75  1  0.15153500  0.15153500  0.46317700  1
  O  O76  1  0.70032200  0.70032200  0.54277100  1
