# generated using pymatgen
data_Mg4SiSn
_symmetry_space_group_name_H-M   'P 1'
_cell_length_a   8.04741794
_cell_length_b   8.04741794
_cell_length_c   8.04741790
_cell_angle_alpha   33.72108494
_cell_angle_beta   33.72108494
_cell_angle_gamma   33.72108692
_symmetry_Int_Tables_number   1
_chemical_formula_structural   Mg4SiSn
_chemical_formula_sum   'Mg4 Si1 Sn1'
_cell_volume   143.10387459
_cell_formula_units_Z   1
loop_
 _symmetry_equiv_pos_site_id
 _symmetry_equiv_pos_as_xyz
  1  'x, y, z'
loop_
 _atom_site_type_symbol
 _atom_site_label
 _atom_site_symmetry_multiplicity
 _atom_site_fract_x
 _atom_site_fract_y
 _atom_site_fract_z
 _atom_site_occupancy
  Mg  Mg0  1  0.62155300  0.62155300  0.62155300  1
  Mg  Mg1  1  0.12813700  0.12813700  0.12813700  1
  Mg  Mg2  1  0.87186300  0.87186300  0.87186300  1
  Mg  Mg3  1  0.37844700  0.37844700  0.37844700  1
  Si  Si4  1  0.50000000  0.50000000  0.50000000  1
  Sn  Sn5  1  0.00000000  0.00000000  0.00000000  1
