# generated using pymatgen
data_MgSi
_symmetry_space_group_name_H-M   'P 1'
_cell_length_a   14.86183468
_cell_length_b   14.86183468
_cell_length_c   4.05803600
_cell_angle_alpha   90.00000000
_cell_angle_beta   90.00000000
_cell_angle_gamma   165.50589329
_symmetry_Int_Tables_number   1
_chemical_formula_structural   MgSi
_chemical_formula_sum   'Mg6 Si6'
_cell_volume   224.33013895
_cell_formula_units_Z   6
loop_
 _symmetry_equiv_pos_site_id
 _symmetry_equiv_pos_as_xyz
  1  'x, y, z'
loop_
 _atom_site_type_symbol
 _atom_site_label
 _atom_site_symmetry_multiplicity
 _atom_site_fract_x
 _atom_site_fract_y
 _atom_site_fract_z
 _atom_site_occupancy
  Mg  Mg0  1  0.11738700  0.88261300  0.75000000  1
  Mg  Mg1  1  0.45095100  0.54904900  0.75000000  1
  Mg  Mg2  1  0.28445500  0.71554500  0.25000000  1
  Mg  Mg3  1  0.54904900  0.45095100  0.25000000  1
  Mg  Mg4  1  0.88261300  0.11738700  0.25000000  1
  Mg  Mg5  1  0.71554500  0.28445500  0.75000000  1
  Si  Si6  1  0.63976900  0.36023100  0.25000000  1
  Si  Si7  1  0.97537700  0.02462300  0.25000000  1
  Si  Si8  1  0.80707200  0.19292800  0.75000000  1
  Si  Si9  1  0.02462300  0.97537700  0.75000000  1
  Si  Si10  1  0.36023100  0.63976900  0.75000000  1
  Si  Si11  1  0.19292800  0.80707200  0.25000000  1
