# generated using pymatgen
data_Mg3(ClO3)2
_symmetry_space_group_name_H-M   'P 1'
_cell_length_a   3.82098900
_cell_length_b   7.95627371
_cell_length_c   5.98511011
_cell_angle_alpha   99.63590100
_cell_angle_beta   90.00000000
_cell_angle_gamma   76.10612809
_symmetry_Int_Tables_number   1
_chemical_formula_structural   Mg3(ClO3)2
_chemical_formula_sum   'Mg3 Cl2 O6'
_cell_volume   173.98317753
_cell_formula_units_Z   1
loop_
 _symmetry_equiv_pos_site_id
 _symmetry_equiv_pos_as_xyz
  1  'x, y, z'
loop_
 _atom_site_type_symbol
 _atom_site_label
 _atom_site_symmetry_multiplicity
 _atom_site_fract_x
 _atom_site_fract_y
 _atom_site_fract_z
 _atom_site_occupancy
  Mg  Mg0  1  0.62400800  0.75198300  0.26024100  1
  Mg  Mg1  1  0.37599200  0.24801700  0.73975900  1
  Mg  Mg2  1  0.00000000  0.00000000  0.00000000  1
  Cl  Cl3  1  0.77698600  0.44602800  0.28168000  1
  Cl  Cl4  1  0.22301400  0.55397200  0.71832000  1
  O  O5  1  0.48882700  0.02234600  0.12910100  1
  O  O6  1  0.51117300  0.97765400  0.87089900  1
  O  O7  1  0.11509400  0.76981200  0.13868600  1
  O  O8  1  0.88490600  0.23018800  0.86131400  1
  O  O9  1  0.08484400  0.83031300  0.38805900  1
  O  O10  1  0.91515600  0.16968700  0.61194100  1
