# generated using pymatgen
data_Mn5Cr4O12
_symmetry_space_group_name_H-M   'P 1'
_cell_length_a   6.17222300
_cell_length_b   8.52509943
_cell_length_c   10.59365202
_cell_angle_alpha   113.58759978
_cell_angle_beta   106.88138752
_cell_angle_gamma   90.18909101
_symmetry_Int_Tables_number   1
_chemical_formula_structural   Mn5Cr4O12
_chemical_formula_sum   'Mn10 Cr8 O24'
_cell_volume   484.27867594
_cell_formula_units_Z   2
loop_
 _symmetry_equiv_pos_site_id
 _symmetry_equiv_pos_as_xyz
  1  'x, y, z'
loop_
 _atom_site_type_symbol
 _atom_site_label
 _atom_site_symmetry_multiplicity
 _atom_site_fract_x
 _atom_site_fract_y
 _atom_site_fract_z
 _atom_site_occupancy
  Mn  Mn0  1  0.41569800  0.04146800  0.33353200  1
  Mn  Mn1  1  0.08567800  0.70836700  0.66740500  1
  Mn  Mn2  1  0.74980700  0.37452300  0.00103500  1
  Mn  Mn3  1  0.91432200  0.29163300  0.33259500  1
  Mn  Mn4  1  0.58430200  0.95853200  0.66646800  1
  Mn  Mn5  1  0.25019300  0.62547700  0.99896500  1
  Mn  Mn6  1  0.83745300  0.33523200  0.66973500  1
  Mn  Mn7  1  0.50000000  0.00000000  0.00000000  1
  Mn  Mn8  1  0.16254700  0.66476800  0.33026500  1
  Mn  Mn9  1  0.50000000  0.50000000  0.50000000  1
  Cr  Cr10  1  0.16757200  0.16575800  0.83350300  1
  Cr  Cr11  1  0.83242800  0.83424200  0.16649700  1
  Cr  Cr12  1  0.66990200  0.66624600  0.83403500  1
  Cr  Cr13  1  0.33009800  0.33375400  0.16596500  1
  Cr  Cr14  1  0.00000000  0.00000000  0.50000000  1
  Cr  Cr15  1  0.33447200  0.33342800  0.66717200  1
  Cr  Cr16  1  0.00000000  0.00000000  0.00000000  1
  Cr  Cr17  1  0.66552800  0.66657200  0.33282800  1
  O  O18  1  0.63189400  0.42745700  0.33518200  1
  O  O19  1  0.30348000  0.09430900  0.66645500  1
  O  O20  1  0.96966600  0.76192300  0.00175000  1
  O  O21  1  0.35631800  0.57635000  0.17935200  1
  O  O22  1  0.02336000  0.24295100  0.51323700  1
  O  O23  1  0.68822000  0.91027100  0.84714300  1
  O  O24  1  0.49322000  0.72587500  0.48165000  1
  O  O25  1  0.16542200  0.39415800  0.81528300  1
  O  O26  1  0.83107900  0.06179700  0.14881700  1
  O  O27  1  0.17546800  0.43268700  0.32125400  1
  O  O28  1  0.86203100  0.10152600  0.66636300  1
  O  O29  1  0.52786400  0.76926000  0.99961200  1
  O  O30  1  0.69652000  0.90569100  0.33354500  1
  O  O31  1  0.36810600  0.57254300  0.66481800  1
  O  O32  1  0.03033400  0.23807700  0.99825000  1
  O  O33  1  0.97664000  0.75704900  0.48676300  1
  O  O34  1  0.64368200  0.42365000  0.82064800  1
  O  O35  1  0.31178000  0.08972900  0.15285700  1
  O  O36  1  0.83457800  0.60584200  0.18471700  1
  O  O37  1  0.50678000  0.27412500  0.51835000  1
  O  O38  1  0.16892100  0.93820300  0.85118300  1
  O  O39  1  0.13796900  0.89847400  0.33363700  1
  O  O40  1  0.82453200  0.56731300  0.67874600  1
  O  O41  1  0.47213600  0.23074000  0.00038800  1
