# generated using pymatgen
data_Mg4Sc
_symmetry_space_group_name_H-M   'P 1'
_cell_length_a   13.33217323
_cell_length_b   13.33217323
_cell_length_c   13.33217263
_cell_angle_alpha   13.78767900
_cell_angle_beta   13.78767900
_cell_angle_gamma   13.78767873
_symmetry_Int_Tables_number   1
_chemical_formula_structural   Mg4Sc
_chemical_formula_sum   'Mg4 Sc1'
_cell_volume   117.12830108
_cell_formula_units_Z   1
loop_
 _symmetry_equiv_pos_site_id
 _symmetry_equiv_pos_as_xyz
  1  'x, y, z'
loop_
 _atom_site_type_symbol
 _atom_site_label
 _atom_site_symmetry_multiplicity
 _atom_site_fract_x
 _atom_site_fract_y
 _atom_site_fract_z
 _atom_site_occupancy
  Mg  Mg0  1  0.59970700  0.59970700  0.59970700  1
  Mg  Mg1  1  0.19993100  0.19993100  0.19993100  1
  Mg  Mg2  1  0.80006900  0.80006900  0.80006900  1
  Mg  Mg3  1  0.40029300  0.40029300  0.40029300  1
  Sc  Sc4  1  0.00000000  0.00000000  0.00000000  1
