# generated using pymatgen
data_Mg9Al8Fe3(SiO4)12
_symmetry_space_group_name_H-M   'P 1'
_cell_length_a   10.03796743
_cell_length_b   10.03796743
_cell_length_c   11.57444819
_cell_angle_alpha   54.82602241
_cell_angle_beta   54.82602241
_cell_angle_gamma   70.54758276
_symmetry_Int_Tables_number   1
_chemical_formula_structural   Mg9Al8Fe3(SiO4)12
_chemical_formula_sum   'Mg9 Al8 Fe3 Si12 O48'
_cell_volume   779.23326195
_cell_formula_units_Z   1
loop_
 _symmetry_equiv_pos_site_id
 _symmetry_equiv_pos_as_xyz
  1  'x, y, z'
loop_
 _atom_site_type_symbol
 _atom_site_label
 _atom_site_symmetry_multiplicity
 _atom_site_fract_x
 _atom_site_fract_y
 _atom_site_fract_z
 _atom_site_occupancy
  Mg  Mg0  1  0.37487600  0.62512400  0.50000000  1
  Mg  Mg1  1  0.75083100  0.74993500  0.12454200  1
  Mg  Mg2  1  0.25006500  0.24916900  0.87545800  1
  Mg  Mg3  1  0.87481100  0.37492000  0.62515700  1
  Mg  Mg4  1  0.62508000  0.12518900  0.37484300  1
  Mg  Mg5  1  0.87471300  0.12528700  0.50000000  1
  Mg  Mg6  1  0.62527600  0.37472400  0.00000000  1
  Mg  Mg7  1  0.25008200  0.24997400  0.37511500  1
  Mg  Mg8  1  0.75002600  0.74991800  0.62488500  1
  Al  Al9  1  0.99985700  0.49965500  0.75013400  1
  Al  Al10  1  0.50034500  0.00014300  0.24986600  1
  Al  Al11  1  0.50058200  0.00059700  0.74920100  1
  Al  Al12  1  0.99940300  0.49941800  0.25079900  1
  Al  Al13  1  0.50050200  0.49975400  0.74962000  1
  Al  Al14  1  0.99932100  0.00020600  0.25034600  1
  Al  Al15  1  0.50024600  0.49949800  0.25038000  1
  Al  Al16  1  0.99979400  0.00067900  0.74965400  1
  Fe  Fe17  1  0.12493500  0.62514500  0.87500900  1
  Fe  Fe18  1  0.37485500  0.87506500  0.12499100  1
  Fe  Fe19  1  0.12511000  0.87489000  0.00000000  1
  Si  Si20  1  0.37677200  0.87630200  0.62318700  1
  Si  Si21  1  0.12369800  0.62322800  0.37681300  1
  Si  Si22  1  0.87387900  0.12612100  0.00000000  1
  Si  Si23  1  0.62511700  0.37488300  0.50000000  1
  Si  Si24  1  0.75000700  0.75006000  0.87439800  1
  Si  Si25  1  0.24994000  0.24999300  0.12560200  1
  Si  Si26  1  0.62626500  0.12626400  0.87367400  1
  Si  Si27  1  0.87373600  0.37373500  0.12632600  1
  Si  Si28  1  0.12430400  0.87569600  0.50000000  1
  Si  Si29  1  0.37666500  0.62333500  0.00000000  1
  Si  Si30  1  0.25000100  0.25058200  0.62445300  1
  Si  Si31  1  0.74941800  0.74999900  0.37554700  1
  O  O32  1  0.68556200  0.12115100  0.14687700  1
  O  O33  1  0.87884900  0.31443800  0.85312300  1
  O  O34  1  0.81360400  0.37915900  0.45387800  1
  O  O35  1  0.62084100  0.18639600  0.54612200  1
  O  O36  1  0.79695200  0.60346800  0.83229800  1
  O  O37  1  0.70329800  0.89669700  0.73260100  1
  O  O38  1  0.10330300  0.29670200  0.26739900  1
  O  O39  1  0.39653200  0.20304800  0.16770200  1
  O  O40  1  0.51803800  0.91759500  0.62897000  1
  O  O41  1  0.41822000  0.01809700  0.43505200  1
  O  O42  1  0.08240500  0.48196200  0.37103000  1
  O  O43  1  0.98190300  0.58178000  0.56494800  1
  O  O44  1  0.31379000  0.88001600  0.35428400  1
  O  O45  1  0.11998400  0.68621000  0.64571600  1
  O  O46  1  0.18767300  0.61712100  0.04812200  1
  O  O47  1  0.38287900  0.81232700  0.95187800  1
  O  O48  1  0.20284600  0.39647600  0.66780700  1
  O  O49  1  0.29825200  0.10453400  0.76585300  1
  O  O50  1  0.89546600  0.70174800  0.23414700  1
  O  O51  1  0.60352400  0.79715400  0.33219300  1
  O  O52  1  0.48435400  0.08575600  0.86750900  1
  O  O53  1  0.58503900  0.98461200  0.06231600  1
  O  O54  1  0.91424400  0.51564600  0.13249100  1
  O  O55  1  0.01538800  0.41496100  0.93768400  1
  O  O56  1  0.20182400  0.10400500  0.13011500  1
  O  O57  1  0.29828800  0.39534100  0.93596400  1
  O  O58  1  0.89599500  0.79817600  0.86988500  1
  O  O59  1  0.60465900  0.70171200  0.06403600  1
  O  O60  1  0.48295100  0.41781300  0.64630800  1
  O  O61  1  0.58218700  0.51704900  0.35369200  1
  O  O62  1  0.91490000  0.98443000  0.95298100  1
  O  O63  1  0.01557000  0.08510000  0.04701900  1
  O  O64  1  0.31231200  0.61758700  0.33564000  1
  O  O65  1  0.11719200  0.81214000  0.23583600  1
  O  O66  1  0.18786000  0.88280800  0.76416400  1
  O  O67  1  0.38241300  0.68768800  0.66436000  1
  O  O68  1  0.79631800  0.89677800  0.37059400  1
  O  O69  1  0.70334800  0.60352700  0.56403200  1
  O  O70  1  0.10322200  0.20368200  0.62940600  1
  O  O71  1  0.39647300  0.29665200  0.43596800  1
  O  O72  1  0.51793700  0.58179900  0.85315300  1
  O  O73  1  0.41820100  0.48206300  0.14684700  1
  O  O74  1  0.08239400  0.01742000  0.54680000  1
  O  O75  1  0.98258000  0.91760600  0.45320000  1
  O  O76  1  0.68543600  0.37873600  0.16775900  1
  O  O77  1  0.87880600  0.18558800  0.26817800  1
  O  O78  1  0.81441200  0.12119400  0.73182200  1
  O  O79  1  0.62126400  0.31456400  0.83224100  1
