# generated using pymatgen
data_Na14Mg9(P2O7)8
_symmetry_space_group_name_H-M   'P 1'
_cell_length_a   9.85018100
_cell_length_b   11.03022392
_cell_length_c   12.93444365
_cell_angle_alpha   66.10424921
_cell_angle_beta   67.86207000
_cell_angle_gamma   72.36806625
_symmetry_Int_Tables_number   1
_chemical_formula_structural   Na14Mg9(P2O7)8
_chemical_formula_sum   'Na14 Mg9 P16 O56'
_cell_volume   1171.26228467
_cell_formula_units_Z   1
loop_
 _symmetry_equiv_pos_site_id
 _symmetry_equiv_pos_as_xyz
  1  'x, y, z'
loop_
 _atom_site_type_symbol
 _atom_site_label
 _atom_site_symmetry_multiplicity
 _atom_site_fract_x
 _atom_site_fract_y
 _atom_site_fract_z
 _atom_site_occupancy
  Na  Na0  1  0.87392000  0.87951500  0.60275400  1
  Na  Na1  1  0.37499100  0.89204900  0.08418900  1
  Na  Na2  1  0.12608000  0.12048500  0.39724600  1
  Na  Na3  1  0.62500900  0.10795100  0.91581100  1
  Na  Na4  1  0.04146800  0.65084200  0.94203400  1
  Na  Na5  1  0.53882600  0.65671800  0.44276400  1
  Na  Na6  1  0.95853200  0.34915800  0.05796600  1
  Na  Na7  1  0.46117400  0.34328200  0.55723600  1
  Na  Na8  1  0.12931000  0.52542200  0.66205200  1
  Na  Na9  1  0.63005300  0.52428700  0.16204900  1
  Na  Na10  1  0.87069000  0.47457800  0.33794800  1
  Na  Na11  1  0.36994700  0.47571300  0.83795100  1
  Na  Na12  1  0.65999300  0.96579700  0.39121500  1
  Na  Na13  1  0.34000700  0.03420300  0.60878500  1
  Mg  Mg14  1  0.80711600  0.21725400  0.58227900  1
  Mg  Mg15  1  0.30753400  0.21967800  0.07984400  1
  Mg  Mg16  1  0.19288400  0.78274600  0.41772100  1
  Mg  Mg17  1  0.69246600  0.78032200  0.92015600  1
  Mg  Mg18  1  0.93700800  0.26651400  0.79799800  1
  Mg  Mg19  1  0.44025600  0.26264500  0.29984900  1
  Mg  Mg20  1  0.06299200  0.73348600  0.20200200  1
  Mg  Mg21  1  0.55974400  0.73735500  0.70015100  1
  Mg  Mg22  1  0.00000000  0.00000000  0.00000000  1
  P  P23  1  0.71033700  0.45512400  0.63228300  1
  P  P24  1  0.20998800  0.45810900  0.13010300  1
  P  P25  1  0.28966300  0.54487600  0.36771700  1
  P  P26  1  0.79001200  0.54189100  0.86989700  1
  P  P27  1  0.87264500  0.68662000  0.48955100  1
  P  P28  1  0.36568900  0.69253700  0.98643100  1
  P  P29  1  0.12735500  0.31338000  0.51044900  1
  P  P30  1  0.63431100  0.30746300  0.01356900  1
  P  P31  1  0.76909700  0.21360400  0.34137700  1
  P  P32  1  0.26451900  0.19733000  0.84519900  1
  P  P33  1  0.23090300  0.78639600  0.65862300  1
  P  P34  1  0.73548100  0.80267000  0.15480100  1
  P  P35  1  0.97005300  0.95666900  0.77024800  1
  P  P36  1  0.46348100  0.96500400  0.26317000  1
  P  P37  1  0.02994700  0.04333100  0.22975200  1
  P  P38  1  0.53651900  0.03499600  0.73683000  1
  O  O39  1  0.90346300  0.70376900  0.36049800  1
  O  O40  1  0.39817000  0.69864800  0.86024900  1
  O  O41  1  0.09653700  0.29623100  0.63950200  1
  O  O42  1  0.60183000  0.30135200  0.13975100  1
  O  O43  1  0.80255900  0.35013400  0.25218700  1
  O  O44  1  0.28474800  0.33684300  0.75671400  1
  O  O45  1  0.19744100  0.64986600  0.74781300  1
  O  O46  1  0.71525200  0.66315700  0.24328600  1
  O  O47  1  0.92059400  0.04108200  0.65985400  1
  O  O48  1  0.41732500  0.03806300  0.15021300  1
  O  O49  1  0.07940600  0.95891800  0.34014600  1
  O  O50  1  0.58267500  0.96193700  0.84978700  1
  O  O51  1  0.07830300  0.54706100  0.18912100  1
  O  O52  1  0.58199000  0.54346600  0.69354600  1
  O  O53  1  0.92169700  0.45293900  0.81087900  1
  O  O54  1  0.41801000  0.45653400  0.30645400  1
  O  O55  1  0.14899200  0.90197100  0.72821800  1
  O  O56  1  0.64543500  0.91338900  0.22585400  1
  O  O57  1  0.85100800  0.09802900  0.27178200  1
  O  O58  1  0.35456500  0.08661100  0.77414600  1
  O  O59  1  0.00034900  0.70276300  0.52003900  1
  O  O60  1  0.49417300  0.71046300  0.01544500  1
  O  O61  1  0.99965100  0.29723700  0.47996100  1
  O  O62  1  0.50582700  0.28953700  0.98455500  1
  O  O63  1  0.85101200  0.53191400  0.56798500  1
  O  O64  1  0.34762600  0.53729700  0.06982300  1
  O  O65  1  0.14898800  0.46808600  0.43201500  1
  O  O66  1  0.65237400  0.46270300  0.93017700  1
  O  O67  1  0.72554200  0.77601500  0.53408200  1
  O  O68  1  0.21796300  0.78368000  0.02984000  1
  O  O69  1  0.27445800  0.22398500  0.46591800  1
  O  O70  1  0.78203700  0.21632000  0.97016000  1
  O  O71  1  0.67741900  0.43027900  0.53485400  1
  O  O72  1  0.18133600  0.43276300  0.03084300  1
  O  O73  1  0.32258100  0.56972100  0.46514600  1
  O  O74  1  0.81866400  0.56723700  0.96915700  1
  O  O75  1  0.84027500  0.16364500  0.44145600  1
  O  O76  1  0.33346200  0.15728800  0.94468100  1
  O  O77  1  0.15972500  0.83635500  0.55854400  1
  O  O78  1  0.66653800  0.84271200  0.05531900  1
  O  O79  1  0.95133600  0.04156000  0.84633800  1
  O  O80  1  0.44097300  0.05756800  0.33195400  1
  O  O81  1  0.04866400  0.95844000  0.15366200  1
  O  O82  1  0.55902700  0.94243200  0.66804600  1
  O  O83  1  0.77046900  0.31661700  0.71223700  1
  O  O84  1  0.26795100  0.31952700  0.21095500  1
  O  O85  1  0.22953100  0.68338300  0.28776300  1
  O  O86  1  0.73204900  0.68047300  0.78904500  1
  O  O87  1  0.10214800  0.17008500  0.89440500  1
  O  O88  1  0.60591300  0.19643100  0.38664000  1
  O  O89  1  0.89785200  0.82991500  0.10559500  1
  O  O90  1  0.39408700  0.80356900  0.61336000  1
  O  O91  1  0.89920900  0.83120800  0.83975100  1
  O  O92  1  0.39768200  0.83683800  0.33721100  1
  O  O93  1  0.10079100  0.16879200  0.16024900  1
  O  O94  1  0.60231800  0.16316200  0.66278900  1
