# generated using pymatgen
data_MgTi2Pb4WO12
_symmetry_space_group_name_H-M   'P 1'
_cell_length_a   9.00927117
_cell_length_b   9.00927117
_cell_length_c   9.00927117
_cell_angle_alpha   143.30922702
_cell_angle_beta   143.30922702
_cell_angle_gamma   52.86150262
_symmetry_Int_Tables_number   1
_chemical_formula_structural   MgTi2Pb4WO12
_chemical_formula_sum   'Mg1 Ti2 Pb4 W1 O12'
_cell_volume   259.47623670
_cell_formula_units_Z   1
loop_
 _symmetry_equiv_pos_site_id
 _symmetry_equiv_pos_as_xyz
  1  'x, y, z'
loop_
 _atom_site_type_symbol
 _atom_site_label
 _atom_site_symmetry_multiplicity
 _atom_site_fract_x
 _atom_site_fract_y
 _atom_site_fract_z
 _atom_site_occupancy
  Mg  Mg0  1  0.50000000  0.50000000  0.00000000  1
  Ti  Ti1  1  0.74286700  0.74286700  0.00000000  1
  Ti  Ti2  1  0.25713300  0.25713300  0.00000000  1
  Pb  Pb3  1  0.12714700  0.62714700  0.50000000  1
  Pb  Pb4  1  0.37285300  0.87285300  0.50000000  1
  Pb  Pb5  1  0.62714700  0.12714700  0.50000000  1
  Pb  Pb6  1  0.87285300  0.37285300  0.50000000  1
  W  W7  1  0.00000000  0.00000000  0.00000000  1
  O  O8  1  0.50000000  0.50000000  0.50000000  1
  O  O9  1  0.75809900  0.75809900  0.51619900  1
  O  O10  1  0.00000000  0.00000000  0.50000000  1
  O  O11  1  0.24190100  0.24190100  0.48380100  1
  O  O12  1  0.62950100  0.62950100  0.00000000  1
  O  O13  1  0.87729000  0.87729000  0.00000000  1
  O  O14  1  0.12271000  0.12271000  0.00000000  1
  O  O15  1  0.37049900  0.37049900  0.00000000  1
  O  O16  1  0.50000000  0.00000000  0.00000000  1
  O  O17  1  0.75809900  0.24190100  0.00000000  1
  O  O18  1  0.00000000  0.50000000  0.00000000  1
  O  O19  1  0.24190100  0.75809900  0.00000000  1
