# generated using pymatgen
data_Na16Ti7(SiO5)8
_symmetry_space_group_name_H-M   'P 1'
_cell_length_a   10.60045866
_cell_length_b   10.60045866
_cell_length_c   10.97778315
_cell_angle_alpha   78.06576199
_cell_angle_beta   78.06576199
_cell_angle_gamma   124.21963915
_symmetry_Int_Tables_number   1
_chemical_formula_structural   Na16Ti7(SiO5)8
_chemical_formula_sum   'Na16 Ti7 Si8 O40'
_cell_volume   914.94413070
_cell_formula_units_Z   1
loop_
 _symmetry_equiv_pos_site_id
 _symmetry_equiv_pos_as_xyz
  1  'x, y, z'
loop_
 _atom_site_type_symbol
 _atom_site_label
 _atom_site_symmetry_multiplicity
 _atom_site_fract_x
 _atom_site_fract_y
 _atom_site_fract_z
 _atom_site_occupancy
  Na  Na0  1  0.75435300  0.00277100  0.25048900  1
  Na  Na1  1  0.27133900  0.50926100  0.24764000  1
  Na  Na2  1  0.99722900  0.24564700  0.74951100  1
  Na  Na3  1  0.49073900  0.72866100  0.75236000  1
  Na  Na4  1  0.72866100  0.49073900  0.75236000  1
  Na  Na5  1  0.24564700  0.99722900  0.74951100  1
  Na  Na6  1  0.50926100  0.27133900  0.24764000  1
  Na  Na7  1  0.00277100  0.75435300  0.25048900  1
  Na  Na8  1  0.16839700  0.16839700  0.24802500  1
  Na  Na9  1  0.67523100  0.67523100  0.24110200  1
  Na  Na10  1  0.83160300  0.83160300  0.75197500  1
  Na  Na11  1  0.32476900  0.32476900  0.75889800  1
  Na  Na12  1  0.00000000  0.50000000  0.50000000  1
  Na  Na13  1  0.50000000  0.00000000  0.50000000  1
  Na  Na14  1  0.73805700  0.26194300  0.00000000  1
  Na  Na15  1  0.26194300  0.73805700  0.00000000  1
  Ti  Ti16  1  0.85445000  0.35861000  0.25451400  1
  Ti  Ti17  1  0.35861000  0.85445000  0.25451400  1
  Ti  Ti18  1  0.64139000  0.14555000  0.74548600  1
  Ti  Ti19  1  0.14555000  0.64139000  0.74548600  1
  Ti  Ti20  1  0.72189100  0.72189100  0.52448400  1
  Ti  Ti21  1  0.27810900  0.27810900  0.47551600  1
  Ti  Ti22  1  0.00000000  0.00000000  0.00000000  1
  Si  Si23  1  0.87590000  0.12410000  0.50000000  1
  Si  Si24  1  0.37672100  0.62327900  0.50000000  1
  Si  Si25  1  0.63293300  0.89399100  0.99212500  1
  Si  Si26  1  0.10600900  0.36706700  0.00787500  1
  Si  Si27  1  0.62327900  0.37672100  0.50000000  1
  Si  Si28  1  0.12410000  0.87590000  0.50000000  1
  Si  Si29  1  0.36706700  0.10600900  0.00787500  1
  Si  Si30  1  0.89399100  0.63293300  0.99212500  1
  O  O31  1  0.20848300  0.38753600  0.10383100  1
  O  O32  1  0.76243900  0.91281700  0.06123500  1
  O  O33  1  0.61246400  0.79151700  0.89616900  1
  O  O34  1  0.08718300  0.23756100  0.93876500  1
  O  O35  1  0.07781300  0.22569500  0.44360500  1
  O  O36  1  0.58004900  0.72842600  0.42983900  1
  O  O37  1  0.77430500  0.92218700  0.55639500  1
  O  O38  1  0.27157400  0.41995100  0.57016100  1
  O  O39  1  0.23756100  0.08718300  0.93876500  1
  O  O40  1  0.79151700  0.61246400  0.89616900  1
  O  O41  1  0.91281700  0.76243900  0.06123500  1
  O  O42  1  0.38753600  0.20848300  0.10383100  1
  O  O43  1  0.41995100  0.27157400  0.57016100  1
  O  O44  1  0.92218700  0.77430500  0.55639500  1
  O  O45  1  0.72842600  0.58004900  0.42983900  1
  O  O46  1  0.22569500  0.07781300  0.44360500  1
  O  O47  1  0.02906700  0.53039700  0.25547400  1
  O  O48  1  0.53039700  0.02906700  0.25547400  1
  O  O49  1  0.46960300  0.97093300  0.74452600  1
  O  O50  1  0.97093300  0.46960300  0.74452600  1
  O  O51  1  0.70526900  0.07932900  0.89141900  1
  O  O52  1  0.19980600  0.54884400  0.88656300  1
  O  O53  1  0.92067100  0.29473100  0.10858100  1
  O  O54  1  0.45115600  0.80019400  0.11343700  1
  O  O55  1  0.83158800  0.18388100  0.61826300  1
  O  O56  1  0.34029900  0.69231700  0.61347900  1
  O  O57  1  0.81611900  0.16841200  0.38173700  1
  O  O58  1  0.30768300  0.65970100  0.38652100  1
  O  O59  1  0.80019400  0.45115600  0.11343700  1
  O  O60  1  0.29473100  0.92067100  0.10858100  1
  O  O61  1  0.54884400  0.19980600  0.88656300  1
  O  O62  1  0.07932900  0.70526900  0.89141900  1
  O  O63  1  0.65970100  0.30768300  0.38652100  1
  O  O64  1  0.16841200  0.81611900  0.38173700  1
  O  O65  1  0.69231700  0.34029900  0.61347900  1
  O  O66  1  0.18388100  0.83158800  0.61826300  1
  O  O67  1  0.42180600  0.42180600  0.31487700  1
  O  O68  1  0.96820800  0.96820800  0.18590800  1
  O  O69  1  0.57819400  0.57819400  0.68512300  1
  O  O70  1  0.03179200  0.03179200  0.81409200  1
