# generated using pymatgen
data_Mg6SiGe2
_symmetry_space_group_name_H-M   'P 1'
_cell_length_a   7.83895697
_cell_length_b   7.83895697
_cell_length_c   7.83895697
_cell_angle_alpha   146.39317150
_cell_angle_beta   131.82927061
_cell_angle_gamma   60.01531439
_symmetry_Int_Tables_number   1
_chemical_formula_structural   Mg6SiGe2
_chemical_formula_sum   'Mg6 Si1 Ge2'
_cell_volume   196.84617402
_cell_formula_units_Z   1
loop_
 _symmetry_equiv_pos_site_id
 _symmetry_equiv_pos_as_xyz
  1  'x, y, z'
loop_
 _atom_site_type_symbol
 _atom_site_label
 _atom_site_symmetry_multiplicity
 _atom_site_fract_x
 _atom_site_fract_y
 _atom_site_fract_z
 _atom_site_occupancy
  Mg  Mg0  1  0.75097900  0.50000000  0.25097900  1
  Mg  Mg1  1  0.41580000  0.16631000  0.24948900  1
  Mg  Mg2  1  0.08317900  0.83369000  0.24948900  1
  Mg  Mg3  1  0.24902100  0.50000000  0.74902100  1
  Mg  Mg4  1  0.91682100  0.16631000  0.75051100  1
  Mg  Mg5  1  0.58420000  0.83369000  0.75051100  1
  Si  Si6  1  0.00000000  0.00000000  0.00000000  1
  Ge  Ge7  1  0.66666800  0.66666800  0.00000000  1
  Ge  Ge8  1  0.33333200  0.33333200  0.00000000  1
