# generated using pymatgen
data_Mg3Al12FeSi4(BO9)4
_symmetry_space_group_name_H-M   'P 1'
_cell_length_a   5.82672200
_cell_length_b   10.43835400
_cell_length_c   11.12389673
_cell_angle_alpha   89.96809145
_cell_angle_beta   90.00000000
_cell_angle_gamma   90.00000000
_symmetry_Int_Tables_number   1
_chemical_formula_structural   Mg3Al12FeSi4(BO9)4
_chemical_formula_sum   'Mg3 Al12 Fe1 Si4 B4 O36'
_cell_volume   676.57072158
_cell_formula_units_Z   1
loop_
 _symmetry_equiv_pos_site_id
 _symmetry_equiv_pos_as_xyz
  1  'x, y, z'
loop_
 _atom_site_type_symbol
 _atom_site_label
 _atom_site_symmetry_multiplicity
 _atom_site_fract_x
 _atom_site_fract_y
 _atom_site_fract_z
 _atom_site_occupancy
  Mg  Mg0  1  0.50000000  0.90756600  0.21905200  1
  Mg  Mg1  1  0.00000000  0.40758900  0.28081200  1
  Mg  Mg2  1  0.00000000  0.09216700  0.78096700  1
  Al  Al3  1  0.25007200  0.50000000  0.49921000  1
  Al  Al4  1  0.74989900  0.99988400  0.99998100  1
  Al  Al5  1  0.74992800  0.50000000  0.49921000  1
  Al  Al6  1  0.25010100  0.99988400  0.99998100  1
  Al  Al7  1  0.50000000  0.72646200  0.94781200  1
  Al  Al8  1  0.50000000  0.77388400  0.44784400  1
  Al  Al9  1  0.00000000  0.27340000  0.05221600  1
  Al  Al10  1  0.00000000  0.22632300  0.55191300  1
  Al  Al11  1  0.25003200  0.99991300  0.49999400  1
  Al  Al12  1  0.75005100  0.50000500  0.00064400  1
  Al  Al13  1  0.74996800  0.99991300  0.49999400  1
  Al  Al14  1  0.24994900  0.50000500  0.00064400  1
  Fe  Fe15  1  0.50000000  0.59275100  0.71821500  1
  Si  Si16  1  0.50000000  0.93501900  0.76374100  1
  Si  Si17  1  0.50000000  0.56619500  0.26386400  1
  Si  Si18  1  0.00000000  0.06596500  0.23622000  1
  Si  Si19  1  0.00000000  0.43280900  0.73714000  1
  B  B20  1  0.00000000  0.75113500  0.50030800  1
  B  B21  1  0.00000000  0.74902000  0.00025400  1
  B  B22  1  0.50000000  0.24903400  0.49976000  1
  B  B23  1  0.50000000  0.25095200  0.99972300  1
  O  O24  1  0.00000000  0.04716200  0.59983300  1
  O  O25  1  0.00000000  0.45291600  0.09973700  1
  O  O26  1  0.50000000  0.95297200  0.40021400  1
  O  O27  1  0.50000000  0.54646600  0.90314600  1
  O  O28  1  0.20410900  0.68078000  0.00095600  1
  O  O29  1  0.79575300  0.81915200  0.50102100  1
  O  O30  1  0.70444200  0.31915600  0.99894600  1
  O  O31  1  0.29573000  0.18086500  0.49899100  1
  O  O32  1  0.29555800  0.31915600  0.99894600  1
  O  O33  1  0.70427000  0.18086500  0.49899100  1
  O  O34  1  0.79589100  0.68078000  0.00095600  1
  O  O35  1  0.20424700  0.81915200  0.50102100  1
  O  O36  1  0.50000000  0.77753800  0.79037400  1
  O  O37  1  0.50000000  0.72483900  0.28841000  1
  O  O38  1  0.00000000  0.22482900  0.21158000  1
  O  O39  1  0.00000000  0.27484500  0.71165300  1
  O  O40  1  0.50000000  0.61796000  0.51964800  1
  O  O41  1  0.50000000  0.88161600  0.02264300  1
  O  O42  1  0.00000000  0.38157900  0.47763800  1
  O  O43  1  0.00000000  0.11846500  0.97756700  1
  O  O44  1  0.50000000  0.97376000  0.62005700  1
  O  O45  1  0.50000000  0.52627000  0.12067700  1
  O  O46  1  0.00000000  0.02643700  0.37982200  1
  O  O47  1  0.00000000  0.47376500  0.87989600  1
  O  O48  1  0.00000000  0.62142700  0.49657900  1
  O  O49  1  0.00000000  0.87848900  0.99649500  1
  O  O50  1  0.50000000  0.37847900  0.50374700  1
  O  O51  1  0.50000000  0.12161500  0.00350700  1
  O  O52  1  0.22488300  0.49208800  0.66971400  1
  O  O53  1  0.77233800  0.00705500  0.17087500  1
  O  O54  1  0.72783500  0.50691700  0.32900000  1
  O  O55  1  0.27201900  0.99333600  0.82913600  1
  O  O56  1  0.27216500  0.50691700  0.32900000  1
  O  O57  1  0.72798100  0.99333600  0.82913600  1
  O  O58  1  0.77511700  0.49208800  0.66971400  1
  O  O59  1  0.22766200  0.00705500  0.17087500  1
