# generated using pymatgen
data_LuZnFeO4
_symmetry_space_group_name_H-M   'P 1'
_cell_length_a   8.83175115
_cell_length_b   8.83175115
_cell_length_c   8.83175154
_cell_angle_alpha   22.38641522
_cell_angle_beta   22.38641522
_cell_angle_gamma   22.38642339
_symmetry_Int_Tables_number   1
_chemical_formula_structural   LuZnFeO4
_chemical_formula_sum   'Lu1 Zn1 Fe1 O4'
_cell_volume   87.63336185
_cell_formula_units_Z   1
loop_
 _symmetry_equiv_pos_site_id
 _symmetry_equiv_pos_as_xyz
  1  'x, y, z'
loop_
 _atom_site_type_symbol
 _atom_site_label
 _atom_site_symmetry_multiplicity
 _atom_site_fract_x
 _atom_site_fract_y
 _atom_site_fract_z
 _atom_site_occupancy
  Lu  Lu0  1  0.00303500  0.00303500  0.00303500  1
  Zn  Zn1  1  0.21924300  0.21924300  0.21924300  1
  Fe  Fe2  1  0.78665000  0.78665000  0.78665000  1
  O  O3  1  0.12000900  0.12000900  0.12000900  1
  O  O4  1  0.86503000  0.86503000  0.86503000  1
  O  O5  1  0.29621200  0.29621200  0.29621200  1
  O  O6  1  0.70982000  0.70982000  0.70982000  1
