# generated using pymatgen
data_MgAl2(PO4)3
_symmetry_space_group_name_H-M   'P 1'
_cell_length_a   9.33027161
_cell_length_b   9.33027161
_cell_length_c   9.19253310
_cell_angle_alpha   89.99410861
_cell_angle_beta   89.99410861
_cell_angle_gamma   89.15628738
_symmetry_Int_Tables_number   1
_chemical_formula_structural   MgAl2(PO4)3
_chemical_formula_sum   'Mg2 Al4 P6 O24'
_cell_volume   800.15971460
_cell_formula_units_Z   2
loop_
 _symmetry_equiv_pos_site_id
 _symmetry_equiv_pos_as_xyz
  1  'x, y, z'
loop_
 _atom_site_type_symbol
 _atom_site_label
 _atom_site_symmetry_multiplicity
 _atom_site_fract_x
 _atom_site_fract_y
 _atom_site_fract_z
 _atom_site_occupancy
  Mg  Mg0  1  0.74268400  0.99698100  0.99996800  1
  Mg  Mg1  1  0.99698100  0.74268400  0.49996800  1
  Al  Al2  1  0.49745200  0.49759500  0.24992900  1
  Al  Al3  1  0.00351900  0.25647700  0.49989600  1
  Al  Al4  1  0.49759500  0.49745200  0.74992900  1
  Al  Al5  1  0.25647700  0.00351900  0.99989600  1
  P  P6  1  0.74398400  0.49231300  0.49945400  1
  P  P7  1  0.49231300  0.74398400  0.99945400  1
  P  P8  1  0.01079000  0.00977000  0.25003400  1
  P  P9  1  0.49293800  0.25466600  0.00057800  1
  P  P10  1  0.00977000  0.01079000  0.75003400  1
  P  P11  1  0.25466600  0.49293800  0.50057800  1
  O  O12  1  0.49294700  0.34813300  0.86300200  1
  O  O13  1  0.14388400  0.00730500  0.84766600  1
  O  O14  1  0.15692300  0.36103200  0.49458100  1
  O  O15  1  0.49249000  0.65024500  0.13845700  1
  O  O16  1  0.14403000  0.01909000  0.15170500  1
  O  O17  1  0.16756500  0.63035200  0.50730100  1
  O  O18  1  0.48094400  0.64925300  0.86174800  1
  O  O19  1  0.87124400  0.01956500  0.83797800  1
  O  O20  1  0.82962200  0.62863000  0.49315600  1
  O  O21  1  0.48012000  0.34931000  0.13685800  1
  O  O22  1  0.87199500  0.00475200  0.16275200  1
  O  O23  1  0.84361600  0.35778200  0.50493600  1
  O  O24  1  0.34813300  0.49294700  0.36300200  1
  O  O25  1  0.00730500  0.14388400  0.34766600  1
  O  O26  1  0.36103200  0.15692300  0.99458100  1
  O  O27  1  0.65024500  0.49249000  0.63845700  1
  O  O28  1  0.01909000  0.14403000  0.65170500  1
  O  O29  1  0.63035200  0.16756500  0.00730100  1
  O  O30  1  0.64925300  0.48094400  0.36174800  1
  O  O31  1  0.01956500  0.87124400  0.33797800  1
  O  O32  1  0.62863000  0.82962200  0.99315600  1
  O  O33  1  0.34931000  0.48012000  0.63685800  1
  O  O34  1  0.00475200  0.87199500  0.66275200  1
  O  O35  1  0.35778200  0.84361600  0.00493600  1
