# generated using pymatgen
data_MgV3O8
_symmetry_space_group_name_H-M   'P 1'
_cell_length_a   6.88102479
_cell_length_b   6.88102479
_cell_length_c   7.78722354
_cell_angle_alpha   67.33220769
_cell_angle_beta   67.33220769
_cell_angle_gamma   79.46013743
_symmetry_Int_Tables_number   1
_chemical_formula_structural   MgV3O8
_chemical_formula_sum   'Mg2 V6 O16'
_cell_volume   313.69453012
_cell_formula_units_Z   2
loop_
 _symmetry_equiv_pos_site_id
 _symmetry_equiv_pos_as_xyz
  1  'x, y, z'
loop_
 _atom_site_type_symbol
 _atom_site_label
 _atom_site_symmetry_multiplicity
 _atom_site_fract_x
 _atom_site_fract_y
 _atom_site_fract_z
 _atom_site_occupancy
  Mg  Mg0  1  0.93255600  0.29953900  0.70328600  1
  Mg  Mg1  1  0.70046100  0.06744400  0.29671400  1
  V  V2  1  0.37736700  0.37629400  0.77745800  1
  V  V3  1  0.62370600  0.62263300  0.22254200  1
  V  V4  1  0.82129700  0.81898700  0.70009400  1
  V  V5  1  0.18101300  0.17870300  0.29990600  1
  V  V6  1  0.28457300  0.92354800  0.72562700  1
  V  V7  1  0.07645200  0.71542700  0.27437300  1
  O  O8  1  0.80755500  0.19244500  0.00000000  1
  O  O9  1  0.19101300  0.80898700  0.00000000  1
  O  O10  1  0.99719600  0.99081700  0.68494600  1
  O  O11  1  0.00918300  0.00280400  0.31505400  1
  O  O12  1  0.24095500  0.22678800  0.71968300  1
  O  O13  1  0.77321200  0.75904500  0.28031700  1
  O  O14  1  0.94580000  0.62838100  0.59436700  1
  O  O15  1  0.60684200  0.93910200  0.62578500  1
  O  O16  1  0.06089800  0.39315800  0.37421500  1
  O  O17  1  0.37161900  0.05420000  0.40563300  1
  O  O18  1  0.31388600  0.64136400  0.70317100  1
  O  O19  1  0.63541500  0.32833800  0.69456300  1
  O  O20  1  0.67166200  0.36458500  0.30543700  1
  O  O21  1  0.35863600  0.68611400  0.29682900  1
  O  O22  1  0.70715900  0.68845800  0.95369800  1
  O  O23  1  0.31154200  0.29284100  0.04630200  1
