# generated using pymatgen
data_Na11B21(ClO18)2
_symmetry_space_group_name_H-M   'P 1'
_cell_length_a   9.04560901
_cell_length_b   9.04560901
_cell_length_c   24.01420419
_cell_angle_alpha   82.49126978
_cell_angle_beta   82.49126978
_cell_angle_gamma   59.08662208
_symmetry_Int_Tables_number   1
_chemical_formula_structural   Na11B21(ClO18)2
_chemical_formula_sum   'Na22 B42 Cl4 O72'
_cell_volume   1666.66325071
_cell_formula_units_Z   2
loop_
 _symmetry_equiv_pos_site_id
 _symmetry_equiv_pos_as_xyz
  1  'x, y, z'
loop_
 _atom_site_type_symbol
 _atom_site_label
 _atom_site_symmetry_multiplicity
 _atom_site_fract_x
 _atom_site_fract_y
 _atom_site_fract_z
 _atom_site_occupancy
  Na  Na0  1  0.72089400  0.03348600  0.16191500  1
  Na  Na1  1  0.96654200  0.27983400  0.33812200  1
  Na  Na2  1  0.27983400  0.96654200  0.83812200  1
  Na  Na3  1  0.03348600  0.72089400  0.66191500  1
  Na  Na4  1  0.45888600  0.51932100  0.34530000  1
  Na  Na5  1  0.48281900  0.54202300  0.15421600  1
  Na  Na6  1  0.54202300  0.48281900  0.65421600  1
  Na  Na7  1  0.51932100  0.45888600  0.84530000  1
  Na  Na8  1  0.75611900  0.05478700  0.02011100  1
  Na  Na9  1  0.93579300  0.25344700  0.48002100  1
  Na  Na10  1  0.25344700  0.93579300  0.98002100  1
  Na  Na11  1  0.05478700  0.75611900  0.52011100  1
  Na  Na12  1  0.98461500  0.29375800  0.15732600  1
  Na  Na13  1  0.70592800  0.01441500  0.34274300  1
  Na  Na14  1  0.01441500  0.70592800  0.84274300  1
  Na  Na15  1  0.29375800  0.98461500  0.65732600  1
  Na  Na16  1  0.44328100  0.43454900  0.00567600  1
  Na  Na17  1  0.43454900  0.44328100  0.50567600  1
  Na  Na18  1  0.98257900  0.67799000  0.97227100  1
  Na  Na19  1  0.32482100  0.01004200  0.52720800  1
  Na  Na20  1  0.01004200  0.32482100  0.02720800  1
  Na  Na21  1  0.67799000  0.98257900  0.47227100  1
  B  B22  1  0.28284000  0.33753400  0.21028400  1
  B  B23  1  0.66212900  0.71751700  0.28975900  1
  B  B24  1  0.71751700  0.66212900  0.78975900  1
  B  B25  1  0.33753400  0.28284000  0.71028400  1
  B  B26  1  0.18445600  0.45345400  0.10830000  1
  B  B27  1  0.54707300  0.81364000  0.39193700  1
  B  B28  1  0.81364000  0.54707300  0.89193700  1
  B  B29  1  0.45345400  0.18445600  0.60830000  1
  B  B30  1  0.88209000  0.68715400  0.08671800  1
  B  B31  1  0.31325500  0.11692600  0.41338800  1
  B  B32  1  0.11692600  0.31325500  0.91338800  1
  B  B33  1  0.68715400  0.88209000  0.58671800  1
  B  B34  1  0.16817700  0.89229900  0.20105700  1
  B  B35  1  0.10771800  0.83135300  0.29926200  1
  B  B36  1  0.83135300  0.10771800  0.79926200  1
  B  B37  1  0.89229900  0.16817700  0.70105700  1
  B  B38  1  0.35908200  0.13968400  0.07961600  1
  B  B39  1  0.85947600  0.64132100  0.42003000  1
  B  B40  1  0.64132100  0.85947600  0.92003000  1
  B  B41  1  0.13968400  0.35908200  0.57961600  1
  B  B42  1  0.55571400  0.28191900  0.25050100  1
  B  B43  1  0.71815200  0.44443800  0.24953300  1
  B  B44  1  0.44443800  0.71815200  0.74953300  1
  B  B45  1  0.28191900  0.55571400  0.75050100  1
  B  B46  1  0.74991500  0.68164000  0.19037300  1
  B  B47  1  0.31835700  0.25015700  0.30969100  1
  B  B48  1  0.25015700  0.31835700  0.80969100  1
  B  B49  1  0.68164000  0.74991500  0.69037300  1
  B  B50  1  0.88642000  0.11352200  0.25005500  1
  B  B51  1  0.11352200  0.88642000  0.75005500  1
  B  B52  1  0.27903500  0.90669500  0.09783200  1
  B  B53  1  0.09283100  0.72235800  0.40258300  1
  B  B54  1  0.72235800  0.09283100  0.90258300  1
  B  B55  1  0.90669500  0.27903500  0.59783200  1
  B  B56  1  0.57803900  0.83733700  0.06213500  1
  B  B57  1  0.16141300  0.42193100  0.43777300  1
  B  B58  1  0.42193100  0.16141300  0.93777300  1
  B  B59  1  0.83733700  0.57803900  0.56213500  1
  B  B60  1  0.11388700  0.76065100  0.07879300  1
  B  B61  1  0.24020500  0.88635900  0.42113400  1
  B  B62  1  0.88635900  0.24020500  0.92113400  1
  B  B63  1  0.76065100  0.11388700  0.57879300  1
  Cl  Cl64  1  0.72810900  0.30481000  0.07393300  1
  Cl  Cl65  1  0.69212800  0.26700000  0.42598600  1
  Cl  Cl66  1  0.26700000  0.69212800  0.92598600  1
  Cl  Cl67  1  0.30481000  0.72810900  0.57393300  1
  O  O68  1  0.14872700  0.89392400  0.07155100  1
  O  O69  1  0.10660800  0.85134100  0.42883300  1
  O  O70  1  0.85134100  0.10660800  0.92883300  1
  O  O71  1  0.89392400  0.14872700  0.57155100  1
  O  O72  1  0.74793800  0.71925000  0.04942800  1
  O  O73  1  0.28191300  0.25253000  0.45081700  1
  O  O74  1  0.25253000  0.28191300  0.95081700  1
  O  O75  1  0.71925000  0.74793800  0.54942800  1
  O  O76  1  0.29206600  0.84376700  0.15679400  1
  O  O77  1  0.15636400  0.70736300  0.34364600  1
  O  O78  1  0.70736300  0.15636400  0.84364600  1
  O  O79  1  0.84376700  0.29206600  0.65679400  1
  O  O80  1  0.72318200  0.12656100  0.24389700  1
  O  O81  1  0.87349100  0.27672700  0.25617000  1
  O  O82  1  0.27672700  0.87349100  0.75617000  1
  O  O83  1  0.12656100  0.72318200  0.74389700  1
  O  O84  1  0.21577200  0.78385000  0.25011800  1
  O  O85  1  0.78385000  0.21577200  0.75011800  1
  O  O86  1  0.46570900  0.25813800  0.30652700  1
  O  O87  1  0.74209300  0.53419100  0.19340200  1
  O  O88  1  0.53419100  0.74209300  0.69340200  1
  O  O89  1  0.25813800  0.46570900  0.80652700  1
  O  O90  1  0.22850300  0.59478100  0.09889100  1
  O  O91  1  0.40370200  0.77355600  0.39978200  1
  O  O92  1  0.77355600  0.40370200  0.89978200  1
  O  O93  1  0.59478100  0.22850300  0.59889100  1
  O  O94  1  0.69669800  0.54972100  0.29763500  1
  O  O95  1  0.45025600  0.30352200  0.20227200  1
  O  O96  1  0.30352200  0.45025600  0.70227200  1
  O  O97  1  0.54972100  0.69669800  0.79763500  1
  O  O98  1  0.02009400  0.50741600  0.08454000  1
  O  O99  1  0.49233000  0.97984300  0.41549400  1
  O  O100  1  0.97984300  0.49233000  0.91549400  1
  O  O101  1  0.50741600  0.02009400  0.58454000  1
  O  O102  1  0.95534800  0.80156800  0.06186300  1
  O  O103  1  0.19772400  0.04575700  0.43834900  1
  O  O104  1  0.04575700  0.19772400  0.93834900  1
  O  O105  1  0.80156800  0.95534800  0.56186300  1
  O  O106  1  0.21838500  0.30385100  0.26358200  1
  O  O107  1  0.69614600  0.78161700  0.23635100  1
  O  O108  1  0.78161700  0.69614600  0.73635100  1
  O  O109  1  0.30385100  0.21838500  0.76358200  1
  O  O110  1  0.32891900  0.30369900  0.07786800  1
  O  O111  1  0.69728900  0.67117000  0.42063500  1
  O  O112  1  0.67117000  0.69728900  0.92063500  1
  O  O113  1  0.30369900  0.32891900  0.57786800  1
  O  O114  1  0.00724400  0.03540000  0.19812000  1
  O  O115  1  0.96461400  0.99249500  0.30203600  1
  O  O116  1  0.99249500  0.96461400  0.80203600  1
  O  O117  1  0.03540000  0.00724400  0.69812000  1
  O  O118  1  0.53241000  0.01082800  0.06747100  1
  O  O119  1  0.99027000  0.46721800  0.43176000  1
  O  O120  1  0.46721800  0.99027000  0.93176000  1
  O  O121  1  0.01082800  0.53241000  0.56747100  1
  O  O122  1  0.80335600  0.74860400  0.14277400  1
  O  O123  1  0.25109900  0.19761600  0.35741500  1
  O  O124  1  0.19761600  0.25109900  0.85741500  1
  O  O125  1  0.74860500  0.80335600  0.64277400  1
  O  O126  1  0.56251700  0.43751900  0.24996100  1
  O  O127  1  0.43751900  0.56251700  0.74996100  1
  O  O128  1  0.23259200  0.09531400  0.08958500  1
  O  O129  1  0.90606800  0.76697200  0.41107700  1
  O  O130  1  0.76697200  0.90606800  0.91107700  1
  O  O131  1  0.09531400  0.23259200  0.58958500  1
  O  O132  1  0.17214300  0.39915500  0.16830600  1
  O  O133  1  0.59996100  0.82872500  0.33140600  1
  O  O134  1  0.82872500  0.59996100  0.83140600  1
  O  O135  1  0.39915500  0.17214300  0.66830600  1
  O  O136  1  0.45055500  0.79764700  0.06763200  1
  O  O137  1  0.20341100  0.54873600  0.43398700  1
  O  O138  1  0.54873600  0.20341100  0.93398700  1
  O  O139  1  0.79764700  0.45055500  0.56763200  1
