# generated using pymatgen
data_Mg(AlB14)2
_symmetry_space_group_name_H-M   'P 1'
_cell_length_a   7.10921889
_cell_length_b   7.10921889
_cell_length_c   5.88898695
_cell_angle_alpha   65.77602726
_cell_angle_beta   65.77602726
_cell_angle_gamma   91.46156173
_symmetry_Int_Tables_number   1
_chemical_formula_structural   Mg(AlB14)2
_chemical_formula_sum   'Mg1 Al2 B28'
_cell_volume   240.70976965
_cell_formula_units_Z   1
loop_
 _symmetry_equiv_pos_site_id
 _symmetry_equiv_pos_as_xyz
  1  'x, y, z'
loop_
 _atom_site_type_symbol
 _atom_site_label
 _atom_site_symmetry_multiplicity
 _atom_site_fract_x
 _atom_site_fract_y
 _atom_site_fract_z
 _atom_site_occupancy
  Mg  Mg0  1  0.88740900  0.88740900  0.36467700  1
  Al  Al1  1  0.50170000  0.50170000  0.50090100  1
  Al  Al2  1  0.13268900  0.13268900  0.61266100  1
  B  B3  1  0.40952100  0.73473100  0.17308800  1
  B  B4  1  0.59050400  0.26373400  0.82677000  1
  B  B5  1  0.26373400  0.59050400  0.82677000  1
  B  B6  1  0.73473100  0.40952100  0.17308800  1
  B  B7  1  0.68864500  0.85428700  0.97554600  1
  B  B8  1  0.30971000  0.14221200  0.02681300  1
  B  B9  1  0.14221200  0.30971000  0.02681300  1
  B  B10  1  0.85428700  0.68864500  0.97554600  1
  B  B11  1  0.53484400  0.87354500  0.29412700  1
  B  B12  1  0.46690400  0.12752900  0.20082200  1
  B  B13  1  0.12752900  0.46690400  0.20082200  1
  B  B14  1  0.87354500  0.53484400  0.29412700  1
  B  B15  1  0.46467200  0.12296700  0.70982800  1
  B  B16  1  0.53357700  0.86894400  0.79830900  1
  B  B17  1  0.86894400  0.53357700  0.79830900  1
  B  B18  1  0.12296700  0.46467200  0.70982800  1
  B  B19  1  0.73019400  0.09752900  0.99043000  1
  B  B20  1  0.27383700  0.90004100  0.31999800  1
  B  B21  1  0.90004100  0.27383700  0.31999800  1
  B  B22  1  0.09752900  0.73019400  0.99043000  1
  B  B23  1  0.27223300  0.90059300  0.00719100  1
  B  B24  1  0.72876000  0.09824800  0.68107500  1
  B  B25  1  0.09824800  0.72876000  0.68107500  1
  B  B26  1  0.90059300  0.27223300  0.00719100  1
  B  B27  1  0.26813200  0.46555100  0.38171300  1
  B  B28  1  0.72538600  0.53137100  0.62517000  1
  B  B29  1  0.53137100  0.72538600  0.62517000  1
  B  B30  1  0.46555100  0.26813200  0.38171300  1
