# generated using pymatgen
data_MgAlNF6
_symmetry_space_group_name_H-M   'P 1'
_cell_length_a   7.16730832
_cell_length_b   8.35670391
_cell_length_c   7.01189994
_cell_angle_alpha   90.00000000
_cell_angle_beta   60.71471110
_cell_angle_gamma   125.65996687
_symmetry_Int_Tables_number   1
_chemical_formula_structural   MgAlNF6
_chemical_formula_sum   'Mg2 Al2 N2 F12'
_cell_volume   272.45736577
_cell_formula_units_Z   2
loop_
 _symmetry_equiv_pos_site_id
 _symmetry_equiv_pos_as_xyz
  1  'x, y, z'
loop_
 _atom_site_type_symbol
 _atom_site_label
 _atom_site_symmetry_multiplicity
 _atom_site_fract_x
 _atom_site_fract_y
 _atom_site_fract_z
 _atom_site_occupancy
  Mg  Mg0  1  0.50000000  0.50000000  0.00000000  1
  Mg  Mg1  1  0.50000000  0.00000000  0.00000000  1
  Al  Al2  1  0.00000000  0.00000000  0.50000000  1
  Al  Al3  1  0.00000000  0.00000000  0.00000000  1
  N  N4  1  0.91905100  0.45952500  0.29047500  1
  N  N5  1  0.08094900  0.54047500  0.70952500  1
  F  F6  1  0.12435000  0.06217500  0.68782500  1
  F  F7  1  0.21641700  0.60820800  0.14179200  1
  F  F8  1  0.73666100  0.02306000  0.07503600  1
  F  F9  1  0.73666100  0.71360100  0.68830300  1
  F  F10  1  0.73666100  0.71360100  0.07503600  1
  F  F11  1  0.73666100  0.02306000  0.68830300  1
  F  F12  1  0.87565000  0.93782500  0.31217500  1
  F  F13  1  0.78358300  0.39179200  0.85820800  1
  F  F14  1  0.26333900  0.97694000  0.92496400  1
  F  F15  1  0.26333900  0.28639900  0.31169700  1
  F  F16  1  0.26333900  0.28639900  0.92496400  1
  F  F17  1  0.26333900  0.97694000  0.31169700  1
