# generated using pymatgen
data_Mn2Cu3Ge
_symmetry_space_group_name_H-M   'P 1'
_cell_length_a   4.89714614
_cell_length_b   4.89714614
_cell_length_c   7.77119400
_cell_angle_alpha   90.00000000
_cell_angle_beta   90.00000000
_cell_angle_gamma   120.00000185
_symmetry_Int_Tables_number   1
_chemical_formula_structural   Mn2Cu3Ge
_chemical_formula_sum   'Mn4 Cu6 Ge2'
_cell_volume   161.40036131
_cell_formula_units_Z   2
loop_
 _symmetry_equiv_pos_site_id
 _symmetry_equiv_pos_as_xyz
  1  'x, y, z'
loop_
 _atom_site_type_symbol
 _atom_site_label
 _atom_site_symmetry_multiplicity
 _atom_site_fract_x
 _atom_site_fract_y
 _atom_site_fract_z
 _atom_site_occupancy
  Mn  Mn0  1  0.33333300  0.66666700  0.44026400  1
  Mn  Mn1  1  0.66666700  0.33333300  0.55973600  1
  Mn  Mn2  1  0.66666700  0.33333300  0.94026400  1
  Mn  Mn3  1  0.33333300  0.66666700  0.05973600  1
  Cu  Cu4  1  0.82792900  0.17207100  0.25000000  1
  Cu  Cu5  1  0.82792900  0.65585800  0.25000000  1
  Cu  Cu6  1  0.34414200  0.17207100  0.25000000  1
  Cu  Cu7  1  0.17207100  0.82792900  0.75000000  1
  Cu  Cu8  1  0.17207100  0.34414200  0.75000000  1
  Cu  Cu9  1  0.65585800  0.82792900  0.75000000  1
  Ge  Ge10  1  0.00000000  0.00000000  0.50000000  1
  Ge  Ge11  1  0.00000000  0.00000000  0.00000000  1
