# generated using pymatgen
data_Mg(CoO2)4
_symmetry_space_group_name_H-M   'P 1'
_cell_length_a   5.82051553
_cell_length_b   5.82051553
_cell_length_c   5.82051553
_cell_angle_alpha   60.00000000
_cell_angle_beta   60.00000000
_cell_angle_gamma   60.00000000
_symmetry_Int_Tables_number   1
_chemical_formula_structural   Mg(CoO2)4
_chemical_formula_sum   'Mg1 Co4 O8'
_cell_volume   139.43421589
_cell_formula_units_Z   1
loop_
 _symmetry_equiv_pos_site_id
 _symmetry_equiv_pos_as_xyz
  1  'x, y, z'
loop_
 _atom_site_type_symbol
 _atom_site_label
 _atom_site_symmetry_multiplicity
 _atom_site_fract_x
 _atom_site_fract_y
 _atom_site_fract_z
 _atom_site_occupancy
  Mg  Mg0  1  0.25000000  0.25000000  0.25000000  1
  Co  Co1  1  0.62674700  0.62674700  0.11976000  1
  Co  Co2  1  0.62674700  0.11976000  0.62674700  1
  Co  Co3  1  0.11976000  0.62674700  0.62674700  1
  Co  Co4  1  0.62674700  0.62674700  0.62674700  1
  O  O5  1  0.85987700  0.85987700  0.42036900  1
  O  O6  1  0.85987700  0.42036900  0.85987700  1
  O  O7  1  0.42036900  0.85987700  0.85987700  1
  O  O8  1  0.85987700  0.85987700  0.85987700  1
  O  O9  1  0.38922700  0.38922700  0.83232000  1
  O  O10  1  0.38922700  0.83232000  0.38922700  1
  O  O11  1  0.83232000  0.38922700  0.38922700  1
  O  O12  1  0.38922700  0.38922700  0.38922700  1
