# generated using pymatgen
data_MnCu(CO3)4
_symmetry_space_group_name_H-M   'P 1'
_cell_length_a   8.42306400
_cell_length_b   8.71742600
_cell_length_c   9.49573005
_cell_angle_alpha   84.37275246
_cell_angle_beta   90.00000000
_cell_angle_gamma   90.00000000
_symmetry_Int_Tables_number   1
_chemical_formula_structural   MnCu(CO3)4
_chemical_formula_sum   'Mn2 Cu2 C8 O24'
_cell_volume   693.88700447
_cell_formula_units_Z   2
loop_
 _symmetry_equiv_pos_site_id
 _symmetry_equiv_pos_as_xyz
  1  'x, y, z'
loop_
 _atom_site_type_symbol
 _atom_site_label
 _atom_site_symmetry_multiplicity
 _atom_site_fract_x
 _atom_site_fract_y
 _atom_site_fract_z
 _atom_site_occupancy
  Mn  Mn0  1  0.50000000  0.50000000  0.00000000  1
  Mn  Mn1  1  0.00000000  0.50000000  0.50000000  1
  Cu  Cu2  1  0.00000000  0.00000000  0.00000000  1
  Cu  Cu3  1  0.50000000  0.00000000  0.50000000  1
  C  C4  1  0.65715100  0.67558700  0.45759200  1
  C  C5  1  0.15715100  0.32441300  0.04240800  1
  C  C6  1  0.34284900  0.32441300  0.54240800  1
  C  C7  1  0.84284900  0.67558700  0.95759200  1
  C  C8  1  0.18602100  0.90129100  0.30704000  1
  C  C9  1  0.68602100  0.09870900  0.19296000  1
  C  C10  1  0.81397900  0.09870900  0.69296000  1
  C  C11  1  0.31397900  0.90129100  0.80704000  1
  O  O12  1  0.62958000  0.79657200  0.49827500  1
  O  O13  1  0.12958000  0.20342800  0.00172500  1
  O  O14  1  0.37042000  0.20342800  0.50172500  1
  O  O15  1  0.87042000  0.79657200  0.99827500  1
  O  O16  1  0.51884400  0.70227300  0.05111600  1
  O  O17  1  0.01884400  0.29772700  0.44888400  1
  O  O18  1  0.48115600  0.29772700  0.94888400  1
  O  O19  1  0.98115600  0.70227300  0.55111600  1
  O  O20  1  0.67825000  0.55552600  0.41519800  1
  O  O21  1  0.17825000  0.44447400  0.08480200  1
  O  O22  1  0.32175000  0.44447400  0.58480200  1
  O  O23  1  0.82175000  0.55552600  0.91519800  1
  O  O24  1  0.08020200  0.58891200  0.35121200  1
  O  O25  1  0.58020200  0.41108800  0.14878800  1
  O  O26  1  0.91979800  0.41108800  0.64878800  1
  O  O27  1  0.41979800  0.58891200  0.85121200  1
  O  O28  1  0.27859800  0.89926300  0.39962000  1
  O  O29  1  0.77859800  0.10073700  0.10038000  1
  O  O30  1  0.72140200  0.10073700  0.60038000  1
  O  O31  1  0.22140200  0.89926300  0.89962000  1
  O  O32  1  0.09603200  0.91095300  0.21181400  1
  O  O33  1  0.59603200  0.08904700  0.28818600  1
  O  O34  1  0.90396800  0.08904700  0.78818600  1
  O  O35  1  0.40396800  0.91095300  0.71181400  1
