# generated using pymatgen
data_Mg3SiO5F
_symmetry_space_group_name_H-M   'P 1'
_cell_length_a   4.77131600
_cell_length_b   8.91258900
_cell_length_c   10.45041500
_cell_angle_alpha   90.00000000
_cell_angle_beta   90.00000000
_cell_angle_gamma   90.00000000
_symmetry_Int_Tables_number   1
_chemical_formula_structural   Mg3SiO5F
_chemical_formula_sum   'Mg12 Si4 O20 F4'
_cell_volume   444.40158308
_cell_formula_units_Z   4
loop_
 _symmetry_equiv_pos_site_id
 _symmetry_equiv_pos_as_xyz
  1  'x, y, z'
loop_
 _atom_site_type_symbol
 _atom_site_label
 _atom_site_symmetry_multiplicity
 _atom_site_fract_x
 _atom_site_fract_y
 _atom_site_fract_z
 _atom_site_occupancy
  Mg  Mg0  1  0.47794400  0.93316600  0.86563200  1
  Mg  Mg1  1  0.02410300  0.57062000  0.36768500  1
  Mg  Mg2  1  0.52205600  0.43316600  0.13436800  1
  Mg  Mg3  1  0.97589700  0.07062000  0.63231500  1
  Mg  Mg4  1  0.52410300  0.07062000  0.13231500  1
  Mg  Mg5  1  0.97794400  0.43316600  0.63436800  1
  Mg  Mg6  1  0.47589700  0.57062000  0.86768500  1
  Mg  Mg7  1  0.02205600  0.93316600  0.36563200  1
  Mg  Mg8  1  0.49752900  0.74903800  0.59549100  1
  Mg  Mg9  1  0.00247100  0.74903800  0.09549100  1
  Mg  Mg10  1  0.50247100  0.24903800  0.40450900  1
  Mg  Mg11  1  0.99752900  0.24903800  0.90450900  1
  Si  Si12  1  0.91435700  0.74969500  0.78505200  1
  Si  Si13  1  0.58564300  0.74969500  0.28505200  1
  Si  Si14  1  0.08564300  0.24969500  0.21494800  1
  Si  Si15  1  0.41435700  0.24969500  0.71494800  1
  O  O16  1  0.24492400  0.74842700  0.28425700  1
  O  O17  1  0.25507600  0.74842700  0.78425700  1
  O  O18  1  0.75507600  0.24842700  0.71574300  1
  O  O19  1  0.74492400  0.24842700  0.21574300  1
  O  O20  1  0.73393200  0.89586800  0.21291000  1
  O  O21  1  0.76261400  0.60625000  0.71106300  1
  O  O22  1  0.26606800  0.39586800  0.78709000  1
  O  O23  1  0.23738600  0.10625000  0.28893700  1
  O  O24  1  0.26261400  0.10625000  0.78893700  1
  O  O25  1  0.23393200  0.39586800  0.28709000  1
  O  O26  1  0.73738600  0.60625000  0.21106300  1
  O  O27  1  0.76606800  0.89586800  0.71291000  1
  O  O28  1  0.73097300  0.74870100  0.42918800  1
  O  O29  1  0.76902700  0.74870100  0.92918800  1
  O  O30  1  0.26902700  0.24870100  0.57081200  1
  O  O31  1  0.23097300  0.24870100  0.07081200  1
  O  O32  1  0.22327000  0.91582600  0.53896000  1
  O  O33  1  0.77673000  0.41582600  0.46104000  1
  O  O34  1  0.72327000  0.41582600  0.96104000  1
  O  O35  1  0.27673000  0.91582600  0.03896000  1
  F  F36  1  0.26225800  0.58241000  0.03648400  1
  F  F37  1  0.73774200  0.08241000  0.96351600  1
  F  F38  1  0.76225800  0.08241000  0.46351600  1
  F  F39  1  0.23774200  0.58241000  0.53648400  1
