# generated using pymatgen
data_Lu4CoSn8
_symmetry_space_group_name_H-M   'P 1'
_cell_length_a   4.35541000
_cell_length_b   4.39724500
_cell_length_c   16.66052300
_cell_angle_alpha   90.00000000
_cell_angle_beta   90.00000000
_cell_angle_gamma   90.00000000
_symmetry_Int_Tables_number   1
_chemical_formula_structural   Lu4CoSn8
_chemical_formula_sum   'Lu4 Co1 Sn8'
_cell_volume   319.07908512
_cell_formula_units_Z   1
loop_
 _symmetry_equiv_pos_site_id
 _symmetry_equiv_pos_as_xyz
  1  'x, y, z'
loop_
 _atom_site_type_symbol
 _atom_site_label
 _atom_site_symmetry_multiplicity
 _atom_site_fract_x
 _atom_site_fract_y
 _atom_site_fract_z
 _atom_site_occupancy
  Lu  Lu0  1  0.25000000  0.00000000  0.10088500  1
  Lu  Lu1  1  0.25000000  0.50000000  0.60225100  1
  Lu  Lu2  1  0.75000000  0.50000000  0.39736700  1
  Lu  Lu3  1  0.75000000  0.00000000  0.89973000  1
  Co  Co4  1  0.25000000  0.00000000  0.30992500  1
  Sn  Sn5  1  0.25000000  0.50000000  0.23687300  1
  Sn  Sn6  1  0.25000000  0.00000000  0.74576500  1
  Sn  Sn7  1  0.75000000  0.00000000  0.24074100  1
  Sn  Sn8  1  0.75000000  0.50000000  0.75475400  1
  Sn  Sn9  1  0.25000000  0.00000000  0.45513100  1
  Sn  Sn10  1  0.25000000  0.50000000  0.93739200  1
  Sn  Sn11  1  0.75000000  0.50000000  0.06366200  1
  Sn  Sn12  1  0.75000000  0.00000000  0.57252400  1
