# generated using pymatgen
data_Mg4FeClO13
_symmetry_space_group_name_H-M   'P 1'
_cell_length_a   8.86669159
_cell_length_b   8.86669159
_cell_length_c   5.08472776
_cell_angle_alpha   83.92780904
_cell_angle_beta   83.92780904
_cell_angle_gamma   141.81562109
_symmetry_Int_Tables_number   1
_chemical_formula_structural   Mg4FeClO13
_chemical_formula_sum   'Mg4 Fe1 Cl1 O13'
_cell_volume   233.84438054
_cell_formula_units_Z   1
loop_
 _symmetry_equiv_pos_site_id
 _symmetry_equiv_pos_as_xyz
  1  'x, y, z'
loop_
 _atom_site_type_symbol
 _atom_site_label
 _atom_site_symmetry_multiplicity
 _atom_site_fract_x
 _atom_site_fract_y
 _atom_site_fract_z
 _atom_site_occupancy
  Mg  Mg0  1  0.99993300  0.00006700  0.00000000  1
  Mg  Mg1  1  0.60515100  0.39484900  0.00000000  1
  Mg  Mg2  1  0.18509900  0.81490100  0.00000000  1
  Mg  Mg3  1  0.38007900  0.61992100  0.00000000  1
  Fe  Fe4  1  0.80151100  0.19848900  0.00000000  1
  Cl  Cl5  1  0.90649200  0.09350800  0.50000000  1
  O  O6  1  0.61307900  0.19775700  0.77219500  1
  O  O7  1  0.17375100  0.61518000  0.76540300  1
  O  O8  1  0.73884600  0.94327900  0.88977700  1
  O  O9  1  0.44197500  0.41879300  0.74238500  1
  O  O10  1  0.95883300  0.77282200  0.84940600  1
  O  O11  1  0.80224300  0.38692100  0.22780500  1
  O  O12  1  0.38482000  0.82624900  0.23459700  1
  O  O13  1  0.05672100  0.26115400  0.11022300  1
  O  O14  1  0.58120700  0.55802500  0.25761500  1
  O  O15  1  0.22717800  0.04116700  0.15059400  1
  O  O16  1  0.75127000  0.24873000  0.50000000  1
  O  O17  1  0.32275700  0.67724300  0.50000000  1
  O  O18  1  0.46905600  0.53094400  0.50000000  1
