# generated using pymatgen
data_LiLa3MnO7
_symmetry_space_group_name_H-M   'P 1'
_cell_length_a   5.55208401
_cell_length_b   11.83268624
_cell_length_c   10.88510603
_cell_angle_alpha   62.61416390
_cell_angle_beta   90.00807308
_cell_angle_gamma   103.55953555
_symmetry_Int_Tables_number   1
_chemical_formula_structural   LiLa3MnO7
_chemical_formula_sum   'Li4 La12 Mn4 O28'
_cell_volume   612.44331931
_cell_formula_units_Z   4
loop_
 _symmetry_equiv_pos_site_id
 _symmetry_equiv_pos_as_xyz
  1  'x, y, z'
loop_
 _atom_site_type_symbol
 _atom_site_label
 _atom_site_symmetry_multiplicity
 _atom_site_fract_x
 _atom_site_fract_y
 _atom_site_fract_z
 _atom_site_occupancy
  Li  Li0  1  0.66015700  0.81230200  0.96884300  1
  Li  Li1  1  0.66017600  0.81229500  0.46884600  1
  Li  Li2  1  0.33984000  0.18767200  0.03117100  1
  Li  Li3  1  0.33985300  0.18772300  0.53114200  1
  La  La4  1  0.25050400  0.99992900  0.37521600  1
  La  La5  1  0.25045200  0.99994100  0.87510200  1
  La  La6  1  0.74950800  0.00006800  0.62480400  1
  La  La7  1  0.74954700  0.00005200  0.12488500  1
  La  La8  1  0.43547300  0.35811900  0.19593800  1
  La  La9  1  0.43540200  0.35811800  0.69594600  1
  La  La10  1  0.56450500  0.64189800  0.80404200  1
  La  La11  1  0.56459200  0.64188500  0.30404300  1
  La  La12  1  0.90932600  0.35848800  0.94571100  1
  La  La13  1  0.90935600  0.35847000  0.44577600  1
  La  La14  1  0.09067800  0.64152000  0.05428400  1
  La  La15  1  0.09064500  0.64153000  0.55422600  1
  Mn  Mn16  1  0.14858600  0.80800200  0.72107000  1
  Mn  Mn17  1  0.85139900  0.19200500  0.27893200  1
  Mn  Mn18  1  0.14874200  0.80802600  0.22100800  1
  Mn  Mn19  1  0.85126000  0.19195100  0.77899700  1
  O  O20  1  0.18425200  0.99017100  0.62969200  1
  O  O21  1  0.18432400  0.99017800  0.12965100  1
  O  O22  1  0.81577500  0.00983700  0.37029800  1
  O  O23  1  0.81563000  0.00980700  0.87036200  1
  O  O24  1  0.47808600  0.58188400  0.08408000  1
  O  O25  1  0.47808000  0.58190300  0.58407400  1
  O  O26  1  0.52194300  0.41813600  0.91591000  1
  O  O27  1  0.52192300  0.41809800  0.41593600  1
  O  O28  1  0.09464000  0.60190500  0.82408300  1
  O  O29  1  0.09461100  0.60185600  0.32407100  1
  O  O30  1  0.90540100  0.39811300  0.17591400  1
  O  O31  1  0.90539200  0.39814400  0.67592100  1
  O  O32  1  0.40110100  0.82520100  0.83470500  1
  O  O33  1  0.40116600  0.82513400  0.33472200  1
  O  O34  1  0.40111100  0.82516800  0.59019600  1
  O  O35  1  0.40115100  0.82510200  0.09019400  1
  O  O36  1  0.59891000  0.17480900  0.16528100  1
  O  O37  1  0.59882400  0.17484700  0.66529400  1
  O  O38  1  0.59890300  0.17484100  0.40981200  1
  O  O39  1  0.59881600  0.17487900  0.90981200  1
  O  O40  1  0.09893800  0.21446900  0.39075800  1
  O  O41  1  0.09885900  0.21445700  0.89078400  1
  O  O42  1  0.09878400  0.21425100  0.14477100  1
  O  O43  1  0.09867500  0.21424700  0.64481100  1
  O  O44  1  0.90107400  0.78555200  0.60922600  1
  O  O45  1  0.90112200  0.78551600  0.10923200  1
  O  O46  1  0.90122100  0.78577200  0.85522100  1
  O  O47  1  0.90128800  0.78572700  0.35520500  1
