# generated using pymatgen
data_Mg8Ni3Pd
_symmetry_space_group_name_H-M   'P 1'
_cell_length_a   26.16888200
_cell_length_b   5.25809900
_cell_length_c   5.28955141
_cell_angle_alpha   60.35954054
_cell_angle_beta   90.00000000
_cell_angle_gamma   90.00000000
_symmetry_Int_Tables_number   1
_chemical_formula_structural   Mg8Ni3Pd
_chemical_formula_sum   'Mg24 Ni9 Pd3'
_cell_volume   632.59457539
_cell_formula_units_Z   3
loop_
 _symmetry_equiv_pos_site_id
 _symmetry_equiv_pos_as_xyz
  1  'x, y, z'
loop_
 _atom_site_type_symbol
 _atom_site_label
 _atom_site_symmetry_multiplicity
 _atom_site_fract_x
 _atom_site_fract_y
 _atom_site_fract_z
 _atom_site_occupancy
  Mg  Mg0  1  0.33475500  0.83257800  0.83975100  1
  Mg  Mg1  1  0.83333000  0.83513200  0.83416000  1
  Mg  Mg2  1  0.99850000  0.32652000  0.83978200  1
  Mg  Mg3  1  0.49873300  0.32663400  0.83949200  1
  Mg  Mg4  1  0.16657900  0.83851000  0.32205000  1
  Mg  Mg5  1  0.66808700  0.84060900  0.32539500  1
  Mg  Mg6  1  0.33475500  0.16742200  0.16024900  1
  Mg  Mg7  1  0.83333000  0.16486800  0.16584000  1
  Mg  Mg8  1  0.99850000  0.67348000  0.16021800  1
  Mg  Mg9  1  0.49873300  0.67336600  0.16050800  1
  Mg  Mg10  1  0.16657900  0.16149000  0.67795000  1
  Mg  Mg11  1  0.66808700  0.15939100  0.67460500  1
  Mg  Mg12  1  0.39222200  0.50000000  0.50000000  1
  Mg  Mg13  1  0.89186200  0.50000000  0.50000000  1
  Mg  Mg14  1  0.05745500  0.00000000  0.50000000  1
  Mg  Mg15  1  0.55752900  0.00000000  0.50000000  1
  Mg  Mg16  1  0.22455800  0.50000000  0.00000000  1
  Mg  Mg17  1  0.72556600  0.50000000  0.00000000  1
  Mg  Mg18  1  0.27589700  0.50000000  0.50000000  1
  Mg  Mg19  1  0.77478300  0.50000000  0.50000000  1
  Mg  Mg20  1  0.10879100  0.50000000  0.00000000  1
  Mg  Mg21  1  0.60914100  0.50000000  0.00000000  1
  Mg  Mg22  1  0.44114400  0.00000000  0.50000000  1
  Mg  Mg23  1  0.94104300  0.00000000  0.50000000  1
  Ni  Ni24  1  0.75045400  0.00000000  0.50000000  1
  Ni  Ni25  1  0.41667700  0.50000000  0.00000000  1
  Ni  Ni26  1  0.91625800  0.50000000  0.00000000  1
  Ni  Ni27  1  0.08289500  0.00000000  0.00000000  1
  Ni  Ni28  1  0.58330800  0.00000000  0.00000000  1
  Ni  Ni29  1  0.25047100  0.00000000  0.00000000  1
  Ni  Ni30  1  0.75041200  0.00000000  0.00000000  1
  Ni  Ni31  1  0.41671500  0.00000000  0.00000000  1
  Ni  Ni32  1  0.91621700  0.00000000  0.00000000  1
  Pd  Pd33  1  0.08275200  0.50000000  0.50000000  1
  Pd  Pd34  1  0.58333100  0.50000000  0.50000000  1
  Pd  Pd35  1  0.25055200  0.00000000  0.50000000  1
