data_image0
_chemical_formula_structural       Ge5Yb3
_chemical_formula_sum              "Ge5 Yb3"
_cell_length_a       6.92751
_cell_length_b       6.92751
_cell_length_c       4.29146
_cell_angle_alpha    90
_cell_angle_beta     90
_cell_angle_gamma    120

_space_group_name_H-M_alt    "P 1"
_space_group_IT_number       1

loop_
  _space_group_symop_operation_xyz
  'x, y, z'

loop_
  _atom_site_type_symbol
  _atom_site_label
  _atom_site_symmetry_multiplicity
  _atom_site_fract_x
  _atom_site_fract_y
  _atom_site_fract_z
  _atom_site_occupancy
  Ge  Ge1       1.0  0.73400  0.00001  0.50000  1.0000
  Ge  Ge2       1.0  0.26600  0.26600  0.50000  1.0000
  Ge  Ge3       1.0  0.66700  0.33300  0.50000  1.0000
  Ge  Ge4       1.0  0.33300  0.66700  0.50000  1.0000
  Ge  Ge5       1.0  0.00001  0.73400  0.50000  1.0000
  Yb  Yb1       1.0  0.36000  0.00001  0.00000  1.0000
  Yb  Yb2       1.0  0.00001  0.36000  0.00000  1.0000
  Yb  Yb3       1.0  0.64000  0.64000  0.00000  1.0000
