# generated using pymatgen
data_LaZrNO2
_symmetry_space_group_name_H-M   'P 1'
_cell_length_a   5.80212100
_cell_length_b   5.88270300
_cell_length_c   8.42615800
_cell_angle_alpha   90.00000000
_cell_angle_beta   90.00000000
_cell_angle_gamma   90.00000000
_symmetry_Int_Tables_number   1
_chemical_formula_structural   LaZrNO2
_chemical_formula_sum   'La4 Zr4 N4 O8'
_cell_volume   287.60292765
_cell_formula_units_Z   4
loop_
 _symmetry_equiv_pos_site_id
 _symmetry_equiv_pos_as_xyz
  1  'x, y, z'
loop_
 _atom_site_type_symbol
 _atom_site_label
 _atom_site_symmetry_multiplicity
 _atom_site_fract_x
 _atom_site_fract_y
 _atom_site_fract_z
 _atom_site_occupancy
  La  La0  1  0.49258600  0.54041400  0.25000000  1
  La  La1  1  0.00741400  0.04041400  0.25000000  1
  La  La2  1  0.50741400  0.45958600  0.75000000  1
  La  La3  1  0.99258600  0.95958600  0.75000000  1
  Zr  Zr4  1  0.50000000  0.00000000  0.00000000  1
  Zr  Zr5  1  0.00000000  0.50000000  0.50000000  1
  Zr  Zr6  1  0.50000000  0.00000000  0.50000000  1
  Zr  Zr7  1  0.00000000  0.50000000  0.00000000  1
  N  N8  1  0.40727500  0.96619900  0.25000000  1
  N  N9  1  0.09272500  0.46619900  0.25000000  1
  N  N10  1  0.59272500  0.03380100  0.75000000  1
  N  N11  1  0.90727500  0.53380100  0.75000000  1
  O  O12  1  0.80852700  0.80854000  0.04504500  1
  O  O13  1  0.69147300  0.30854000  0.45495500  1
  O  O14  1  0.19147300  0.19146000  0.54504500  1
  O  O15  1  0.30852700  0.69146000  0.95495500  1
  O  O16  1  0.19147300  0.19146000  0.95495500  1
  O  O17  1  0.30852700  0.69146000  0.54504500  1
  O  O18  1  0.80852700  0.80854000  0.45495500  1
  O  O19  1  0.69147300  0.30854000  0.04504500  1
