# generated using pymatgen
data_LaMg11Al
_symmetry_space_group_name_H-M   'P 1'
_cell_length_a   7.81845885
_cell_length_b   7.81845885
_cell_length_c   7.68798729
_cell_angle_alpha   81.53941553
_cell_angle_beta   81.53941553
_cell_angle_gamma   134.76526460
_symmetry_Int_Tables_number   1
_chemical_formula_structural   LaMg11Al
_chemical_formula_sum   'La1 Mg11 Al1'
_cell_volume   308.28211886
_cell_formula_units_Z   1
loop_
 _symmetry_equiv_pos_site_id
 _symmetry_equiv_pos_as_xyz
  1  'x, y, z'
loop_
 _atom_site_type_symbol
 _atom_site_label
 _atom_site_symmetry_multiplicity
 _atom_site_fract_x
 _atom_site_fract_y
 _atom_site_fract_z
 _atom_site_occupancy
  La  La0  1  0.00000000  0.00000000  0.00000000  1
  Mg  Mg1  1  0.71327200  0.50082400  0.78232200  1
  Mg  Mg2  1  0.28672800  0.49917600  0.21767800  1
  Mg  Mg3  1  0.49917600  0.28672800  0.21767800  1
  Mg  Mg4  1  0.50082400  0.71327200  0.78232200  1
  Mg  Mg5  1  0.64954200  0.99579700  0.35237100  1
  Mg  Mg6  1  0.35045800  0.00420300  0.64762900  1
  Mg  Mg7  1  0.00420300  0.35045800  0.64762900  1
  Mg  Mg8  1  0.99579700  0.64954200  0.35237100  1
  Mg  Mg9  1  0.00000000  0.00000000  0.50000000  1
  Mg  Mg10  1  0.50000000  0.00000000  0.00000000  1
  Mg  Mg11  1  0.00000000  0.50000000  0.00000000  1
  Al  Al12  1  0.50000000  0.50000000  0.50000000  1
