# generated using pymatgen
data_LaPrC4
_symmetry_space_group_name_H-M   'P 1'
_cell_length_a   3.91541900
_cell_length_b   3.91541900
_cell_length_c   6.55373100
_cell_angle_alpha   90.00000000
_cell_angle_beta   90.00000000
_cell_angle_gamma   90.00000000
_symmetry_Int_Tables_number   1
_chemical_formula_structural   LaPrC4
_chemical_formula_sum   'La1 Pr1 C4'
_cell_volume   100.47201206
_cell_formula_units_Z   1
loop_
 _symmetry_equiv_pos_site_id
 _symmetry_equiv_pos_as_xyz
  1  'x, y, z'
loop_
 _atom_site_type_symbol
 _atom_site_label
 _atom_site_symmetry_multiplicity
 _atom_site_fract_x
 _atom_site_fract_y
 _atom_site_fract_z
 _atom_site_occupancy
  La  La0  1  0.50000000  0.50000000  0.50000000  1
  Pr  Pr1  1  0.00000000  0.00000000  0.00000000  1
  C  C2  1  0.00000000  0.00000000  0.59912600  1
  C  C3  1  0.50000000  0.50000000  0.09910800  1
  C  C4  1  0.50000000  0.50000000  0.90089200  1
  C  C5  1  0.00000000  0.00000000  0.40087400  1
