# generated using pymatgen
data_Lu2Ti12(CuO4)9
_symmetry_space_group_name_H-M   'P 1'
_cell_length_a   6.43899414
_cell_length_b   10.48998425
_cell_length_c   10.48998425
_cell_angle_alpha   60.00000000
_cell_angle_beta   90.00000000
_cell_angle_gamma   90.00000000
_symmetry_Int_Tables_number   1
_chemical_formula_structural   Lu2Ti12(CuO4)9
_chemical_formula_sum   'Lu2 Ti12 Cu9 O36'
_cell_volume   613.61834370
_cell_formula_units_Z   1
loop_
 _symmetry_equiv_pos_site_id
 _symmetry_equiv_pos_as_xyz
  1  'x, y, z'
loop_
 _atom_site_type_symbol
 _atom_site_label
 _atom_site_symmetry_multiplicity
 _atom_site_fract_x
 _atom_site_fract_y
 _atom_site_fract_z
 _atom_site_occupancy
  Lu  Lu0  1  0.00586300  0.00000000  0.00000000  1
  Lu  Lu1  1  0.66080400  0.33333300  0.33333300  1
  Ti  Ti2  1  0.83333300  0.16666700  0.16666700  1
  Ti  Ti3  1  0.49671700  0.50551200  0.50830900  1
  Ti  Ti4  1  0.16995000  0.82782100  0.82502400  1
  Ti  Ti5  1  0.83333300  0.66666700  0.66666700  1
  Ti  Ti6  1  0.49240500  0.00000000  0.00000000  1
  Ti  Ti7  1  0.17426200  0.33333300  0.33333300  1
  Ti  Ti8  1  0.49671700  0.50830900  0.98617800  1
  Ti  Ti9  1  0.16995000  0.82502400  0.34715500  1
  Ti  Ti10  1  0.83333300  0.16666700  0.66666700  1
  Ti  Ti11  1  0.16995000  0.34715500  0.82782100  1
  Ti  Ti12  1  0.83333300  0.66666700  0.16666700  1
  Ti  Ti13  1  0.49671700  0.98617800  0.50551200  1
  Cu  Cu14  1  0.99402500  0.49792600  0.49855000  1
  Cu  Cu15  1  0.67264200  0.83540700  0.83478300  1
  Cu  Cu16  1  0.33333300  0.16666700  0.16666700  1
  Cu  Cu17  1  0.67264200  0.32980800  0.83540700  1
  Cu  Cu18  1  0.33333300  0.66666700  0.16666700  1
  Cu  Cu19  1  0.99402500  0.00352500  0.49792600  1
  Cu  Cu20  1  0.99402500  0.49855000  0.00352500  1
  Cu  Cu21  1  0.67264200  0.83478300  0.32980800  1
  Cu  Cu22  1  0.33333300  0.16666700  0.66666700  1
  O  O23  1  0.24416300  0.44114900  0.62208300  1
  O  O24  1  0.92027900  0.78624200  0.95978100  1
  O  O25  1  0.58404600  0.11923600  0.29228500  1
  O  O26  1  0.35330400  0.34958900  0.17719500  1
  O  O27  1  0.00285600  0.68338000  0.50160600  1
  O  O28  1  0.68846300  0.01679300  0.84400500  1
  O  O29  1  0.97820400  0.31654000  0.48932800  1
  O  O30  1  0.66381100  0.64995300  0.83172700  1
  O  O31  1  0.31336200  0.98374500  0.15613900  1
  O  O32  1  0.08262000  0.21409800  0.04104900  1
  O  O33  1  0.74638800  0.54709100  0.37355200  1
  O  O34  1  0.42250400  0.89218400  0.71125000  1
  O  O35  1  0.42250400  0.39656600  0.89218400  1
  O  O36  1  0.08262000  0.74485400  0.21409800  1
  O  O37  1  0.74638800  0.07935700  0.54709100  1
  O  O38  1  0.66381100  0.51831900  0.64995300  1
  O  O39  1  0.31336200  0.86011700  0.98374500  1
  O  O40  1  0.97820400  0.19413200  0.31654000  1
  O  O41  1  0.68846300  0.13920100  0.01679300  1
  O  O42  1  0.35330400  0.47321700  0.34958900  1
  O  O43  1  0.00285600  0.81501400  0.68338000  1
  O  O44  1  0.92027900  0.25397600  0.78624200  1
  O  O45  1  0.58404600  0.58848000  0.11923600  1
  O  O46  1  0.24416300  0.93676700  0.44114900  1
  O  O47  1  0.00285600  0.50160600  0.81501400  1
  O  O48  1  0.68846300  0.84400500  0.13920100  1
  O  O49  1  0.35330400  0.17719500  0.47321700  1
  O  O50  1  0.58404600  0.29228500  0.58848000  1
  O  O51  1  0.24416300  0.62208300  0.93676700  1
  O  O52  1  0.92027900  0.95978100  0.25397600  1
  O  O53  1  0.74638800  0.37355200  0.07935700  1
  O  O54  1  0.42250400  0.71125000  0.39656600  1
  O  O55  1  0.08262000  0.04104900  0.74485400  1
  O  O56  1  0.31336200  0.15613900  0.86011700  1
  O  O57  1  0.97820400  0.48932800  0.19413200  1
  O  O58  1  0.66381100  0.83172700  0.51831900  1
