# generated using pymatgen
data_LaY3Ti4O14
_symmetry_space_group_name_H-M   'P 1'
_cell_length_a   7.25780425
_cell_length_b   7.25780425
_cell_length_c   7.25780391
_cell_angle_alpha   60.08012072
_cell_angle_beta   60.08012072
_cell_angle_gamma   60.08012209
_symmetry_Int_Tables_number   1
_chemical_formula_structural   LaY3Ti4O14
_chemical_formula_sum   'La1 Y3 Ti4 O14'
_cell_volume   270.82486519
_cell_formula_units_Z   1
loop_
 _symmetry_equiv_pos_site_id
 _symmetry_equiv_pos_as_xyz
  1  'x, y, z'
loop_
 _atom_site_type_symbol
 _atom_site_label
 _atom_site_symmetry_multiplicity
 _atom_site_fract_x
 _atom_site_fract_y
 _atom_site_fract_z
 _atom_site_occupancy
  La  La0  1  0.50000000  0.50000000  0.50000000  1
  Y  Y1  1  0.00000000  0.50000000  0.50000000  1
  Y  Y2  1  0.50000000  0.50000000  0.00000000  1
  Y  Y3  1  0.50000000  0.00000000  0.50000000  1
  Ti  Ti4  1  0.00000000  0.00000000  0.00000000  1
  Ti  Ti5  1  0.50000000  0.00000000  0.00000000  1
  Ti  Ti6  1  0.00000000  0.00000000  0.50000000  1
  Ti  Ti7  1  0.00000000  0.50000000  0.00000000  1
  O  O8  1  0.92629900  0.32747000  0.32747000  1
  O  O9  1  0.32797800  0.92171800  0.92171800  1
  O  O10  1  0.32747000  0.32747000  0.92629900  1
  O  O11  1  0.92171800  0.92171800  0.32797800  1
  O  O12  1  0.92171800  0.32797800  0.92171800  1
  O  O13  1  0.32747000  0.92629900  0.32747000  1
  O  O14  1  0.07370100  0.67253000  0.67253000  1
  O  O15  1  0.67202200  0.07828200  0.07828200  1
  O  O16  1  0.67253000  0.67253000  0.07370100  1
  O  O17  1  0.07828200  0.07828200  0.67202200  1
  O  O18  1  0.07828200  0.67202200  0.07828200  1
  O  O19  1  0.67253000  0.07370100  0.67253000  1
  O  O20  1  0.36966100  0.36966100  0.36966100  1
  O  O21  1  0.63033900  0.63033900  0.63033900  1
