# generated using pymatgen
data_LaTiNbO6
_symmetry_space_group_name_H-M   'P 1'
_cell_length_a   7.19785156
_cell_length_b   7.19785156
_cell_length_c   5.32185503
_cell_angle_alpha   70.53815066
_cell_angle_beta   70.53815066
_cell_angle_gamma   76.85381227
_symmetry_Int_Tables_number   1
_chemical_formula_structural   LaTiNbO6
_chemical_formula_sum   'La2 Ti2 Nb2 O12'
_cell_volume   243.00188308
_cell_formula_units_Z   2
loop_
 _symmetry_equiv_pos_site_id
 _symmetry_equiv_pos_as_xyz
  1  'x, y, z'
loop_
 _atom_site_type_symbol
 _atom_site_label
 _atom_site_symmetry_multiplicity
 _atom_site_fract_x
 _atom_site_fract_y
 _atom_site_fract_z
 _atom_site_occupancy
  La  La0  1  0.18912900  0.81087100  0.50000000  1
  La  La1  1  0.81157400  0.18842600  0.00000000  1
  Ti  Ti2  1  0.65113800  0.81654200  0.79987200  1
  Ti  Ti3  1  0.18345800  0.34886200  0.20012800  1
  Nb  Nb4  1  0.35049200  0.18858000  0.69575400  1
  Nb  Nb5  1  0.81142000  0.64950800  0.30424600  1
  O  O6  1  0.89856000  0.82144700  0.90096300  1
  O  O7  1  0.17855300  0.10144000  0.09903700  1
  O  O8  1  0.09993000  0.17990300  0.59551200  1
  O  O9  1  0.82009700  0.90007000  0.40448800  1
  O  O10  1  0.55608600  0.72221800  0.20965400  1
  O  O11  1  0.27778200  0.44391400  0.79034600  1
  O  O12  1  0.44077400  0.28003200  0.28251000  1
  O  O13  1  0.71996800  0.55922600  0.71749000  1
  O  O14  1  0.11509600  0.59670500  0.27839600  1
  O  O15  1  0.40329500  0.88490400  0.72160400  1
  O  O16  1  0.88794500  0.39529600  0.22216600  1
  O  O17  1  0.60470400  0.11205500  0.77783400  1
