# generated using pymatgen
data_LaTa2AgO7
_symmetry_space_group_name_H-M   'P 1'
_cell_length_a   11.28787863
_cell_length_b   11.28787863
_cell_length_c   11.28787863
_cell_angle_alpha   160.05255551
_cell_angle_beta   160.05255551
_cell_angle_gamma   28.35620127
_symmetry_Int_Tables_number   1
_chemical_formula_structural   LaTa2AgO7
_chemical_formula_sum   'La1 Ta2 Ag1 O7'
_cell_volume   167.31715712
_cell_formula_units_Z   1
loop_
 _symmetry_equiv_pos_site_id
 _symmetry_equiv_pos_as_xyz
  1  'x, y, z'
loop_
 _atom_site_type_symbol
 _atom_site_label
 _atom_site_symmetry_multiplicity
 _atom_site_fract_x
 _atom_site_fract_y
 _atom_site_fract_z
 _atom_site_occupancy
  La  La0  1  0.00000000  0.00000000  0.00000000  1
  Ta  Ta1  1  0.60421200  0.60421200  0.00000000  1
  Ta  Ta2  1  0.39578800  0.39578800  0.00000000  1
  Ag  Ag3  1  0.25000000  0.75000000  0.50000000  1
  O  O4  1  0.41510400  0.91510400  0.50000000  1
  O  O5  1  0.91584100  0.41584100  0.50000000  1
  O  O6  1  0.58415900  0.08415900  0.50000000  1
  O  O7  1  0.08489600  0.58489600  0.50000000  1
  O  O8  1  0.68709600  0.68709600  0.00000000  1
  O  O9  1  0.31290400  0.31290400  0.00000000  1
  O  O10  1  0.50000000  0.50000000  0.00000000  1
