# generated using pymatgen
data_LaV2BiO8
_symmetry_space_group_name_H-M   'P 1'
_cell_length_a   6.21416376
_cell_length_b   6.21416376
_cell_length_c   6.21416376
_cell_angle_alpha   106.21122044
_cell_angle_beta   106.21122044
_cell_angle_gamma   116.20867396
_symmetry_Int_Tables_number   1
_chemical_formula_structural   LaV2BiO8
_chemical_formula_sum   'La1 V2 Bi1 O8'
_cell_volume   182.78767500
_cell_formula_units_Z   1
loop_
 _symmetry_equiv_pos_site_id
 _symmetry_equiv_pos_as_xyz
  1  'x, y, z'
loop_
 _atom_site_type_symbol
 _atom_site_label
 _atom_site_symmetry_multiplicity
 _atom_site_fract_x
 _atom_site_fract_y
 _atom_site_fract_z
 _atom_site_occupancy
  La  La0  1  0.25000000  0.75000000  0.50000000  1
  V  V1  1  0.75000000  0.25000000  0.50000000  1
  V  V2  1  0.50000000  0.50000000  0.00000000  1
  Bi  Bi3  1  0.00000000  0.00000000  0.00000000  1
  O  O4  1  0.91823800  0.59910100  0.68086300  1
  O  O5  1  0.49114500  0.66999400  0.82115100  1
  O  O6  1  0.84884200  0.66999400  0.17884900  1
  O  O7  1  0.91823800  0.23737600  0.31913700  1
  O  O8  1  0.33000600  0.15115700  0.82115100  1
  O  O9  1  0.76262400  0.08176200  0.68086300  1
  O  O10  1  0.40089900  0.08176200  0.31913700  1
  O  O11  1  0.33000600  0.50885500  0.17884900  1
