# generated using pymatgen
data_LaGd(BrO)2
_symmetry_space_group_name_H-M   'P 1'
_cell_length_a   4.03463600
_cell_length_b   4.03463600
_cell_length_c   8.04942400
_cell_angle_alpha   90.00000000
_cell_angle_beta   90.00000000
_cell_angle_gamma   90.00000000
_symmetry_Int_Tables_number   1
_chemical_formula_structural   LaGd(BrO)2
_chemical_formula_sum   'La1 Gd1 Br2 O2'
_cell_volume   131.03083931
_cell_formula_units_Z   1
loop_
 _symmetry_equiv_pos_site_id
 _symmetry_equiv_pos_as_xyz
  1  'x, y, z'
loop_
 _atom_site_type_symbol
 _atom_site_label
 _atom_site_symmetry_multiplicity
 _atom_site_fract_x
 _atom_site_fract_y
 _atom_site_fract_z
 _atom_site_occupancy
  La  La0  1  0.00000000  0.00000000  0.84833700  1
  Gd  Gd1  1  0.50000000  0.50000000  0.14451800  1
  Br  Br2  1  0.50000000  0.50000000  0.64914700  1
  Br  Br3  1  0.00000000  0.00000000  0.34740300  1
  O  O4  1  0.50000000  0.00000000  0.00529800  1
  O  O5  1  0.00000000  0.50000000  0.00529800  1
