# generated using pymatgen
data_LaEuB12
_symmetry_space_group_name_H-M   'P 1'
_cell_length_a   4.15247700
_cell_length_b   4.15247700
_cell_length_c   8.30668400
_cell_angle_alpha   90.00000000
_cell_angle_beta   90.00000000
_cell_angle_gamma   90.00000000
_symmetry_Int_Tables_number   1
_chemical_formula_structural   LaEuB12
_chemical_formula_sum   'La1 Eu1 B12'
_cell_volume   143.23269410
_cell_formula_units_Z   1
loop_
 _symmetry_equiv_pos_site_id
 _symmetry_equiv_pos_as_xyz
  1  'x, y, z'
loop_
 _atom_site_type_symbol
 _atom_site_label
 _atom_site_symmetry_multiplicity
 _atom_site_fract_x
 _atom_site_fract_y
 _atom_site_fract_z
 _atom_site_occupancy
  La  La0  1  0.00000000  0.00000000  0.50000000  1
  Eu  Eu1  1  0.00000000  0.00000000  0.00000000  1
  B  B2  1  0.20018500  0.50000000  0.24992700  1
  B  B3  1  0.20018500  0.50000000  0.75007300  1
  B  B4  1  0.50000000  0.50000000  0.39993700  1
  B  B5  1  0.50000000  0.50000000  0.89980300  1
  B  B6  1  0.50000000  0.20018500  0.24992700  1
  B  B7  1  0.50000000  0.20018500  0.75007300  1
  B  B8  1  0.50000000  0.50000000  0.10019700  1
  B  B9  1  0.50000000  0.50000000  0.60006300  1
  B  B10  1  0.50000000  0.79981500  0.24992700  1
  B  B11  1  0.50000000  0.79981500  0.75007300  1
  B  B12  1  0.79981500  0.50000000  0.24992700  1
  B  B13  1  0.79981500  0.50000000  0.75007300  1
