# generated using pymatgen
data_LaPrMn2O6
_symmetry_space_group_name_H-M   'P 1'
_cell_length_a   5.54693700
_cell_length_b   5.69507100
_cell_length_c   7.93562900
_cell_angle_alpha   90.00000000
_cell_angle_beta   90.00000000
_cell_angle_gamma   90.00000000
_symmetry_Int_Tables_number   1
_chemical_formula_structural   LaPrMn2O6
_chemical_formula_sum   'La2 Pr2 Mn4 O12'
_cell_volume   250.68810761
_cell_formula_units_Z   2
loop_
 _symmetry_equiv_pos_site_id
 _symmetry_equiv_pos_as_xyz
  1  'x, y, z'
loop_
 _atom_site_type_symbol
 _atom_site_label
 _atom_site_symmetry_multiplicity
 _atom_site_fract_x
 _atom_site_fract_y
 _atom_site_fract_z
 _atom_site_occupancy
  La  La0  1  0.24075500  0.45568700  0.50000000  1
  La  La1  1  0.75924500  0.95568700  0.50000000  1
  Pr  Pr2  1  0.26251000  0.55195100  0.00000000  1
  Pr  Pr3  1  0.73749000  0.05195100  0.00000000  1
  Mn  Mn4  1  0.75096900  0.50016800  0.75120300  1
  Mn  Mn5  1  0.24903100  0.00016800  0.24879700  1
  Mn  Mn6  1  0.75096900  0.50016800  0.24879700  1
  Mn  Mn7  1  0.24903100  0.00016800  0.75120300  1
  O  O8  1  0.16542100  0.97892800  0.00000000  1
  O  O9  1  0.83457900  0.47892800  0.00000000  1
  O  O10  1  0.32914200  0.01915800  0.50000000  1
  O  O11  1  0.67085800  0.51915800  0.50000000  1
  O  O12  1  0.53642900  0.79397400  0.79612400  1
  O  O13  1  0.46357100  0.29397400  0.20387600  1
  O  O14  1  0.96024400  0.20299600  0.29197200  1
  O  O15  1  0.03975600  0.70299600  0.70802800  1
  O  O16  1  0.96024400  0.20299600  0.70802800  1
  O  O17  1  0.03975600  0.70299600  0.29197200  1
  O  O18  1  0.53642900  0.79397400  0.20387600  1
  O  O19  1  0.46357100  0.29397400  0.79612400  1
