# generated using pymatgen
data_LaCe2Mn3O9
_symmetry_space_group_name_H-M   'P 1'
_cell_length_a   8.78039076
_cell_length_b   8.78039076
_cell_length_c   3.93755700
_cell_angle_alpha   90.00000000
_cell_angle_beta   90.00000000
_cell_angle_gamma   143.04567134
_symmetry_Int_Tables_number   1
_chemical_formula_structural   LaCe2Mn3O9
_chemical_formula_sum   'La1 Ce2 Mn3 O9'
_cell_volume   182.49786371
_cell_formula_units_Z   1
loop_
 _symmetry_equiv_pos_site_id
 _symmetry_equiv_pos_as_xyz
  1  'x, y, z'
loop_
 _atom_site_type_symbol
 _atom_site_label
 _atom_site_symmetry_multiplicity
 _atom_site_fract_x
 _atom_site_fract_y
 _atom_site_fract_z
 _atom_site_occupancy
  La  La0  1  0.50000000  0.50000000  0.50000000  1
  Ce  Ce1  1  0.83250000  0.16750000  0.50000000  1
  Ce  Ce2  1  0.16750000  0.83250000  0.50000000  1
  Mn  Mn3  1  0.00000000  0.00000000  0.00000000  1
  Mn  Mn4  1  0.33331200  0.66668800  0.00000000  1
  Mn  Mn5  1  0.66668800  0.33331200  0.00000000  1
  O  O6  1  0.83588500  0.66889100  0.00000000  1
  O  O7  1  0.16411500  0.33110900  0.00000000  1
  O  O8  1  0.50000000  0.00000000  0.00000000  1
  O  O9  1  0.66889100  0.83588500  0.00000000  1
  O  O10  1  0.00000000  0.50000000  0.00000000  1
  O  O11  1  0.33110900  0.16411500  0.00000000  1
  O  O12  1  0.33208300  0.66791700  0.50000000  1
  O  O13  1  0.66791700  0.33208300  0.50000000  1
  O  O14  1  0.00000000  0.00000000  0.50000000  1
