# generated using pymatgen
data_LaCo5H3
_symmetry_space_group_name_H-M   'P 1'
_cell_length_a   4.04028400
_cell_length_b   5.04457200
_cell_length_c   5.23348761
_cell_angle_alpha   61.54023598
_cell_angle_beta   90.00000000
_cell_angle_gamma   90.00000000
_symmetry_Int_Tables_number   1
_chemical_formula_structural   LaCo5H3
_chemical_formula_sum   'La1 Co5 H3'
_cell_volume   93.77592961
_cell_formula_units_Z   1
loop_
 _symmetry_equiv_pos_site_id
 _symmetry_equiv_pos_as_xyz
  1  'x, y, z'
loop_
 _atom_site_type_symbol
 _atom_site_label
 _atom_site_symmetry_multiplicity
 _atom_site_fract_x
 _atom_site_fract_y
 _atom_site_fract_z
 _atom_site_occupancy
  La  La0  1  0.00000000  0.00000000  0.00000000  1
  Co  Co1  1  0.50000000  0.50000000  0.50000000  1
  Co  Co2  1  0.00000000  0.66117700  0.62177800  1
  Co  Co3  1  0.00000000  0.33882300  0.37822200  1
  Co  Co4  1  0.50000000  0.00000000  0.50000000  1
  Co  Co5  1  0.50000000  0.50000000  0.00000000  1
  H  H6  1  0.00000000  0.50000000  0.00000000  1
  H  H7  1  0.50000000  0.86101600  0.85215700  1
  H  H8  1  0.50000000  0.13898400  0.14784300  1
