# generated using pymatgen
data_LaSm3O6
_symmetry_space_group_name_H-M   'P 1'
_cell_length_a   7.48963763
_cell_length_b   7.48963763
_cell_length_c   18.05839455
_cell_angle_alpha   79.75171022
_cell_angle_beta   79.75171022
_cell_angle_gamma   28.39334896
_symmetry_Int_Tables_number   1
_chemical_formula_structural   LaSm3O6
_chemical_formula_sum   'La3 Sm9 O18'
_cell_volume   473.51322716
_cell_formula_units_Z   3
loop_
 _symmetry_equiv_pos_site_id
 _symmetry_equiv_pos_as_xyz
  1  'x, y, z'
loop_
 _atom_site_type_symbol
 _atom_site_label
 _atom_site_symmetry_multiplicity
 _atom_site_fract_x
 _atom_site_fract_y
 _atom_site_fract_z
 _atom_site_occupancy
  La  La0  1  0.31012700  0.31012700  0.06878500  1
  La  La1  1  0.31090500  0.31090500  0.57007800  1
  La  La2  1  0.68901900  0.68901900  0.43016100  1
  Sm  Sm3  1  0.69006700  0.69006700  0.93054500  1
  Sm  Sm4  1  0.03395700  0.03395700  0.09394500  1
  Sm  Sm5  1  0.03312600  0.03312600  0.59531900  1
  Sm  Sm6  1  0.96685700  0.96685700  0.40521600  1
  Sm  Sm7  1  0.96794700  0.96794700  0.90552700  1
  Sm  Sm8  1  0.36685600  0.36685600  0.24495000  1
  Sm  Sm9  1  0.36570900  0.36570900  0.74647100  1
  Sm  Sm10  1  0.63316600  0.63316600  0.25469400  1
  Sm  Sm11  1  0.63377600  0.63377600  0.75584400  1
  O  O12  1  0.52890800  0.52890800  0.17111500  1
  O  O13  1  0.52856100  0.52856100  0.67172800  1
  O  O14  1  0.47141700  0.47141700  0.32843100  1
  O  O15  1  0.47176500  0.47176500  0.82853400  1
  O  O16  1  0.17353400  0.17353400  0.01204200  1
  O  O17  1  0.17356100  0.17356100  0.51547700  1
  O  O18  1  0.82642400  0.82642400  0.48458600  1
  O  O19  1  0.82452600  0.82452600  0.98304300  1
  O  O20  1  0.20112900  0.20112900  0.18937700  1
  O  O21  1  0.20103800  0.20103800  0.69027300  1
  O  O22  1  0.79891000  0.79891000  0.30991700  1
  O  O23  1  0.79657200  0.79657200  0.81238800  1
  O  O24  1  0.49995900  0.49995900  0.49990500  1
  O  O25  1  0.50069500  0.50069500  0.99960200  1
  O  O26  1  0.87406200  0.87406200  0.14355700  1
  O  O27  1  0.87348500  0.87348500  0.64506500  1
  O  O28  1  0.12623100  0.12623100  0.35547700  1
  O  O29  1  0.12771000  0.12771000  0.85794900  1
