# generated using pymatgen
data_Li2AlGaSi2(H2O5)2
_symmetry_space_group_name_H-M   'P 1'
_cell_length_a   5.05286100
_cell_length_b   8.31850413
_cell_length_c   10.60459530
_cell_angle_alpha   90.05821886
_cell_angle_beta   90.00000000
_cell_angle_gamma   90.00000000
_symmetry_Int_Tables_number   1
_chemical_formula_structural   Li2AlGaSi2(H2O5)2
_chemical_formula_sum   'Li4 Al2 Ga2 Si4 H8 O20'
_cell_volume   445.73471864
_cell_formula_units_Z   2
loop_
 _symmetry_equiv_pos_site_id
 _symmetry_equiv_pos_as_xyz
  1  'x, y, z'
loop_
 _atom_site_type_symbol
 _atom_site_label
 _atom_site_symmetry_multiplicity
 _atom_site_fract_x
 _atom_site_fract_y
 _atom_site_fract_z
 _atom_site_occupancy
  Li  Li0  1  0.24304000  0.68653900  0.18618700  1
  Li  Li1  1  0.74304000  0.31346100  0.81381300  1
  Li  Li2  1  0.74079700  0.17932800  0.31157000  1
  Li  Li3  1  0.24079700  0.82067200  0.68843000  1
  Al  Al4  1  0.24787400  0.08080800  0.15608800  1
  Al  Al5  1  0.74787400  0.91919200  0.84391200  1
  Ga  Ga6  1  0.74543900  0.58175100  0.34486400  1
  Ga  Ga7  1  0.24543900  0.41824900  0.65513600  1
  Si  Si8  1  0.74880700  0.87510700  0.14287100  1
  Si  Si9  1  0.24880700  0.12489300  0.85712900  1
  Si  Si10  1  0.24785700  0.36992600  0.35361200  1
  Si  Si11  1  0.74785700  0.63007400  0.64638800  1
  H  H12  1  0.65564300  0.33023700  0.03793500  1
  H  H13  1  0.15564300  0.66976300  0.96206500  1
  H  H14  1  0.15404800  0.83023700  0.46464200  1
  H  H15  1  0.65404800  0.16976300  0.53535800  1
  H  H16  1  0.88437700  0.46046400  0.01876300  1
  H  H17  1  0.38437700  0.53953600  0.98123700  1
  H  H18  1  0.38480300  0.96082400  0.48155700  1
  H  H19  1  0.88480300  0.03917600  0.51844300  1
  O  O20  1  0.22033800  0.58476000  0.01738300  1
  O  O21  1  0.72033800  0.41524000  0.98261700  1
  O  O22  1  0.72031000  0.08283700  0.48191200  1
  O  O23  1  0.22031000  0.91716300  0.51808800  1
  O  O24  1  0.86737400  0.72245300  0.22341800  1
  O  O25  1  0.36737400  0.27754700  0.77658200  1
  O  O26  1  0.36426600  0.22005200  0.26945400  1
  O  O27  1  0.86426600  0.77994800  0.73054600  1
  O  O28  1  0.39140200  0.54066700  0.31172400  1
  O  O29  1  0.89140200  0.45933300  0.68827600  1
  O  O30  1  0.90950300  0.03918400  0.18631100  1
  O  O31  1  0.40950300  0.96081600  0.81368900  1
  O  O32  1  0.81763500  0.67061900  0.49920700  1
  O  O33  1  0.31763500  0.32938100  0.50079300  1
  O  O34  1  0.30476300  0.16000000  0.00577100  1
  O  O35  1  0.80476300  0.84000000  0.99422900  1
  O  O36  1  0.92917000  0.38824500  0.32402300  1
  O  O37  1  0.42917000  0.61175500  0.67597700  1
  O  O38  1  0.43255400  0.89925100  0.17558600  1
  O  O39  1  0.93255400  0.10074900  0.82441400  1
