# generated using pymatgen
data_La4Cu4Se3SO4
_symmetry_space_group_name_H-M   'P 1'
_cell_length_a   5.74364400
_cell_length_b   5.74364400
_cell_length_c   8.75318600
_cell_angle_alpha   90.00000000
_cell_angle_beta   90.00000000
_cell_angle_gamma   90.00000000
_symmetry_Int_Tables_number   1
_chemical_formula_structural   La4Cu4Se3SO4
_chemical_formula_sum   'La4 Cu4 Se3 S1 O4'
_cell_volume   288.76276037
_cell_formula_units_Z   1
loop_
 _symmetry_equiv_pos_site_id
 _symmetry_equiv_pos_as_xyz
  1  'x, y, z'
loop_
 _atom_site_type_symbol
 _atom_site_label
 _atom_site_symmetry_multiplicity
 _atom_site_fract_x
 _atom_site_fract_y
 _atom_site_fract_z
 _atom_site_occupancy
  La  La0  1  0.00000000  0.50000000  0.85713000  1
  La  La1  1  0.50000000  0.00000000  0.85713000  1
  La  La2  1  0.50000000  0.50000000  0.14138200  1
  La  La3  1  0.00000000  0.00000000  0.14163900  1
  Cu  Cu4  1  0.75222900  0.75222900  0.50156100  1
  Cu  Cu5  1  0.24777100  0.24777100  0.50156100  1
  Cu  Cu6  1  0.75222900  0.24777100  0.50156100  1
  Cu  Cu7  1  0.24777100  0.75222900  0.50156100  1
  Se  Se8  1  0.00000000  0.50000000  0.32915900  1
  Se  Se9  1  0.50000000  0.00000000  0.32915900  1
  Se  Se10  1  0.50000000  0.50000000  0.66965200  1
  S  S11  1  0.00000000  0.00000000  0.65415600  1
  O  O12  1  0.75037300  0.75037300  0.99858700  1
  O  O13  1  0.24962700  0.24962700  0.99858700  1
  O  O14  1  0.75037300  0.24962700  0.99858700  1
  O  O15  1  0.24962700  0.75037300  0.99858700  1
