# generated using pymatgen
data_LaNO4
_symmetry_space_group_name_H-M   'P 1'
_cell_length_a   3.88890100
_cell_length_b   4.76614900
_cell_length_c   8.84026900
_cell_angle_alpha   90.00000000
_cell_angle_beta   90.00000000
_cell_angle_gamma   90.00000000
_symmetry_Int_Tables_number   1
_chemical_formula_structural   LaNO4
_chemical_formula_sum   'La2 N2 O8'
_cell_volume   163.85510739
_cell_formula_units_Z   2
loop_
 _symmetry_equiv_pos_site_id
 _symmetry_equiv_pos_as_xyz
  1  'x, y, z'
loop_
 _atom_site_type_symbol
 _atom_site_label
 _atom_site_symmetry_multiplicity
 _atom_site_fract_x
 _atom_site_fract_y
 _atom_site_fract_z
 _atom_site_occupancy
  La  La0  1  0.75000000  0.75000000  0.12809100  1
  La  La1  1  0.25000000  0.25000000  0.87190900  1
  N  N2  1  0.75000000  0.75000000  0.63980500  1
  N  N3  1  0.25000000  0.25000000  0.36019500  1
  O  O4  1  0.75000000  0.75000000  0.50071900  1
  O  O5  1  0.25000000  0.25000000  0.49928100  1
  O  O6  1  0.25000000  0.75000000  0.97934100  1
  O  O7  1  0.75000000  0.25000000  0.02065900  1
  O  O8  1  0.25000000  0.48027900  0.28471000  1
  O  O9  1  0.25000000  0.01972100  0.28471000  1
  O  O10  1  0.75000000  0.51972100  0.71529000  1
  O  O11  1  0.75000000  0.98027900  0.71529000  1
