# generated using pymatgen
data_La4Nd4S4O7
_symmetry_space_group_name_H-M   'P 1'
_cell_length_a   7.98253937
_cell_length_b   7.98253937
_cell_length_c   9.80908336
_cell_angle_alpha   52.67132928
_cell_angle_beta   52.67132928
_cell_angle_gamma   60.63015255
_symmetry_Int_Tables_number   1
_chemical_formula_structural   La4Nd4S4O7
_chemical_formula_sum   'La4 Nd4 S4 O7'
_cell_volume   387.69476257
_cell_formula_units_Z   1
loop_
 _symmetry_equiv_pos_site_id
 _symmetry_equiv_pos_as_xyz
  1  'x, y, z'
loop_
 _atom_site_type_symbol
 _atom_site_label
 _atom_site_symmetry_multiplicity
 _atom_site_fract_x
 _atom_site_fract_y
 _atom_site_fract_z
 _atom_site_occupancy
  La  La0  1  0.18835500  0.18835500  0.83343000  1
  La  La1  1  0.69449100  0.69449100  0.82115700  1
  La  La2  1  0.17544700  0.69469200  0.33958300  1
  La  La3  1  0.69469200  0.17544700  0.33958300  1
  Nd  Nd4  1  0.80246800  0.30120000  0.66690100  1
  Nd  Nd5  1  0.30120000  0.80246800  0.66690100  1
  Nd  Nd6  1  0.29615400  0.29615400  0.16692100  1
  Nd  Nd7  1  0.80177800  0.80177800  0.16597400  1
  S  S8  1  0.99360800  0.49814600  0.00028900  1
  S  S9  1  0.49814600  0.99360800  0.00028900  1
  S  S10  1  0.49805500  0.49805500  0.49809600  1
  S  S11  1  0.00046500  0.00046500  0.50140900  1
  O  O12  1  0.01162300  0.01162300  0.83453900  1
  O  O13  1  0.51312300  0.51312300  0.83918200  1
  O  O14  1  0.51400800  0.02063900  0.32987300  1
  O  O15  1  0.02063900  0.51400800  0.32987300  1
  O  O16  1  0.97611200  0.47245300  0.66744700  1
  O  O17  1  0.47245300  0.97611200  0.66744700  1
  O  O18  1  0.97586400  0.97586400  0.16445600  1
