# generated using pymatgen
data_LaNdMn2O6
_symmetry_space_group_name_H-M   'P 1'
_cell_length_a   5.56472800
_cell_length_b   5.71683700
_cell_length_c   7.85012500
_cell_angle_alpha   90.00000000
_cell_angle_beta   90.00000000
_cell_angle_gamma   90.00000000
_symmetry_Int_Tables_number   1
_chemical_formula_structural   LaNdMn2O6
_chemical_formula_sum   'La2 Nd2 Mn4 O12'
_cell_volume   249.73322354
_cell_formula_units_Z   2
loop_
 _symmetry_equiv_pos_site_id
 _symmetry_equiv_pos_as_xyz
  1  'x, y, z'
loop_
 _atom_site_type_symbol
 _atom_site_label
 _atom_site_symmetry_multiplicity
 _atom_site_fract_x
 _atom_site_fract_y
 _atom_site_fract_z
 _atom_site_occupancy
  La  La0  1  0.24010200  0.45758400  0.50000000  1
  La  La1  1  0.75989800  0.95758400  0.50000000  1
  Nd  Nd2  1  0.26226900  0.55306700  0.00000000  1
  Nd  Nd3  1  0.73773100  0.05306700  0.00000000  1
  Mn  Mn4  1  0.75062300  0.50050200  0.75210400  1
  Mn  Mn5  1  0.24937700  0.00050200  0.24789600  1
  Mn  Mn6  1  0.75062300  0.50050200  0.24789600  1
  Mn  Mn7  1  0.24937700  0.00050200  0.75210400  1
  O  O8  1  0.52877200  0.79913300  0.79949900  1
  O  O9  1  0.47122800  0.29913300  0.20050100  1
  O  O10  1  0.96859700  0.19878000  0.29231000  1
  O  O11  1  0.03140300  0.69878000  0.70769000  1
  O  O12  1  0.96859700  0.19878000  0.70769000  1
  O  O13  1  0.03140300  0.69878000  0.29231000  1
  O  O14  1  0.52877200  0.79913300  0.20050100  1
  O  O15  1  0.47122800  0.29913300  0.79949900  1
  O  O16  1  0.15830600  0.97694200  0.00000000  1
  O  O17  1  0.84169400  0.47694200  0.00000000  1
  O  O18  1  0.33258900  0.01557800  0.50000000  1
  O  O19  1  0.66741100  0.51557800  0.50000000  1
