# generated using pymatgen
data_La3ScAl8
_symmetry_space_group_name_H-M   'P 1'
_cell_length_a   9.89032737
_cell_length_b   9.89032737
_cell_length_c   9.89032743
_cell_angle_alpha   33.22359304
_cell_angle_beta   33.22359304
_cell_angle_gamma   33.22359481
_symmetry_Int_Tables_number   1
_chemical_formula_structural   La3ScAl8
_chemical_formula_sum   'La3 Sc1 Al8'
_cell_volume   258.55477435
_cell_formula_units_Z   1
loop_
 _symmetry_equiv_pos_site_id
 _symmetry_equiv_pos_as_xyz
  1  'x, y, z'
loop_
 _atom_site_type_symbol
 _atom_site_label
 _atom_site_symmetry_multiplicity
 _atom_site_fract_x
 _atom_site_fract_y
 _atom_site_fract_z
 _atom_site_occupancy
  La  La0  1  0.37457100  0.37457100  0.37457100  1
  La  La1  1  0.99931500  0.99931500  0.99931500  1
  La  La2  1  0.50055500  0.50055500  0.50055500  1
  Sc  Sc3  1  0.87490300  0.87490300  0.87490300  1
  Al  Al4  1  0.43597900  0.93469400  0.43597900  1
  Al  Al5  1  0.93857000  0.44193000  0.93857000  1
  Al  Al6  1  0.43597900  0.43597900  0.93469400  1
  Al  Al7  1  0.93857000  0.93857000  0.44193000  1
  Al  Al8  1  0.18792600  0.18792600  0.18792600  1
  Al  Al9  1  0.68700900  0.68700900  0.68700900  1
  Al  Al10  1  0.93469400  0.43597900  0.43597900  1
  Al  Al11  1  0.44193000  0.93857000  0.93857000  1
