# generated using pymatgen
data_LaNb2CuBrO7
_symmetry_space_group_name_H-M   'P 1'
_cell_length_a   5.58218498
_cell_length_b   5.58218498
_cell_length_c   11.79887381
_cell_angle_alpha   89.94768410
_cell_angle_beta   89.94768410
_cell_angle_gamma   89.82023939
_symmetry_Int_Tables_number   1
_chemical_formula_structural   LaNb2CuBrO7
_chemical_formula_sum   'La2 Nb4 Cu2 Br2 O14'
_cell_volume   367.66010447
_cell_formula_units_Z   2
loop_
 _symmetry_equiv_pos_site_id
 _symmetry_equiv_pos_as_xyz
  1  'x, y, z'
loop_
 _atom_site_type_symbol
 _atom_site_label
 _atom_site_symmetry_multiplicity
 _atom_site_fract_x
 _atom_site_fract_y
 _atom_site_fract_z
 _atom_site_occupancy
  La  La0  1  0.26187900  0.26395900  0.49999500  1
  La  La1  1  0.73604100  0.73812100  0.50000500  1
  Nb  Nb2  1  0.24599900  0.75440500  0.30938200  1
  Nb  Nb3  1  0.75015900  0.25081500  0.30953600  1
  Nb  Nb4  1  0.24559500  0.75400100  0.69061800  1
  Nb  Nb5  1  0.74918500  0.24984100  0.69046400  1
  Cu  Cu6  1  0.22927500  0.77072500  0.00000000  1
  Cu  Cu7  1  0.77359500  0.22640500  0.00000000  1
  Br  Br8  1  0.71620400  0.76370000  0.00499900  1
  Br  Br9  1  0.23630000  0.28379600  0.99500100  1
  O  O10  1  0.00037600  0.50025200  0.34753600  1
  O  O11  1  0.49974800  0.99962400  0.65246400  1
  O  O12  1  0.00000100  0.49982600  0.65322100  1
  O  O13  1  0.50017400  0.99999900  0.34677900  1
  O  O14  1  0.28606900  0.71393100  0.50000000  1
  O  O15  1  0.71137900  0.28862100  0.50000000  1
  O  O16  1  0.49855100  0.50142400  0.32695300  1
  O  O17  1  0.49857700  0.50144900  0.67304700  1
  O  O18  1  0.99911700  0.00110200  0.36191000  1
  O  O19  1  0.99889800  0.00088300  0.63809000  1
  O  O20  1  0.22329500  0.77526500  0.15674400  1
  O  O21  1  0.76635200  0.23790200  0.15694600  1
  O  O22  1  0.22473500  0.77670500  0.84325600  1
  O  O23  1  0.76209800  0.23364800  0.84305400  1
