# generated using pymatgen
data_La6Fe(SiS7)2
_symmetry_space_group_name_H-M   'P 1'
_cell_length_a   10.32298230
_cell_length_b   10.32298230
_cell_length_c   5.78482800
_cell_angle_alpha   90.00000000
_cell_angle_beta   90.00000000
_cell_angle_gamma   120.00000192
_symmetry_Int_Tables_number   1
_chemical_formula_structural   La6Fe(SiS7)2
_chemical_formula_sum   'La6 Fe1 Si2 S14'
_cell_volume   533.86498725
_cell_formula_units_Z   1
loop_
 _symmetry_equiv_pos_site_id
 _symmetry_equiv_pos_as_xyz
  1  'x, y, z'
loop_
 _atom_site_type_symbol
 _atom_site_label
 _atom_site_symmetry_multiplicity
 _atom_site_fract_x
 _atom_site_fract_y
 _atom_site_fract_z
 _atom_site_occupancy
  La  La0  1  0.45666100  0.43326100  0.25185500  1
  La  La1  1  0.56673900  0.02340000  0.25185500  1
  La  La2  1  0.97660000  0.54333900  0.25185500  1
  La  La3  1  0.21350300  0.90002900  0.75118700  1
  La  La4  1  0.09997100  0.31347400  0.75118700  1
  La  La5  1  0.68652600  0.78649700  0.75118700  1
  Fe  Fe6  1  0.33333300  0.66666700  0.48753000  1
  Si  Si7  1  0.66666700  0.33333300  0.83549000  1
  Si  Si8  1  0.00000000  0.00000000  0.33718600  1
  S  S9  1  0.66666700  0.33333300  0.47146100  1
  S  S10  1  0.00000000  0.00000000  0.97281100  1
  S  S11  1  0.41627400  0.50892500  0.72687600  1
  S  S12  1  0.49107500  0.90734900  0.72687600  1
  S  S13  1  0.09265100  0.58372600  0.72687600  1
  S  S14  1  0.25643900  0.82612800  0.25435400  1
  S  S15  1  0.17387200  0.43031100  0.25435400  1
  S  S16  1  0.56968900  0.74356100  0.25435400  1
  S  S17  1  0.74316300  0.55111600  0.97585300  1
  S  S18  1  0.44888400  0.19204600  0.97585300  1
  S  S19  1  0.80795400  0.25683700  0.97585300  1
  S  S20  1  0.92626500  0.78265800  0.47697800  1
  S  S21  1  0.21734200  0.14360700  0.47697800  1
  S  S22  1  0.85639300  0.07373500  0.47697800  1
