# generated using pymatgen
data_La2Al3Sn
_symmetry_space_group_name_H-M   'P 1'
_cell_length_a   4.44921500
_cell_length_b   4.51372300
_cell_length_c   7.81742900
_cell_angle_alpha   90.00000000
_cell_angle_beta   90.00000000
_cell_angle_gamma   90.00000000
_symmetry_Int_Tables_number   1
_chemical_formula_structural   La2Al3Sn
_chemical_formula_sum   'La2 Al3 Sn1'
_cell_volume   156.99370612
_cell_formula_units_Z   1
loop_
 _symmetry_equiv_pos_site_id
 _symmetry_equiv_pos_as_xyz
  1  'x, y, z'
loop_
 _atom_site_type_symbol
 _atom_site_label
 _atom_site_symmetry_multiplicity
 _atom_site_fract_x
 _atom_site_fract_y
 _atom_site_fract_z
 _atom_site_occupancy
  La  La0  1  0.00000000  0.50000000  0.99701300  1
  La  La1  1  0.00000000  0.00000000  0.50390700  1
  Al  Al2  1  0.50000000  0.00000000  0.83008900  1
  Al  Al3  1  0.50000000  0.00000000  0.15437000  1
  Al  Al4  1  0.50000000  0.50000000  0.67818700  1
  Sn  Sn5  1  0.50000000  0.50000000  0.33643400  1
