# generated using pymatgen
data_La5B4Rh15
_symmetry_space_group_name_H-M   'P 1'
_cell_length_a   4.28986500
_cell_length_b   4.28986500
_cell_length_c   21.13354800
_cell_angle_alpha   90.00000000
_cell_angle_beta   90.00000000
_cell_angle_gamma   90.00000000
_symmetry_Int_Tables_number   1
_chemical_formula_structural   La5B4Rh15
_chemical_formula_sum   'La5 B4 Rh15'
_cell_volume   388.91945214
_cell_formula_units_Z   1
loop_
 _symmetry_equiv_pos_site_id
 _symmetry_equiv_pos_as_xyz
  1  'x, y, z'
loop_
 _atom_site_type_symbol
 _atom_site_label
 _atom_site_symmetry_multiplicity
 _atom_site_fract_x
 _atom_site_fract_y
 _atom_site_fract_z
 _atom_site_occupancy
  La  La0  1  0.00000000  0.00000000  0.90430500  1
  La  La1  1  0.00000000  0.00000000  0.09569500  1
  La  La2  1  0.00000000  0.00000000  0.29964400  1
  La  La3  1  0.00000000  0.00000000  0.50000000  1
  La  La4  1  0.00000000  0.00000000  0.70035600  1
  B  B5  1  0.50000000  0.50000000  0.19450900  1
  B  B6  1  0.50000000  0.50000000  0.39910400  1
  B  B7  1  0.50000000  0.50000000  0.60089600  1
  B  B8  1  0.50000000  0.50000000  0.80549100  1
  Rh  Rh9  1  0.50000000  0.50000000  0.90462400  1
  Rh  Rh10  1  0.50000000  0.50000000  0.09537600  1
  Rh  Rh11  1  0.50000000  0.50000000  0.29779400  1
  Rh  Rh12  1  0.50000000  0.50000000  0.50000000  1
  Rh  Rh13  1  0.50000000  0.50000000  0.70220600  1
  Rh  Rh14  1  0.50000000  0.00000000  0.00000000  1
  Rh  Rh15  1  0.50000000  0.00000000  0.19832300  1
  Rh  Rh16  1  0.50000000  0.00000000  0.39964600  1
  Rh  Rh17  1  0.50000000  0.00000000  0.60035400  1
  Rh  Rh18  1  0.50000000  0.00000000  0.80167700  1
  Rh  Rh19  1  0.00000000  0.50000000  0.00000000  1
  Rh  Rh20  1  0.00000000  0.50000000  0.19832300  1
  Rh  Rh21  1  0.00000000  0.50000000  0.39964600  1
  Rh  Rh22  1  0.00000000  0.50000000  0.60035400  1
  Rh  Rh23  1  0.00000000  0.50000000  0.80167700  1
