# generated using pymatgen
data_La4SmMn5O15
_symmetry_space_group_name_H-M   'P 1'
_cell_length_a   14.19089982
_cell_length_b   14.19089982
_cell_length_c   3.93228700
_cell_angle_alpha   90.00000000
_cell_angle_beta   90.00000000
_cell_angle_gamma   157.38527713
_symmetry_Int_Tables_number   1
_chemical_formula_structural   La4SmMn5O15
_chemical_formula_sum   'La4 Sm1 Mn5 O15'
_cell_volume   304.50762555
_cell_formula_units_Z   1
loop_
 _symmetry_equiv_pos_site_id
 _symmetry_equiv_pos_as_xyz
  1  'x, y, z'
loop_
 _atom_site_type_symbol
 _atom_site_label
 _atom_site_symmetry_multiplicity
 _atom_site_fract_x
 _atom_site_fract_y
 _atom_site_fract_z
 _atom_site_occupancy
  La  La0  1  0.09985100  0.90014900  0.50000000  1
  La  La1  1  0.69977400  0.30022600  0.50000000  1
  La  La2  1  0.30022600  0.69977400  0.50000000  1
  La  La3  1  0.90014900  0.09985100  0.50000000  1
  Sm  Sm4  1  0.50000000  0.50000000  0.50000000  1
  Mn  Mn5  1  0.79982400  0.20017600  0.00000000  1
  Mn  Mn6  1  0.40080600  0.59919400  0.00000000  1
  Mn  Mn7  1  0.00000000  0.00000000  0.00000000  1
  Mn  Mn8  1  0.59919400  0.40080600  0.00000000  1
  Mn  Mn9  1  0.20017600  0.79982400  0.00000000  1
  O  O10  1  0.00000000  0.50000000  0.00000000  1
  O  O11  1  0.60090700  0.90070800  0.00000000  1
  O  O12  1  0.20307700  0.30051000  0.00000000  1
  O  O13  1  0.79692300  0.69949000  0.00000000  1
  O  O14  1  0.39909300  0.09929200  0.00000000  1
  O  O15  1  0.50000000  0.00000000  0.00000000  1
  O  O16  1  0.09929200  0.39909300  0.00000000  1
  O  O17  1  0.69949000  0.79692300  0.00000000  1
  O  O18  1  0.30051000  0.20307700  0.00000000  1
  O  O19  1  0.90070800  0.60090700  0.00000000  1
  O  O20  1  0.20062200  0.79937800  0.50000000  1
  O  O21  1  0.79937800  0.20062200  0.50000000  1
  O  O22  1  0.40178500  0.59821500  0.50000000  1
  O  O23  1  0.00000000  0.00000000  0.50000000  1
  O  O24  1  0.59821500  0.40178500  0.50000000  1
