# generated using pymatgen
data_La3Se4Cl
_symmetry_space_group_name_H-M   'P 1'
_cell_length_a   8.00847000
_cell_length_b   8.60045100
_cell_length_c   12.82934500
_cell_angle_alpha   90.00000000
_cell_angle_beta   90.00000000
_cell_angle_gamma   90.00000000
_symmetry_Int_Tables_number   1
_chemical_formula_structural   La3Se4Cl
_chemical_formula_sum   'La12 Se16 Cl4'
_cell_volume   883.63978843
_cell_formula_units_Z   4
loop_
 _symmetry_equiv_pos_site_id
 _symmetry_equiv_pos_as_xyz
  1  'x, y, z'
loop_
 _atom_site_type_symbol
 _atom_site_label
 _atom_site_symmetry_multiplicity
 _atom_site_fract_x
 _atom_site_fract_y
 _atom_site_fract_z
 _atom_site_occupancy
  La  La0  1  0.42003700  0.25155300  0.51001400  1
  La  La1  1  0.07996300  0.25155300  0.01001400  1
  La  La2  1  0.57996300  0.75155300  0.48998600  1
  La  La3  1  0.92003700  0.75155300  0.98998600  1
  La  La4  1  0.47318400  0.99915500  0.81872000  1
  La  La5  1  0.01497000  0.49849100  0.32497400  1
  La  La6  1  0.52681600  0.49915500  0.18128000  1
  La  La7  1  0.98503000  0.99849100  0.67502600  1
  La  La8  1  0.51497000  0.99849100  0.17502600  1
  La  La9  1  0.97318400  0.49915500  0.68128000  1
  La  La10  1  0.48503000  0.49849100  0.82497400  1
  La  La11  1  0.02681600  0.99915500  0.31872000  1
  Se  Se12  1  0.19969200  0.25217200  0.78111200  1
  Se  Se13  1  0.30030800  0.25217200  0.28111200  1
  Se  Se14  1  0.80030800  0.75217200  0.21888800  1
  Se  Se15  1  0.69969200  0.75217200  0.71888800  1
  Se  Se16  1  0.03539800  0.25328800  0.50082300  1
  Se  Se17  1  0.46460200  0.25328800  0.00082300  1
  Se  Se18  1  0.96460200  0.75328800  0.49917700  1
  Se  Se19  1  0.53539800  0.75328800  0.99917700  1
  Se  Se20  1  0.67352600  0.24946300  0.68836500  1
  Se  Se21  1  0.82647400  0.24946300  0.18836500  1
  Se  Se22  1  0.32647400  0.74946300  0.31163500  1
  Se  Se23  1  0.17352600  0.74946300  0.81163500  1
  Se  Se24  1  0.83729500  0.45399200  0.90043100  1
  Se  Se25  1  0.16270500  0.95399200  0.09956900  1
  Se  Se26  1  0.33729500  0.95399200  0.59956900  1
  Se  Se27  1  0.66270500  0.45399200  0.40043100  1
  Cl  Cl28  1  0.66055300  0.04188600  0.39775000  1
  Cl  Cl29  1  0.33944700  0.54188600  0.60225000  1
  Cl  Cl30  1  0.16055300  0.54188600  0.10225000  1
  Cl  Cl31  1  0.83944700  0.04188600  0.89775000  1
