# generated using pymatgen
data_KTi3NbO9
_symmetry_space_group_name_H-M   'P 1'
_cell_length_a   3.81904800
_cell_length_b   6.46050700
_cell_length_c   15.07466900
_cell_angle_alpha   90.00000000
_cell_angle_beta   90.00000000
_cell_angle_gamma   90.00000000
_symmetry_Int_Tables_number   1
_chemical_formula_structural   KTi3NbO9
_chemical_formula_sum   'K2 Ti6 Nb2 O18'
_cell_volume   371.93710228
_cell_formula_units_Z   2
loop_
 _symmetry_equiv_pos_site_id
 _symmetry_equiv_pos_as_xyz
  1  'x, y, z'
loop_
 _atom_site_type_symbol
 _atom_site_label
 _atom_site_symmetry_multiplicity
 _atom_site_fract_x
 _atom_site_fract_y
 _atom_site_fract_z
 _atom_site_occupancy
  K  K0  1  0.50000000  0.22313700  0.24880700  1
  K  K1  1  0.00000000  0.77686300  0.74880700  1
  Ti  Ti2  1  0.00000000  0.31008900  0.46188100  1
  Ti  Ti3  1  0.00000000  0.31302500  0.04747500  1
  Ti  Ti4  1  0.50000000  0.68697500  0.54747500  1
  Ti  Ti5  1  0.50000000  0.68991100  0.96188100  1
  Ti  Ti6  1  0.00000000  0.76349500  0.12177400  1
  Ti  Ti7  1  0.50000000  0.23650500  0.62177400  1
  Nb  Nb8  1  0.00000000  0.76202800  0.36857100  1
  Nb  Nb9  1  0.50000000  0.23797200  0.86857100  1
  O  O10  1  0.00000000  0.65265700  0.99043600  1
  O  O11  1  0.00000000  0.65136500  0.51133300  1
  O  O12  1  0.50000000  0.34863500  0.01133300  1
  O  O13  1  0.50000000  0.34734300  0.49043600  1
  O  O14  1  0.00000000  0.83540200  0.24742200  1
  O  O15  1  0.50000000  0.16459800  0.74742200  1
  O  O16  1  0.00000000  0.06384000  0.40886800  1
  O  O17  1  0.00000000  0.06102500  0.09401000  1
  O  O18  1  0.50000000  0.93897500  0.59401000  1
  O  O19  1  0.50000000  0.93616000  0.90886800  1
  O  O20  1  0.00000000  0.46251100  0.35303200  1
  O  O21  1  0.00000000  0.46953000  0.14844700  1
  O  O22  1  0.50000000  0.53047000  0.64844700  1
  O  O23  1  0.50000000  0.53748900  0.85303200  1
  O  O24  1  0.00000000  0.23673600  0.90365500  1
  O  O25  1  0.00000000  0.24010500  0.59428800  1
  O  O26  1  0.50000000  0.75989500  0.09428800  1
  O  O27  1  0.50000000  0.76326400  0.40365500  1
