# generated using pymatgen
data_LaMg2TaO6
_symmetry_space_group_name_H-M   'P 1'
_cell_length_a   7.33534107
_cell_length_b   6.84060898
_cell_length_c   7.60093969
_cell_angle_alpha   90.00000000
_cell_angle_beta   58.79484001
_cell_angle_gamma   117.79293723
_symmetry_Int_Tables_number   1
_chemical_formula_structural   LaMg2TaO6
_chemical_formula_sum   'La2 Mg4 Ta2 O12'
_cell_volume   273.48198553
_cell_formula_units_Z   2
loop_
 _symmetry_equiv_pos_site_id
 _symmetry_equiv_pos_as_xyz
  1  'x, y, z'
loop_
 _atom_site_type_symbol
 _atom_site_label
 _atom_site_symmetry_multiplicity
 _atom_site_fract_x
 _atom_site_fract_y
 _atom_site_fract_z
 _atom_site_occupancy
  La  La0  1  0.00000000  0.00000000  0.50000000  1
  La  La1  1  0.00000000  0.00000000  0.00000000  1
  Mg  Mg2  1  0.50000000  0.50000000  0.00000000  1
  Mg  Mg3  1  0.50000000  0.00000000  0.00000000  1
  Mg  Mg4  1  0.50000000  0.00000000  0.50000000  1
  Mg  Mg5  1  0.50000000  0.50000000  0.50000000  1
  Ta  Ta6  1  0.00000000  0.50000000  0.00000000  1
  Ta  Ta7  1  0.00000000  0.50000000  0.50000000  1
  O  O8  1  0.71235000  0.85617500  0.39382500  1
  O  O9  1  0.14988200  0.57494100  0.67505900  1
  O  O10  1  0.24176600  0.83348300  0.94338600  1
  O  O11  1  0.24176600  0.40828300  0.31484800  1
  O  O12  1  0.24176600  0.40828300  0.94338600  1
  O  O13  1  0.24176600  0.83348300  0.31484800  1
  O  O14  1  0.28765000  0.14382500  0.60617500  1
  O  O15  1  0.85011800  0.42505900  0.32494100  1
  O  O16  1  0.75823400  0.16651700  0.05661400  1
  O  O17  1  0.75823400  0.59171700  0.68515200  1
  O  O18  1  0.75823400  0.59171700  0.05661400  1
  O  O19  1  0.75823400  0.16651700  0.68515200  1
