# generated using pymatgen
data_La2TiCuO6
_symmetry_space_group_name_H-M   'P 1'
_cell_length_a   5.74626400
_cell_length_b   5.61676600
_cell_length_c   9.59307496
_cell_angle_alpha   54.47533136
_cell_angle_beta   90.00000000
_cell_angle_gamma   90.00000000
_symmetry_Int_Tables_number   1
_chemical_formula_structural   La2TiCuO6
_chemical_formula_sum   'La4 Ti2 Cu2 O12'
_cell_volume   251.98943999
_cell_formula_units_Z   2
loop_
 _symmetry_equiv_pos_site_id
 _symmetry_equiv_pos_as_xyz
  1  'x, y, z'
loop_
 _atom_site_type_symbol
 _atom_site_label
 _atom_site_symmetry_multiplicity
 _atom_site_fract_x
 _atom_site_fract_y
 _atom_site_fract_z
 _atom_site_occupancy
  La  La0  1  0.54706000  0.73939100  0.74900000  1
  La  La1  1  0.04706000  0.26060900  0.75100000  1
  La  La2  1  0.45294000  0.26060900  0.25100000  1
  La  La3  1  0.95294000  0.73939100  0.24900000  1
  Ti  Ti4  1  0.50000000  0.50000000  0.50000000  1
  Ti  Ti5  1  0.00000000  0.50000000  0.00000000  1
  Cu  Cu6  1  0.50000000  0.00000000  0.00000000  1
  Cu  Cu7  1  0.00000000  0.00000000  0.50000000  1
  O  O8  1  0.97506700  0.83381900  0.75416100  1
  O  O9  1  0.47506700  0.16618100  0.74583900  1
  O  O10  1  0.02493300  0.16618100  0.24583900  1
  O  O11  1  0.52493300  0.83381900  0.25416100  1
  O  O12  1  0.79947700  0.26985400  0.95339700  1
  O  O13  1  0.29947700  0.73014600  0.54660300  1
  O  O14  1  0.22230800  0.34879100  0.45092900  1
  O  O15  1  0.72230800  0.65120900  0.04907100  1
  O  O16  1  0.20052300  0.73014600  0.04660300  1
  O  O17  1  0.70052300  0.26985400  0.45339700  1
  O  O18  1  0.77769200  0.65120900  0.54907100  1
  O  O19  1  0.27769200  0.34879100  0.95092900  1
