# generated using pymatgen
data_KTeO5
_symmetry_space_group_name_H-M   'P 1'
_cell_length_a   3.95335700
_cell_length_b   5.12464100
_cell_length_c   6.28286723
_cell_angle_alpha   75.05320038
_cell_angle_beta   90.00000000
_cell_angle_gamma   90.00000000
_symmetry_Int_Tables_number   1
_chemical_formula_structural   KTeO5
_chemical_formula_sum   'K1 Te1 O5'
_cell_volume   122.98127522
_cell_formula_units_Z   1
loop_
 _symmetry_equiv_pos_site_id
 _symmetry_equiv_pos_as_xyz
  1  'x, y, z'
loop_
 _atom_site_type_symbol
 _atom_site_label
 _atom_site_symmetry_multiplicity
 _atom_site_fract_x
 _atom_site_fract_y
 _atom_site_fract_z
 _atom_site_occupancy
  K  K0  1  0.00000000  0.00000000  0.00000000  1
  Te  Te1  1  0.50000000  0.50000000  0.50000000  1
  O  O2  1  0.50000000  0.65531800  0.20370900  1
  O  O3  1  0.50000000  0.34468200  0.79629100  1
  O  O4  1  0.50000000  0.89288000  0.59191500  1
  O  O5  1  0.50000000  0.10712000  0.40808500  1
  O  O6  1  0.00000000  0.50000000  0.50000000  1
