# generated using pymatgen
data_La3Y(MnSi)4
_symmetry_space_group_name_H-M   'P 1'
_cell_length_a   4.00047200
_cell_length_b   4.00047200
_cell_length_c   15.19793700
_cell_angle_alpha   90.00000000
_cell_angle_beta   90.00000000
_cell_angle_gamma   90.00000000
_symmetry_Int_Tables_number   1
_chemical_formula_structural   La3Y(MnSi)4
_chemical_formula_sum   'La3 Y1 Mn4 Si4'
_cell_volume   243.22438280
_cell_formula_units_Z   1
loop_
 _symmetry_equiv_pos_site_id
 _symmetry_equiv_pos_as_xyz
  1  'x, y, z'
loop_
 _atom_site_type_symbol
 _atom_site_label
 _atom_site_symmetry_multiplicity
 _atom_site_fract_x
 _atom_site_fract_y
 _atom_site_fract_z
 _atom_site_occupancy
  La  La0  1  0.50000000  0.50000000  0.65985900  1
  La  La1  1  0.00000000  0.00000000  0.32978700  1
  La  La2  1  0.00000000  0.00000000  0.84199600  1
  Y  Y3  1  0.50000000  0.50000000  0.15495100  1
  Mn  Mn4  1  0.50000000  0.00000000  0.00624200  1
  Mn  Mn5  1  0.50000000  0.00000000  0.49651400  1
  Mn  Mn6  1  0.00000000  0.50000000  0.00624200  1
  Mn  Mn7  1  0.00000000  0.50000000  0.49651400  1
  Si  Si8  1  0.50000000  0.50000000  0.40731900  1
  Si  Si9  1  0.50000000  0.50000000  0.91706700  1
  Si  Si10  1  0.00000000  0.00000000  0.09809600  1
  Si  Si11  1  0.00000000  0.00000000  0.58541200  1
