# generated using pymatgen
data_KNaCl2
_symmetry_space_group_name_H-M   'P 1'
_cell_length_a   7.42924702
_cell_length_b   7.42924702
_cell_length_c   7.42924687
_cell_angle_alpha   33.22984712
_cell_angle_beta   33.22984712
_cell_angle_gamma   33.22985047
_symmetry_Int_Tables_number   1
_chemical_formula_structural   KNaCl2
_chemical_formula_sum   'K1 Na1 Cl2'
_cell_volume   109.62361554
_cell_formula_units_Z   1
loop_
 _symmetry_equiv_pos_site_id
 _symmetry_equiv_pos_as_xyz
  1  'x, y, z'
loop_
 _atom_site_type_symbol
 _atom_site_label
 _atom_site_symmetry_multiplicity
 _atom_site_fract_x
 _atom_site_fract_y
 _atom_site_fract_z
 _atom_site_occupancy
  K  K0  1  0.50000000  0.50000000  0.50000000  1
  Na  Na1  1  0.00000000  0.00000000  0.00000000  1
  Cl  Cl2  1  0.25899000  0.25899000  0.25899000  1
  Cl  Cl3  1  0.74101000  0.74101000  0.74101000  1
