# generated using pymatgen
data_KFeSeS
_symmetry_space_group_name_H-M   'P 1'
_cell_length_a   6.86252399
_cell_length_b   6.86252399
_cell_length_c   5.48436535
_cell_angle_alpha   78.25608152
_cell_angle_beta   78.25608152
_cell_angle_gamma   116.89060930
_symmetry_Int_Tables_number   1
_chemical_formula_structural   KFeSeS
_chemical_formula_sum   'K2 Fe2 Se2 S2'
_cell_volume   212.21685867
_cell_formula_units_Z   2
loop_
 _symmetry_equiv_pos_site_id
 _symmetry_equiv_pos_as_xyz
  1  'x, y, z'
loop_
 _atom_site_type_symbol
 _atom_site_label
 _atom_site_symmetry_multiplicity
 _atom_site_fract_x
 _atom_site_fract_y
 _atom_site_fract_z
 _atom_site_occupancy
  K  K0  1  0.35807200  0.64192800  0.50000000  1
  K  K1  1  0.63871800  0.36128200  0.00000000  1
  Fe  Fe2  1  0.00328100  0.99671900  0.50000000  1
  Fe  Fe3  1  0.00554100  0.99445900  0.00000000  1
  Se  Se4  1  0.08863600  0.31107000  0.14707600  1
  Se  Se5  1  0.68893000  0.91136400  0.85292400  1
  S  S6  1  0.92783800  0.71101500  0.34315500  1
  S  S7  1  0.28898500  0.07216200  0.65684500  1
