# generated using pymatgen
data_La2MnRhO6
_symmetry_space_group_name_H-M   'P 1'
_cell_length_a   5.83087905
_cell_length_b   7.75261030
_cell_length_c   11.30849006
_cell_angle_alpha   88.87852730
_cell_angle_beta   89.98568836
_cell_angle_gamma   89.99704634
_symmetry_Int_Tables_number   1
_chemical_formula_structural   La2MnRhO6
_chemical_formula_sum   'La8 Mn4 Rh4 O24'
_cell_volume   511.09707414
_cell_formula_units_Z   4
loop_
 _symmetry_equiv_pos_site_id
 _symmetry_equiv_pos_as_xyz
  1  'x, y, z'
loop_
 _atom_site_type_symbol
 _atom_site_label
 _atom_site_symmetry_multiplicity
 _atom_site_fract_x
 _atom_site_fract_y
 _atom_site_fract_z
 _atom_site_occupancy
  La  La0  1  0.55514200  0.24914100  0.49298000  1
  La  La1  1  0.55518800  0.24915200  0.99297400  1
  La  La2  1  0.05523300  0.25088600  0.25699500  1
  La  La3  1  0.05517000  0.25087500  0.75702000  1
  La  La4  1  0.44482900  0.75085100  0.00703300  1
  La  La5  1  0.44483700  0.75077700  0.50700200  1
  La  La6  1  0.94487400  0.74916200  0.24297200  1
  La  La7  1  0.94478400  0.74920200  0.74300000  1
  Mn  Mn8  1  0.50002300  0.00005600  0.74998800  1
  Mn  Mn9  1  0.00001600  0.49992800  0.50002200  1
  Mn  Mn10  1  0.50008400  0.00007000  0.24999100  1
  Mn  Mn11  1  0.00005500  0.49993800  0.99999700  1
  Rh  Rh12  1  0.50001400  0.50007000  0.25001300  1
  Rh  Rh13  1  0.49997400  0.50008100  0.75002700  1
  Rh  Rh14  1  0.00001300  0.99994600  0.99998400  1
  Rh  Rh15  1  0.99998100  0.99991900  0.49997600  1
  O  O16  1  0.70425000  0.95353600  0.09977900  1
  O  O17  1  0.70417000  0.95356800  0.59980500  1
  O  O18  1  0.20434400  0.54646200  0.15025600  1
  O  O19  1  0.20426500  0.54646500  0.65023200  1
  O  O20  1  0.29564800  0.04639500  0.40016800  1
  O  O21  1  0.29569100  0.04644000  0.90018800  1
  O  O22  1  0.79557400  0.45356800  0.34981300  1
  O  O23  1  0.79564400  0.45358300  0.84979800  1
  O  O24  1  0.29598200  0.45192000  0.39916000  1
  O  O25  1  0.29602900  0.45194000  0.89919500  1
  O  O26  1  0.79606600  0.04808000  0.35078400  1
  O  O27  1  0.79602100  0.04805500  0.85090400  1
  O  O28  1  0.70405100  0.54788400  0.10094800  1
  O  O29  1  0.70403300  0.54788200  0.60095100  1
  O  O30  1  0.20408000  0.95212200  0.14899300  1
  O  O31  1  0.20402200  0.95213400  0.64903100  1
  O  O32  1  0.97226300  0.25620600  0.04670400  1
  O  O33  1  0.97223800  0.25619800  0.54671000  1
  O  O34  1  0.47227200  0.24379600  0.20329600  1
  O  O35  1  0.47226200  0.24379700  0.70328600  1
  O  O36  1  0.02774600  0.74353600  0.45329700  1
  O  O37  1  0.02772900  0.74359900  0.95330100  1
  O  O38  1  0.52772800  0.75641400  0.29670000  1
  O  O39  1  0.52767800  0.75636700  0.79672700  1
