# generated using pymatgen
data_KNaTi4(PO4)6
_symmetry_space_group_name_H-M   'P 1'
_cell_length_a   9.07649628
_cell_length_b   9.07649628
_cell_length_c   9.07649672
_cell_angle_alpha   56.29527250
_cell_angle_beta   56.29527250
_cell_angle_gamma   56.29527410
_symmetry_Int_Tables_number   1
_chemical_formula_structural   KNaTi4(PO4)6
_chemical_formula_sum   'K1 Na1 Ti4 P6 O24'
_cell_volume   483.41809694
_cell_formula_units_Z   1
loop_
 _symmetry_equiv_pos_site_id
 _symmetry_equiv_pos_as_xyz
  1  'x, y, z'
loop_
 _atom_site_type_symbol
 _atom_site_label
 _atom_site_symmetry_multiplicity
 _atom_site_fract_x
 _atom_site_fract_y
 _atom_site_fract_z
 _atom_site_occupancy
  K  K0  1  0.00000000  0.00000000  0.00000000  1
  Na  Na1  1  0.50000000  0.50000000  0.50000000  1
  Ti  Ti2  1  0.35287100  0.35287100  0.35287100  1
  Ti  Ti3  1  0.85234700  0.85234700  0.85234700  1
  Ti  Ti4  1  0.64712900  0.64712900  0.64712900  1
  Ti  Ti5  1  0.14765300  0.14765300  0.14765300  1
  P  P6  1  0.53277100  0.96595600  0.25030000  1
  P  P7  1  0.25030000  0.53277100  0.96595600  1
  P  P8  1  0.96595600  0.25030000  0.53277100  1
  P  P9  1  0.74970000  0.46722900  0.03404400  1
  P  P10  1  0.03404400  0.74970000  0.46722900  1
  P  P11  1  0.46722900  0.03404400  0.74970000  1
  O  O12  1  0.99273800  0.23676200  0.35701100  1
  O  O13  1  0.35701100  0.99273800  0.23676200  1
  O  O14  1  0.23676200  0.35701100  0.99273800  1
  O  O15  1  0.85874000  0.73556400  0.49221100  1
  O  O16  1  0.49221100  0.85874000  0.73556400  1
  O  O17  1  0.73556400  0.49221100  0.85874000  1
  O  O18  1  0.00726200  0.76323800  0.64298900  1
  O  O19  1  0.64298900  0.00726200  0.76323800  1
  O  O20  1  0.76323800  0.64298900  0.00726200  1
  O  O21  1  0.14126000  0.26443600  0.50778900  1
  O  O22  1  0.50778900  0.14126000  0.26443600  1
  O  O23  1  0.26443600  0.50778900  0.14126000  1
  O  O24  1  0.78894300  0.42836700  0.56328900  1
  O  O25  1  0.56328900  0.78894300  0.42836700  1
  O  O26  1  0.42836700  0.56328900  0.78894300  1
  O  O27  1  0.06473600  0.92824700  0.29295100  1
  O  O28  1  0.29295100  0.06473600  0.92824700  1
  O  O29  1  0.92824700  0.29295100  0.06473600  1
  O  O30  1  0.21105700  0.57163300  0.43671100  1
  O  O31  1  0.43671100  0.21105700  0.57163300  1
  O  O32  1  0.57163300  0.43671100  0.21105700  1
  O  O33  1  0.93526400  0.07175300  0.70704900  1
  O  O34  1  0.70704900  0.93526400  0.07175300  1
  O  O35  1  0.07175300  0.70704900  0.93526400  1
