# generated using pymatgen
data_KNbCl6
_symmetry_space_group_name_H-M   'P 1'
_cell_length_a   7.47990921
_cell_length_b   7.47990921
_cell_length_c   7.47990969
_cell_angle_alpha   58.37081550
_cell_angle_beta   58.37081550
_cell_angle_gamma   58.37081695
_symmetry_Int_Tables_number   1
_chemical_formula_structural   KNbCl6
_chemical_formula_sum   'K1 Nb1 Cl6'
_cell_volume   284.88320210
_cell_formula_units_Z   1
loop_
 _symmetry_equiv_pos_site_id
 _symmetry_equiv_pos_as_xyz
  1  'x, y, z'
loop_
 _atom_site_type_symbol
 _atom_site_label
 _atom_site_symmetry_multiplicity
 _atom_site_fract_x
 _atom_site_fract_y
 _atom_site_fract_z
 _atom_site_occupancy
  K  K0  1  0.71278700  0.71278700  0.71278700  1
  Nb  Nb1  1  0.99813700  0.99813700  0.99813700  1
  Cl  Cl2  1  0.22891100  0.76981100  0.76981100  1
  Cl  Cl3  1  0.76981100  0.76981100  0.22891100  1
  Cl  Cl4  1  0.76981100  0.22891100  0.76981100  1
  Cl  Cl5  1  0.76289600  0.22593600  0.22593600  1
  Cl  Cl6  1  0.22593600  0.22593600  0.76289600  1
  Cl  Cl7  1  0.22593600  0.76289600  0.22593600  1
