# generated using pymatgen
data_KNaNb2O6
_symmetry_space_group_name_H-M   'P 1'
_cell_length_a   4.07941829
_cell_length_b   5.72081347
_cell_length_c   5.72081347
_cell_angle_alpha   88.79990293
_cell_angle_beta   90.15002003
_cell_angle_gamma   90.15002003
_symmetry_Int_Tables_number   1
_chemical_formula_structural   KNaNb2O6
_chemical_formula_sum   'K1 Na1 Nb2 O6'
_cell_volume   133.47982359
_cell_formula_units_Z   1
loop_
 _symmetry_equiv_pos_site_id
 _symmetry_equiv_pos_as_xyz
  1  'x, y, z'
loop_
 _atom_site_type_symbol
 _atom_site_label
 _atom_site_symmetry_multiplicity
 _atom_site_fract_x
 _atom_site_fract_y
 _atom_site_fract_z
 _atom_site_occupancy
  K  K0  1  0.49833900  0.00052300  0.50052300  1
  Na  Na1  1  0.50266800  0.49894100  0.99894100  1
  Nb  Nb2  1  0.98557900  0.00761700  0.00801000  1
  Nb  Nb3  1  0.98557900  0.50801000  0.50761700  1
  O  O4  1  0.02345100  0.23937100  0.73937100  1
  O  O5  1  0.02452000  0.73650200  0.23650200  1
  O  O6  1  0.01376500  0.24321300  0.23700800  1
  O  O7  1  0.01376500  0.73700800  0.74321300  1
  O  O8  1  0.51925700  0.99307000  0.99265500  1
  O  O9  1  0.51925700  0.49265500  0.49307000  1
