# generated using pymatgen
data_KNa7Al8(SiO4)8
_symmetry_space_group_name_H-M   'P 1'
_cell_length_a   8.50072100
_cell_length_b   10.08902155
_cell_length_c   10.09941988
_cell_angle_alpha   119.90674990
_cell_angle_beta   89.97755692
_cell_angle_gamma   90.06011814
_symmetry_Int_Tables_number   1
_chemical_formula_structural   KNa7Al8(SiO4)8
_chemical_formula_sum   'K1 Na7 Al8 Si8 O32'
_cell_volume   750.82538327
_cell_formula_units_Z   1
loop_
 _symmetry_equiv_pos_site_id
 _symmetry_equiv_pos_as_xyz
  1  'x, y, z'
loop_
 _atom_site_type_symbol
 _atom_site_label
 _atom_site_symmetry_multiplicity
 _atom_site_fract_x
 _atom_site_fract_y
 _atom_site_fract_z
 _atom_site_occupancy
  K  K0  1  0.74135000  0.99944900  0.99912200  1
  Na  Na1  1  0.24436600  0.00064300  0.00102900  1
  Na  Na2  1  0.75063700  0.00378500  0.55579900  1
  Na  Na3  1  0.75035900  0.55517000  0.00195400  1
  Na  Na4  1  0.75139900  0.44744600  0.44245600  1
  Na  Na5  1  0.25114200  0.00613600  0.44773000  1
  Na  Na6  1  0.25051300  0.44506700  0.00182300  1
  Na  Na7  1  0.25036400  0.55221300  0.55149900  1
  Al  Al8  1  0.93284600  0.09081500  0.32978700  1
  Al  Al9  1  0.93575700  0.23852600  0.90611800  1
  Al  Al10  1  0.93517000  0.66680200  0.76080700  1
  Al  Al11  1  0.43532100  0.90654300  0.66814000  1
  Al  Al12  1  0.43508900  0.76121000  0.09326900  1
  Al  Al13  1  0.43308300  0.32850800  0.23793000  1
  Al  Al14  1  0.44045200  0.32975000  0.66303500  1
  Al  Al15  1  0.94089100  0.66349700  0.33372200  1
  Si  Si16  1  0.04737000  0.32940900  0.66309900  1
  Si  Si17  1  0.54728200  0.66302100  0.33368600  1
  Si  Si18  1  0.56352900  0.09268600  0.33098000  1
  Si  Si19  1  0.56100100  0.23797300  0.90381800  1
  Si  Si20  1  0.56127400  0.66624600  0.76228300  1
  Si  Si21  1  0.06136800  0.90477700  0.66678500  1
  Si  Si22  1  0.06203000  0.76191800  0.09478800  1
  Si  Si23  1  0.06355400  0.32972400  0.23718500  1
  O  O24  1  0.97161700  0.17116000  0.52513500  1
  O  O25  1  0.99395500  0.35166900  0.82814000  1
  O  O26  1  0.98935700  0.47548500  0.64696800  1
  O  O27  1  0.49314000  0.82754200  0.47742800  1
  O  O28  1  0.48894600  0.64813100  0.17254400  1
  O  O29  1  0.47107100  0.52420900  0.35295200  1
  O  O30  1  0.74006900  0.01798200  0.30551700  1
  O  O31  1  0.74017300  0.28999700  0.96970400  1
  O  O32  1  0.74007200  0.68139400  0.70972000  1
  O  O33  1  0.24055800  0.97156900  0.68133200  1
  O  O34  1  0.24056900  0.71007000  0.02677900  1
  O  O35  1  0.24044600  0.30226500  0.28370700  1
  O  O36  1  0.43806700  0.96066800  0.21746300  1
  O  O37  1  0.44067000  0.25751500  0.03977800  1
  O  O38  1  0.44010700  0.78261300  0.74336700  1
  O  O39  1  0.94044400  0.04057500  0.77969800  1
  O  O40  1  0.94017100  0.73917300  0.95901300  1
  O  O41  1  0.93774800  0.21941100  0.26009900  1
  O  O42  1  0.51201600  0.15856700  0.50866600  1
  O  O43  1  0.49770700  0.34704800  0.83791500  1
  O  O44  1  0.49974300  0.49113400  0.65296500  1
  O  O45  1  0.99920500  0.83734100  0.49170900  1
  O  O46  1  0.00091500  0.65384300  0.16280300  1
  O  O47  1  0.01334300  0.50825800  0.34875100  1
  O  O48  1  0.06869600  0.94326900  0.22595700  1
  O  O49  1  0.06687100  0.28363200  0.05750400  1
  O  O50  1  0.06704700  0.77359400  0.71695000  1
  O  O51  1  0.56660200  0.05802900  0.77149300  1
  O  O52  1  0.56735100  0.71372900  0.94233500  1
  O  O53  1  0.56880500  0.22802000  0.28606100  1
  O  O54  1  0.23722200  0.31683400  0.64843000  1
  O  O55  1  0.73715000  0.64846200  0.33137200  1
