# generated using pymatgen
data_KCoCuS2
_symmetry_space_group_name_H-M   'P 1'
_cell_length_a   7.03466571
_cell_length_b   7.03466571
_cell_length_c   7.03466571
_cell_angle_alpha   148.49444560
_cell_angle_beta   148.49444560
_cell_angle_gamma   45.15599171
_symmetry_Int_Tables_number   1
_chemical_formula_structural   KCoCuS2
_chemical_formula_sum   'K1 Co1 Cu1 S2'
_cell_volume   94.76735873
_cell_formula_units_Z   1
loop_
 _symmetry_equiv_pos_site_id
 _symmetry_equiv_pos_as_xyz
  1  'x, y, z'
loop_
 _atom_site_type_symbol
 _atom_site_label
 _atom_site_symmetry_multiplicity
 _atom_site_fract_x
 _atom_site_fract_y
 _atom_site_fract_z
 _atom_site_occupancy
  K  K0  1  0.00000000  0.00000000  0.00000000  1
  Co  Co1  1  0.75000000  0.25000000  0.50000000  1
  Cu  Cu2  1  0.25000000  0.75000000  0.50000000  1
  S  S3  1  0.64823000  0.64823000  0.00000000  1
  S  S4  1  0.35177000  0.35177000  0.00000000  1
