# generated using pymatgen
data_KCSN
_symmetry_space_group_name_H-M   'P 1'
_cell_length_a   6.20145205
_cell_length_b   6.20145205
_cell_length_c   6.20145205
_cell_angle_alpha   114.04771331
_cell_angle_beta   113.95755682
_cell_angle_gamma   100.74527043
_symmetry_Int_Tables_number   1
_chemical_formula_structural   KCSN
_chemical_formula_sum   'K2 C2 S2 N2'
_cell_volume   180.47029108
_cell_formula_units_Z   2
loop_
 _symmetry_equiv_pos_site_id
 _symmetry_equiv_pos_as_xyz
  1  'x, y, z'
loop_
 _atom_site_type_symbol
 _atom_site_label
 _atom_site_symmetry_multiplicity
 _atom_site_fract_x
 _atom_site_fract_y
 _atom_site_fract_z
 _atom_site_occupancy
  K  K0  1  0.00000000  0.25025500  0.25025500  1
  K  K1  1  0.50000000  0.75025500  0.25025500  1
  C  C2  1  0.27283000  0.02329900  0.79613000  1
  C  C3  1  0.72717000  0.52329900  0.75046900  1
  S  S4  1  0.10042300  0.85164700  0.45207000  1
  S  S5  1  0.89957700  0.35164700  0.75122400  1
  N  N6  1  0.39558900  0.14900000  0.04458800  1
  N  N7  1  0.60441100  0.64900000  0.75341100  1
