# generated using pymatgen
data_KNbWO7
_symmetry_space_group_name_H-M   'P 1'
_cell_length_a   7.49067674
_cell_length_b   7.49067674
_cell_length_c   7.49067674
_cell_angle_alpha   119.47263746
_cell_angle_beta   119.40856367
_cell_angle_gamma   90.97167902
_symmetry_Int_Tables_number   1
_chemical_formula_structural   KNbWO7
_chemical_formula_sum   'K2 Nb2 W2 O14'
_cell_volume   299.66571703
_cell_formula_units_Z   2
loop_
 _symmetry_equiv_pos_site_id
 _symmetry_equiv_pos_as_xyz
  1  'x, y, z'
loop_
 _atom_site_type_symbol
 _atom_site_label
 _atom_site_symmetry_multiplicity
 _atom_site_fract_x
 _atom_site_fract_y
 _atom_site_fract_z
 _atom_site_occupancy
  K  K0  1  0.50000000  0.50000000  0.50000000  1
  K  K1  1  0.50000000  0.00000000  0.00000000  1
  Nb  Nb2  1  0.00000000  0.00000000  0.00000000  1
  Nb  Nb3  1  0.50000000  0.00000000  0.50000000  1
  W  W4  1  0.00000000  0.00000000  0.50000000  1
  W  W5  1  0.00000000  0.50000000  0.00000000  1
  O  O6  1  0.28373500  0.53373500  0.75000000  1
  O  O7  1  0.71626500  0.46626500  0.25000000  1
  O  O8  1  0.31356500  0.06356500  0.25000000  1
  O  O9  1  0.93803300  0.68803300  0.25000000  1
  O  O10  1  0.30106100  0.68680800  0.24813900  1
  O  O11  1  0.93867000  0.05292200  0.25186100  1
  O  O12  1  0.30106100  0.05292200  0.61425200  1
  O  O13  1  0.93867000  0.68680800  0.88574800  1
  O  O14  1  0.68643500  0.93643500  0.75000000  1
  O  O15  1  0.06196700  0.31196700  0.75000000  1
  O  O16  1  0.69893900  0.31319200  0.75186100  1
  O  O17  1  0.06133000  0.94707800  0.74813900  1
  O  O18  1  0.69893900  0.94707800  0.38574800  1
  O  O19  1  0.06133000  0.31319200  0.11425200  1
