# generated using pymatgen
data_KTi2(PO4)3
_symmetry_space_group_name_H-M   'P 1'
_cell_length_a   9.92241800
_cell_length_b   9.92241800
_cell_length_c   9.92241800
_cell_angle_alpha   90.00000000
_cell_angle_beta   90.00000000
_cell_angle_gamma   90.00000000
_symmetry_Int_Tables_number   1
_chemical_formula_structural   KTi2(PO4)3
_chemical_formula_sum   'K4 Ti8 P12 O48'
_cell_volume   976.90550204
_cell_formula_units_Z   4
loop_
 _symmetry_equiv_pos_site_id
 _symmetry_equiv_pos_as_xyz
  1  'x, y, z'
loop_
 _atom_site_type_symbol
 _atom_site_label
 _atom_site_symmetry_multiplicity
 _atom_site_fract_x
 _atom_site_fract_y
 _atom_site_fract_z
 _atom_site_occupancy
  K  K0  1  0.42607300  0.92607300  0.57392700  1
  K  K1  1  0.92607300  0.57392700  0.42607300  1
  K  K2  1  0.57392700  0.42607300  0.92607300  1
  K  K3  1  0.07392700  0.07392700  0.07392700  1
  Ti  Ti4  1  0.91354100  0.41354100  0.08645900  1
  Ti  Ti5  1  0.41354100  0.08645900  0.91354100  1
  Ti  Ti6  1  0.08645900  0.91354100  0.41354100  1
  Ti  Ti7  1  0.58645900  0.58645900  0.58645900  1
  Ti  Ti8  1  0.63993000  0.13993000  0.36007000  1
  Ti  Ti9  1  0.13993000  0.36007000  0.63993000  1
  Ti  Ti10  1  0.36007000  0.63993000  0.13993000  1
  Ti  Ti11  1  0.86007000  0.86007000  0.86007000  1
  P  P12  1  0.22729300  0.37444800  0.95449600  1
  P  P13  1  0.04550400  0.72729300  0.12555200  1
  P  P14  1  0.87444800  0.54550400  0.77270700  1
  P  P15  1  0.72729300  0.12555200  0.04550400  1
  P  P16  1  0.54550400  0.77270700  0.87444800  1
  P  P17  1  0.37444800  0.95449600  0.22729300  1
  P  P18  1  0.77270700  0.87444800  0.54550400  1
  P  P19  1  0.95449600  0.22729300  0.37444800  1
  P  P20  1  0.12555200  0.04550400  0.72729300  1
  P  P21  1  0.27270700  0.62555200  0.45449600  1
  P  P22  1  0.45449600  0.27270700  0.62555200  1
  P  P23  1  0.62555200  0.45449600  0.27270700  1
  O  O24  1  0.30389900  0.23976600  0.97607800  1
  O  O25  1  0.02392200  0.80389900  0.26023400  1
  O  O26  1  0.73976600  0.52392200  0.69610100  1
  O  O27  1  0.80389900  0.26023400  0.02392200  1
  O  O28  1  0.52392200  0.69610100  0.73976600  1
  O  O29  1  0.23976600  0.97607800  0.30389900  1
  O  O30  1  0.69610100  0.73976600  0.52392200  1
  O  O31  1  0.97607800  0.30389900  0.23976600  1
  O  O32  1  0.26023400  0.02392200  0.80389900  1
  O  O33  1  0.19610100  0.76023400  0.47607800  1
  O  O34  1  0.47607800  0.19610100  0.76023400  1
  O  O35  1  0.76023400  0.47607800  0.19610100  1
  O  O36  1  0.07912000  0.35375400  0.99846200  1
  O  O37  1  0.00153800  0.57912000  0.14624600  1
  O  O38  1  0.85375400  0.50153800  0.92088000  1
  O  O39  1  0.57912000  0.14624600  0.00153800  1
  O  O40  1  0.50153800  0.92088000  0.85375400  1
  O  O41  1  0.35375400  0.99846200  0.07912000  1
  O  O42  1  0.92088000  0.85375400  0.50153800  1
  O  O43  1  0.99846200  0.07912000  0.35375400  1
  O  O44  1  0.14624600  0.00153800  0.57912000  1
  O  O45  1  0.42088000  0.64624600  0.49846200  1
  O  O46  1  0.49846200  0.42088000  0.64624600  1
  O  O47  1  0.64624600  0.49846200  0.42088000  1
  O  O48  1  0.29841000  0.48181600  0.04058400  1
  O  O49  1  0.95941600  0.79841000  0.01818400  1
  O  O50  1  0.98181600  0.45941600  0.70159000  1
  O  O51  1  0.79841000  0.01818400  0.95941600  1
  O  O52  1  0.45941600  0.70159000  0.98181600  1
  O  O53  1  0.48181600  0.04058400  0.29841000  1
  O  O54  1  0.70159000  0.98181600  0.45941600  1
  O  O55  1  0.04058400  0.29841000  0.48181600  1
  O  O56  1  0.01818400  0.95941600  0.79841000  1
  O  O57  1  0.20159000  0.51818400  0.54058400  1
  O  O58  1  0.54058400  0.20159000  0.51818400  1
  O  O59  1  0.51818400  0.54058400  0.20159000  1
  O  O60  1  0.23419000  0.41624200  0.80503100  1
  O  O61  1  0.19496900  0.73419000  0.08375800  1
  O  O62  1  0.91624200  0.69496900  0.76581000  1
  O  O63  1  0.73419000  0.08375800  0.19496900  1
  O  O64  1  0.69496900  0.76581000  0.91624200  1
  O  O65  1  0.41624200  0.80503100  0.23419000  1
  O  O66  1  0.76581000  0.91624200  0.69496900  1
  O  O67  1  0.80503100  0.23419000  0.41624200  1
  O  O68  1  0.08375800  0.19496900  0.73419000  1
  O  O69  1  0.26581000  0.58375800  0.30503100  1
  O  O70  1  0.30503100  0.26581000  0.58375800  1
  O  O71  1  0.58375800  0.30503100  0.26581000  1
