# generated using pymatgen
data_La4Ti5(TeO8)3
_symmetry_space_group_name_H-M   'P 1'
_cell_length_a   7.42310200
_cell_length_b   7.42405360
_cell_length_c   10.52927184
_cell_angle_alpha   109.97715495
_cell_angle_beta   110.39250014
_cell_angle_gamma   91.18680278
_symmetry_Int_Tables_number   1
_chemical_formula_structural   La4Ti5(TeO8)3
_chemical_formula_sum   'La4 Ti5 Te3 O24'
_cell_volume   504.69573212
_cell_formula_units_Z   1
loop_
 _symmetry_equiv_pos_site_id
 _symmetry_equiv_pos_as_xyz
  1  'x, y, z'
loop_
 _atom_site_type_symbol
 _atom_site_label
 _atom_site_symmetry_multiplicity
 _atom_site_fract_x
 _atom_site_fract_y
 _atom_site_fract_z
 _atom_site_occupancy
  La  La0  1  0.00143700  0.99885000  0.00526600  1
  La  La1  1  0.49776200  0.50287300  0.00067300  1
  La  La2  1  0.99705300  0.49925600  0.49322300  1
  La  La3  1  0.49825600  0.99602900  0.50168500  1
  Ti  Ti4  1  0.09541700  0.57174300  0.16997200  1
  Ti  Ti5  1  0.57177500  0.10098200  0.17575000  1
  Ti  Ti6  1  0.07823700  0.09045500  0.67153900  1
  Ti  Ti7  1  0.57804900  0.57174000  0.65286100  1
  Ti  Ti8  1  0.41252700  0.42293900  0.33760500  1
  Te  Te9  1  0.91551700  0.91202600  0.33086100  1
  Te  Te10  1  0.90880500  0.42637100  0.83806600  1
  Te  Te11  1  0.41845000  0.91170900  0.83262500  1
  O  O12  1  0.45808300  0.32978500  0.49973300  1
  O  O13  1  0.95473000  0.82155600  0.48961300  1
  O  O14  1  0.95854700  0.33259900  0.01748800  1
  O  O15  1  0.45435200  0.82655200  0.99430100  1
  O  O16  1  0.33177600  0.14056200  0.18793200  1
  O  O17  1  0.82723100  0.64756500  0.18839000  1
  O  O18  1  0.83266700  0.11672800  0.67743000  1
  O  O19  1  0.32390100  0.64987500  0.68470900  1
  O  O20  1  0.14971400  0.45903200  0.31886600  1
  O  O21  1  0.64667500  0.95526800  0.31292000  1
  O  O22  1  0.62816800  0.46486300  0.81177700  1
  O  O23  1  0.15085500  0.95351900  0.81505700  1
  O  O24  1  0.53059500  0.66727300  0.49509600  1
  O  O25  1  0.03835700  0.16128500  0.49433200  1
  O  O26  1  0.04588900  0.68056700  0.01290700  1
  O  O27  1  0.53743400  0.16365900  0.99745300  1
  O  O28  1  0.66699900  0.35300600  0.31065200  1
  O  O29  1  0.16688600  0.85791000  0.31959300  1
  O  O30  1  0.18452300  0.34127800  0.80398700  1
  O  O31  1  0.66732600  0.85801200  0.81842900  1
  O  O32  1  0.35349000  0.53929200  0.18627000  1
  O  O33  1  0.85961200  0.03729400  0.18937900  1
  O  O34  1  0.84165100  0.55403600  0.67598800  1
  O  O35  1  0.36405500  0.03031300  0.68757500  1
