# generated using pymatgen
data_La3Mg2NbO9
_symmetry_space_group_name_H-M   'P 1'
_cell_length_a   9.84688149
_cell_length_b   9.84688149
_cell_length_c   9.84688149
_cell_angle_alpha   146.63616804
_cell_angle_beta   131.97906345
_cell_angle_gamma   59.73141207
_symmetry_Int_Tables_number   1
_chemical_formula_structural   La3Mg2NbO9
_chemical_formula_sum   'La6 Mg4 Nb2 O18'
_cell_volume   386.84259721
_cell_formula_units_Z   2
loop_
 _symmetry_equiv_pos_site_id
 _symmetry_equiv_pos_as_xyz
  1  'x, y, z'
loop_
 _atom_site_type_symbol
 _atom_site_label
 _atom_site_symmetry_multiplicity
 _atom_site_fract_x
 _atom_site_fract_y
 _atom_site_fract_z
 _atom_site_occupancy
  La  La0  1  0.72108700  0.50000000  0.22108700  1
  La  La1  1  0.41363700  0.14752800  0.26610900  1
  La  La2  1  0.11858100  0.85247200  0.26610900  1
  La  La3  1  0.27891300  0.50000000  0.77891300  1
  La  La4  1  0.88141900  0.14752800  0.73389100  1
  La  La5  1  0.58636300  0.85247200  0.73389100  1
  Mg  Mg6  1  0.00000000  0.00000000  0.00000000  1
  Mg  Mg7  1  0.66765200  0.66765200  0.00000000  1
  Mg  Mg8  1  0.33234800  0.33234800  0.00000000  1
  Mg  Mg9  1  0.50000000  0.00000000  0.50000000  1
  Nb  Nb10  1  0.16891300  0.66891300  0.50000000  1
  Nb  Nb11  1  0.83108700  0.33108700  0.50000000  1
  O  O12  1  0.75055800  0.00000000  0.75055800  1
  O  O13  1  0.40304900  0.65554800  0.74750100  1
  O  O14  1  0.09195300  0.34445200  0.74750100  1
  O  O15  1  0.58237200  0.83228800  0.24991600  1
  O  O16  1  0.25418100  0.51702200  0.26284200  1
  O  O17  1  0.91142200  0.15043000  0.23900700  1
  O  O18  1  0.41762800  0.66754400  0.24991600  1
  O  O19  1  0.08857800  0.32758500  0.23900700  1
  O  O20  1  0.74581900  0.00866100  0.26284200  1
  O  O21  1  0.24944200  0.00000000  0.24944200  1
  O  O22  1  0.90804700  0.65554800  0.25249900  1
  O  O23  1  0.59695100  0.34445200  0.25249900  1
  O  O24  1  0.41762800  0.16771200  0.75008400  1
  O  O25  1  0.08857800  0.84957000  0.76099300  1
  O  O26  1  0.74581900  0.48297800  0.73715800  1
  O  O27  1  0.58237200  0.33245600  0.75008400  1
  O  O28  1  0.25418100  0.99133900  0.73715800  1
  O  O29  1  0.91142200  0.67241500  0.76099300  1
