# generated using pymatgen
data_KV3(PO4)4
_symmetry_space_group_name_H-M   'P 1'
_cell_length_a   12.87912600
_cell_length_b   5.28472200
_cell_length_c   9.60792041
_cell_angle_alpha   86.17613156
_cell_angle_beta   90.00000000
_cell_angle_gamma   90.00000000
_symmetry_Int_Tables_number   1
_chemical_formula_structural   KV3(PO4)4
_chemical_formula_sum   'K2 V6 P8 O32'
_cell_volume   652.48422976
_cell_formula_units_Z   2
loop_
 _symmetry_equiv_pos_site_id
 _symmetry_equiv_pos_as_xyz
  1  'x, y, z'
loop_
 _atom_site_type_symbol
 _atom_site_label
 _atom_site_symmetry_multiplicity
 _atom_site_fract_x
 _atom_site_fract_y
 _atom_site_fract_z
 _atom_site_occupancy
  K  K0  1  0.49971200  0.50009000  0.49963900  1
  K  K1  1  0.99971200  0.49991000  0.50036100  1
  V  V2  1  0.38914300  0.61055000  0.09021900  1
  V  V3  1  0.88914300  0.38945000  0.90978100  1
  V  V4  1  0.59789700  0.39357300  0.91314900  1
  V  V5  1  0.09789700  0.60642700  0.08685100  1
  V  V6  1  0.25031000  0.01207600  0.59490200  1
  V  V7  1  0.75031000  0.98792400  0.40509800  1
  P  P8  1  0.63675000  0.85144700  0.12224400  1
  P  P9  1  0.13675000  0.14855300  0.87775600  1
  P  P10  1  0.36468900  0.14912900  0.87795200  1
  P  P11  1  0.86468900  0.85087100  0.12204800  1
  P  P12  1  0.36634900  0.07935700  0.28949100  1
  P  P13  1  0.86634900  0.92064300  0.71050900  1
  P  P14  1  0.63592700  0.92194700  0.71031000  1
  P  P15  1  0.13592700  0.07805300  0.28969000  1
  O  O16  1  0.75062500  0.78657000  0.06691900  1
  O  O17  1  0.25062500  0.21343000  0.93308100  1
  O  O18  1  0.64080200  0.85213200  0.28079700  1
  O  O19  1  0.14080200  0.14786800  0.71920300  1
  O  O20  1  0.35938100  0.14980400  0.71918800  1
  O  O21  1  0.85938100  0.85019600  0.28081200  1
  O  O22  1  0.25000600  0.70493700  0.62018600  1
  O  O23  1  0.75000600  0.29506300  0.37981400  1
  O  O24  1  0.25117800  0.09059400  0.22640100  1
  O  O25  1  0.75117800  0.90940600  0.77359900  1
  O  O26  1  0.41205600  0.82582400  0.25004200  1
  O  O27  1  0.91205600  0.17417600  0.74995800  1
  O  O28  1  0.59040700  0.17294100  0.75143600  1
  O  O29  1  0.09040700  0.82705900  0.24856400  1
  O  O30  1  0.39845000  0.89788800  0.94737800  1
  O  O31  1  0.89845000  0.10211200  0.05262200  1
  O  O32  1  0.60519500  0.10337800  0.05108700  1
  O  O33  1  0.10519500  0.89662200  0.94891300  1
  O  O34  1  0.56984900  0.62987600  0.07221400  1
  O  O35  1  0.06984900  0.37012400  0.92778600  1
  O  O36  1  0.42998800  0.37515100  0.92737100  1
  O  O37  1  0.92998800  0.62484900  0.07262900  1
  O  O38  1  0.36013500  0.08752300  0.44861500  1
  O  O39  1  0.86013500  0.91247700  0.55138500  1
  O  O40  1  0.64041600  0.91126800  0.55132100  1
  O  O41  1  0.14041600  0.08873200  0.44867900  1
  O  O42  1  0.42252700  0.31329800  0.22642400  1
  O  O43  1  0.92252700  0.68670200  0.77357600  1
  O  O44  1  0.57978000  0.68842400  0.77440000  1
  O  O45  1  0.07978000  0.31157600  0.22560000  1
  O  O46  1  0.25923000  0.59373300  0.09498400  1
  O  O47  1  0.75923000  0.40626700  0.90501600  1
