# generated using pymatgen
data_Mg4Si7
_symmetry_space_group_name_H-M   'P 1'
_cell_length_a   4.34129800
_cell_length_b   6.93445979
_cell_length_c   14.00953461
_cell_angle_alpha   87.48043884
_cell_angle_beta   83.83986446
_cell_angle_gamma   87.11568322
_symmetry_Int_Tables_number   1
_chemical_formula_structural   Mg4Si7
_chemical_formula_sum   'Mg8 Si14'
_cell_volume   418.46847897
_cell_formula_units_Z   2
loop_
 _symmetry_equiv_pos_site_id
 _symmetry_equiv_pos_as_xyz
  1  'x, y, z'
loop_
 _atom_site_type_symbol
 _atom_site_label
 _atom_site_symmetry_multiplicity
 _atom_site_fract_x
 _atom_site_fract_y
 _atom_site_fract_z
 _atom_site_occupancy
  Mg  Mg0  1  0.99159500  0.97160800  0.08195000  1
  Mg  Mg1  1  0.84480600  0.67571600  0.48459600  1
  Mg  Mg2  1  0.26197500  0.82778800  0.63275700  1
  Mg  Mg3  1  0.41315500  0.49797100  0.34346100  1
  Mg  Mg4  1  0.96513800  0.50986700  0.15732500  1
  Mg  Mg5  1  0.27869100  0.08991400  0.80997400  1
  Mg  Mg6  1  0.33937200  0.35353900  0.57814600  1
  Mg  Mg7  1  0.36812600  0.99566700  0.41147800  1
  Si  Si8  1  0.48904100  0.68397900  0.04640900  1
  Si  Si9  1  0.52917800  0.33377100  0.04073500  1
  Si  Si10  1  0.05247800  0.29905000  0.95794000  1
  Si  Si11  1  0.13533500  0.62923000  0.91948000  1
  Si  Si12  1  0.89095900  0.30273000  0.43161200  1
  Si  Si13  1  0.79743900  0.04586800  0.54780700  1
  Si  Si14  1  0.51593600  0.70886900  0.79349300  1
  Si  Si15  1  0.45551600  0.17890000  0.19792000  1
  Si  Si16  1  0.94032200  0.80574000  0.29655400  1
  Si  Si17  1  0.74299900  0.87303900  0.91456300  1
  Si  Si18  1  0.79637000  0.53740000  0.66751400  1
  Si  Si19  1  0.46267000  0.81675000  0.20464800  1
  Si  Si20  1  0.92459400  0.16277600  0.27827800  1
  Si  Si21  1  0.80058500  0.19615900  0.69977100  1
