# generated using pymatgen
data_KNa4Cl5
_symmetry_space_group_name_H-M   'P 1'
_cell_length_a   7.17073224
_cell_length_b   7.17073224
_cell_length_c   10.15744926
_cell_angle_alpha   61.80331254
_cell_angle_beta   61.80331254
_cell_angle_gamma   33.42810807
_symmetry_Int_Tables_number   1
_chemical_formula_structural   KNa4Cl5
_chemical_formula_sum   'K1 Na4 Cl5'
_cell_volume   250.27281561
_cell_formula_units_Z   1
loop_
 _symmetry_equiv_pos_site_id
 _symmetry_equiv_pos_as_xyz
  1  'x, y, z'
loop_
 _atom_site_type_symbol
 _atom_site_label
 _atom_site_symmetry_multiplicity
 _atom_site_fract_x
 _atom_site_fract_y
 _atom_site_fract_z
 _atom_site_occupancy
  K  K0  1  0.00000000  0.00000000  0.00000000  1
  Na  Na1  1  0.59963800  0.59963800  0.59764900  1
  Na  Na2  1  0.19895400  0.19895400  0.20389400  1
  Na  Na3  1  0.80104600  0.80104600  0.79610600  1
  Na  Na4  1  0.40036200  0.40036200  0.40235100  1
  Cl  Cl5  1  0.20763400  0.20763400  0.68754100  1
  Cl  Cl6  1  0.79236600  0.79236600  0.31245900  1
  Cl  Cl7  1  0.39121700  0.39121700  0.89007500  1
  Cl  Cl8  1  0.00000000  0.00000000  0.50000000  1
  Cl  Cl9  1  0.60878300  0.60878300  0.10992500  1
