# generated using pymatgen
data_KRb(Fe2S3)2
_symmetry_space_group_name_H-M   'P 1'
_cell_length_a   7.19365763
_cell_length_b   7.19365763
_cell_length_c   5.17762600
_cell_angle_alpha   90.00000000
_cell_angle_beta   90.00000000
_cell_angle_gamma   102.78310618
_symmetry_Int_Tables_number   1
_chemical_formula_structural   KRb(Fe2S3)2
_chemical_formula_sum   'K1 Rb1 Fe4 S6'
_cell_volume   261.29458860
_cell_formula_units_Z   1
loop_
 _symmetry_equiv_pos_site_id
 _symmetry_equiv_pos_as_xyz
  1  'x, y, z'
loop_
 _atom_site_type_symbol
 _atom_site_label
 _atom_site_symmetry_multiplicity
 _atom_site_fract_x
 _atom_site_fract_y
 _atom_site_fract_z
 _atom_site_occupancy
  K  K0  1  0.32953400  0.67046600  0.50000000  1
  Rb  Rb1  1  0.67064300  0.32935700  0.00000000  1
  Fe  Fe2  1  0.85784000  0.85856200  0.24976600  1
  Fe  Fe3  1  0.85784000  0.85856200  0.75023300  1
  Fe  Fe4  1  0.14143800  0.14216000  0.24976600  1
  Fe  Fe5  1  0.14143800  0.14216000  0.75023300  1
  S  S6  1  0.61736200  0.83031800  0.00000000  1
  S  S7  1  0.83434900  0.61968500  0.50000000  1
  S  S8  1  0.38031500  0.16565100  0.50000000  1
  S  S9  1  0.16968200  0.38263800  0.00000000  1
  S  S10  1  0.10805600  0.89194400  0.00000000  1
  S  S11  1  0.89150400  0.10849600  0.50000000  1
