# generated using pymatgen
data_KMg3AlSi3O11F
_symmetry_space_group_name_H-M   'P 1'
_cell_length_a   5.40597559
_cell_length_b   5.40597559
_cell_length_c   21.03317966
_cell_angle_alpha   82.75734089
_cell_angle_beta   82.75734089
_cell_angle_gamma   59.64033105
_symmetry_Int_Tables_number   1
_chemical_formula_structural   KMg3AlSi3O11F
_chemical_formula_sum   'K2 Mg6 Al2 Si6 O22 F2'
_cell_volume   524.76390769
_cell_formula_units_Z   2
loop_
 _symmetry_equiv_pos_site_id
 _symmetry_equiv_pos_as_xyz
  1  'x, y, z'
loop_
 _atom_site_type_symbol
 _atom_site_label
 _atom_site_symmetry_multiplicity
 _atom_site_fract_x
 _atom_site_fract_y
 _atom_site_fract_z
 _atom_site_occupancy
  K  K0  1  0.74263000  0.91170800  0.76870100  1
  K  K1  1  0.91170800  0.74263000  0.26870100  1
  Mg  Mg2  1  0.66754200  0.17070800  0.99865800  1
  Mg  Mg3  1  0.17070800  0.66754200  0.49865800  1
  Mg  Mg4  1  0.83466100  0.33529100  0.49938500  1
  Mg  Mg5  1  0.33529100  0.83466100  0.99938500  1
  Mg  Mg6  1  0.49112500  0.00297900  0.49965100  1
  Mg  Mg7  1  0.00297900  0.49112500  0.99965100  1
  Al  Al8  1  0.37062400  0.55073700  0.86650900  1
  Al  Al9  1  0.55073700  0.37062400  0.36650900  1
  Si  Si10  1  0.21701100  0.04269500  0.36392000  1
  Si  Si11  1  0.04269500  0.21701100  0.86392000  1
  Si  Si12  1  0.11945800  0.29115300  0.63274300  1
  Si  Si13  1  0.29115300  0.11945800  0.13274300  1
  Si  Si14  1  0.45272900  0.62566800  0.63268100  1
  Si  Si15  1  0.62566800  0.45272900  0.13268100  1
  O  O16  1  0.94912200  0.27834400  0.16146100  1
  O  O17  1  0.27834400  0.94912200  0.66146100  1
  O  O18  1  0.20801100  0.39146300  0.83479600  1
  O  O19  1  0.39146300  0.20801100  0.33479600  1
  O  O20  1  0.27615500  0.45084700  0.65974900  1
  O  O21  1  0.45084700  0.27615500  0.15974900  1
  O  O22  1  0.72706800  0.38304400  0.83629000  1
  O  O23  1  0.38304400  0.72706800  0.33629000  1
  O  O24  1  0.19176400  0.01813900  0.44426000  1
  O  O25  1  0.01813900  0.19176400  0.94426000  1
  O  O26  1  0.14190100  0.31739900  0.55455000  1
  O  O27  1  0.31739900  0.14190100  0.05455000  1
  O  O28  1  0.47554500  0.65736700  0.55448200  1
  O  O29  1  0.65736700  0.47554500  0.05448200  1
  O  O30  1  0.90431700  0.21638100  0.33492200  1
  O  O31  1  0.21638100  0.90431700  0.83492200  1
  O  O32  1  0.77668800  0.44735200  0.66112700  1
  O  O33  1  0.44735200  0.77668800  0.16112700  1
  O  O34  1  0.51949300  0.34497700  0.45186100  1
  O  O35  1  0.34497700  0.51949300  0.95186100  1
  O  O36  1  0.99280700  0.81285700  0.04373500  1
  O  O37  1  0.81285700  0.99280700  0.54373500  1
  F  F38  1  0.85004400  0.67386400  0.45301700  1
  F  F39  1  0.67386400  0.85004400  0.95301700  1
