# generated using pymatgen
data_La2CuSn4
_symmetry_space_group_name_H-M   'P 1'
_cell_length_a   4.57146300
_cell_length_b   4.65295500
_cell_length_c   9.19193895
_cell_angle_alpha   75.33898092
_cell_angle_beta   90.00000000
_cell_angle_gamma   90.00000000
_symmetry_Int_Tables_number   1
_chemical_formula_structural   La2CuSn4
_chemical_formula_sum   'La2 Cu1 Sn4'
_cell_volume   189.15390425
_cell_formula_units_Z   1
loop_
 _symmetry_equiv_pos_site_id
 _symmetry_equiv_pos_as_xyz
  1  'x, y, z'
loop_
 _atom_site_type_symbol
 _atom_site_label
 _atom_site_symmetry_multiplicity
 _atom_site_fract_x
 _atom_site_fract_y
 _atom_site_fract_z
 _atom_site_occupancy
  La  La0  1  0.25000000  0.90521700  0.18956500  1
  La  La1  1  0.75000000  0.11083900  0.77832200  1
  Cu  Cu2  1  0.25000000  0.69382500  0.61234900  1
  Sn  Sn3  1  0.25000000  0.26819300  0.46361400  1
  Sn  Sn4  1  0.75000000  0.76830600  0.46338800  1
  Sn  Sn5  1  0.25000000  0.55009700  0.89980600  1
  Sn  Sn6  1  0.75000000  0.44352200  0.11295600  1
