# generated using pymatgen
data_KMg3AlSi3O11F
_symmetry_space_group_name_H-M   'P 1'
_cell_length_a   5.38678750
_cell_length_b   5.38678750
_cell_length_c   20.69065324
_cell_angle_alpha   87.39085386
_cell_angle_beta   87.39085386
_cell_angle_gamma   119.88077535
_symmetry_Int_Tables_number   1
_chemical_formula_structural   KMg3AlSi3O11F
_chemical_formula_sum   'K2 Mg6 Al2 Si6 O22 F2'
_cell_volume   518.42277500
_cell_formula_units_Z   2
loop_
 _symmetry_equiv_pos_site_id
 _symmetry_equiv_pos_as_xyz
  1  'x, y, z'
loop_
 _atom_site_type_symbol
 _atom_site_label
 _atom_site_symmetry_multiplicity
 _atom_site_fract_x
 _atom_site_fract_y
 _atom_site_fract_z
 _atom_site_occupancy
  K  K0  1  0.08449300  0.91015400  0.26305400  1
  K  K1  1  0.91015400  0.08449300  0.76305400  1
  Mg  Mg2  1  0.33574500  0.16899300  0.49797100  1
  Mg  Mg3  1  0.82701300  0.65868200  0.99980000  1
  Mg  Mg4  1  0.65868200  0.82701300  0.49980000  1
  Mg  Mg5  1  0.16899300  0.33574500  0.99797100  1
  Mg  Mg6  1  0.00039700  0.50077300  0.49960100  1
  Mg  Mg7  1  0.50077300  0.00039700  0.99960100  1
  Al  Al8  1  0.72556500  0.21155600  0.36601500  1
  Al  Al9  1  0.21155600  0.72556500  0.86601500  1
  Si  Si10  1  0.78894000  0.27911400  0.13377700  1
  Si  Si11  1  0.27911400  0.78894000  0.63377700  1
  Si  Si12  1  0.38999100  0.54885800  0.36323200  1
  Si  Si13  1  0.45677700  0.61232900  0.13380300  1
  Si  Si14  1  0.61232900  0.45677700  0.63380300  1
  Si  Si15  1  0.54885800  0.38999100  0.86323200  1
  O  O16  1  0.55941900  0.39194200  0.33575600  1
  O  O17  1  0.61286300  0.43550400  0.16323200  1
  O  O18  1  0.43550400  0.61286300  0.66323200  1
  O  O19  1  0.39194200  0.55941900  0.83575600  1
  O  O20  1  0.56749400  0.87951100  0.33339100  1
  O  O21  1  0.11279900  0.43229900  0.16212300  1
  O  O22  1  0.43229900  0.11279900  0.66212300  1
  O  O23  1  0.87951100  0.56749400  0.83339100  1
  O  O24  1  0.07992700  0.39821300  0.33356000  1
  O  O25  1  0.61346100  0.93555400  0.16235700  1
  O  O26  1  0.93555400  0.61346100  0.66235700  1
  O  O27  1  0.39821300  0.07992700  0.83356000  1
  O  O28  1  0.68878600  0.18207900  0.45189400  1
  O  O29  1  0.81138900  0.30721200  0.05513300  1
  O  O30  1  0.30721200  0.81138900  0.55513300  1
  O  O31  1  0.18207900  0.68878600  0.95189400  1
  O  O32  1  0.35725800  0.52348500  0.44435700  1
  O  O33  1  0.48384300  0.64126400  0.05511100  1
  O  O34  1  0.64126400  0.48384300  0.55511100  1
  O  O35  1  0.52348500  0.35725800  0.94435700  1
  O  O36  1  0.14811000  0.98059800  0.04489700  1
  O  O37  1  0.98059800  0.14811000  0.54489700  1
  F  F38  1  0.01564200  0.84196500  0.45093700  1
  F  F39  1  0.84196500  0.01564200  0.95093700  1
