# generated using pymatgen
data_K8La(PS4)4
_symmetry_space_group_name_H-M   'P 1'
_cell_length_a   11.34517914
_cell_length_b   11.34517914
_cell_length_c   11.34517914
_cell_angle_alpha   133.52387360
_cell_angle_beta   128.56033812
_cell_angle_gamma   71.82048739
_symmetry_Int_Tables_number   1
_chemical_formula_structural   K8La(PS4)4
_chemical_formula_sum   'K8 La1 P4 S16'
_cell_volume   810.04763589
_cell_formula_units_Z   1
loop_
 _symmetry_equiv_pos_site_id
 _symmetry_equiv_pos_as_xyz
  1  'x, y, z'
loop_
 _atom_site_type_symbol
 _atom_site_label
 _atom_site_symmetry_multiplicity
 _atom_site_fract_x
 _atom_site_fract_y
 _atom_site_fract_z
 _atom_site_occupancy
  K  K0  1  0.25512100  0.75512100  0.50000000  1
  K  K1  1  0.74487900  0.24487900  0.50000000  1
  K  K2  1  0.23423900  0.23423900  0.00000000  1
  K  K3  1  0.76576100  0.76576100  0.00000000  1
  K  K4  1  0.32211400  0.71190000  0.87416900  1
  K  K5  1  0.16226900  0.28810000  0.61021400  1
  K  K6  1  0.67788600  0.55205500  0.38978600  1
  K  K7  1  0.83773100  0.44794500  0.12583100  1
  La  La8  1  0.50000000  0.00000000  0.50000000  1
  P  P9  1  0.61872400  0.08016300  0.95192700  1
  P  P10  1  0.87176300  0.91983700  0.53856100  1
  P  P11  1  0.38127600  0.33320300  0.46143900  1
  P  P12  1  0.12823700  0.66679700  0.04807300  1
  S  S13  1  0.50203900  0.21910900  0.87118100  1
  S  S14  1  0.65207200  0.78089100  0.28293000  1
  S  S15  1  0.49796100  0.36914200  0.71707000  1
  S  S16  1  0.34792800  0.63085800  0.12881900  1
  S  S17  1  0.99777000  0.77795900  0.60778000  1
  S  S18  1  0.82982100  0.22204100  0.21981100  1
  S  S19  1  0.00223000  0.61001000  0.78018900  1
  S  S20  1  0.17017900  0.38999000  0.39222000  1
  S  S21  1  0.50835200  0.01139900  0.99233700  1
  S  S22  1  0.98093900  0.98860100  0.49695400  1
  S  S23  1  0.49164800  0.48398500  0.50304600  1
  S  S24  1  0.01906100  0.51601500  0.00766300  1
  S  S25  1  0.15939100  0.91219800  0.28444900  1
  S  S26  1  0.37225100  0.08780200  0.24719300  1
  S  S27  1  0.84060900  0.12505800  0.75280700  1
  S  S28  1  0.62775000  0.87494200  0.71555100  1
