# generated using pymatgen
data_La4Ti5(S6O)2
_symmetry_space_group_name_H-M   'P 1'
_cell_length_a   8.47558700
_cell_length_b   10.36341000
_cell_length_c   10.36570963
_cell_angle_alpha   89.94029817
_cell_angle_beta   90.00000000
_cell_angle_gamma   90.00000000
_symmetry_Int_Tables_number   1
_chemical_formula_structural   La4Ti5(S6O)2
_chemical_formula_sum   'La8 Ti10 S24 O4'
_cell_volume   910.48180107
_cell_formula_units_Z   2
loop_
 _symmetry_equiv_pos_site_id
 _symmetry_equiv_pos_as_xyz
  1  'x, y, z'
loop_
 _atom_site_type_symbol
 _atom_site_label
 _atom_site_symmetry_multiplicity
 _atom_site_fract_x
 _atom_site_fract_y
 _atom_site_fract_z
 _atom_site_occupancy
  La  La0  1  0.73666900  0.70919300  0.28823100  1
  La  La1  1  0.73736800  0.29033200  0.70804900  1
  La  La2  1  0.73448900  0.29341100  0.29158100  1
  La  La3  1  0.74047900  0.71152100  0.71531200  1
  La  La4  1  0.26263200  0.29033200  0.70804900  1
  La  La5  1  0.26333100  0.70919300  0.28823100  1
  La  La6  1  0.25952100  0.71152100  0.71531200  1
  La  La7  1  0.26551100  0.29341100  0.29158100  1
  Ti  Ti8  1  0.50000000  0.00177500  0.20291500  1
  Ti  Ti9  1  0.50000000  0.00179200  0.79316900  1
  Ti  Ti10  1  0.50000000  0.20481900  0.00033600  1
  Ti  Ti11  1  0.50000000  0.79462000  0.00155100  1
  Ti  Ti12  1  0.50000000  0.00031300  0.50172200  1
  Ti  Ti13  1  0.50000000  0.50524000  0.99979500  1
  Ti  Ti14  1  0.00000000  0.48604500  0.48713000  1
  Ti  Ti15  1  0.00000000  0.99899700  0.99699300  1
  Ti  Ti16  1  0.00000000  0.97828400  0.39855800  1
  Ti  Ti17  1  0.00000000  0.36432900  0.99815400  1
  S  S18  1  0.28038500  0.00387600  0.34693500  1
  S  S19  1  0.27730400  0.00152200  0.65958100  1
  S  S20  1  0.28431000  0.35036200  0.00091100  1
  S  S21  1  0.27791100  0.66042000  0.00243700  1
  S  S22  1  0.72269600  0.00152200  0.65958100  1
  S  S23  1  0.71961500  0.00387600  0.34693500  1
  S  S24  1  0.72208900  0.66042000  0.00243700  1
  S  S25  1  0.71569000  0.35036200  0.00091100  1
  S  S26  1  0.68339100  0.00398400  0.00335800  1
  S  S27  1  0.31660900  0.00398400  0.00335800  1
  S  S28  1  0.50000000  0.76480200  0.50120100  1
  S  S29  1  0.50000000  0.23898500  0.50092600  1
  S  S30  1  0.50000000  0.50175000  0.23899700  1
  S  S31  1  0.50000000  0.50228000  0.76361400  1
  S  S32  1  0.00000000  0.23666600  0.49339700  1
  S  S33  1  0.00000000  0.76229400  0.49940300  1
  S  S34  1  0.00000000  0.49225400  0.76276400  1
  S  S35  1  0.00000000  0.49908300  0.24044800  1
  S  S36  1  0.72786100  0.50344100  0.50261100  1
  S  S37  1  0.27213900  0.50344100  0.50261100  1
  S  S38  1  0.00000000  0.86492100  0.19041700  1
  S  S39  1  0.00000000  0.18180300  0.15411700  1
  S  S40  1  0.00000000  0.84145400  0.84620900  1
  S  S41  1  0.00000000  0.18001000  0.85060200  1
  O  O42  1  0.50000000  0.81145400  0.19125600  1
  O  O43  1  0.50000000  0.19113500  0.81038100  1
  O  O44  1  0.50000000  0.19260700  0.19190400  1
  O  O45  1  0.50000000  0.81216100  0.81203200  1
