# generated using pymatgen
data_KNbW2O9
_symmetry_space_group_name_H-M   'P 1'
_cell_length_a   3.95309400
_cell_length_b   13.03267686
_cell_length_c   13.04844270
_cell_angle_alpha   119.79559849
_cell_angle_beta   90.04609678
_cell_angle_gamma   89.97913508
_symmetry_Int_Tables_number   1
_chemical_formula_structural   KNbW2O9
_chemical_formula_sum   'K3 Nb3 W6 O27'
_cell_volume   583.37897420
_cell_formula_units_Z   3
loop_
 _symmetry_equiv_pos_site_id
 _symmetry_equiv_pos_as_xyz
  1  'x, y, z'
loop_
 _atom_site_type_symbol
 _atom_site_label
 _atom_site_symmetry_multiplicity
 _atom_site_fract_x
 _atom_site_fract_y
 _atom_site_fract_z
 _atom_site_occupancy
  K  K0  1  0.01914300  0.83966500  0.16891500  1
  K  K1  1  0.01828600  0.16568500  0.83377300  1
  K  K2  1  0.13393400  0.49836700  0.49962600  1
  Nb  Nb3  1  0.58910000  0.66530000  0.33222200  1
  Nb  Nb4  1  0.58897600  0.33339200  0.66092000  1
  Nb  Nb5  1  0.59026800  0.16570600  0.33406400  1
  W  W6  1  0.50006600  0.00058200  0.49963200  1
  W  W7  1  0.50076000  0.49906400  0.99813800  1
  W  W8  1  0.49797100  0.00133400  0.99999200  1
  W  W9  1  0.58466900  0.83446500  0.66615600  1
  W  W10  1  0.58396200  0.33250300  0.16484400  1
  W  W11  1  0.58363400  0.66842700  0.83579300  1
  O  O12  1  0.05192800  0.15408600  0.33025200  1
  O  O13  1  0.05090700  0.83753500  0.67113000  1
  O  O14  1  0.04961900  0.32834800  0.15634800  1
  O  O15  1  0.04923600  0.67271800  0.84098800  1
  O  O16  1  0.54150100  0.03383800  0.37487800  1
  O  O17  1  0.54468500  0.95732100  0.62595200  1
  O  O18  1  0.54184600  0.37661200  0.04080500  1
  O  O19  1  0.54272000  0.62669200  0.95953600  1
  O  O20  1  0.03304400  0.99983300  0.99598800  1
  O  O21  1  0.54439900  0.83486600  0.38382600  1
  O  O22  1  0.54491300  0.16363400  0.61983900  1
  O  O23  1  0.54325500  0.38306900  0.83775300  1
  O  O24  1  0.54704000  0.62064800  0.16432900  1
  O  O25  1  0.54601200  0.71000100  0.50941700  1
  O  O26  1  0.54409600  0.29804200  0.49652000  1
  O  O27  1  0.54359100  0.51043100  0.71416800  1
  O  O28  1  0.54386000  0.49045000  0.28705700  1
  O  O29  1  0.54628500  0.28300300  0.27825200  1
  O  O30  1  0.54550100  0.71734800  0.71855000  1
  O  O31  1  0.05162400  0.65983400  0.33909900  1
  O  O32  1  0.05152100  0.33875200  0.66801200  1
  O  O33  1  0.54171800  0.03922800  0.15887200  1
  O  O34  1  0.54341300  0.95726800  0.83353000  1
  O  O35  1  0.54076100  0.16459300  0.03763700  1
  O  O36  1  0.54042600  0.83557100  0.95787400  1
  O  O37  1  0.03544400  0.99916500  0.50396700  1
  O  O38  1  0.03588400  0.50262400  0.00134600  1
