# generated using pymatgen
data_KAlSi3O8
_symmetry_space_group_name_H-M   'P 1'
_cell_length_a   7.96330968
_cell_length_b   7.96330968
_cell_length_c   7.22998264
_cell_angle_alpha   76.14148229
_cell_angle_beta   76.14148229
_cell_angle_gamma   113.54285351
_symmetry_Int_Tables_number   1
_chemical_formula_structural   KAlSi3O8
_chemical_formula_sum   'K2 Al2 Si6 O16'
_cell_volume   378.04085354
_cell_formula_units_Z   2
loop_
 _symmetry_equiv_pos_site_id
 _symmetry_equiv_pos_as_xyz
  1  'x, y, z'
loop_
 _atom_site_type_symbol
 _atom_site_label
 _atom_site_symmetry_multiplicity
 _atom_site_fract_x
 _atom_site_fract_y
 _atom_site_fract_z
 _atom_site_occupancy
  K  K0  1  0.28241400  0.29466600  0.86128700  1
  K  K1  1  0.70533400  0.71758600  0.13871300  1
  Al  Al2  1  0.59269400  0.82819500  0.65674300  1
  Al  Al3  1  0.17180500  0.40730600  0.34325700  1
  Si  Si4  1  0.83419800  0.59585600  0.65469800  1
  Si  Si5  1  0.40414400  0.16580200  0.34530200  1
  Si  Si6  1  0.82985600  0.19954000  0.77415100  1
  Si  Si7  1  0.19659600  0.82045900  0.77843100  1
  Si  Si8  1  0.17954100  0.80340400  0.22156900  1
  Si  Si9  1  0.80046000  0.17014400  0.22584900  1
  O  O10  1  0.84682300  0.15317700  0.00000000  1
  O  O11  1  0.14724300  0.85275700  0.00000000  1
  O  O12  1  0.64697400  0.63260500  0.71578500  1
  O  O13  1  0.36739500  0.35302600  0.28421500  1
  O  O14  1  0.74115000  0.35517000  0.73726600  1
  O  O15  1  0.33250900  0.71718200  0.75145400  1
  O  O16  1  0.28281800  0.66749100  0.24854600  1
  O  O17  1  0.64483000  0.25885000  0.26273400  1
  O  O18  1  0.05391700  0.30353000  0.61067400  1
  O  O19  1  0.30363800  0.04379400  0.59721500  1
  O  O20  1  0.95620600  0.69636200  0.40278500  1
  O  O21  1  0.69647000  0.94608300  0.38932600  1
  O  O22  1  0.68129200  0.98890800  0.77866600  1
  O  O23  1  0.97972000  0.68912300  0.77227400  1
  O  O24  1  0.31087700  0.02028000  0.22772600  1
  O  O25  1  0.01109200  0.31870800  0.22133400  1
