# generated using pymatgen
data_KAlSi3O8
_symmetry_space_group_name_H-M   'P 1'
_cell_length_a   7.22190300
_cell_length_b   7.94343942
_cell_length_c   7.99606187
_cell_angle_alpha   113.03924038
_cell_angle_beta   104.71752632
_cell_angle_gamma   103.97022278
_symmetry_Int_Tables_number   1
_chemical_formula_structural   KAlSi3O8
_chemical_formula_sum   'K2 Al2 Si6 O16'
_cell_volume   377.14720601
_cell_formula_units_Z   2
loop_
 _symmetry_equiv_pos_site_id
 _symmetry_equiv_pos_as_xyz
  1  'x, y, z'
loop_
 _atom_site_type_symbol
 _atom_site_label
 _atom_site_symmetry_multiplicity
 _atom_site_fract_x
 _atom_site_fract_y
 _atom_site_fract_z
 _atom_site_occupancy
  K  K0  1  0.86419000  0.71211700  0.70857800  1
  K  K1  1  0.13581000  0.28788300  0.29142200  1
  Al  Al2  1  0.65793100  0.16703100  0.40576200  1
  Al  Al3  1  0.34206900  0.83296900  0.59423800  1
  Si  Si4  1  0.66240700  0.40428000  0.16653600  1
  Si  Si5  1  0.33759300  0.59572000  0.83346400  1
  Si  Si6  1  0.77659600  0.80218200  0.17852900  1
  Si  Si7  1  0.78067500  0.18759800  0.80784200  1
  Si  Si8  1  0.22340400  0.19781800  0.82147100  1
  Si  Si9  1  0.21932500  0.81240200  0.19215800  1
  O  O10  1  0.98835800  0.82662000  0.13421200  1
  O  O11  1  0.01164200  0.17338000  0.86578800  1
  O  O12  1  0.58893800  0.70308300  0.95965800  1
  O  O13  1  0.61145500  0.96523700  0.71249800  1
  O  O14  1  0.41106200  0.29691700  0.04034200  1
  O  O15  1  0.38854500  0.03476300  0.28750200  1
  O  O16  1  0.79458300  0.01706100  0.32680900  1
  O  O17  1  0.78688700  0.33246300  0.02548800  1
  O  O18  1  0.20541700  0.98293900  0.67319100  1
  O  O19  1  0.21311300  0.66753700  0.97451200  1
  O  O20  1  0.73610400  0.64649100  0.26551200  1
  O  O21  1  0.74617600  0.28566700  0.66468500  1
  O  O22  1  0.26389600  0.35350900  0.73448800  1
  O  O23  1  0.25382400  0.71433300  0.33531500  1
  O  O24  1  0.72402900  0.36126800  0.34988900  1
  O  O25  1  0.27597100  0.63873200  0.65011100  1
