# generated using pymatgen
data_InHgTe2
_symmetry_space_group_name_H-M   'P 1'
_cell_length_a   8.18482481
_cell_length_b   8.18482481
_cell_length_c   8.18482431
_cell_angle_alpha   34.86899030
_cell_angle_beta   34.86899030
_cell_angle_gamma   34.86898637
_symmetry_Int_Tables_number   1
_chemical_formula_structural   InHgTe2
_chemical_formula_sum   'In1 Hg1 Te2'
_cell_volume   159.97929032
_cell_formula_units_Z   1
loop_
 _symmetry_equiv_pos_site_id
 _symmetry_equiv_pos_as_xyz
  1  'x, y, z'
loop_
 _atom_site_type_symbol
 _atom_site_label
 _atom_site_symmetry_multiplicity
 _atom_site_fract_x
 _atom_site_fract_y
 _atom_site_fract_z
 _atom_site_occupancy
  In  In0  1  0.49967000  0.49967000  0.49967000  1
  Hg  Hg1  1  0.00449200  0.00449200  0.00449200  1
  Te  Te2  1  0.87393500  0.87393500  0.87393500  1
  Te  Te3  1  0.37190300  0.37190300  0.37190300  1
