# generated using pymatgen
data_KCa2Nb3O10
_symmetry_space_group_name_H-M   'P 1'
_cell_length_a   15.09809151
_cell_length_b   15.09809151
_cell_length_c   7.87209800
_cell_angle_alpha   90.00000000
_cell_angle_beta   90.00000000
_cell_angle_gamma   164.96084529
_symmetry_Int_Tables_number   1
_chemical_formula_structural   KCa2Nb3O10
_chemical_formula_sum   'K2 Ca4 Nb6 O20'
_cell_volume   465.62570086
_cell_formula_units_Z   2
loop_
 _symmetry_equiv_pos_site_id
 _symmetry_equiv_pos_as_xyz
  1  'x, y, z'
loop_
 _atom_site_type_symbol
 _atom_site_label
 _atom_site_symmetry_multiplicity
 _atom_site_fract_x
 _atom_site_fract_y
 _atom_site_fract_z
 _atom_site_occupancy
  K  K0  1  0.74311800  0.25688200  0.75011900  1
  K  K1  1  0.25688200  0.74311800  0.25011900  1
  Ca  Ca2  1  0.42820000  0.57180000  0.26053100  1
  Ca  Ca3  1  0.57180000  0.42820000  0.76053100  1
  Ca  Ca4  1  0.42370800  0.57629200  0.75416200  1
  Ca  Ca5  1  0.57629200  0.42370800  0.25416200  1
  Nb  Nb6  1  0.00191300  0.99808700  0.49722500  1
  Nb  Nb7  1  0.99808700  0.00191300  0.99722500  1
  Nb  Nb8  1  0.85826100  0.14173900  0.49778200  1
  Nb  Nb9  1  0.14355300  0.85644700  0.50543400  1
  Nb  Nb10  1  0.85644700  0.14355300  0.00543400  1
  Nb  Nb11  1  0.14173900  0.85826100  0.99778200  1
  O  O12  1  0.79900300  0.20099700  0.45952200  1
  O  O13  1  0.20302800  0.79697200  0.54044500  1
  O  O14  1  0.79697200  0.20302800  0.04044500  1
  O  O15  1  0.20099700  0.79900300  0.95952200  1
  O  O16  1  0.93764200  0.06235800  0.55402800  1
  O  O17  1  0.06545100  0.93454900  0.43009400  1
  O  O18  1  0.93454900  0.06545100  0.93009400  1
  O  O19  1  0.06235800  0.93764200  0.05402800  1
  O  O20  1  0.88175300  0.11824700  0.25027100  1
  O  O21  1  0.11824700  0.88175300  0.75027100  1
  O  O22  1  0.37414400  0.62585600  0.49518900  1
  O  O23  1  0.62791600  0.37208400  0.50617000  1
  O  O24  1  0.37208400  0.62791600  0.00617000  1
  O  O25  1  0.62585600  0.37414400  0.99518900  1
  O  O26  1  0.85875600  0.14124400  0.74984100  1
  O  O27  1  0.14124400  0.85875600  0.24984100  1
  O  O28  1  0.98155200  0.01844800  0.23291800  1
  O  O29  1  0.01844800  0.98155200  0.73291800  1
  O  O30  1  0.49963500  0.50036500  0.46126700  1
  O  O31  1  0.50036500  0.49963500  0.96126700  1
