# generated using pymatgen
data_InI2Br
_symmetry_space_group_name_H-M   'P 1'
_cell_length_a   7.23910100
_cell_length_b   7.36206482
_cell_length_c   8.41345047
_cell_angle_alpha   90.43234482
_cell_angle_beta   115.29189364
_cell_angle_gamma   119.40002454
_symmetry_Int_Tables_number   1
_chemical_formula_structural   InI2Br
_chemical_formula_sum   'In2 I4 Br2'
_cell_volume   339.49733627
_cell_formula_units_Z   2
loop_
 _symmetry_equiv_pos_site_id
 _symmetry_equiv_pos_as_xyz
  1  'x, y, z'
loop_
 _atom_site_type_symbol
 _atom_site_label
 _atom_site_symmetry_multiplicity
 _atom_site_fract_x
 _atom_site_fract_y
 _atom_site_fract_z
 _atom_site_occupancy
  In  In0  1  0.58458400  0.29241200  0.87292500  1
  In  In1  1  0.24828700  0.62283700  0.87090300  1
  I  I2  1  0.44358600  0.03641300  0.11634900  1
  I  I3  1  0.10440500  0.22525000  0.63792400  1
  I  I4  1  0.75756500  0.53535200  0.63782400  1
  I  I5  1  0.42209100  0.88157600  0.64097200  1
  Br  Br6  1  0.67938200  0.64865900  0.08603700  1
  Br  Br7  1  0.05910000  0.40700100  0.08556600  1
