# generated using pymatgen
data_La3ZnCuRh2PbO12
_symmetry_space_group_name_H-M   'P 1'
_cell_length_a   5.59285600
_cell_length_b   5.74425524
_cell_length_c   7.94023567
_cell_angle_alpha   90.52373716
_cell_angle_beta   90.26686582
_cell_angle_gamma   90.63721085
_symmetry_Int_Tables_number   1
_chemical_formula_structural   La3ZnCuRh2PbO12
_chemical_formula_sum   'La3 Zn1 Cu1 Rh2 Pb1 O12'
_cell_volume   255.06498108
_cell_formula_units_Z   1
loop_
 _symmetry_equiv_pos_site_id
 _symmetry_equiv_pos_as_xyz
  1  'x, y, z'
loop_
 _atom_site_type_symbol
 _atom_site_label
 _atom_site_symmetry_multiplicity
 _atom_site_fract_x
 _atom_site_fract_y
 _atom_site_fract_z
 _atom_site_occupancy
  La  La0  1  0.51314500  0.05197700  0.24920600  1
  La  La1  1  0.01366000  0.44568600  0.74985400  1
  La  La2  1  0.48983200  0.94412800  0.75091500  1
  Zn  Zn3  1  0.00295500  0.99761100  0.49902400  1
  Cu  Cu4  1  0.49836300  0.50441600  0.00284600  1
  Rh  Rh5  1  0.49854700  0.50130400  0.49893700  1
  Rh  Rh6  1  0.00202400  0.00393700  0.00132700  1
  Pb  Pb7  1  0.99103000  0.55408800  0.25316500  1
  O  O8  1  0.08510800  0.95400100  0.24397000  1
  O  O9  1  0.39453800  0.47048800  0.25615800  1
  O  O10  1  0.90809400  0.03301700  0.75135000  1
  O  O11  1  0.59552700  0.52345000  0.74711300  1
  O  O12  1  0.80957400  0.29679900  0.05576000  1
  O  O13  1  0.68773700  0.79722600  0.45436500  1
  O  O14  1  0.20474000  0.69319400  0.54733800  1
  O  O15  1  0.30192600  0.20168700  0.95392800  1
  O  O16  1  0.19452800  0.71442900  0.94743600  1
  O  O17  1  0.30888300  0.20057500  0.54681000  1
  O  O18  1  0.79653200  0.31017000  0.44612900  1
  O  O19  1  0.70325900  0.80181500  0.04436800  1
