data_image0
_chemical_formula_structural       Au2N2Sr4
_chemical_formula_sum              "Au2 N2 Sr4"
_cell_length_a       3.76501
_cell_length_b       5.27819
_cell_length_c       9.75086
_cell_angle_alpha    90
_cell_angle_beta     78.8686
_cell_angle_gamma    90

_space_group_name_H-M_alt    "P 1"
_space_group_IT_number       1

loop_
  _space_group_symop_operation_xyz
  'x, y, z'

loop_
  _atom_site_type_symbol
  _atom_site_label
  _atom_site_symmetry_multiplicity
  _atom_site_fract_x
  _atom_site_fract_y
  _atom_site_fract_z
  _atom_site_occupancy
  Au  Au1       1.0  0.96000  0.25000  0.08000  1.0000
  Au  Au2       1.0  0.04000  0.75000  0.92000  1.0000
  N   N1        1.0  0.80800  0.75000  0.38500  1.0000
  N   N2        1.0  0.19200  0.25000  0.61500  1.0000
  Sr  Sr1       1.0  0.39900  0.75000  0.20100  1.0000
  Sr  Sr2       1.0  0.78600  0.25000  0.42900  1.0000
  Sr  Sr3       1.0  0.21400  0.75000  0.57100  1.0000
  Sr  Sr4       1.0  0.60100  0.25000  0.79900  1.0000
