# generated using pymatgen
data_K7Rb5(Fe2O5)2
_symmetry_space_group_name_H-M   'P 1'
_cell_length_a   7.01437000
_cell_length_b   9.72165305
_cell_length_c   9.72694531
_cell_angle_alpha   73.98093748
_cell_angle_beta   68.94576918
_cell_angle_gamma   68.92951132
_symmetry_Int_Tables_number   1
_chemical_formula_structural   K7Rb5(Fe2O5)2
_chemical_formula_sum   'K7 Rb5 Fe4 O10'
_cell_volume   569.35777235
_cell_formula_units_Z   1
loop_
 _symmetry_equiv_pos_site_id
 _symmetry_equiv_pos_as_xyz
  1  'x, y, z'
loop_
 _atom_site_type_symbol
 _atom_site_label
 _atom_site_symmetry_multiplicity
 _atom_site_fract_x
 _atom_site_fract_y
 _atom_site_fract_z
 _atom_site_occupancy
  K  K0  1  0.50063800  0.28004100  0.72023500  1
  K  K1  1  0.99851500  0.78154800  0.22170400  1
  K  K2  1  0.49872500  0.72159000  0.28123800  1
  K  K3  1  0.00035000  0.22061200  0.78021500  1
  K  K4  1  0.75170800  0.48919800  0.00905400  1
  K  K5  1  0.25169600  0.98946000  0.50888900  1
  K  K6  1  0.75159100  0.00889500  0.48953600  1
  Rb  Rb7  1  0.75267100  0.90743000  0.90642600  1
  Rb  Rb8  1  0.25206100  0.40638000  0.40799800  1
  Rb  Rb9  1  0.74411300  0.59452700  0.59341000  1
  Rb  Rb10  1  0.24451800  0.09298400  0.09456800  1
  Rb  Rb11  1  0.25052600  0.50750500  0.99164900  1
  Fe  Fe12  1  0.15089900  0.65358800  0.65155200  1
  Fe  Fe13  1  0.65335700  0.15104400  0.15283400  1
  Fe  Fe14  1  0.36221600  0.84415000  0.84220600  1
  Fe  Fe15  1  0.85945500  0.34297900  0.34492400  1
  O  O16  1  0.08803400  0.75453500  0.47032900  1
  O  O17  1  0.59653600  0.24806600  0.96944200  1
  O  O18  1  0.08771100  0.47211200  0.75195400  1
  O  O19  1  0.58838300  0.97080000  0.25508100  1
  O  O20  1  0.40938100  0.74961100  0.02958600  1
  O  O21  1  0.90855700  0.24652000  0.53111800  1
  O  O22  1  0.40893800  0.03144800  0.74709300  1
  O  O23  1  0.90028600  0.53208900  0.25361600  1
  O  O24  1  0.29132700  0.73901300  0.73220400  1
  O  O25  1  0.79171000  0.23597600  0.23524100  1
