# generated using pymatgen
data_KZnP2H5O9
_symmetry_space_group_name_H-M   'P 1'
_cell_length_a   6.65148700
_cell_length_b   7.80505200
_cell_length_c   15.70425400
_cell_angle_alpha   90.00000000
_cell_angle_beta   90.00000000
_cell_angle_gamma   90.00000000
_symmetry_Int_Tables_number   1
_chemical_formula_structural   KZnP2H5O9
_chemical_formula_sum   'K4 Zn4 P8 H20 O36'
_cell_volume   815.28951729
_cell_formula_units_Z   4
loop_
 _symmetry_equiv_pos_site_id
 _symmetry_equiv_pos_as_xyz
  1  'x, y, z'
loop_
 _atom_site_type_symbol
 _atom_site_label
 _atom_site_symmetry_multiplicity
 _atom_site_fract_x
 _atom_site_fract_y
 _atom_site_fract_z
 _atom_site_occupancy
  K  K0  1  0.37631100  0.74701700  0.53532200  1
  K  K1  1  0.12368900  0.74701700  0.03532200  1
  K  K2  1  0.62368900  0.24701700  0.46467800  1
  K  K3  1  0.87631100  0.24701700  0.96467800  1
  Zn  Zn4  1  0.06251800  0.75063500  0.80354300  1
  Zn  Zn5  1  0.43748200  0.75063500  0.30354300  1
  Zn  Zn6  1  0.93748200  0.25063500  0.19645700  1
  Zn  Zn7  1  0.56251800  0.25063500  0.69645700  1
  P  P8  1  0.85491700  0.93904200  0.63818600  1
  P  P9  1  0.63392800  0.55622800  0.13539400  1
  P  P10  1  0.14508300  0.43904200  0.36181400  1
  P  P11  1  0.36607200  0.05622800  0.86460600  1
  P  P12  1  0.13392800  0.05622800  0.36460600  1
  P  P13  1  0.35491700  0.43904200  0.86181400  1
  P  P14  1  0.86607200  0.55622800  0.63539400  1
  P  P15  1  0.64508300  0.93904200  0.13818600  1
  H  H16  1  0.88961000  0.14611500  0.76651700  1
  H  H17  1  0.61119000  0.35728500  0.26536300  1
  H  H18  1  0.11039000  0.64611500  0.23348300  1
  H  H19  1  0.38881000  0.85728500  0.73463700  1
  H  H20  1  0.11119000  0.85728500  0.23463700  1
  H  H21  1  0.38961000  0.64611500  0.73348300  1
  H  H22  1  0.88881000  0.35728500  0.76536300  1
  H  H23  1  0.61039000  0.14611500  0.26651700  1
  H  H24  1  0.22932100  0.15145500  0.60748800  1
  H  H25  1  0.27372600  0.35320500  0.10498700  1
  H  H26  1  0.77067900  0.65145500  0.39251200  1
  H  H27  1  0.72627400  0.85320500  0.89501300  1
  H  H28  1  0.77372600  0.85320500  0.39501300  1
  H  H29  1  0.72932100  0.65145500  0.89251200  1
  H  H30  1  0.22627400  0.35320500  0.60498700  1
  H  H31  1  0.27067900  0.15145500  0.10748800  1
  H  H32  1  0.00492600  0.99755800  0.51217600  1
  H  H33  1  0.99507400  0.49755800  0.48782400  1
  H  H34  1  0.50492600  0.49755800  0.98782400  1
  H  H35  1  0.49507400  0.99755800  0.01217600  1
  O  O36  1  0.68162500  0.05670900  0.61570800  1
  O  O37  1  0.81175700  0.44002900  0.11568300  1
  O  O38  1  0.31837500  0.55670900  0.38429200  1
  O  O39  1  0.18824300  0.94002900  0.88431700  1
  O  O40  1  0.31175700  0.94002900  0.38431700  1
  O  O41  1  0.18162500  0.55670900  0.88429200  1
  O  O42  1  0.68824300  0.44002900  0.61568300  1
  O  O43  1  0.81837500  0.05670900  0.11570800  1
  O  O44  1  0.81483600  0.25156100  0.78332300  1
  O  O45  1  0.68516400  0.25156100  0.28332300  1
  O  O46  1  0.18516400  0.75156100  0.21667700  1
  O  O47  1  0.31483600  0.75156100  0.71667700  1
  O  O48  1  0.92677600  0.94347700  0.72965600  1
  O  O49  1  0.56878500  0.55635700  0.22884700  1
  O  O50  1  0.07322400  0.44347700  0.27034400  1
  O  O51  1  0.43121500  0.05635700  0.77115300  1
  O  O52  1  0.06878500  0.05635700  0.27115300  1
  O  O53  1  0.42677600  0.44347700  0.77034400  1
  O  O54  1  0.93121500  0.55635700  0.72884700  1
  O  O55  1  0.57322400  0.94347700  0.22965600  1
  O  O56  1  0.77586800  0.74913600  0.61385100  1
  O  O57  1  0.72413200  0.74913600  0.11385100  1
  O  O58  1  0.22413200  0.24913600  0.38614900  1
  O  O59  1  0.27586800  0.24913600  0.88614900  1
  O  O60  1  0.31777200  0.25253200  0.60577900  1
  O  O61  1  0.18222800  0.25253200  0.10577900  1
  O  O62  1  0.68222800  0.75253200  0.39422100  1
  O  O63  1  0.81777200  0.75253200  0.89422100  1
  O  O64  1  0.04251400  0.97477700  0.57805900  1
  O  O65  1  0.45566900  0.52748300  0.07404300  1
  O  O66  1  0.95748600  0.47477700  0.42194100  1
  O  O67  1  0.54433100  0.02748300  0.92595700  1
  O  O68  1  0.95566900  0.02748300  0.42595700  1
  O  O69  1  0.54251400  0.47477700  0.92194100  1
  O  O70  1  0.04433100  0.52748300  0.57404300  1
  O  O71  1  0.45748600  0.97477700  0.07805900  1
