# generated using pymatgen
data_La4Ti2Se5O4
_symmetry_space_group_name_H-M   'P 1'
_cell_length_a   16.77210175
_cell_length_b   16.77210175
_cell_length_c   18.68550500
_cell_angle_alpha   90.00000000
_cell_angle_beta   90.00000000
_cell_angle_gamma   166.17822670
_symmetry_Int_Tables_number   1
_chemical_formula_structural   La4Ti2Se5O4
_chemical_formula_sum   'La16 Ti8 Se20 O16'
_cell_volume   1255.74219413
_cell_formula_units_Z   4
loop_
 _symmetry_equiv_pos_site_id
 _symmetry_equiv_pos_as_xyz
  1  'x, y, z'
loop_
 _atom_site_type_symbol
 _atom_site_label
 _atom_site_symmetry_multiplicity
 _atom_site_fract_x
 _atom_site_fract_y
 _atom_site_fract_z
 _atom_site_occupancy
  La  La0  1  0.89678800  0.10321200  0.45492400  1
  La  La1  1  0.10314400  0.89685600  0.54375900  1
  La  La2  1  0.89685600  0.10314400  0.04375900  1
  La  La3  1  0.10321200  0.89678800  0.95492400  1
  La  La4  1  0.45771500  0.54228500  0.25048700  1
  La  La5  1  0.54228500  0.45771500  0.75048700  1
  La  La6  1  0.74140500  0.25859500  0.86159000  1
  La  La7  1  0.25754000  0.74246000  0.13814600  1
  La  La8  1  0.74246000  0.25754000  0.63814600  1
  La  La9  1  0.25859500  0.74140500  0.36159000  1
  La  La10  1  0.68421300  0.31578700  0.25011400  1
  La  La11  1  0.31578700  0.68421300  0.75011400  1
  La  La12  1  0.56576200  0.43423800  0.37964400  1
  La  La13  1  0.43417800  0.56582200  0.61989300  1
  La  La14  1  0.56582200  0.43417800  0.11989300  1
  La  La15  1  0.43423800  0.56576200  0.87964400  1
  Ti  Ti16  1  0.67136800  0.32863200  0.43758800  1
  Ti  Ti17  1  0.32885100  0.67114900  0.56214300  1
  Ti  Ti18  1  0.67114900  0.32885100  0.06214300  1
  Ti  Ti19  1  0.32863200  0.67136800  0.93758800  1
  Ti  Ti20  1  0.99996100  0.00003900  0.50020800  1
  Ti  Ti21  1  0.00003900  0.99996100  0.00020800  1
  Ti  Ti22  1  0.87043100  0.12956900  0.25218200  1
  Ti  Ti23  1  0.12956900  0.87043100  0.75218200  1
  Se  Se24  1  0.86366100  0.13633900  0.85037600  1
  Se  Se25  1  0.13636800  0.86363200  0.14987500  1
  Se  Se26  1  0.86363200  0.13636800  0.64987500  1
  Se  Se27  1  0.13633900  0.86366100  0.35037600  1
  Se  Se28  1  0.79267800  0.20732200  0.24937900  1
  Se  Se29  1  0.20732200  0.79267800  0.74937900  1
  Se  Se30  1  0.80205900  0.19794100  0.48435800  1
  Se  Se31  1  0.19758000  0.80242000  0.51674000  1
  Se  Se32  1  0.80242000  0.19758000  0.01674000  1
  Se  Se33  1  0.19794100  0.80205900  0.98435800  1
  Se  Se34  1  0.47341800  0.52658200  0.41564900  1
  Se  Se35  1  0.52675800  0.47324200  0.58549700  1
  Se  Se36  1  0.47324200  0.52675800  0.08549700  1
  Se  Se37  1  0.52658200  0.47341800  0.91564900  1
  Se  Se38  1  0.03336700  0.96663300  0.24998500  1
  Se  Se39  1  0.96663300  0.03336700  0.74998500  1
  Se  Se40  1  0.36435200  0.63564800  0.34495500  1
  Se  Se41  1  0.63001400  0.36998600  0.66001900  1
  Se  Se42  1  0.36998600  0.63001400  0.16001900  1
  Se  Se43  1  0.63564800  0.36435200  0.84495500  1
  O  O44  1  0.61620700  0.38379300  0.47818200  1
  O  O45  1  0.38383700  0.61616300  0.52191300  1
  O  O46  1  0.61616300  0.38383700  0.02191300  1
  O  O47  1  0.38379300  0.61620700  0.97818200  1
  O  O48  1  0.94883500  0.05116500  0.94868700  1
  O  O49  1  0.05110300  0.94889700  0.05134300  1
  O  O50  1  0.94889700  0.05110300  0.55134300  1
  O  O51  1  0.05116500  0.94883500  0.44868700  1
  O  O52  1  0.71617300  0.28382700  0.37138800  1
  O  O53  1  0.28400100  0.71599900  0.62884800  1
  O  O54  1  0.71599900  0.28400100  0.12884800  1
  O  O55  1  0.28382700  0.71617300  0.87138800  1
  O  O56  1  0.22081600  0.77918400  0.24993600  1
  O  O57  1  0.77918400  0.22081600  0.74993600  1
  O  O58  1  0.92706600  0.07293400  0.26069200  1
  O  O59  1  0.07293400  0.92706600  0.76069200  1
