# generated using pymatgen
data_KAl3(SiO4)3
_symmetry_space_group_name_H-M   'P 1'
_cell_length_a   5.27908773
_cell_length_b   5.27908773
_cell_length_c   30.68184700
_cell_angle_alpha   90.00000000
_cell_angle_beta   90.00000000
_cell_angle_gamma   119.99999656
_symmetry_Int_Tables_number   1
_chemical_formula_structural   KAl3(SiO4)3
_chemical_formula_sum   'K3 Al9 Si9 O36'
_cell_volume   740.50825558
_cell_formula_units_Z   3
loop_
 _symmetry_equiv_pos_site_id
 _symmetry_equiv_pos_as_xyz
  1  'x, y, z'
loop_
 _atom_site_type_symbol
 _atom_site_label
 _atom_site_symmetry_multiplicity
 _atom_site_fract_x
 _atom_site_fract_y
 _atom_site_fract_z
 _atom_site_occupancy
  K  K0  1  0.26486800  0.13334400  0.50745500  1
  K  K1  1  0.86847600  0.73513200  0.17412200  1
  K  K2  1  0.86665600  0.13152400  0.84078900  1
  Al  Al3  1  0.22710700  0.10891000  0.99850300  1
  Al  Al4  1  0.88180300  0.77289300  0.66516900  1
  Al  Al5  1  0.89109000  0.11819700  0.33183600  1
  Al  Al6  1  0.51627200  0.75775400  0.99818800  1
  Al  Al7  1  0.24148200  0.48372800  0.66485500  1
  Al  Al8  1  0.24224600  0.75851800  0.33152200  1
  Al  Al9  1  0.58178600  0.79358900  0.57694700  1
  Al  Al10  1  0.21180300  0.41821400  0.24361300  1
  Al  Al11  1  0.20641100  0.78819700  0.91028000  1
  Si  Si12  1  0.92629200  0.47939300  0.57547400  1
  Si  Si13  1  0.55310100  0.07370800  0.24214100  1
  Si  Si14  1  0.52060700  0.44689900  0.90880700  1
  Si  Si15  1  0.92247700  0.45256200  0.42217800  1
  Si  Si16  1  0.54743800  0.46991500  0.75551100  1
  Si  Si17  1  0.53008500  0.07752300  0.08884400  1
  Si  Si18  1  0.58003300  0.79743100  0.42174100  1
  Si  Si19  1  0.20256900  0.78260200  0.75507500  1
  Si  Si20  1  0.21739800  0.41996700  0.08840800  1
  O  O21  1  0.16247200  0.12764800  0.63800400  1
  O  O22  1  0.96517600  0.83752800  0.30467100  1
  O  O23  1  0.87235200  0.03482400  0.97133800  1
  O  O24  1  0.15463000  0.02456300  0.36213200  1
  O  O25  1  0.97543700  0.13006600  0.69546500  1
  O  O26  1  0.86993400  0.84537000  0.02879800  1
  O  O27  1  0.23846400  0.54927500  0.55453000  1
  O  O28  1  0.31081200  0.76153600  0.22119700  1
  O  O29  1  0.45072500  0.68918800  0.88786400  1
  O  O30  1  0.25098200  0.65637900  0.44360200  1
  O  O31  1  0.34362100  0.59460400  0.77693500  1
  O  O32  1  0.40539600  0.74901800  0.11026900  1
  O  O33  1  0.56635700  0.73277600  0.63364800  1
  O  O34  1  0.16642000  0.43364300  0.30031500  1
  O  O35  1  0.26722400  0.83358000  0.96698200  1
  O  O36  1  0.56346500  0.83426900  0.36927400  1
  O  O37  1  0.16573100  0.72919500  0.70260800  1
  O  O38  1  0.27080500  0.43653500  0.03594100  1
  O  O39  1  0.96840700  0.53101300  0.62978200  1
  O  O40  1  0.56260600  0.03159300  0.29644900  1
  O  O41  1  0.46898700  0.43739400  0.96311500  1
  O  O42  1  0.95186500  0.43307700  0.36990400  1
  O  O43  1  0.56692300  0.51878700  0.70323700  1
  O  O44  1  0.48121300  0.04813500  0.03657000  1
  O  O45  1  0.83587800  0.70764500  0.55472500  1
  O  O46  1  0.87176700  0.16412200  0.22139200  1
  O  O47  1  0.29235500  0.12823300  0.88805900  1
  O  O48  1  0.78278800  0.12342800  0.44417400  1
  O  O49  1  0.87657200  0.65936000  0.77750700  1
  O  O50  1  0.34064000  0.21721200  0.11084000  1
  O  O51  1  0.67504000  0.14950200  0.56291700  1
  O  O52  1  0.47446200  0.32496000  0.22958400  1
  O  O53  1  0.85049800  0.52553800  0.89625000  1
  O  O54  1  0.71548500  0.58973200  0.43672200  1
  O  O55  1  0.41026800  0.12575300  0.77005500  1
  O  O56  1  0.87424700  0.28451500  0.10338900  1
