# generated using pymatgen
data_KCeFeMoO6
_symmetry_space_group_name_H-M   'P 1'
_cell_length_a   6.32119500
_cell_length_b   5.95489400
_cell_length_c   9.81339784
_cell_angle_alpha   58.87283125
_cell_angle_beta   90.00000000
_cell_angle_gamma   90.00000000
_symmetry_Int_Tables_number   1
_chemical_formula_structural   KCeFeMoO6
_chemical_formula_sum   'K2 Ce2 Fe2 Mo2 O12'
_cell_volume   316.21144429
_cell_formula_units_Z   2
loop_
 _symmetry_equiv_pos_site_id
 _symmetry_equiv_pos_as_xyz
  1  'x, y, z'
loop_
 _atom_site_type_symbol
 _atom_site_label
 _atom_site_symmetry_multiplicity
 _atom_site_fract_x
 _atom_site_fract_y
 _atom_site_fract_z
 _atom_site_occupancy
  K  K0  1  0.79985200  0.74291600  0.74466000  1
  K  K1  1  0.20014800  0.74291600  0.24466000  1
  Ce  Ce2  1  0.78121800  0.19130300  0.30654800  1
  Ce  Ce3  1  0.21878200  0.19130300  0.80654800  1
  Fe  Fe4  1  0.60553300  0.51556800  0.50019400  1
  Fe  Fe5  1  0.39446700  0.51556800  0.00019400  1
  Mo  Mo6  1  0.69349900  0.96773900  0.99499800  1
  Mo  Mo7  1  0.30650100  0.96773900  0.49499800  1
  O  O8  1  0.38155800  0.56958700  0.63744500  1
  O  O9  1  0.61844200  0.56958700  0.13744500  1
  O  O10  1  0.13242700  0.23536300  0.54139600  1
  O  O11  1  0.86757300  0.23536300  0.04139600  1
  O  O12  1  0.46291800  0.89567300  0.85617800  1
  O  O13  1  0.53708200  0.89567300  0.35617800  1
  O  O14  1  0.10041100  0.27340600  0.01334600  1
  O  O15  1  0.89958900  0.27340600  0.51334600  1
  O  O16  1  0.53419600  0.22064600  0.47098600  1
  O  O17  1  0.46580400  0.22064600  0.97098600  1
  O  O18  1  0.00913500  0.88779800  0.43425000  1
  O  O19  1  0.99086500  0.88779800  0.93425000  1
