# generated using pymatgen
data_KMoP3WO12
_symmetry_space_group_name_H-M   'P 1'
_cell_length_a   9.03093900
_cell_length_b   9.38164600
_cell_length_c   12.66102600
_cell_angle_alpha   90.00000000
_cell_angle_beta   90.00000000
_cell_angle_gamma   90.00000000
_symmetry_Int_Tables_number   1
_chemical_formula_structural   KMoP3WO12
_chemical_formula_sum   'K4 Mo4 P12 W4 O48'
_cell_volume   1072.70634888
_cell_formula_units_Z   4
loop_
 _symmetry_equiv_pos_site_id
 _symmetry_equiv_pos_as_xyz
  1  'x, y, z'
loop_
 _atom_site_type_symbol
 _atom_site_label
 _atom_site_symmetry_multiplicity
 _atom_site_fract_x
 _atom_site_fract_y
 _atom_site_fract_z
 _atom_site_occupancy
  K  K0  1  0.82391300  0.08703600  0.75151100  1
  K  K1  1  0.17608700  0.41296400  0.25151100  1
  K  K2  1  0.82391300  0.91296400  0.24848900  1
  K  K3  1  0.17608700  0.58703600  0.74848900  1
  Mo  Mo4  1  0.24739400  0.22092900  0.59495100  1
  Mo  Mo5  1  0.75260600  0.27907100  0.09495100  1
  Mo  Mo6  1  0.24739400  0.77907100  0.40504900  1
  Mo  Mo7  1  0.75260600  0.72092900  0.90504900  1
  P  P8  1  0.96684200  0.00000000  0.50000000  1
  P  P9  1  0.03315800  0.50000000  0.00000000  1
  P  P10  1  0.02933700  0.50000000  0.50000000  1
  P  P11  1  0.97066300  0.00000000  0.00000000  1
  P  P12  1  0.40438800  0.88265200  0.63343600  1
  P  P13  1  0.59561200  0.61734800  0.13343600  1
  P  P14  1  0.40438800  0.11734800  0.36656400  1
  P  P15  1  0.59561200  0.38265200  0.86656400  1
  P  P16  1  0.59464600  0.61406800  0.36983300  1
  P  P17  1  0.40535400  0.88593200  0.86983300  1
  P  P18  1  0.59464600  0.38593200  0.63016700  1
  P  P19  1  0.40535400  0.11406800  0.13016700  1
  W  W20  1  0.75323500  0.27747000  0.39841600  1
  W  W21  1  0.24676500  0.22253000  0.89841600  1
  W  W22  1  0.75323500  0.72253000  0.60158400  1
  W  W23  1  0.24676500  0.77747000  0.10158400  1
  O  O24  1  0.12175900  0.41358800  0.57864200  1
  O  O25  1  0.87824100  0.08641200  0.07864200  1
  O  O26  1  0.12175900  0.58641200  0.42135800  1
  O  O27  1  0.87824100  0.91358800  0.92135800  1
  O  O28  1  0.86176200  0.09437300  0.43150400  1
  O  O29  1  0.13823800  0.40562700  0.93150400  1
  O  O30  1  0.86176200  0.90562700  0.56849600  1
  O  O31  1  0.13823800  0.59437300  0.06849600  1
  O  O32  1  0.05455900  0.09072000  0.57823300  1
  O  O33  1  0.94544100  0.40928000  0.07823300  1
  O  O34  1  0.05455900  0.90928000  0.42176700  1
  O  O35  1  0.94544100  0.59072000  0.92176700  1
  O  O36  1  0.93195900  0.39972800  0.43127700  1
  O  O37  1  0.06804100  0.10027200  0.93127700  1
  O  O38  1  0.93195900  0.60027200  0.56872300  1
  O  O39  1  0.06804100  0.89972800  0.06872300  1
  O  O40  1  0.20310400  0.23146400  0.75936100  1
  O  O41  1  0.79689600  0.26853600  0.25936100  1
  O  O42  1  0.20310400  0.76853600  0.24063900  1
  O  O43  1  0.79689600  0.73146400  0.74063900  1
  O  O44  1  0.38734100  0.04211000  0.62336200  1
  O  O45  1  0.61265900  0.45789000  0.12336200  1
  O  O46  1  0.38734100  0.95789000  0.37663800  1
  O  O47  1  0.61265900  0.54211000  0.87663800  1
  O  O48  1  0.62477000  0.45431400  0.38065800  1
  O  O49  1  0.37523000  0.04568600  0.88065800  1
  O  O50  1  0.62477000  0.54568600  0.61934200  1
  O  O51  1  0.37523000  0.95431400  0.11934200  1
  O  O52  1  0.30101500  0.21310600  0.42989100  1
  O  O53  1  0.69898500  0.28689400  0.92989100  1
  O  O54  1  0.30101500  0.78689400  0.57010900  1
  O  O55  1  0.69898500  0.71310600  0.07010900  1
  O  O56  1  0.69705700  0.29527300  0.55880500  1
  O  O57  1  0.30294300  0.20472700  0.05880500  1
  O  O58  1  0.69705700  0.70472700  0.44119500  1
  O  O59  1  0.30294300  0.79527300  0.94119500  1
  O  O60  1  0.35288000  0.83691200  0.75335100  1
  O  O61  1  0.64712000  0.66308800  0.25335100  1
  O  O62  1  0.35288000  0.16308800  0.24664900  1
  O  O63  1  0.64712000  0.33691200  0.74664900  1
  O  O64  1  0.43186100  0.35856800  0.62014000  1
  O  O65  1  0.56813900  0.14143200  0.12014000  1
  O  O66  1  0.43186100  0.64143200  0.37986000  1
  O  O67  1  0.56813900  0.85856800  0.87986000  1
  O  O68  1  0.56943600  0.15257800  0.37936700  1
  O  O69  1  0.43056400  0.34742200  0.87936700  1
  O  O70  1  0.56943600  0.84742200  0.62063300  1
  O  O71  1  0.43056400  0.65257800  0.12063300  1
