# generated using pymatgen
data_In2S3
_symmetry_space_group_name_H-M   'P 1'
_cell_length_a   7.03520788
_cell_length_b   7.03520788
_cell_length_c   7.03520788
_cell_angle_alpha   147.09328595
_cell_angle_beta   130.60058681
_cell_angle_gamma   60.63718698
_symmetry_Int_Tables_number   1
_chemical_formula_structural   In2S3
_chemical_formula_sum   'In2 S3'
_cell_volume   142.29773644
_cell_formula_units_Z   1
loop_
 _symmetry_equiv_pos_site_id
 _symmetry_equiv_pos_as_xyz
  1  'x, y, z'
loop_
 _atom_site_type_symbol
 _atom_site_label
 _atom_site_symmetry_multiplicity
 _atom_site_fract_x
 _atom_site_fract_y
 _atom_site_fract_z
 _atom_site_occupancy
  In  In0  1  0.66715400  0.65938200  0.00777200  1
  In  In1  1  0.34839100  0.34061800  0.00777200  1
  S  S2  1  0.40587300  0.16506800  0.24080600  1
  S  S3  1  0.07573800  0.83493200  0.24080600  1
  S  S4  1  0.75284500  0.50000000  0.25284500  1
