# generated using pymatgen
data_HoCdIn
_symmetry_space_group_name_H-M   'P 1'
_cell_length_a   4.87861343
_cell_length_b   4.87861343
_cell_length_c   7.38368700
_cell_angle_alpha   90.00000000
_cell_angle_beta   90.00000000
_cell_angle_gamma   119.99999226
_symmetry_Int_Tables_number   1
_chemical_formula_structural   HoCdIn
_chemical_formula_sum   'Ho2 Cd2 In2'
_cell_volume   152.19372887
_cell_formula_units_Z   2
loop_
 _symmetry_equiv_pos_site_id
 _symmetry_equiv_pos_as_xyz
  1  'x, y, z'
loop_
 _atom_site_type_symbol
 _atom_site_label
 _atom_site_symmetry_multiplicity
 _atom_site_fract_x
 _atom_site_fract_y
 _atom_site_fract_z
 _atom_site_occupancy
  Ho  Ho0  1  0.00000000  0.00000000  0.26301700  1
  Ho  Ho1  1  0.00000000  0.00000000  0.73698300  1
  Cd  Cd2  1  0.33333300  0.66666700  0.47315600  1
  Cd  Cd3  1  0.66666700  0.33333300  0.52684400  1
  In  In4  1  0.66666700  0.33333300  0.95035800  1
  In  In5  1  0.33333300  0.66666700  0.04964200  1
