# generated using pymatgen
data_K7Na17(ZnSn2)4
_symmetry_space_group_name_H-M   'P 1'
_cell_length_a   9.99014900
_cell_length_b   11.40785194
_cell_length_c   11.61100008
_cell_angle_alpha   119.35593130
_cell_angle_beta   89.89258824
_cell_angle_gamma   90.25607734
_symmetry_Int_Tables_number   1
_chemical_formula_structural   K7Na17(ZnSn2)4
_chemical_formula_sum   'K7 Na17 Zn4 Sn8'
_cell_volume   1153.33083847
_cell_formula_units_Z   1
loop_
 _symmetry_equiv_pos_site_id
 _symmetry_equiv_pos_as_xyz
  1  'x, y, z'
loop_
 _atom_site_type_symbol
 _atom_site_label
 _atom_site_symmetry_multiplicity
 _atom_site_fract_x
 _atom_site_fract_y
 _atom_site_fract_z
 _atom_site_occupancy
  K  K0  1  0.96822800  0.68370100  0.64346800  1
  K  K1  1  0.46460300  0.81559500  0.35443100  1
  K  K2  1  0.03268300  0.31732200  0.35497800  1
  K  K3  1  0.53284600  0.18360400  0.64499700  1
  K  K4  1  0.60772800  0.79666000  0.67694300  1
  K  K5  1  0.89243700  0.29677400  0.67681200  1
  K  K6  1  0.39251000  0.20327900  0.32337700  1
  Na  Na7  1  0.15892200  0.07592400  0.00980400  1
  Na  Na8  1  0.65957900  0.42420500  0.99025700  1
  Na  Na9  1  0.84023400  0.92390200  0.99033500  1
  Na  Na10  1  0.33929600  0.57647600  0.01104700  1
  Na  Na11  1  0.67736100  0.42723700  0.50724300  1
  Na  Na12  1  0.17635200  0.06984800  0.49145900  1
  Na  Na13  1  0.32047200  0.57381800  0.49117600  1
  Na  Na14  1  0.82553800  0.92541100  0.50547200  1
  Na  Na15  1  0.78013000  0.73825100  0.16864400  1
  Na  Na16  1  0.27801700  0.76115800  0.83220000  1
  Na  Na17  1  0.22191800  0.26167800  0.83188800  1
  Na  Na18  1  0.72242900  0.23828800  0.16792300  1
  Na  Na19  1  0.97638300  0.38110600  0.07753500  1
  Na  Na20  1  0.47571700  0.12215400  0.92457800  1
  Na  Na21  1  0.02452700  0.62219000  0.92544900  1
  Na  Na22  1  0.52498600  0.87775500  0.07544500  1
  Na  Na23  1  0.10858100  0.70268500  0.32014900  1
  Zn  Zn24  1  0.53627000  0.48785000  0.25631800  1
  Zn  Zn25  1  0.03458600  0.01285800  0.74366300  1
  Zn  Zn26  1  0.46504400  0.51249900  0.74330900  1
  Zn  Zn27  1  0.96462100  0.98773400  0.25735300  1
  Sn  Sn28  1  0.30494300  0.38799400  0.14919300  1
  Sn  Sn29  1  0.80695500  0.11489400  0.85297900  1
  Sn  Sn30  1  0.69325200  0.61466200  0.85275500  1
  Sn  Sn31  1  0.19231900  0.88305200  0.15020400  1
  Sn  Sn32  1  0.77939500  0.57763700  0.33914700  1
  Sn  Sn33  1  0.27518500  0.92158300  0.65939000  1
  Sn  Sn34  1  0.22316100  0.42300100  0.66136100  1
  Sn  Sn35  1  0.72279500  0.07721500  0.33871600  1
