# generated using pymatgen
data_HgAu4
_symmetry_space_group_name_H-M   'P 1'
_cell_length_a   11.94129642
_cell_length_b   11.94129642
_cell_length_c   11.94129709
_cell_angle_alpha   14.73116683
_cell_angle_beta   14.73116683
_cell_angle_gamma   14.73116750
_symmetry_Int_Tables_number   1
_chemical_formula_structural   HgAu4
_chemical_formula_sum   'Hg1 Au4'
_cell_volume   95.87580729
_cell_formula_units_Z   1
loop_
 _symmetry_equiv_pos_site_id
 _symmetry_equiv_pos_as_xyz
  1  'x, y, z'
loop_
 _atom_site_type_symbol
 _atom_site_label
 _atom_site_symmetry_multiplicity
 _atom_site_fract_x
 _atom_site_fract_y
 _atom_site_fract_z
 _atom_site_occupancy
  Hg  Hg0  1  0.00000000  0.00000000  0.00000000  1
  Au  Au1  1  0.59704900  0.59704900  0.59704900  1
  Au  Au2  1  0.19889800  0.19889800  0.19889800  1
  Au  Au3  1  0.80110200  0.80110200  0.80110200  1
  Au  Au4  1  0.40295100  0.40295100  0.40295100  1
