# generated using pymatgen
data_K5C4Br
_symmetry_space_group_name_H-M   'P 1'
_cell_length_a   7.69528424
_cell_length_b   7.69528424
_cell_length_c   7.69528424
_cell_angle_alpha   99.76554616
_cell_angle_beta   99.76554616
_cell_angle_gamma   131.35833220
_symmetry_Int_Tables_number   1
_chemical_formula_structural   K5C4Br
_chemical_formula_sum   'K5 C4 Br1'
_cell_volume   311.68583341
_cell_formula_units_Z   1
loop_
 _symmetry_equiv_pos_site_id
 _symmetry_equiv_pos_as_xyz
  1  'x, y, z'
loop_
 _atom_site_type_symbol
 _atom_site_label
 _atom_site_symmetry_multiplicity
 _atom_site_fract_x
 _atom_site_fract_y
 _atom_site_fract_z
 _atom_site_occupancy
  K  K0  1  0.18578200  0.60933000  0.79511300  1
  K  K1  1  0.39067000  0.18578200  0.57645200  1
  K  K2  1  0.60933000  0.81421800  0.42354800  1
  K  K3  1  0.81421800  0.39067000  0.20488700  1
  K  K4  1  0.00000000  0.00000000  0.00000000  1
  C  C5  1  0.69624200  0.10299200  0.79923400  1
  C  C6  1  0.89700800  0.69624200  0.59325100  1
  C  C7  1  0.10299200  0.30375800  0.40674900  1
  C  C8  1  0.30375800  0.89700800  0.20076600  1
  Br  Br9  1  0.50000000  0.50000000  0.00000000  1
