# generated using pymatgen
data_K2AlFeB2P4(HO9)2
_symmetry_space_group_name_H-M   'P 1'
_cell_length_a   5.16897669
_cell_length_b   8.20631793
_cell_length_c   8.34446289
_cell_angle_alpha   86.30822973
_cell_angle_beta   80.68349699
_cell_angle_gamma   86.51925021
_symmetry_Int_Tables_number   1
_chemical_formula_structural   K2AlFeB2P4(HO9)2
_chemical_formula_sum   'K2 Al1 Fe1 B2 P4 H2 O18'
_cell_volume   348.10901411
_cell_formula_units_Z   1
loop_
 _symmetry_equiv_pos_site_id
 _symmetry_equiv_pos_as_xyz
  1  'x, y, z'
loop_
 _atom_site_type_symbol
 _atom_site_label
 _atom_site_symmetry_multiplicity
 _atom_site_fract_x
 _atom_site_fract_y
 _atom_site_fract_z
 _atom_site_occupancy
  K  K0  1  0.27739200  0.17255400  0.38245300  1
  K  K1  1  0.72453700  0.82648300  0.61683000  1
  Al  Al2  1  0.73278500  0.30348700  0.69194600  1
  Fe  Fe3  1  0.26810900  0.69423600  0.31029000  1
  B  B4  1  0.87823800  0.23332400  0.05283000  1
  B  B5  1  0.12402000  0.76899300  0.94370800  1
  P  P6  1  0.77969000  0.43550200  0.31666400  1
  P  P7  1  0.21519400  0.55473300  0.68965300  1
  P  P8  1  0.20232700  0.08863700  0.80094700  1
  P  P9  1  0.80075900  0.91861900  0.19643200  1
  H  H10  1  0.55130200  0.35806000  0.98466500  1
  H  H11  1  0.45235900  0.63970800  0.00714400  1
  O  O12  1  0.13186900  0.17366300  0.96648800  1
  O  O13  1  0.87260500  0.82834300  0.03427100  1
  O  O14  1  0.75289600  0.30601300  0.46115100  1
  O  O15  1  0.25162900  0.68948000  0.54971800  1
  O  O16  1  0.50479600  0.49112400  0.27665200  1
  O  O17  1  0.48845200  0.48843900  0.72314800  1
  O  O18  1  0.97091500  0.10950600  0.70480500  1
  O  O19  1  0.03101200  0.90596100  0.29306300  1
  O  O20  1  0.45758200  0.15261000  0.70662200  1
  O  O21  1  0.55133900  0.85474800  0.29774800  1
  O  O22  1  0.94027500  0.35191800  0.16371000  1
  O  O23  1  0.06146400  0.64360900  0.84141200  1
  O  O24  1  0.26452500  0.90196800  0.83904400  1
  O  O25  1  0.72800700  0.10204200  0.15136900  1
  O  O26  1  0.71520600  0.30643500  0.93270500  1
  O  O27  1  0.29501300  0.69858600  0.05882800  1
  O  O28  1  0.03925100  0.42261700  0.65854000  1
  O  O29  1  0.93645100  0.57860300  0.34716400  1
