# generated using pymatgen
data_In2AgSe3Cl
_symmetry_space_group_name_H-M   'P 1'
_cell_length_a   8.06875927
_cell_length_b   8.06875927
_cell_length_c   8.06875898
_cell_angle_alpha   61.13748306
_cell_angle_beta   61.13748306
_cell_angle_gamma   61.13748260
_symmetry_Int_Tables_number   1
_chemical_formula_structural   In2AgSe3Cl
_chemical_formula_sum   'In4 Ag2 Se6 Cl2'
_cell_volume   380.96256828
_cell_formula_units_Z   2
loop_
 _symmetry_equiv_pos_site_id
 _symmetry_equiv_pos_as_xyz
  1  'x, y, z'
loop_
 _atom_site_type_symbol
 _atom_site_label
 _atom_site_symmetry_multiplicity
 _atom_site_fract_x
 _atom_site_fract_y
 _atom_site_fract_z
 _atom_site_occupancy
  In  In0  1  0.00000000  0.00000000  0.00000000  1
  In  In1  1  0.00000000  0.50000000  0.00000000  1
  In  In2  1  0.50000000  0.00000000  0.00000000  1
  In  In3  1  0.00000000  0.00000000  0.50000000  1
  Ag  Ag4  1  0.60187900  0.60187900  0.60187900  1
  Ag  Ag5  1  0.39812100  0.39812100  0.39812100  1
  Se  Se6  1  0.24143200  0.78391500  0.24143200  1
  Se  Se7  1  0.78391500  0.24143200  0.24143200  1
  Se  Se8  1  0.24143200  0.24143200  0.78391500  1
  Se  Se9  1  0.75856800  0.21608500  0.75856800  1
  Se  Se10  1  0.21608500  0.75856800  0.75856800  1
  Se  Se11  1  0.75856800  0.75856800  0.21608500  1
  Cl  Cl12  1  0.24916000  0.24916000  0.24916000  1
  Cl  Cl13  1  0.75084000  0.75084000  0.75084000  1
