# generated using pymatgen
data_Ho9Er3(MnBi2)2
_symmetry_space_group_name_H-M   'P 1'
_cell_length_a   4.28130500
_cell_length_b   8.24111289
_cell_length_c   14.26926310
_cell_angle_alpha   90.00325010
_cell_angle_beta   90.00000000
_cell_angle_gamma   90.00000000
_symmetry_Int_Tables_number   1
_chemical_formula_structural   Ho9Er3(MnBi2)2
_chemical_formula_sum   'Ho9 Er3 Mn2 Bi4'
_cell_volume   503.45838291
_cell_formula_units_Z   1
loop_
 _symmetry_equiv_pos_site_id
 _symmetry_equiv_pos_as_xyz
  1  'x, y, z'
loop_
 _atom_site_type_symbol
 _atom_site_label
 _atom_site_symmetry_multiplicity
 _atom_site_fract_x
 _atom_site_fract_y
 _atom_site_fract_z
 _atom_site_occupancy
  Ho  Ho0  1  0.50000000  0.69614200  0.69622800  1
  Ho  Ho1  1  0.50000000  0.69609300  0.30375200  1
  Ho  Ho2  1  0.50000000  0.19612500  0.80377400  1
  Ho  Ho3  1  0.00000000  0.23373700  0.00008200  1
  Ho  Ho4  1  0.00000000  0.73374800  0.49999600  1
  Ho  Ho5  1  0.00000000  0.38298400  0.38350600  1
  Ho  Ho6  1  0.00000000  0.88303500  0.88357500  1
  Ho  Ho7  1  0.00000000  0.88313900  0.11650500  1
  Ho  Ho8  1  0.00000000  0.38299500  0.61646500  1
  Er  Er9  1  0.50000000  0.10804200  0.49998100  1
  Er  Er10  1  0.50000000  0.60807400  0.99999400  1
  Er  Er11  1  0.50000000  0.19593700  0.19608600  1
  Mn  Mn12  1  0.50000000  0.99981400  0.00011000  1
  Mn  Mn13  1  0.50000000  0.49968400  0.50001500  1
  Bi  Bi14  1  0.00000000  0.00018200  0.33320200  1
  Bi  Bi15  1  0.00000000  0.50009200  0.83330000  1
  Bi  Bi16  1  0.00000000  0.49992200  0.16671200  1
  Bi  Bi17  1  0.00000000  0.00005500  0.66671700  1
