# generated using pymatgen
data_In2AsP
_symmetry_space_group_name_H-M   'P 1'
_cell_length_a   7.44988425
_cell_length_b   7.44988425
_cell_length_c   7.44988483
_cell_angle_alpha   33.53605388
_cell_angle_beta   33.53605388
_cell_angle_gamma   33.53605010
_symmetry_Int_Tables_number   1
_chemical_formula_structural   In2AsP
_chemical_formula_sum   'In2 As1 P1'
_cell_volume   112.40368211
_cell_formula_units_Z   1
loop_
 _symmetry_equiv_pos_site_id
 _symmetry_equiv_pos_as_xyz
  1  'x, y, z'
loop_
 _atom_site_type_symbol
 _atom_site_label
 _atom_site_symmetry_multiplicity
 _atom_site_fract_x
 _atom_site_fract_y
 _atom_site_fract_z
 _atom_site_occupancy
  In  In0  1  0.00230000  0.00230000  0.00230000  1
  In  In1  1  0.49757600  0.49757600  0.49757600  1
  As  As2  1  0.87525500  0.87525500  0.87525500  1
  P  P3  1  0.37487000  0.37487000  0.37487000  1
