data_image0
_chemical_formula_structural       Au2Cl2Te4
_chemical_formula_sum              "Au2 Cl2 Te4"
_cell_length_a       4.11925
_cell_length_b       6.50121
_cell_length_c       8.76938
_cell_angle_alpha    90
_cell_angle_beta     90
_cell_angle_gamma    71.5301

_space_group_name_H-M_alt    "P 1"
_space_group_IT_number       1

loop_
  _space_group_symop_operation_xyz
  'x, y, z'

loop_
  _atom_site_type_symbol
  _atom_site_label
  _atom_site_symmetry_multiplicity
  _atom_site_fract_x
  _atom_site_fract_y
  _atom_site_fract_z
  _atom_site_occupancy
  Au  Au1       1.0  0.91300  0.17400  0.25000  1.0000
  Au  Au2       1.0  0.08720  0.82600  0.75000  1.0000
  Cl  Cl1       1.0  0.16700  0.66600  0.25000  1.0000
  Cl  Cl2       1.0  0.83300  0.33400  0.75000  1.0000
  Te  Te1       1.0  0.39100  0.21700  0.04970  1.0000
  Te  Te2       1.0  0.39100  0.21700  0.45000  1.0000
  Te  Te3       1.0  0.60900  0.78300  0.55000  1.0000
  Te  Te4       1.0  0.60900  0.78300  0.95000  1.0000
