# generated using pymatgen
data_K5Bi4
_symmetry_space_group_name_H-M   'P 1'
_cell_length_a   7.00005656
_cell_length_b   7.00005656
_cell_length_c   11.72148408
_cell_angle_alpha   70.73460206
_cell_angle_beta   70.73460206
_cell_angle_gamma   47.85542275
_symmetry_Int_Tables_number   1
_chemical_formula_structural   K5Bi4
_chemical_formula_sum   'K5 Bi4'
_cell_volume   397.15079497
_cell_formula_units_Z   1
loop_
 _symmetry_equiv_pos_site_id
 _symmetry_equiv_pos_as_xyz
  1  'x, y, z'
loop_
 _atom_site_type_symbol
 _atom_site_label
 _atom_site_symmetry_multiplicity
 _atom_site_fract_x
 _atom_site_fract_y
 _atom_site_fract_z
 _atom_site_occupancy
  K  K0  1  0.74588000  0.74588000  0.66754900  1
  K  K1  1  0.25868800  0.25868800  0.33468300  1
  K  K2  1  0.40539100  0.40539100  0.88881900  1
  K  K3  1  0.59450000  0.59450000  0.11426200  1
  K  K4  1  0.50639500  0.50639500  0.49673800  1
  Bi  Bi5  1  0.04330200  0.04330200  0.67283300  1
  Bi  Bi6  1  0.95657300  0.95657300  0.33237500  1
  Bi  Bi7  1  0.11082700  0.11082700  0.89329100  1
  Bi  Bi8  1  0.89044300  0.89044300  0.11045100  1
