# generated using pymatgen
data_Ho4CdS7
_symmetry_space_group_name_H-M   'P 1'
_cell_length_a   6.64256332
_cell_length_b   6.64256332
_cell_length_c   11.56696204
_cell_angle_alpha   75.80851182
_cell_angle_beta   75.80851182
_cell_angle_gamma   33.47151931
_symmetry_Int_Tables_number   1
_chemical_formula_structural   Ho4CdS7
_chemical_formula_sum   'Ho4 Cd1 S7'
_cell_volume   272.10362381
_cell_formula_units_Z   1
loop_
 _symmetry_equiv_pos_site_id
 _symmetry_equiv_pos_as_xyz
  1  'x, y, z'
loop_
 _atom_site_type_symbol
 _atom_site_label
 _atom_site_symmetry_multiplicity
 _atom_site_fract_x
 _atom_site_fract_y
 _atom_site_fract_z
 _atom_site_occupancy
  Ho  Ho0  1  0.69371100  0.69371100  0.19909600  1
  Ho  Ho1  1  0.30724400  0.30724400  0.80417800  1
  Ho  Ho2  1  0.00006700  0.00006700  0.00251500  1
  Ho  Ho3  1  0.11488400  0.11488400  0.57150900  1
  Cd  Cd4  1  0.88461000  0.88461000  0.42078600  1
  S  S5  1  0.74087600  0.74087600  0.64769100  1
  S  S6  1  0.25755600  0.25755600  0.35072600  1
  S  S7  1  0.34070100  0.34070100  0.04946600  1
  S  S8  1  0.65965800  0.65965800  0.94873800  1
  S  S9  1  0.03952100  0.03952100  0.21679200  1
  S  S10  1  0.96053900  0.96053900  0.78572800  1
  S  S11  1  0.50063300  0.50063300  0.50277700  1
