# generated using pymatgen
data_In2AgS3Br
_symmetry_space_group_name_H-M   'P 1'
_cell_length_a   7.80790433
_cell_length_b   7.80790433
_cell_length_c   7.80790481
_cell_angle_alpha   60.99311648
_cell_angle_beta   60.99311648
_cell_angle_gamma   60.99311899
_symmetry_Int_Tables_number   1
_chemical_formula_structural   In2AgS3Br
_chemical_formula_sum   'In4 Ag2 S6 Br2'
_cell_volume   344.10972900
_cell_formula_units_Z   2
loop_
 _symmetry_equiv_pos_site_id
 _symmetry_equiv_pos_as_xyz
  1  'x, y, z'
loop_
 _atom_site_type_symbol
 _atom_site_label
 _atom_site_symmetry_multiplicity
 _atom_site_fract_x
 _atom_site_fract_y
 _atom_site_fract_z
 _atom_site_occupancy
  In  In0  1  0.00000000  0.00000000  0.00000000  1
  In  In1  1  0.00000000  0.50000000  0.00000000  1
  In  In2  1  0.50000000  0.00000000  0.00000000  1
  In  In3  1  0.00000000  0.00000000  0.50000000  1
  Ag  Ag4  1  0.58053300  0.58053300  0.58053300  1
  Ag  Ag5  1  0.41946700  0.41946700  0.41946700  1
  S  S6  1  0.24107400  0.79218200  0.24107400  1
  S  S7  1  0.79218200  0.24107400  0.24107400  1
  S  S8  1  0.24107400  0.24107400  0.79218200  1
  S  S9  1  0.75892600  0.20781800  0.75892600  1
  S  S10  1  0.20781800  0.75892600  0.75892600  1
  S  S11  1  0.75892600  0.75892600  0.20781800  1
  Br  Br12  1  0.26167300  0.26167300  0.26167300  1
  Br  Br13  1  0.73832700  0.73832700  0.73832700  1
