# generated using pymatgen
data_Ho2FeSbO7
_symmetry_space_group_name_H-M   'P 1'
_cell_length_a   7.28413075
_cell_length_b   7.28413075
_cell_length_c   7.28413075
_cell_angle_alpha   120.43348702
_cell_angle_beta   119.43469242
_cell_angle_gamma   90.11636997
_symmetry_Int_Tables_number   1
_chemical_formula_structural   Ho2FeSbO7
_chemical_formula_sum   'Ho4 Fe2 Sb2 O14'
_cell_volume   273.53224629
_cell_formula_units_Z   2
loop_
 _symmetry_equiv_pos_site_id
 _symmetry_equiv_pos_as_xyz
  1  'x, y, z'
loop_
 _atom_site_type_symbol
 _atom_site_label
 _atom_site_symmetry_multiplicity
 _atom_site_fract_x
 _atom_site_fract_y
 _atom_site_fract_z
 _atom_site_occupancy
  Ho  Ho0  1  0.50000000  0.00000000  0.00000000  1
  Ho  Ho1  1  0.50000000  0.50000000  0.50000000  1
  Ho  Ho2  1  0.50000000  0.00000000  0.50000000  1
  Ho  Ho3  1  0.00000000  0.00000000  0.00000000  1
  Fe  Fe4  1  0.00000000  0.50000000  0.00000000  1
  Fe  Fe5  1  0.00000000  0.00000000  0.50000000  1
  Sb  Sb6  1  0.00000000  0.50000000  0.50000000  1
  Sb  Sb7  1  0.50000000  0.50000000  0.00000000  1
  O  O8  1  0.91048300  0.16048300  0.75000000  1
  O  O9  1  0.33332900  0.58332900  0.75000000  1
  O  O10  1  0.90964000  0.58148900  0.74181700  1
  O  O11  1  0.33967200  0.16782400  0.75818300  1
  O  O12  1  0.90964000  0.16782400  0.32815200  1
  O  O13  1  0.33967200  0.58148900  0.17184800  1
  O  O14  1  0.08951700  0.83951700  0.25000000  1
  O  O15  1  0.66667100  0.41667100  0.25000000  1
  O  O16  1  0.09036000  0.41851100  0.25818300  1
  O  O17  1  0.66032800  0.83217600  0.24181700  1
  O  O18  1  0.09036000  0.83217600  0.67184800  1
  O  O19  1  0.66032800  0.41851100  0.82815200  1
  O  O20  1  0.62301600  0.87301600  0.75000000  1
  O  O21  1  0.37698400  0.12698400  0.25000000  1
