# generated using pymatgen
data_KNb5Pb2O15
_symmetry_space_group_name_H-M   'P 1'
_cell_length_a   3.98247000
_cell_length_b   12.88888800
_cell_length_c   12.93892600
_cell_angle_alpha   90.00000000
_cell_angle_beta   90.00000000
_cell_angle_gamma   90.00000000
_symmetry_Int_Tables_number   1
_chemical_formula_structural   KNb5Pb2O15
_chemical_formula_sum   'K2 Nb10 Pb4 O30'
_cell_volume   664.15002273
_cell_formula_units_Z   2
loop_
 _symmetry_equiv_pos_site_id
 _symmetry_equiv_pos_as_xyz
  1  'x, y, z'
loop_
 _atom_site_type_symbol
 _atom_site_label
 _atom_site_symmetry_multiplicity
 _atom_site_fract_x
 _atom_site_fract_y
 _atom_site_fract_z
 _atom_site_occupancy
  K  K0  1  0.50000000  0.67399800  0.92364200  1
  K  K1  1  0.50000000  0.17399800  0.07635800  1
  Nb  Nb2  1  0.00000000  0.56850300  0.46491500  1
  Nb  Nb3  1  0.00000000  0.41496500  0.03941700  1
  Nb  Nb4  1  0.00000000  0.06850300  0.53508500  1
  Nb  Nb5  1  0.00000000  0.91496500  0.96058300  1
  Nb  Nb6  1  0.00000000  0.28284000  0.33534600  1
  Nb  Nb7  1  0.00000000  0.70225400  0.17503500  1
  Nb  Nb8  1  0.00000000  0.20225400  0.82496500  1
  Nb  Nb9  1  0.00000000  0.78284000  0.66465400  1
  Nb  Nb10  1  0.00000000  0.50239000  0.75886100  1
  Nb  Nb11  1  0.00000000  0.00239000  0.24113900  1
  Pb  Pb12  1  0.50000000  0.49019800  0.25365100  1
  Pb  Pb13  1  0.50000000  0.99019800  0.74634900  1
  Pb  Pb14  1  0.50000000  0.82079000  0.36929700  1
  Pb  Pb15  1  0.50000000  0.32079000  0.63070300  1
  O  O16  1  0.50000000  0.58241300  0.44944100  1
  O  O17  1  0.50000000  0.42972400  0.04593500  1
  O  O18  1  0.50000000  0.08241300  0.55055900  1
  O  O19  1  0.50000000  0.92972400  0.95406500  1
  O  O20  1  0.50000000  0.30243000  0.32419900  1
  O  O21  1  0.50000000  0.71695300  0.18174400  1
  O  O22  1  0.50000000  0.21695300  0.81825600  1
  O  O23  1  0.50000000  0.80243000  0.67580100  1
  O  O24  1  0.00000000  0.71822800  0.53357100  1
  O  O25  1  0.00000000  0.28852400  0.96272800  1
  O  O26  1  0.00000000  0.21822800  0.46642900  1
  O  O27  1  0.00000000  0.78852400  0.03727200  1
  O  O28  1  0.00000000  0.49787800  0.59057300  1
  O  O29  1  0.00000000  0.50463500  0.90357600  1
  O  O30  1  0.00000000  0.99787800  0.40942700  1
  O  O31  1  0.00000000  0.00463500  0.09642400  1
  O  O32  1  0.00000000  0.15611800  0.25340800  1
  O  O33  1  0.00000000  0.84563900  0.26396400  1
  O  O34  1  0.00000000  0.34563900  0.73603600  1
  O  O35  1  0.00000000  0.65611800  0.74659200  1
  O  O36  1  0.00000000  0.64314300  0.31416400  1
  O  O37  1  0.00000000  0.36283900  0.18000000  1
  O  O38  1  0.00000000  0.14314300  0.68583600  1
  O  O39  1  0.00000000  0.86283900  0.82000000  1
  O  O40  1  0.00000000  0.43831900  0.38142000  1
  O  O41  1  0.00000000  0.57254300  0.10767700  1
  O  O42  1  0.00000000  0.07254300  0.89232300  1
  O  O43  1  0.00000000  0.93831900  0.61858000  1
  O  O44  1  0.50000000  0.48917900  0.74160900  1
  O  O45  1  0.50000000  0.98917900  0.25839100  1
