# generated using pymatgen
data_In3GaN4
_symmetry_space_group_name_H-M   'P 1'
_cell_length_a   3.49288016
_cell_length_b   3.49288016
_cell_length_c   11.35486100
_cell_angle_alpha   90.00000000
_cell_angle_beta   90.00000000
_cell_angle_gamma   120.00000308
_symmetry_Int_Tables_number   1
_chemical_formula_structural   In3GaN4
_chemical_formula_sum   'In3 Ga1 N4'
_cell_volume   119.97197593
_cell_formula_units_Z   1
loop_
 _symmetry_equiv_pos_site_id
 _symmetry_equiv_pos_as_xyz
  1  'x, y, z'
loop_
 _atom_site_type_symbol
 _atom_site_label
 _atom_site_symmetry_multiplicity
 _atom_site_fract_x
 _atom_site_fract_y
 _atom_site_fract_z
 _atom_site_occupancy
  In  In0  1  0.66666700  0.33333300  0.74955500  1
  In  In1  1  0.00000000  0.00000000  0.00844000  1
  In  In2  1  0.00000000  0.00000000  0.49052400  1
  Ga  Ga3  1  0.66666700  0.33333300  0.24674100  1
  N  N4  1  0.66666700  0.33333300  0.07471800  1
  N  N5  1  0.66666700  0.33333300  0.55810000  1
  N  N6  1  0.00000000  0.00000000  0.29641200  1
  N  N7  1  0.00000000  0.00000000  0.81630800  1
