# generated using pymatgen
data_In2AgSe3I
_symmetry_space_group_name_H-M   'P 1'
_cell_length_a   8.26931427
_cell_length_b   8.26931427
_cell_length_c   8.26931464
_cell_angle_alpha   60.46654342
_cell_angle_beta   60.46654342
_cell_angle_gamma   60.46655033
_symmetry_Int_Tables_number   1
_chemical_formula_structural   In2AgSe3I
_chemical_formula_sum   'In4 Ag2 Se6 I2'
_cell_volume   404.06355518
_cell_formula_units_Z   2
loop_
 _symmetry_equiv_pos_site_id
 _symmetry_equiv_pos_as_xyz
  1  'x, y, z'
loop_
 _atom_site_type_symbol
 _atom_site_label
 _atom_site_symmetry_multiplicity
 _atom_site_fract_x
 _atom_site_fract_y
 _atom_site_fract_z
 _atom_site_occupancy
  In  In0  1  0.00000000  0.00000000  0.00000000  1
  In  In1  1  0.00000000  0.50000000  0.00000000  1
  In  In2  1  0.50000000  0.00000000  0.00000000  1
  In  In3  1  0.00000000  0.00000000  0.50000000  1
  Ag  Ag4  1  0.58486100  0.58486100  0.58486100  1
  Ag  Ag5  1  0.41513900  0.41513900  0.41513900  1
  Se  Se6  1  0.24165300  0.79061800  0.24165300  1
  Se  Se7  1  0.79061800  0.24165300  0.24165300  1
  Se  Se8  1  0.24165300  0.24165300  0.79061800  1
  Se  Se9  1  0.75834700  0.20938200  0.75834700  1
  Se  Se10  1  0.20938200  0.75834700  0.75834700  1
  Se  Se11  1  0.75834700  0.75834700  0.20938200  1
  I  I12  1  0.26427300  0.26427300  0.26427300  1
  I  I13  1  0.73572700  0.73572700  0.73572700  1
