# generated using pymatgen
data_InGaCuAgTe4
_symmetry_space_group_name_H-M   'P 1'
_cell_length_a   6.35710300
_cell_length_b   6.35710300
_cell_length_c   7.68317388
_cell_angle_alpha   65.56233596
_cell_angle_beta   65.56233596
_cell_angle_gamma   90.00000000
_symmetry_Int_Tables_number   1
_chemical_formula_structural   InGaCuAgTe4
_chemical_formula_sum   'In1 Ga1 Cu1 Ag1 Te4'
_cell_volume   251.80999914
_cell_formula_units_Z   1
loop_
 _symmetry_equiv_pos_site_id
 _symmetry_equiv_pos_as_xyz
  1  'x, y, z'
loop_
 _atom_site_type_symbol
 _atom_site_label
 _atom_site_symmetry_multiplicity
 _atom_site_fract_x
 _atom_site_fract_y
 _atom_site_fract_z
 _atom_site_occupancy
  In  In0  1  0.50000000  0.50000000  0.00000000  1
  Ga  Ga1  1  0.25000000  0.75000000  0.50000000  1
  Cu  Cu2  1  0.00000000  0.00000000  0.00000000  1
  Ag  Ag3  1  0.75000000  0.25000000  0.50000000  1
  Te  Te4  1  0.34902800  0.88350600  0.75040800  1
  Te  Te5  1  0.90056400  0.36608700  0.75040800  1
  Te  Te6  1  0.11649400  0.09943600  0.24959200  1
  Te  Te7  1  0.63391300  0.65097200  0.24959200  1
