# generated using pymatgen
data_In2(HgTe2)3
_symmetry_space_group_name_H-M   'P 1'
_cell_length_a   6.40822500
_cell_length_b   9.17613465
_cell_length_c   8.04741689
_cell_angle_alpha   71.95770554
_cell_angle_beta   66.53716727
_cell_angle_gamma   90.00000000
_symmetry_Int_Tables_number   1
_chemical_formula_structural   In2(HgTe2)3
_chemical_formula_sum   'In2 Hg3 Te6'
_cell_volume   408.59371708
_cell_formula_units_Z   1
loop_
 _symmetry_equiv_pos_site_id
 _symmetry_equiv_pos_as_xyz
  1  'x, y, z'
loop_
 _atom_site_type_symbol
 _atom_site_label
 _atom_site_symmetry_multiplicity
 _atom_site_fract_x
 _atom_site_fract_y
 _atom_site_fract_z
 _atom_site_occupancy
  In  In0  1  0.98695100  0.50549900  0.99971100  1
  In  In1  1  0.65333000  0.82783400  0.66695600  1
  Hg  Hg2  1  0.98548000  0.98704600  0.01722600  1
  Hg  Hg3  1  0.37863900  0.16666700  0.33333300  1
  Hg  Hg4  1  0.66937300  0.34628700  0.64944100  1
  Te  Te5  1  0.26117300  0.73643300  0.02566500  1
  Te  Te6  1  0.55224200  0.88463100  0.34280800  1
  Te  Te7  1  0.91601100  0.08151900  0.66557000  1
  Te  Te8  1  0.24824700  0.25181400  0.00109700  1
  Te  Te9  1  0.56171700  0.44870300  0.32385800  1
  Te  Te10  1  0.95350500  0.59690000  0.64100200  1
