# generated using pymatgen
data_Ho3SOF5
_symmetry_space_group_name_H-M   'P 1'
_cell_length_a   3.67443300
_cell_length_b   9.37211400
_cell_length_c   9.42408047
_cell_angle_alpha   60.43770842
_cell_angle_beta   90.00000000
_cell_angle_gamma   90.00000000
_symmetry_Int_Tables_number   1
_chemical_formula_structural   Ho3SOF5
_chemical_formula_sum   'Ho6 S2 O2 F10'
_cell_volume   282.29044724
_cell_formula_units_Z   2
loop_
 _symmetry_equiv_pos_site_id
 _symmetry_equiv_pos_as_xyz
  1  'x, y, z'
loop_
 _atom_site_type_symbol
 _atom_site_label
 _atom_site_symmetry_multiplicity
 _atom_site_fract_x
 _atom_site_fract_y
 _atom_site_fract_z
 _atom_site_occupancy
  Ho  Ho0  1  0.00000000  0.41607500  0.86699200  1
  Ho  Ho1  1  0.00000000  0.86677600  0.73042400  1
  Ho  Ho2  1  0.00000000  0.70158500  0.41406400  1
  Ho  Ho3  1  0.50000000  0.59612100  0.10360200  1
  Ho  Ho4  1  0.50000000  0.12248300  0.28396100  1
  Ho  Ho5  1  0.50000000  0.29584300  0.59894400  1
  S  S6  1  0.00000000  0.32917100  0.33313600  1
  S  S7  1  0.50000000  0.67327500  0.66146900  1
  O  O8  1  0.00000000  0.43586500  0.61369000  1
  O  O9  1  0.00000000  0.61602400  0.94901800  1
  F  F10  1  0.00000000  0.15722000  0.11823100  1
  F  F11  1  0.00000000  0.11014600  0.72944100  1
  F  F12  1  0.00000000  0.72808100  0.16138800  1
  F  F13  1  0.50000000  0.85358900  0.88187800  1
  F  F14  1  0.50000000  0.88225000  0.27873400  1
  F  F15  1  0.50000000  0.26995800  0.85218100  1
  F  F16  1  0.00000000  0.95268900  0.43187900  1
  F  F17  1  0.50000000  0.57098800  0.37534500  1
  F  F18  1  0.50000000  0.37696100  0.04856300  1
  F  F19  1  0.50000000  0.04490100  0.56706000  1
