# generated using pymatgen
data_K4MgCu3F12
_symmetry_space_group_name_H-M   'P 1'
_cell_length_a   9.09257011
_cell_length_b   9.09257011
_cell_length_c   4.10176700
_cell_angle_alpha   90.00000000
_cell_angle_beta   90.00000000
_cell_angle_gamma   127.09103696
_symmetry_Int_Tables_number   1
_chemical_formula_structural   K4MgCu3F12
_chemical_formula_sum   'K4 Mg1 Cu3 F12'
_cell_volume   270.50299093
_cell_formula_units_Z   1
loop_
 _symmetry_equiv_pos_site_id
 _symmetry_equiv_pos_as_xyz
  1  'x, y, z'
loop_
 _atom_site_type_symbol
 _atom_site_label
 _atom_site_symmetry_multiplicity
 _atom_site_fract_x
 _atom_site_fract_y
 _atom_site_fract_z
 _atom_site_occupancy
  K  K0  1  0.87385200  0.62189500  0.50000000  1
  K  K1  1  0.62189500  0.87385200  0.50000000  1
  K  K2  1  0.37810500  0.12614800  0.50000000  1
  K  K3  1  0.12614800  0.37810500  0.50000000  1
  Mg  Mg4  1  0.00000000  0.00000000  0.00000000  1
  Cu  Cu5  1  0.75071700  0.24928300  0.00000000  1
  Cu  Cu6  1  0.50000000  0.50000000  0.00000000  1
  Cu  Cu7  1  0.24928300  0.75071700  0.00000000  1
  F  F8  1  0.25008500  0.25008500  0.00000000  1
  F  F9  1  0.00000000  0.50000000  0.00000000  1
  F  F10  1  0.74991500  0.74991500  0.00000000  1
  F  F11  1  0.50000000  0.00000000  0.00000000  1
  F  F12  1  0.62761000  0.37239000  0.00000000  1
  F  F13  1  0.37239000  0.62761000  0.00000000  1
  F  F14  1  0.12339400  0.87660600  0.00000000  1
  F  F15  1  0.87660600  0.12339400  0.00000000  1
  F  F16  1  0.50000000  0.50000000  0.50000000  1
  F  F17  1  0.24942200  0.75057800  0.50000000  1
  F  F18  1  0.00000000  0.00000000  0.50000000  1
  F  F19  1  0.75057800  0.24942200  0.50000000  1
