# generated using pymatgen
data_In3Pt5
_symmetry_space_group_name_H-M   'P 1'
_cell_length_a   4.11626743
_cell_length_b   4.11626743
_cell_length_c   11.09571900
_cell_angle_alpha   90.00000000
_cell_angle_beta   90.00000000
_cell_angle_gamma   119.99999086
_symmetry_Int_Tables_number   1
_chemical_formula_structural   In3Pt5
_chemical_formula_sum   'In3 Pt5'
_cell_volume   162.81457767
_cell_formula_units_Z   1
loop_
 _symmetry_equiv_pos_site_id
 _symmetry_equiv_pos_as_xyz
  1  'x, y, z'
loop_
 _atom_site_type_symbol
 _atom_site_label
 _atom_site_symmetry_multiplicity
 _atom_site_fract_x
 _atom_site_fract_y
 _atom_site_fract_z
 _atom_site_occupancy
  In  In0  1  0.00000000  0.00000000  0.50000000  1
  In  In1  1  0.66666700  0.33333300  0.23479200  1
  In  In2  1  0.66666700  0.33333300  0.76520800  1
  Pt  Pt3  1  0.33333300  0.66666700  0.12083600  1
  Pt  Pt4  1  0.33333300  0.66666700  0.62677700  1
  Pt  Pt5  1  0.33333300  0.66666700  0.37322300  1
  Pt  Pt6  1  0.33333300  0.66666700  0.87916400  1
  Pt  Pt7  1  0.00000000  0.00000000  0.00000000  1
