data_image0
_chemical_formula_structural       Al2C2Sc4
_chemical_formula_sum              "Al2 C2 Sc4"
_cell_length_a       3.28975
_cell_length_b       3.28974
_cell_length_c       15.0299
_cell_angle_alpha    90
_cell_angle_beta     90
_cell_angle_gamma    120

_space_group_name_H-M_alt    "P 1"
_space_group_IT_number       1

loop_
  _space_group_symop_operation_xyz
  'x, y, z'

loop_
  _atom_site_type_symbol
  _atom_site_label
  _atom_site_symmetry_multiplicity
  _atom_site_fract_x
  _atom_site_fract_y
  _atom_site_fract_z
  _atom_site_occupancy
  Al  Al1       1.0  0.66700  0.33300  0.25000  1.0000
  Al  Al2       1.0  0.33300  0.66700  0.75000  1.0000
  C   C1        1.0  0.00000  0.00000  0.00000  1.0000
  C   C2        1.0  0.00000  0.00000  0.50000  1.0000
  Sc  Sc1       1.0  0.33300  0.66700  0.08280  1.0000
  Sc  Sc2       1.0  0.33300  0.66700  0.41700  1.0000
  Sc  Sc3       1.0  0.66700  0.33300  0.58300  1.0000
  Sc  Sc4       1.0  0.66700  0.33300  0.91700  1.0000
