# generated using pymatgen
data_InAgTeSe
_symmetry_space_group_name_H-M   'P 1'
_cell_length_a   6.40292600
_cell_length_b   6.45708800
_cell_length_c   7.71640777
_cell_angle_alpha   65.26640249
_cell_angle_beta   65.48759764
_cell_angle_gamma   90.00000000
_symmetry_Int_Tables_number   1
_chemical_formula_structural   InAgTeSe
_chemical_formula_sum   'In2 Ag2 Te2 Se2'
_cell_volume   257.76444766
_cell_formula_units_Z   2
loop_
 _symmetry_equiv_pos_site_id
 _symmetry_equiv_pos_as_xyz
  1  'x, y, z'
loop_
 _atom_site_type_symbol
 _atom_site_label
 _atom_site_symmetry_multiplicity
 _atom_site_fract_x
 _atom_site_fract_y
 _atom_site_fract_z
 _atom_site_occupancy
  In  In0  1  0.24122500  0.74122500  0.51755100  1
  In  In1  1  0.50877500  0.50877500  0.98244900  1
  Ag  Ag2  1  0.74376300  0.24376300  0.51247500  1
  Ag  Ag3  1  0.00623700  0.00623700  0.98752500  1
  Te  Te4  1  0.12069700  0.12500000  0.25000000  1
  Te  Te5  1  0.62930300  0.62500000  0.25000000  1
  Se  Se6  1  0.37500000  0.86894300  0.75000000  1
  Se  Se7  1  0.87500000  0.38105700  0.75000000  1
