# generated using pymatgen
data_In4(SnO4)3
_symmetry_space_group_name_H-M   'P 1'
_cell_length_a   6.27098957
_cell_length_b   6.35218819
_cell_length_c   6.36586977
_cell_angle_alpha   99.55294009
_cell_angle_beta   99.53556944
_cell_angle_gamma   99.72767244
_symmetry_Int_Tables_number   1
_chemical_formula_structural   In4(SnO4)3
_chemical_formula_sum   'In4 Sn3 O12'
_cell_volume   241.52528620
_cell_formula_units_Z   1
loop_
 _symmetry_equiv_pos_site_id
 _symmetry_equiv_pos_as_xyz
  1  'x, y, z'
loop_
 _atom_site_type_symbol
 _atom_site_label
 _atom_site_symmetry_multiplicity
 _atom_site_fract_x
 _atom_site_fract_y
 _atom_site_fract_z
 _atom_site_occupancy
  In  In0  1  0.69427200  0.86508500  0.39296000  1
  In  In1  1  0.13755600  0.60415600  0.31683600  1
  In  In2  1  0.60382300  0.31393300  0.13833900  1
  In  In3  1  0.30963300  0.12896000  0.60487200  1
  Sn  Sn4  1  0.00085800  0.00450100  0.00085300  1
  Sn  Sn5  1  0.85979000  0.39669100  0.68160100  1
  Sn  Sn6  1  0.39589700  0.68643000  0.86147900  1
  O  O7  1  0.59030700  0.43089800  0.82053300  1
  O  O8  1  0.41572800  0.80997600  0.58448900  1
  O  O9  1  0.82146500  0.58027700  0.43134800  1
  O  O10  1  0.41350400  0.58447000  0.16186900  1
  O  O11  1  0.58968800  0.18042200  0.42607700  1
  O  O12  1  0.17774400  0.41746500  0.59973200  1
  O  O13  1  0.05681600  0.68726300  0.89014100  1
  O  O14  1  0.68110700  0.89904600  0.04608400  1
  O  O15  1  0.90457600  0.07262900  0.69292700  1
  O  O16  1  0.94355700  0.31571600  0.09671600  1
  O  O17  1  0.31917700  0.08239000  0.94217000  1
  O  O18  1  0.08450300  0.93969400  0.31097600  1
