# generated using pymatgen
data_KU3AsO15
_symmetry_space_group_name_H-M   'P 1'
_cell_length_a   7.31763865
_cell_length_b   7.31763865
_cell_length_c   13.38584300
_cell_angle_alpha   90.00000000
_cell_angle_beta   90.00000000
_cell_angle_gamma   108.67211710
_symmetry_Int_Tables_number   1
_chemical_formula_structural   KU3AsO15
_chemical_formula_sum   'K2 U6 As2 O30'
_cell_volume   679.05590285
_cell_formula_units_Z   2
loop_
 _symmetry_equiv_pos_site_id
 _symmetry_equiv_pos_as_xyz
  1  'x, y, z'
loop_
 _atom_site_type_symbol
 _atom_site_label
 _atom_site_symmetry_multiplicity
 _atom_site_fract_x
 _atom_site_fract_y
 _atom_site_fract_z
 _atom_site_occupancy
  K  K0  1  0.00000000  0.00000000  0.00000000  1
  K  K1  1  0.00000000  0.00000000  0.50000000  1
  U  U2  1  0.50000000  0.00000000  0.86045800  1
  U  U3  1  0.00000000  0.50000000  0.63954200  1
  U  U4  1  0.50000000  0.00000000  0.13954200  1
  U  U5  1  0.00000000  0.50000000  0.36045800  1
  U  U6  1  0.50000000  0.50000000  0.00000000  1
  U  U7  1  0.50000000  0.50000000  0.50000000  1
  As  As8  1  0.50000000  0.50000000  0.75000000  1
  As  As9  1  0.50000000  0.50000000  0.25000000  1
  O  O10  1  0.48911300  0.16100300  0.00000000  1
  O  O11  1  0.51088700  0.83899700  0.00000000  1
  O  O12  1  0.83899700  0.51088700  0.50000000  1
  O  O13  1  0.16100300  0.48911300  0.50000000  1
  O  O14  1  0.09997300  0.76869100  0.63375600  1
  O  O15  1  0.90002700  0.23130900  0.63375600  1
  O  O16  1  0.23130900  0.90002700  0.86624400  1
  O  O17  1  0.76869100  0.09997300  0.86624400  1
  O  O18  1  0.90002700  0.23130900  0.36624400  1
  O  O19  1  0.09997300  0.76869100  0.36624400  1
  O  O20  1  0.76869100  0.09997300  0.13375600  1
  O  O21  1  0.23130900  0.90002700  0.13375600  1
  O  O22  1  0.00000000  0.00000000  0.75000000  1
  O  O23  1  0.00000000  0.00000000  0.25000000  1
  O  O24  1  0.47054400  0.31946200  0.83635900  1
  O  O25  1  0.52945600  0.68053800  0.83635900  1
  O  O26  1  0.68053800  0.52945600  0.66364100  1
  O  O27  1  0.31946200  0.47054400  0.66364100  1
  O  O28  1  0.52945600  0.68053800  0.16364100  1
  O  O29  1  0.47054400  0.31946200  0.16364100  1
  O  O30  1  0.31946200  0.47054400  0.33635900  1
  O  O31  1  0.68053800  0.52945600  0.33635900  1
  O  O32  1  0.75946600  0.57882000  0.00000000  1
  O  O33  1  0.24053400  0.42118000  0.00000000  1
  O  O34  1  0.42118000  0.24053400  0.50000000  1
  O  O35  1  0.57882000  0.75946600  0.50000000  1
  O  O36  1  0.00000000  0.50000000  0.78007500  1
  O  O37  1  0.50000000  0.00000000  0.71992500  1
  O  O38  1  0.00000000  0.50000000  0.21992500  1
  O  O39  1  0.50000000  0.00000000  0.28007500  1
