# generated using pymatgen
data_K2AlSn(PO4)3
_symmetry_space_group_name_H-M   'P 1'
_cell_length_a   9.94269500
_cell_length_b   9.94269500
_cell_length_c   9.94269500
_cell_angle_alpha   90.00000000
_cell_angle_beta   90.00000000
_cell_angle_gamma   90.00000000
_symmetry_Int_Tables_number   1
_chemical_formula_structural   K2AlSn(PO4)3
_chemical_formula_sum   'K8 Al4 Sn4 P12 O48'
_cell_volume   982.90682771
_cell_formula_units_Z   4
loop_
 _symmetry_equiv_pos_site_id
 _symmetry_equiv_pos_as_xyz
  1  'x, y, z'
loop_
 _atom_site_type_symbol
 _atom_site_label
 _atom_site_symmetry_multiplicity
 _atom_site_fract_x
 _atom_site_fract_y
 _atom_site_fract_z
 _atom_site_occupancy
  K  K0  1  0.45564500  0.45564500  0.45564500  1
  K  K1  1  0.54435500  0.95564500  0.04435500  1
  K  K2  1  0.95564500  0.04435500  0.54435500  1
  K  K3  1  0.04435500  0.54435500  0.95564500  1
  K  K4  1  0.18407600  0.81592400  0.31592400  1
  K  K5  1  0.68407600  0.68407600  0.68407600  1
  K  K6  1  0.31592400  0.18407600  0.81592400  1
  K  K7  1  0.81592400  0.31592400  0.18407600  1
  Al  Al8  1  0.39517500  0.60482500  0.10482500  1
  Al  Al9  1  0.89517500  0.89517500  0.89517500  1
  Al  Al10  1  0.10482500  0.39517500  0.60482500  1
  Al  Al11  1  0.60482500  0.10482500  0.39517500  1
  Sn  Sn12  1  0.33692200  0.83692200  0.66307800  1
  Sn  Sn13  1  0.83692200  0.66307800  0.33692200  1
  Sn  Sn14  1  0.66307800  0.33692200  0.83692200  1
  Sn  Sn15  1  0.16307800  0.16307800  0.16307800  1
  P  P16  1  0.36820000  0.51906600  0.79498800  1
  P  P17  1  0.20501200  0.86820000  0.98093400  1
  P  P18  1  0.01906600  0.70501200  0.63180000  1
  P  P19  1  0.86820000  0.98093400  0.20501200  1
  P  P20  1  0.70501200  0.63180000  0.01906600  1
  P  P21  1  0.51906600  0.79498800  0.36820000  1
  P  P22  1  0.63180000  0.01906600  0.70501200  1
  P  P23  1  0.79498800  0.36820000  0.51906600  1
  P  P24  1  0.98093400  0.20501200  0.86820000  1
  P  P25  1  0.13180000  0.48093400  0.29498800  1
  P  P26  1  0.29498800  0.13180000  0.48093400  1
  P  P27  1  0.48093400  0.29498800  0.13180000  1
  O  O28  1  0.25709700  0.45556100  0.70935200  1
  O  O29  1  0.29064800  0.75709700  0.04443900  1
  O  O30  1  0.95556100  0.79064800  0.74290300  1
  O  O31  1  0.75709700  0.04443900  0.29064800  1
  O  O32  1  0.79064800  0.74290300  0.95556100  1
  O  O33  1  0.45556100  0.70935200  0.25709700  1
  O  O34  1  0.74290300  0.95556100  0.79064800  1
  O  O35  1  0.70935200  0.25709700  0.45556100  1
  O  O36  1  0.04443900  0.29064800  0.75709700  1
  O  O37  1  0.24290300  0.54443900  0.20935200  1
  O  O38  1  0.20935200  0.24290300  0.54443900  1
  O  O39  1  0.54443900  0.20935200  0.24290300  1
  O  O40  1  0.40471500  0.66462900  0.75088400  1
  O  O41  1  0.24911600  0.90471500  0.83537100  1
  O  O42  1  0.16462900  0.74911600  0.59528500  1
  O  O43  1  0.90471500  0.83537100  0.24911600  1
  O  O44  1  0.74911600  0.59528500  0.16462900  1
  O  O45  1  0.66462900  0.75088400  0.40471500  1
  O  O46  1  0.59528500  0.16462900  0.74911600  1
  O  O47  1  0.75088400  0.40471500  0.66462900  1
  O  O48  1  0.83537100  0.24911600  0.90471500  1
  O  O49  1  0.09528500  0.33537100  0.25088400  1
  O  O50  1  0.25088400  0.09528500  0.33537100  1
  O  O51  1  0.33537100  0.25088400  0.09528500  1
  O  O52  1  0.49838600  0.43632200  0.76192700  1
  O  O53  1  0.23807300  0.99838600  0.06367800  1
  O  O54  1  0.93632200  0.73807300  0.50161400  1
  O  O55  1  0.99838600  0.06367800  0.23807300  1
  O  O56  1  0.73807300  0.50161400  0.93632200  1
  O  O57  1  0.43632200  0.76192700  0.49838600  1
  O  O58  1  0.50161400  0.93632200  0.73807300  1
  O  O59  1  0.76192700  0.49838600  0.43632200  1
  O  O60  1  0.06367800  0.23807300  0.99838600  1
  O  O61  1  0.00161400  0.56367800  0.26192700  1
  O  O62  1  0.26192700  0.00161400  0.56367800  1
  O  O63  1  0.56367800  0.26192700  0.00161400  1
  O  O64  1  0.33255200  0.51462600  0.94503900  1
  O  O65  1  0.05496100  0.83255200  0.98537400  1
  O  O66  1  0.01462600  0.55496100  0.66744800  1
  O  O67  1  0.83255200  0.98537400  0.05496100  1
  O  O68  1  0.55496100  0.66744800  0.01462600  1
  O  O69  1  0.51462600  0.94503900  0.33255200  1
  O  O70  1  0.66744800  0.01462600  0.55496100  1
  O  O71  1  0.94503900  0.33255200  0.51462600  1
  O  O72  1  0.98537400  0.05496100  0.83255200  1
  O  O73  1  0.16744800  0.48537400  0.44503900  1
  O  O74  1  0.44503900  0.16744800  0.48537400  1
  O  O75  1  0.48537400  0.44503900  0.16744800  1
