# generated using pymatgen
data_Ho2MnRuO7
_symmetry_space_group_name_H-M   'P 1'
_cell_length_a   7.18200800
_cell_length_b   7.18200800
_cell_length_c   7.18200800
_cell_angle_alpha   120.27189476
_cell_angle_beta   119.83747350
_cell_angle_gamma   89.90572278
_symmetry_Int_Tables_number   1
_chemical_formula_structural   Ho2MnRuO7
_chemical_formula_sum   'Ho4 Mn2 Ru2 O14'
_cell_volume   261.73095282
_cell_formula_units_Z   2
loop_
 _symmetry_equiv_pos_site_id
 _symmetry_equiv_pos_as_xyz
  1  'x, y, z'
loop_
 _atom_site_type_symbol
 _atom_site_label
 _atom_site_symmetry_multiplicity
 _atom_site_fract_x
 _atom_site_fract_y
 _atom_site_fract_z
 _atom_site_occupancy
  Ho  Ho0  1  0.00000000  0.50000000  0.00000000  1
  Ho  Ho1  1  0.00000000  0.00000000  0.50000000  1
  Ho  Ho2  1  0.00000000  0.50000000  0.50000000  1
  Ho  Ho3  1  0.50000000  0.50000000  0.00000000  1
  Mn  Mn4  1  0.50000000  0.00000000  0.00000000  1
  Mn  Mn5  1  0.50000000  0.50000000  0.50000000  1
  Ru  Ru6  1  0.50000000  0.00000000  0.50000000  1
  Ru  Ru7  1  0.00000000  0.00000000  0.00000000  1
  O  O8  1  0.83970600  0.08970600  0.75000000  1
  O  O9  1  0.41820100  0.66820100  0.75000000  1
  O  O10  1  0.83242800  0.66270900  0.74745700  1
  O  O11  1  0.41525200  0.08497100  0.75254300  1
  O  O12  1  0.83242800  0.08497100  0.16971900  1
  O  O13  1  0.41525200  0.66270900  0.33028100  1
  O  O14  1  0.16029400  0.91029400  0.25000000  1
  O  O15  1  0.58179900  0.33179900  0.25000000  1
  O  O16  1  0.16757200  0.33729100  0.25254300  1
  O  O17  1  0.58474800  0.91502900  0.24745700  1
  O  O18  1  0.16757200  0.91502900  0.83028100  1
  O  O19  1  0.58474800  0.33729100  0.66971900  1
  O  O20  1  0.87432900  0.62432900  0.25000000  1
  O  O21  1  0.12567100  0.37567100  0.75000000  1
