# generated using pymatgen
data_K2NaMo(OF)3
_symmetry_space_group_name_H-M   'P 1'
_cell_length_a   6.11212771
_cell_length_b   6.05254955
_cell_length_c   6.01512595
_cell_angle_alpha   60.85936367
_cell_angle_beta   59.87280862
_cell_angle_gamma   59.26782771
_symmetry_Int_Tables_number   1
_chemical_formula_structural   K2NaMo(OF)3
_chemical_formula_sum   'K2 Na1 Mo1 O3 F3'
_cell_volume   157.28562970
_cell_formula_units_Z   1
loop_
 _symmetry_equiv_pos_site_id
 _symmetry_equiv_pos_as_xyz
  1  'x, y, z'
loop_
 _atom_site_type_symbol
 _atom_site_label
 _atom_site_symmetry_multiplicity
 _atom_site_fract_x
 _atom_site_fract_y
 _atom_site_fract_z
 _atom_site_occupancy
  K  K0  1  0.75933800  0.75933800  0.74066200  1
  K  K1  1  0.25933800  0.25933800  0.24066200  1
  Na  Na2  1  0.50347900  0.50347900  0.49652100  1
  Mo  Mo3  1  0.02084000  0.02084000  0.97916000  1
  O  O4  1  0.19519400  0.76716500  0.80480600  1
  O  O5  1  0.22546400  0.22546400  0.77453600  1
  O  O6  1  0.76716500  0.19519400  0.23283500  1
  F  F7  1  0.23822300  0.76728200  0.23271800  1
  F  F8  1  0.76367600  0.76367600  0.23632400  1
  F  F9  1  0.76728200  0.23822300  0.76177700  1
