# generated using pymatgen
data_Mg2Si
_symmetry_space_group_name_H-M   'P 1'
_cell_length_a   5.74667700
_cell_length_b   5.86908717
_cell_length_c   7.99707643
_cell_angle_alpha   100.78722861
_cell_angle_beta   108.71548709
_cell_angle_gamma   102.63956875
_symmetry_Int_Tables_number   1
_chemical_formula_structural   Mg2Si
_chemical_formula_sum   'Mg8 Si4'
_cell_volume   239.40900477
_cell_formula_units_Z   4
loop_
 _symmetry_equiv_pos_site_id
 _symmetry_equiv_pos_as_xyz
  1  'x, y, z'
loop_
 _atom_site_type_symbol
 _atom_site_label
 _atom_site_symmetry_multiplicity
 _atom_site_fract_x
 _atom_site_fract_y
 _atom_site_fract_z
 _atom_site_occupancy
  Mg  Mg0  1  0.39705800  0.75163600  0.54893600  1
  Mg  Mg1  1  0.45170400  0.62598100  0.16579200  1
  Mg  Mg2  1  0.07512600  0.63893400  0.78415200  1
  Mg  Mg3  1  0.60294200  0.24836400  0.45106400  1
  Mg  Mg4  1  0.54829600  0.37401900  0.83420800  1
  Mg  Mg5  1  0.92487400  0.36106600  0.21584800  1
  Mg  Mg6  1  0.03426500  0.86979700  0.18796200  1
  Mg  Mg7  1  0.96573500  0.13020300  0.81203800  1
  Si  Si8  1  0.39790100  0.12077600  0.07419400  1
  Si  Si9  1  0.12586900  0.20935300  0.51772000  1
  Si  Si10  1  0.87413100  0.79064700  0.48228000  1
  Si  Si11  1  0.60209900  0.87922400  0.92580600  1
