# generated using pymatgen
data_K4PSe3O16
_symmetry_space_group_name_H-M   'P 1'
_cell_length_a   7.62979900
_cell_length_b   7.85621056
_cell_length_c   7.88514763
_cell_angle_alpha   72.25737369
_cell_angle_beta   85.68888995
_cell_angle_gamma   87.02703044
_symmetry_Int_Tables_number   1
_chemical_formula_structural   K4PSe3O16
_chemical_formula_sum   'K4 P1 Se3 O16'
_cell_volume   448.68226442
_cell_formula_units_Z   1
loop_
 _symmetry_equiv_pos_site_id
 _symmetry_equiv_pos_as_xyz
  1  'x, y, z'
loop_
 _atom_site_type_symbol
 _atom_site_label
 _atom_site_symmetry_multiplicity
 _atom_site_fract_x
 _atom_site_fract_y
 _atom_site_fract_z
 _atom_site_occupancy
  K  K0  1  0.34466500  0.67944600  0.80791300  1
  K  K1  1  0.65570900  0.32031300  0.19576500  1
  K  K2  1  0.03380500  0.21059000  0.74600800  1
  K  K3  1  0.96952200  0.78884800  0.25310100  1
  P  P4  1  0.53205800  0.19748900  0.72532300  1
  Se  Se5  1  0.86527000  0.72857000  0.78237500  1
  Se  Se6  1  0.13401000  0.27089700  0.21889500  1
  Se  Se7  1  0.46556300  0.80386800  0.27326500  1
  O  O8  1  0.65703100  0.19804900  0.87067900  1
  O  O9  1  0.33613300  0.80896800  0.10971800  1
  O  O10  1  0.65377900  0.16462100  0.57228200  1
  O  O11  1  0.33666600  0.83809900  0.44354200  1
  O  O12  1  0.81269100  0.84499700  0.57092900  1
  O  O13  1  0.19177500  0.14604300  0.42684800  1
  O  O14  1  0.69040600  0.64654300  0.91196200  1
  O  O15  1  0.30913300  0.35235600  0.08787500  1
  O  O16  1  0.43270800  0.38100400  0.66541600  1
  O  O17  1  0.57036400  0.60334300  0.35097000  1
  O  O18  1  0.98840900  0.84405900  0.87002200  1
  O  O19  1  0.01036100  0.15757500  0.12875300  1
  O  O20  1  0.38695900  0.06002300  0.78672100  1
  O  O21  1  0.62268200  0.95473700  0.20158500  1
  O  O22  1  0.99220800  0.57063700  0.72203700  1
  O  O23  1  0.00809000  0.42892600  0.27801500  1
