# generated using pymatgen
data_K4Pb2Br8O
_symmetry_space_group_name_H-M   'P 1'
_cell_length_a   4.43069003
_cell_length_b   8.27718913
_cell_length_c   14.41866249
_cell_angle_alpha   90.38612402
_cell_angle_beta   89.62768077
_cell_angle_gamma   90.09496329
_symmetry_Int_Tables_number   1
_chemical_formula_structural   K4Pb2Br8O
_chemical_formula_sum   'K4 Pb2 Br8 O1'
_cell_volume   528.76125609
_cell_formula_units_Z   1
loop_
 _symmetry_equiv_pos_site_id
 _symmetry_equiv_pos_as_xyz
  1  'x, y, z'
loop_
 _atom_site_type_symbol
 _atom_site_label
 _atom_site_symmetry_multiplicity
 _atom_site_fract_x
 _atom_site_fract_y
 _atom_site_fract_z
 _atom_site_occupancy
  K  K0  1  0.46559900  0.08573500  0.33081700  1
  K  K1  1  0.51997500  0.41288800  0.82652500  1
  K  K2  1  0.53440100  0.91426500  0.66918300  1
  K  K3  1  0.48002500  0.58711200  0.17347500  1
  Pb  Pb4  1  0.00000000  0.50000000  0.50000000  1
  Pb  Pb5  1  0.00000000  0.00000000  0.00000000  1
  Br  Br6  1  0.98441700  0.38578600  0.30180800  1
  Br  Br7  1  0.02080100  0.11880100  0.80170900  1
  Br  Br8  1  0.01558300  0.61421400  0.69819200  1
  Br  Br9  1  0.97919900  0.88119900  0.19829100  1
  Br  Br10  1  0.49605400  0.74814000  0.45683200  1
  Br  Br11  1  0.50561200  0.74884600  0.95924300  1
  Br  Br12  1  0.50394600  0.25186000  0.54316800  1
  Br  Br13  1  0.49438800  0.25115400  0.04075700  1
  O  O14  1  0.00000000  0.00000000  0.50000000  1
