# generated using pymatgen
data_InGa2(AgSe2)3
_symmetry_space_group_name_H-M   'P 1'
_cell_length_a   6.10740900
_cell_length_b   6.10740900
_cell_length_c   17.84545038
_cell_angle_alpha   80.14708626
_cell_angle_beta   80.14708626
_cell_angle_gamma   90.00000000
_symmetry_Int_Tables_number   1
_chemical_formula_structural   InGa2(AgSe2)3
_chemical_formula_sum   'In2 Ga4 Ag6 Se12'
_cell_volume   645.85790857
_cell_formula_units_Z   2
loop_
 _symmetry_equiv_pos_site_id
 _symmetry_equiv_pos_as_xyz
  1  'x, y, z'
loop_
 _atom_site_type_symbol
 _atom_site_label
 _atom_site_symmetry_multiplicity
 _atom_site_fract_x
 _atom_site_fract_y
 _atom_site_fract_z
 _atom_site_occupancy
  In  In0  1  0.83367700  0.83367700  0.33264500  1
  In  In1  1  0.16632300  0.16632300  0.66735500  1
  Ga  Ga2  1  0.41894700  0.91894700  0.16210700  1
  Ga  Ga3  1  0.75000000  0.25000000  0.50000000  1
  Ga  Ga4  1  0.08105300  0.58105300  0.83789300  1
  Ga  Ga5  1  0.50000000  0.50000000  0.00000000  1
  Ag  Ag6  1  0.91799400  0.41799400  0.16401300  1
  Ag  Ag7  1  0.25000000  0.75000000  0.50000000  1
  Ag  Ag8  1  0.58200600  0.08200600  0.83598700  1
  Ag  Ag9  1  0.00000000  0.00000000  0.00000000  1
  Ag  Ag10  1  0.33376600  0.33376600  0.33246700  1
  Ag  Ag11  1  0.66623400  0.66623400  0.66753300  1
  Se  Se12  1  0.14162900  0.10900400  0.24368700  1
  Se  Se13  1  0.47441800  0.44400000  0.57960500  1
  Se  Se14  1  0.79076400  0.76167700  0.91873600  1
  Se  Se15  1  0.61468400  0.64731000  0.24368700  1
  Se  Se16  1  0.94597600  0.97639400  0.57960500  1
  Se  Se17  1  0.29050100  0.31958800  0.91873600  1
  Se  Se18  1  0.23832300  0.70949900  0.08126400  1
  Se  Se19  1  0.55600000  0.05402400  0.42039500  1
  Se  Se20  1  0.89099600  0.38531600  0.75631300  1
  Se  Se21  1  0.68041200  0.20923600  0.08126400  1
  Se  Se22  1  0.02360600  0.52558200  0.42039500  1
  Se  Se23  1  0.35269000  0.85837100  0.75631300  1
