# generated using pymatgen
data_K3Na9Sr4(BO2)20
_symmetry_space_group_name_H-M   'P 1'
_cell_length_a   7.48808300
_cell_length_b   9.88297946
_cell_length_c   13.70146177
_cell_angle_alpha   92.01297591
_cell_angle_beta   90.91549019
_cell_angle_gamma   108.94269664
_symmetry_Int_Tables_number   1
_chemical_formula_structural   K3Na9Sr4(BO2)20
_chemical_formula_sum   'K3 Na9 Sr4 B20 O40'
_cell_volume   958.06389338
_cell_formula_units_Z   1
loop_
 _symmetry_equiv_pos_site_id
 _symmetry_equiv_pos_as_xyz
  1  'x, y, z'
loop_
 _atom_site_type_symbol
 _atom_site_label
 _atom_site_symmetry_multiplicity
 _atom_site_fract_x
 _atom_site_fract_y
 _atom_site_fract_z
 _atom_site_occupancy
  K  K0  1  0.89361300  0.43729900  0.87463400  1
  K  K1  1  0.10628700  0.56232000  0.12533200  1
  K  K2  1  0.60584600  0.56229900  0.62474300  1
  Na  Na3  1  0.03934800  0.88894200  0.24237100  1
  Na  Na4  1  0.53952900  0.88857100  0.74247600  1
  Na  Na5  1  0.46062200  0.11245400  0.25761500  1
  Na  Na6  1  0.96048300  0.11138200  0.75748100  1
  Na  Na7  1  0.34233900  0.83711900  0.50072400  1
  Na  Na8  1  0.84217700  0.83746000  0.00041600  1
  Na  Na9  1  0.15789100  0.16258600  0.99963900  1
  Na  Na10  1  0.65704900  0.16287700  0.49954900  1
  Na  Na11  1  0.40164100  0.45005800  0.37541500  1
  Sr  Sr12  1  0.93751700  0.21768800  0.28210700  1
  Sr  Sr13  1  0.43585900  0.21661100  0.78169200  1
  Sr  Sr14  1  0.56398400  0.78202600  0.21875600  1
  Sr  Sr15  1  0.06422400  0.78325100  0.71826800  1
  B  B16  1  0.30714200  0.86705000  0.07550800  1
  B  B17  1  0.80738600  0.86687900  0.57516700  1
  B  B18  1  0.19612800  0.13538000  0.42387300  1
  B  B19  1  0.69283400  0.13272700  0.92461700  1
  B  B20  1  0.80143400  0.45847900  0.37697100  1
  B  B21  1  0.30742200  0.45869500  0.87774100  1
  B  B22  1  0.69257600  0.54119300  0.12245500  1
  B  B23  1  0.19297600  0.54163300  0.62210200  1
  B  B24  1  0.87653800  0.72067900  0.43030600  1
  B  B25  1  0.37744600  0.72106700  0.93110800  1
  B  B26  1  0.62245400  0.27890300  0.06894400  1
  B  B27  1  0.12434400  0.28032000  0.56814000  1
  B  B28  1  0.13141300  0.62939800  0.35766100  1
  B  B29  1  0.63162200  0.63456400  0.85583200  1
  B  B30  1  0.36875600  0.36536100  0.14510700  1
  B  B31  1  0.86883400  0.36526400  0.64387500  1
  B  B32  1  0.72285800  0.91557200  0.40807800  1
  B  B33  1  0.22251000  0.91543000  0.90809700  1
  B  B34  1  0.77746900  0.08455500  0.09203100  1
  B  B35  1  0.27734100  0.08473800  0.59167000  1
  O  O36  1  0.06860500  0.73842600  0.39583300  1
  O  O37  1  0.56804600  0.74120700  0.89666200  1
  O  O38  1  0.43186000  0.25896200  0.10337200  1
  O  O39  1  0.93274100  0.25905700  0.60239600  1
  O  O40  1  0.98984400  0.49234400  0.34154200  1
  O  O41  1  0.49503100  0.49480400  0.84081000  1
  O  O42  1  0.50539000  0.50520700  0.15986200  1
  O  O43  1  0.00528100  0.50502400  0.65908800  1
  O  O44  1  0.66256600  0.99941600  0.35076000  1
  O  O45  1  0.16307700  0.99965600  0.85082100  1
  O  O46  1  0.83674600  0.00012200  0.14928100  1
  O  O47  1  0.33674900  0.00047100  0.64912900  1
  O  O48  1  0.79501200  0.81145800  0.36985100  1
  O  O49  1  0.29353500  0.81047500  0.87015500  1
  O  O50  1  0.70648800  0.18954300  0.12990400  1
  O  O51  1  0.20636900  0.18983000  0.62942600  1
  O  O52  1  0.74912200  0.56962900  0.42075900  1
  O  O53  1  0.25574100  0.56926100  0.92265100  1
  O  O54  1  0.74422300  0.43077400  0.07740000  1
  O  O55  1  0.24541700  0.43186900  0.57703400  1
  O  O56  1  0.31211400  0.64950400  0.33691700  1
  O  O57  1  0.81136700  0.66204100  0.83223700  1
  O  O58  1  0.18905100  0.33810700  0.16868700  1
  O  O59  1  0.68913200  0.33775900  0.66781400  1
  O  O60  1  0.39201500  0.77167700  0.03525300  1
  O  O61  1  0.89186900  0.77109300  0.53460400  1
  O  O62  1  0.11445600  0.23339200  0.46340500  1
  O  O63  1  0.60796400  0.22825600  0.96481100  1
  O  O64  1  0.20560100  0.92713900  0.01104800  1
  O  O65  1  0.70564700  0.92707400  0.51085500  1
  O  O66  1  0.29401700  0.07286100  0.48888300  1
  O  O67  1  0.79462300  0.07287900  0.98913800  1
  O  O68  1  0.68450600  0.32338200  0.36640700  1
  O  O69  1  0.19258300  0.32298400  0.86711300  1
  O  O70  1  0.80734500  0.67707500  0.13288500  1
  O  O71  1  0.30744900  0.67748200  0.63307200  1
  O  O72  1  0.31688900  0.89277800  0.17184100  1
  O  O73  1  0.81740500  0.89337400  0.67128000  1
  O  O74  1  0.18339100  0.10646000  0.32800600  1
  O  O75  1  0.68284500  0.10631900  0.82850800  1
