# generated using pymatgen
data_HfZr(CoSb)2
_symmetry_space_group_name_H-M   'P 1'
_cell_length_a   7.89518658
_cell_length_b   7.89518658
_cell_length_c   7.89518640
_cell_angle_alpha   33.76857017
_cell_angle_beta   33.76857017
_cell_angle_gamma   33.76856982
_symmetry_Int_Tables_number   1
_chemical_formula_structural   HfZr(CoSb)2
_chemical_formula_sum   'Hf1 Zr1 Co2 Sb2'
_cell_volume   135.48166918
_cell_formula_units_Z   1
loop_
 _symmetry_equiv_pos_site_id
 _symmetry_equiv_pos_as_xyz
  1  'x, y, z'
loop_
 _atom_site_type_symbol
 _atom_site_label
 _atom_site_symmetry_multiplicity
 _atom_site_fract_x
 _atom_site_fract_y
 _atom_site_fract_z
 _atom_site_occupancy
  Hf  Hf0  1  0.62569600  0.62569600  0.62569600  1
  Zr  Zr1  1  0.12449600  0.12449600  0.12449600  1
  Co  Co2  1  0.74959200  0.74959200  0.74959200  1
  Co  Co3  1  0.25105800  0.25105800  0.25105800  1
  Sb  Sb4  1  0.99822700  0.99822700  0.99822700  1
  Sb  Sb5  1  0.50093000  0.50093000  0.50093000  1
