# generated using pymatgen
data_Ho3Er9(MnBi2)2
_symmetry_space_group_name_H-M   'P 1'
_cell_length_a   4.27386900
_cell_length_b   8.22867871
_cell_length_c   14.24126676
_cell_angle_alpha   90.00582442
_cell_angle_beta   90.00000000
_cell_angle_gamma   90.00000000
_symmetry_Int_Tables_number   1
_chemical_formula_structural   Ho3Er9(MnBi2)2
_chemical_formula_sum   'Ho3 Er9 Mn2 Bi4'
_cell_volume   500.84106620
_cell_formula_units_Z   1
loop_
 _symmetry_equiv_pos_site_id
 _symmetry_equiv_pos_as_xyz
  1  'x, y, z'
loop_
 _atom_site_type_symbol
 _atom_site_label
 _atom_site_symmetry_multiplicity
 _atom_site_fract_x
 _atom_site_fract_y
 _atom_site_fract_z
 _atom_site_occupancy
  Ho  Ho0  1  0.00000000  0.73325000  0.50005800  1
  Ho  Ho1  1  0.00000000  0.23309200  0.99999100  1
  Ho  Ho2  1  0.00000000  0.38336300  0.38377400  1
  Er  Er3  1  0.00000000  0.88349800  0.88385200  1
  Er  Er4  1  0.00000000  0.88349800  0.11614200  1
  Er  Er5  1  0.00000000  0.38346100  0.61619200  1
  Er  Er6  1  0.50000000  0.10802700  0.50009600  1
  Er  Er7  1  0.50000000  0.60837200  0.99998800  1
  Er  Er8  1  0.50000000  0.19564000  0.19618300  1
  Er  Er9  1  0.50000000  0.69568600  0.69629200  1
  Er  Er10  1  0.50000000  0.69603600  0.30358900  1
  Er  Er11  1  0.50000000  0.19568000  0.80375200  1
  Mn  Mn12  1  0.50000000  0.99959200  0.00001500  1
  Mn  Mn13  1  0.50000000  0.49980000  0.50025400  1
  Bi  Bi14  1  0.00000000  0.99991100  0.33302000  1
  Bi  Bi15  1  0.00000000  0.50024300  0.83310000  1
  Bi  Bi16  1  0.00000000  0.50038800  0.16674700  1
  Bi  Bi17  1  0.00000000  0.00026400  0.66695500  1
