# generated using pymatgen
data_K3Ag9(SbS3)4
_symmetry_space_group_name_H-M   'P 1'
_cell_length_a   9.77205120
_cell_length_b   9.77205120
_cell_length_c   9.77205120
_cell_angle_alpha   111.33608769
_cell_angle_beta   111.33608769
_cell_angle_gamma   105.80260731
_symmetry_Int_Tables_number   1
_chemical_formula_structural   K3Ag9(SbS3)4
_chemical_formula_sum   'K3 Ag9 Sb4 S12'
_cell_volume   716.15816851
_cell_formula_units_Z   1
loop_
 _symmetry_equiv_pos_site_id
 _symmetry_equiv_pos_as_xyz
  1  'x, y, z'
loop_
 _atom_site_type_symbol
 _atom_site_label
 _atom_site_symmetry_multiplicity
 _atom_site_fract_x
 _atom_site_fract_y
 _atom_site_fract_z
 _atom_site_occupancy
  K  K0  1  0.00000000  0.00000000  0.00000000  1
  K  K1  1  0.66654800  0.66654800  0.00000000  1
  K  K2  1  0.33345200  0.33345200  0.00000000  1
  Ag  Ag3  1  0.33862800  0.48682900  0.49827900  1
  Ag  Ag4  1  0.98855000  0.84034900  0.50172100  1
  Ag  Ag5  1  0.50883600  0.00745300  0.17421500  1
  Ag  Ag6  1  0.83323800  0.33462100  0.82578500  1
  Ag  Ag7  1  0.66537900  0.49116400  0.49861700  1
  Ag  Ag8  1  0.99254700  0.16676200  0.50138300  1
  Ag  Ag9  1  0.51317100  0.01145000  0.85179900  1
  Ag  Ag10  1  0.15965100  0.66137200  0.14820100  1
  Ag  Ag11  1  0.25000000  0.75000000  0.50000000  1
  Sb  Sb12  1  0.62368800  0.88428700  0.49093300  1
  Sb  Sb13  1  0.39335400  0.13275400  0.50906700  1
  Sb  Sb14  1  0.86724600  0.37631200  0.26060000  1
  Sb  Sb15  1  0.11571300  0.60664600  0.73940000  1
  S  S16  1  0.57301100  0.79179800  0.68182600  1
  S  S17  1  0.10997200  0.89118500  0.31817400  1
  S  S18  1  0.79176100  0.08931100  0.20162300  1
  S  S19  1  0.88768800  0.59013800  0.79837700  1
  S  S20  1  0.40986200  0.20823900  0.29755000  1
  S  S21  1  0.91068900  0.11231200  0.70245000  1
  S  S22  1  0.20820200  0.89002800  0.78121300  1
  S  S23  1  0.10881500  0.42698900  0.21878700  1
  S  S24  1  0.33977700  0.68775300  0.02016900  1
  S  S25  1  0.66758500  0.31960800  0.97983100  1
  S  S26  1  0.68039200  0.66022300  0.34797600  1
  S  S27  1  0.31224700  0.33241500  0.65202400  1
