# generated using pymatgen
data_HfTeS
_symmetry_space_group_name_H-M   'P 1'
_cell_length_a   3.81933384
_cell_length_b   3.81933400
_cell_length_c   6.56383401
_cell_angle_alpha   90.00518778
_cell_angle_beta   90.00519177
_cell_angle_gamma   59.99951600
_symmetry_Int_Tables_number   1
_chemical_formula_structural   HfTeS
_chemical_formula_sum   'Hf1 Te1 S1'
_cell_volume   82.92039485
_cell_formula_units_Z   1
loop_
 _symmetry_equiv_pos_site_id
 _symmetry_equiv_pos_as_xyz
  1  'x, y, z'
loop_
 _atom_site_type_symbol
 _atom_site_label
 _atom_site_symmetry_multiplicity
 _atom_site_fract_x
 _atom_site_fract_y
 _atom_site_fract_z
 _atom_site_occupancy
  Hf  Hf0  1  0.99999500  0.99999500  0.03003300  1
  Te  Te1  1  0.33330800  0.33330800  0.74358800  1
  S  S2  1  0.66669700  0.66669700  0.22637900  1
