# generated using pymatgen
data_HfNbB4
_symmetry_space_group_name_H-M   'P 1'
_cell_length_a   3.13204205
_cell_length_b   3.13204205
_cell_length_c   6.80640000
_cell_angle_alpha   90.00000000
_cell_angle_beta   90.00000000
_cell_angle_gamma   120.00000114
_symmetry_Int_Tables_number   1
_chemical_formula_structural   HfNbB4
_chemical_formula_sum   'Hf1 Nb1 B4'
_cell_volume   57.82335205
_cell_formula_units_Z   1
loop_
 _symmetry_equiv_pos_site_id
 _symmetry_equiv_pos_as_xyz
  1  'x, y, z'
loop_
 _atom_site_type_symbol
 _atom_site_label
 _atom_site_symmetry_multiplicity
 _atom_site_fract_x
 _atom_site_fract_y
 _atom_site_fract_z
 _atom_site_occupancy
  Hf  Hf0  1  0.00000000  0.00000000  0.00000000  1
  Nb  Nb1  1  0.00000000  0.00000000  0.50000000  1
  B  B2  1  0.66666700  0.33333300  0.74624200  1
  B  B3  1  0.66666700  0.33333300  0.25375800  1
  B  B4  1  0.33333300  0.66666700  0.74624200  1
  B  B5  1  0.33333300  0.66666700  0.25375800  1
