# generated using pymatgen
data_K2MgH8(SO6)2
_symmetry_space_group_name_H-M   'P 1'
_cell_length_a   7.68609422
_cell_length_b   7.68609422
_cell_length_c   10.04065812
_cell_angle_alpha   85.90052413
_cell_angle_beta   85.90052413
_cell_angle_gamma   78.78308950
_symmetry_Int_Tables_number   1
_chemical_formula_structural   K2MgH8(SO6)2
_chemical_formula_sum   'K4 Mg2 H16 S4 O24'
_cell_volume   579.33702770
_cell_formula_units_Z   2
loop_
 _symmetry_equiv_pos_site_id
 _symmetry_equiv_pos_as_xyz
  1  'x, y, z'
loop_
 _atom_site_type_symbol
 _atom_site_label
 _atom_site_symmetry_multiplicity
 _atom_site_fract_x
 _atom_site_fract_y
 _atom_site_fract_z
 _atom_site_occupancy
  K  K0  1  0.09567800  0.56438300  0.24941500  1
  K  K1  1  0.57066900  0.09511900  0.24687400  1
  K  K2  1  0.90488100  0.42933100  0.75312600  1
  K  K3  1  0.43561700  0.90432200  0.75058500  1
  Mg  Mg4  1  0.00005000  0.99995000  0.00000000  1
  Mg  Mg5  1  0.50055600  0.49944400  0.50000000  1
  H  H6  1  0.21943000  0.66679000  0.96185600  1
  H  H7  1  0.66675700  0.21972300  0.96150000  1
  H  H8  1  0.78027700  0.33324300  0.03850000  1
  H  H9  1  0.33321000  0.78057000  0.03814400  1
  H  H10  1  0.05514200  0.05081200  0.72688300  1
  H  H11  1  0.94918800  0.94485800  0.27311700  1
  H  H12  1  0.92412300  0.91648800  0.74221700  1
  H  H13  1  0.08351200  0.07587700  0.25778300  1
  H  H14  1  0.28592000  0.54662900  0.72721000  1
  H  H15  1  0.54658500  0.28422000  0.72730000  1
  H  H16  1  0.71578000  0.45341500  0.27270000  1
  H  H17  1  0.45337100  0.71408000  0.27279000  1
  H  H18  1  0.18629100  0.65687800  0.60801100  1
  H  H19  1  0.65732800  0.18639400  0.60710300  1
  H  H20  1  0.81360600  0.34267200  0.39289700  1
  H  H21  1  0.34312200  0.81370900  0.39198900  1
  S  S22  1  0.79550600  0.78986500  0.52716100  1
  S  S23  1  0.21013500  0.20449400  0.47283900  1
  S  S24  1  0.29500900  0.29495800  0.95407700  1
  S  S25  1  0.70504200  0.70499100  0.04592300  1
  O  O26  1  0.82880800  0.82893100  0.05894100  1
  O  O27  1  0.17106900  0.17119200  0.94105900  1
  O  O28  1  0.98365900  0.98857300  0.79378200  1
  O  O29  1  0.01142700  0.01634100  0.20621800  1
  O  O30  1  0.30716600  0.61435100  0.64110500  1
  O  O31  1  0.61514300  0.30618100  0.64168600  1
  O  O32  1  0.69381900  0.38485700  0.35831400  1
  O  O33  1  0.38564900  0.69283400  0.35889500  1
  O  O34  1  0.33546900  0.32964800  0.43928800  1
  O  O35  1  0.67035200  0.66453100  0.56071200  1
  O  O36  1  0.21670000  0.78330000  0.00000000  1
  O  O37  1  0.78309900  0.21690100  0.00000000  1
  O  O38  1  0.21933000  0.47058400  0.88402500  1
  O  O39  1  0.47076400  0.21923000  0.88439500  1
  O  O40  1  0.78077000  0.52923600  0.11560500  1
  O  O41  1  0.52941600  0.78067000  0.11597500  1
  O  O42  1  0.31886200  0.31908800  0.09516900  1
  O  O43  1  0.68091200  0.68113800  0.90483100  1
  O  O44  1  0.96382400  0.71775600  0.59466100  1
  O  O45  1  0.71497300  0.96432600  0.58175800  1
  O  O46  1  0.03567400  0.28502700  0.41824200  1
  O  O47  1  0.28224400  0.03617600  0.40533900  1
  O  O48  1  0.82996600  0.80908100  0.37926100  1
  O  O49  1  0.19091900  0.17003400  0.62073900  1
