# generated using pymatgen
data_HfTi(PbO3)2
_symmetry_space_group_name_H-M   'P 1'
_cell_length_a   5.83455395
_cell_length_b   5.83455395
_cell_length_c   5.83455395
_cell_angle_alpha   121.42790911
_cell_angle_beta   121.42790911
_cell_angle_gamma   87.54408496
_symmetry_Int_Tables_number   1
_chemical_formula_structural   HfTi(PbO3)2
_chemical_formula_sum   'Hf1 Ti1 Pb2 O6'
_cell_volume   137.27730380
_cell_formula_units_Z   1
loop_
 _symmetry_equiv_pos_site_id
 _symmetry_equiv_pos_as_xyz
  1  'x, y, z'
loop_
 _atom_site_type_symbol
 _atom_site_label
 _atom_site_symmetry_multiplicity
 _atom_site_fract_x
 _atom_site_fract_y
 _atom_site_fract_z
 _atom_site_occupancy
  Hf  Hf0  1  0.27046500  0.27046500  0.00000000  1
  Ti  Ti1  1  0.77056100  0.77056100  0.00000000  1
  Pb  Pb2  1  0.99452300  0.49452300  0.50000000  1
  Pb  Pb3  1  0.49452300  0.99452300  0.50000000  1
  O  O4  1  0.56151900  0.56151900  0.51179100  1
  O  O5  1  0.04972900  0.04972900  0.48820900  1
  O  O6  1  0.56151900  0.04972900  0.00000000  1
  O  O7  1  0.04972900  0.56151900  0.00000000  1
  O  O8  1  0.55241300  0.55241300  0.00000000  1
  O  O9  1  0.03901800  0.03901800  0.00000000  1
