# generated using pymatgen
data_K3In(PO4)2
_symmetry_space_group_name_H-M   'P 1'
_cell_length_a   9.79446165
_cell_length_b   9.79446165
_cell_length_c   9.95631444
_cell_angle_alpha   89.81397134
_cell_angle_beta   89.81397134
_cell_angle_gamma   71.26543820
_symmetry_Int_Tables_number   1
_chemical_formula_structural   K3In(PO4)2
_chemical_formula_sum   'K12 In4 P8 O32'
_cell_volume   904.51113851
_cell_formula_units_Z   4
loop_
 _symmetry_equiv_pos_site_id
 _symmetry_equiv_pos_as_xyz
  1  'x, y, z'
loop_
 _atom_site_type_symbol
 _atom_site_label
 _atom_site_symmetry_multiplicity
 _atom_site_fract_x
 _atom_site_fract_y
 _atom_site_fract_z
 _atom_site_occupancy
  K  K0  1  0.35999600  0.64000400  0.25000000  1
  K  K1  1  0.64000400  0.35999600  0.75000000  1
  K  K2  1  0.13200400  0.35937200  0.29336600  1
  K  K3  1  0.64062800  0.86799600  0.20663400  1
  K  K4  1  0.86799600  0.64062800  0.70663400  1
  K  K5  1  0.35937200  0.13200400  0.79336600  1
  K  K6  1  0.89479600  0.10520400  0.25000000  1
  K  K7  1  0.10520400  0.89479600  0.75000000  1
  K  K8  1  0.51481100  0.30372000  0.09099800  1
  K  K9  1  0.69628000  0.48518900  0.40900200  1
  K  K10  1  0.48518900  0.69628000  0.90900200  1
  K  K11  1  0.30372000  0.51481100  0.59099800  1
  In  In12  1  0.01336400  0.73580500  0.07475400  1
  In  In13  1  0.26419500  0.98663600  0.42524600  1
  In  In14  1  0.98663600  0.26419500  0.92524600  1
  In  In15  1  0.73580500  0.01336400  0.57475400  1
  P  P16  1  0.49798900  0.20300200  0.42764600  1
  P  P17  1  0.79699800  0.50201100  0.07235400  1
  P  P18  1  0.50201100  0.79699800  0.57235400  1
  P  P19  1  0.20300200  0.49798900  0.92764600  1
  P  P20  1  0.96263300  0.23592600  0.58389000  1
  P  P21  1  0.76407400  0.03736700  0.91611000  1
  P  P22  1  0.03736700  0.76407400  0.41611000  1
  P  P23  1  0.23592600  0.96263300  0.08389000  1
  O  O24  1  0.64208500  0.09349800  0.37007400  1
  O  O25  1  0.90650200  0.35791500  0.12992600  1
  O  O26  1  0.35791500  0.90650200  0.62992600  1
  O  O27  1  0.09349800  0.64208500  0.87007400  1
  O  O28  1  0.02716100  0.18090100  0.72460000  1
  O  O29  1  0.81909900  0.97283900  0.77540000  1
  O  O30  1  0.97283900  0.81909900  0.27540000  1
  O  O31  1  0.18090100  0.02716100  0.22460000  1
  O  O32  1  0.46732400  0.35614200  0.36976600  1
  O  O33  1  0.64385800  0.53267600  0.13023400  1
  O  O34  1  0.53267600  0.64385800  0.63023400  1
  O  O35  1  0.35614200  0.46732400  0.86976600  1
  O  O36  1  0.36875600  0.14970300  0.39411400  1
  O  O37  1  0.85029700  0.63124400  0.10588600  1
  O  O38  1  0.63124400  0.85029700  0.60588600  1
  O  O39  1  0.14970300  0.36875600  0.89411400  1
  O  O40  1  0.91281200  0.39981900  0.57417300  1
  O  O41  1  0.60018100  0.08718800  0.92582700  1
  O  O42  1  0.08718800  0.60018100  0.42582700  1
  O  O43  1  0.39981900  0.91281200  0.07417300  1
  O  O44  1  0.52377800  0.20070600  0.58450700  1
  O  O45  1  0.79929400  0.47622200  0.91549300  1
  O  O46  1  0.47622200  0.79929400  0.41549300  1
  O  O47  1  0.20070600  0.52377800  0.08450700  1
  O  O48  1  0.82832900  0.18647000  0.55296200  1
  O  O49  1  0.81353000  0.17167100  0.94703800  1
  O  O50  1  0.17167100  0.81353000  0.44703800  1
  O  O51  1  0.18647000  0.82832900  0.05296200  1
  O  O52  1  0.08001300  0.16561700  0.47624000  1
  O  O53  1  0.83438300  0.91998700  0.02376000  1
  O  O54  1  0.91998700  0.83438300  0.52376000  1
  O  O55  1  0.16561700  0.08001300  0.97624000  1
