# generated using pymatgen
data_K2V3P4O17
_symmetry_space_group_name_H-M   'P 1'
_cell_length_a   5.09897300
_cell_length_b   9.38315900
_cell_length_c   18.77208661
_cell_angle_alpha   65.43472556
_cell_angle_beta   90.00000000
_cell_angle_gamma   90.00000000
_symmetry_Int_Tables_number   1
_chemical_formula_structural   K2V3P4O17
_chemical_formula_sum   'K4 V6 P8 O34'
_cell_volume   816.84832860
_cell_formula_units_Z   2
loop_
 _symmetry_equiv_pos_site_id
 _symmetry_equiv_pos_as_xyz
  1  'x, y, z'
loop_
 _atom_site_type_symbol
 _atom_site_label
 _atom_site_symmetry_multiplicity
 _atom_site_fract_x
 _atom_site_fract_y
 _atom_site_fract_z
 _atom_site_occupancy
  K  K0  1  0.75212500  0.67748800  0.32910800  1
  K  K1  1  0.23140100  0.32293100  0.17040600  1
  K  K2  1  0.76859900  0.32293100  0.67040600  1
  K  K3  1  0.24787500  0.67748800  0.82910800  1
  V  V4  1  0.72066800  0.86150100  0.65363200  1
  V  V5  1  0.22247900  0.13846200  0.84714900  1
  V  V6  1  0.77752100  0.13846200  0.34714900  1
  V  V7  1  0.27933200  0.86150100  0.15363200  1
  V  V8  1  0.34947000  0.49794900  0.50061300  1
  V  V9  1  0.65053000  0.49794900  0.00061300  1
  P  P10  1  0.22677700  0.69815800  0.60380600  1
  P  P11  1  0.72832600  0.30103500  0.89698000  1
  P  P12  1  0.27167400  0.30103500  0.39698000  1
  P  P13  1  0.77322300  0.69815800  0.10380600  1
  P  P14  1  0.21976300  0.12508300  0.57036000  1
  P  P15  1  0.72249700  0.87497900  0.93007300  1
  P  P16  1  0.27750300  0.87497900  0.43007300  1
  P  P17  1  0.78023700  0.12508300  0.07036000  1
  O  O18  1  0.75166100  0.81953200  0.74681100  1
  O  O19  1  0.25151800  0.18022300  0.75397900  1
  O  O20  1  0.74848200  0.18022300  0.25397900  1
  O  O21  1  0.24833900  0.81953200  0.24681100  1
  O  O22  1  0.70561000  0.84264400  0.02172200  1
  O  O23  1  0.20639100  0.15580100  0.47891700  1
  O  O24  1  0.79360900  0.15580100  0.97891700  1
  O  O25  1  0.29439000  0.84264400  0.52172200  1
  O  O26  1  0.73817700  0.71449900  0.92676600  1
  O  O27  1  0.22461100  0.28626500  0.57317100  1
  O  O28  1  0.77538900  0.28626500  0.07317100  1
  O  O29  1  0.26182300  0.71449900  0.42676600  1
  O  O30  1  0.42551000  0.70820300  0.66247200  1
  O  O31  1  0.92858200  0.29268800  0.83842100  1
  O  O32  1  0.07141800  0.29268800  0.33842100  1
  O  O33  1  0.57449000  0.70820300  0.16247200  1
  O  O34  1  0.94409600  0.71632300  0.62673700  1
  O  O35  1  0.44600300  0.28301600  0.87370800  1
  O  O36  1  0.55399700  0.28301600  0.37370800  1
  O  O37  1  0.05590400  0.71632300  0.12673700  1
  O  O38  1  0.96909900  0.96790500  0.89608300  1
  O  O39  1  0.46826700  0.03327000  0.60396600  1
  O  O40  1  0.53173300  0.03327000  0.10396600  1
  O  O41  1  0.03090100  0.96790500  0.39608300  1
  O  O42  1  0.74932400  0.54641400  0.09193400  1
  O  O43  1  0.24538000  0.45217500  0.40928700  1
  O  O44  1  0.75462000  0.45217500  0.90928700  1
  O  O45  1  0.25067600  0.54641400  0.59193400  1
  O  O46  1  0.97022700  0.03838400  0.60638200  1
  O  O47  1  0.47113700  0.96026200  0.89438400  1
  O  O48  1  0.52886300  0.96026200  0.39438400  1
  O  O49  1  0.02977300  0.03838400  0.10638200  1
  O  O50  1  0.32857300  0.49381000  0.99933500  1
  O  O51  1  0.67142700  0.49381000  0.49933500  1
