# generated using pymatgen
data_HfAu9
_symmetry_space_group_name_H-M   'P 1'
_cell_length_a   5.13486497
_cell_length_b   5.13486497
_cell_length_c   9.39148264
_cell_angle_alpha   89.49050569
_cell_angle_beta   89.49050569
_cell_angle_gamma   47.62793831
_symmetry_Int_Tables_number   1
_chemical_formula_structural   HfAu9
_chemical_formula_sum   'Hf1 Au9'
_cell_volume   182.93180158
_cell_formula_units_Z   1
loop_
 _symmetry_equiv_pos_site_id
 _symmetry_equiv_pos_as_xyz
  1  'x, y, z'
loop_
 _atom_site_type_symbol
 _atom_site_label
 _atom_site_symmetry_multiplicity
 _atom_site_fract_x
 _atom_site_fract_y
 _atom_site_fract_z
 _atom_site_occupancy
  Hf  Hf0  1  0.50000000  0.50000000  0.50000000  1
  Au  Au1  1  0.00000000  0.00000000  0.00000000  1
  Au  Au2  1  0.70200800  0.70200800  0.90076800  1
  Au  Au3  1  0.20037100  0.20037100  0.40412400  1
  Au  Au4  1  0.79962900  0.79962900  0.59587600  1
  Au  Au5  1  0.29799200  0.29799200  0.09923200  1
  Au  Au6  1  0.40077100  0.40077100  0.79674800  1
  Au  Au7  1  0.90553700  0.90553700  0.30151900  1
  Au  Au8  1  0.09446300  0.09446300  0.69848100  1
  Au  Au9  1  0.59922900  0.59922900  0.20325200  1
