# generated using pymatgen
data_Ho2Ti12(CuO4)9
_symmetry_space_group_name_H-M   'P 1'
_cell_length_a   6.44595525
_cell_length_b   10.50399770
_cell_length_c   10.50399770
_cell_angle_alpha   120.00000000
_cell_angle_beta   90.00000000
_cell_angle_gamma   90.00000000
_symmetry_Int_Tables_number   1
_chemical_formula_structural   Ho2Ti12(CuO4)9
_chemical_formula_sum   'Ho2 Ti12 Cu9 O36'
_cell_volume   615.92403762
_cell_formula_units_Z   1
loop_
 _symmetry_equiv_pos_site_id
 _symmetry_equiv_pos_as_xyz
  1  'x, y, z'
loop_
 _atom_site_type_symbol
 _atom_site_label
 _atom_site_symmetry_multiplicity
 _atom_site_fract_x
 _atom_site_fract_y
 _atom_site_fract_z
 _atom_site_occupancy
  Ho  Ho0  1  0.00457400  0.00000000  0.00000000  1
  Ho  Ho1  1  0.66209300  0.66666700  0.33333300  1
  Ti  Ti2  1  0.17024100  0.65269100  0.82506200  1
  Ti  Ti3  1  0.83333300  0.33333300  0.16666700  1
  Ti  Ti4  1  0.49642600  0.01397600  0.50827100  1
  Ti  Ti5  1  0.83333300  0.33333300  0.66666700  1
  Ti  Ti6  1  0.49292300  0.00000000  0.00000000  1
  Ti  Ti7  1  0.17374400  0.66666700  0.33333300  1
  Ti  Ti8  1  0.17024100  0.17237200  0.34730900  1
  Ti  Ti9  1  0.83333300  0.83333300  0.66666700  1
  Ti  Ti10  1  0.49642600  0.49429500  0.98602400  1
  Ti  Ti11  1  0.49642600  0.49172900  0.50570500  1
  Ti  Ti12  1  0.17024100  0.17493800  0.82762800  1
  Ti  Ti13  1  0.83333300  0.83333300  0.16666700  1
  Cu  Cu14  1  0.33333300  0.33333300  0.16666700  1
  Cu  Cu15  1  0.99484500  0.99672500  0.49854400  1
  Cu  Cu16  1  0.67182200  0.66994200  0.83478900  1
  Cu  Cu17  1  0.99484500  0.50145600  0.49818100  1
  Cu  Cu18  1  0.67182200  0.16521100  0.83515200  1
  Cu  Cu19  1  0.33333300  0.83333300  0.16666700  1
  Cu  Cu20  1  0.67182200  0.16484800  0.33005800  1
  Cu  Cu21  1  0.33333300  0.83333300  0.66666700  1
  Cu  Cu22  1  0.99484500  0.50181900  0.00327500  1
  O  O23  1  0.24451700  0.06379400  0.62223200  1
  O  O24  1  0.92002100  0.74463300  0.95956500  1
  O  O25  1  0.58374500  0.41000900  0.29213800  1
  O  O26  1  0.35135800  0.52621300  0.17643300  1
  O  O27  1  0.00324000  0.18522500  0.50185500  1
  O  O28  1  0.68717900  0.86033800  0.84330900  1
  O  O29  1  0.97948700  0.80632800  0.49002500  1
  O  O30  1  0.66342700  0.48144200  0.83147800  1
  O  O31  1  0.31530900  0.14045400  0.15690000  1
  O  O32  1  0.08292200  0.25665800  0.04119500  1
  O  O33  1  0.74664500  0.92203300  0.37376900  1
  O  O34  1  0.42215000  0.60287300  0.71110100  1
  O  O35  1  0.42215000  0.28889900  0.89177200  1
  O  O36  1  0.08292200  0.95880500  0.21546200  1
  O  O37  1  0.74664500  0.62623100  0.54826500  1
  O  O38  1  0.66342700  0.16852200  0.64996400  1
  O  O39  1  0.31530900  0.84310000  0.98355300  1
  O  O40  1  0.97948700  0.50997500  0.31630400  1
  O  O41  1  0.68717900  0.15669100  0.01703000  1
  O  O42  1  0.35135800  0.82356700  0.34978000  1
  O  O43  1  0.00324000  0.49814500  0.68336900  1
  O  O44  1  0.92002100  0.04043500  0.78506900  1
  O  O45  1  0.58374500  0.70786200  0.11787100  1
  O  O46  1  0.24451700  0.37776800  0.44156100  1
  O  O47  1  0.00324000  0.31663100  0.81477500  1
  O  O48  1  0.68717900  0.98297000  0.13966200  1
  O  O49  1  0.35135800  0.65022000  0.47378700  1
  O  O50  1  0.58374500  0.88212900  0.58999100  1
  O  O51  1  0.24451700  0.55843900  0.93620600  1
  O  O52  1  0.92002100  0.21493100  0.25536700  1
  O  O53  1  0.74664500  0.45173500  0.07796700  1
  O  O54  1  0.42215000  0.10822800  0.39712700  1
  O  O55  1  0.08292200  0.78453800  0.74334200  1
  O  O56  1  0.31530900  0.01644700  0.85954600  1
  O  O57  1  0.97948700  0.68369600  0.19367200  1
  O  O58  1  0.66342700  0.35003600  0.51855800  1
