# generated using pymatgen
data_Ho4MnGe8
_symmetry_space_group_name_H-M   'P 1'
_cell_length_a   4.00095800
_cell_length_b   4.18809500
_cell_length_c   15.89398400
_cell_angle_alpha   90.00000000
_cell_angle_beta   90.00000000
_cell_angle_gamma   90.00000000
_symmetry_Int_Tables_number   1
_chemical_formula_structural   Ho4MnGe8
_chemical_formula_sum   'Ho4 Mn1 Ge8'
_cell_volume   266.32582945
_cell_formula_units_Z   1
loop_
 _symmetry_equiv_pos_site_id
 _symmetry_equiv_pos_as_xyz
  1  'x, y, z'
loop_
 _atom_site_type_symbol
 _atom_site_label
 _atom_site_symmetry_multiplicity
 _atom_site_fract_x
 _atom_site_fract_y
 _atom_site_fract_z
 _atom_site_occupancy
  Ho  Ho0  1  0.25000000  0.00000000  0.10052100  1
  Ho  Ho1  1  0.25000000  0.50000000  0.60710500  1
  Ho  Ho2  1  0.75000000  0.50000000  0.39892600  1
  Ho  Ho3  1  0.75000000  0.00000000  0.89653000  1
  Mn  Mn4  1  0.25000000  0.00000000  0.31078100  1
  Ge  Ge5  1  0.25000000  0.00000000  0.46002000  1
  Ge  Ge6  1  0.25000000  0.50000000  0.94572000  1
  Ge  Ge7  1  0.75000000  0.50000000  0.05396000  1
  Ge  Ge8  1  0.75000000  0.00000000  0.56601300  1
  Ge  Ge9  1  0.25000000  0.50000000  0.24044900  1
  Ge  Ge10  1  0.25000000  0.00000000  0.74906700  1
  Ge  Ge11  1  0.75000000  0.00000000  0.23535100  1
  Ge  Ge12  1  0.75000000  0.50000000  0.75355700  1
