# generated using pymatgen
data_Ge2Bi2Te5
_symmetry_space_group_name_H-M   'P 1'
_cell_length_a   19.22754432
_cell_length_b   19.22754432
_cell_length_c   19.22754488
_cell_angle_alpha   12.91050565
_cell_angle_beta   12.91050565
_cell_angle_gamma   12.91050420
_symmetry_Int_Tables_number   1
_chemical_formula_structural   Ge2Bi2Te5
_chemical_formula_sum   'Ge2 Bi2 Te5'
_cell_volume   308.61295760
_cell_formula_units_Z   1
loop_
 _symmetry_equiv_pos_site_id
 _symmetry_equiv_pos_as_xyz
  1  'x, y, z'
loop_
 _atom_site_type_symbol
 _atom_site_label
 _atom_site_symmetry_multiplicity
 _atom_site_fract_x
 _atom_site_fract_y
 _atom_site_fract_z
 _atom_site_occupancy
  Ge  Ge0  1  0.90474100  0.90474100  0.90474100  1
  Ge  Ge1  1  0.50550100  0.50550100  0.50550100  1
  Bi  Bi2  1  0.10260900  0.10260900  0.10260900  1
  Bi  Bi3  1  0.69567700  0.69567700  0.69567700  1
  Te  Te4  1  0.39980500  0.39980500  0.39980500  1
  Te  Te5  1  0.19679400  0.19679400  0.19679400  1
  Te  Te6  1  0.80114500  0.80114500  0.80114500  1
  Te  Te7  1  0.99795200  0.99795200  0.99795200  1
  Te  Te8  1  0.59577600  0.59577600  0.59577600  1
