# generated using pymatgen
data_In(Ni11B3)2
_symmetry_space_group_name_H-M   'P 1'
_cell_length_a   7.39928698
_cell_length_b   7.39928698
_cell_length_c   7.39928698
_cell_angle_alpha   60.00000000
_cell_angle_beta   60.00000000
_cell_angle_gamma   60.00000000
_symmetry_Int_Tables_number   1
_chemical_formula_structural   In(Ni11B3)2
_chemical_formula_sum   'In1 Ni22 B6'
_cell_volume   286.45381946
_cell_formula_units_Z   1
loop_
 _symmetry_equiv_pos_site_id
 _symmetry_equiv_pos_as_xyz
  1  'x, y, z'
loop_
 _atom_site_type_symbol
 _atom_site_label
 _atom_site_symmetry_multiplicity
 _atom_site_fract_x
 _atom_site_fract_y
 _atom_site_fract_z
 _atom_site_occupancy
  In  In0  1  0.75000000  0.75000000  0.75000000  1
  Ni  Ni1  1  0.00171900  0.00171900  0.33527600  1
  Ni  Ni2  1  0.66128700  0.00171900  0.33527600  1
  Ni  Ni3  1  0.00171900  0.66128700  0.33527600  1
  Ni  Ni4  1  0.66128700  0.33527600  0.00171900  1
  Ni  Ni5  1  0.00171900  0.33527600  0.00171900  1
  Ni  Ni6  1  0.00171900  0.33527600  0.66128700  1
  Ni  Ni7  1  0.33527600  0.66128700  0.00171900  1
  Ni  Ni8  1  0.33527600  0.00171900  0.66128700  1
  Ni  Ni9  1  0.33527600  0.00171900  0.00171900  1
  Ni  Ni10  1  0.00171900  0.00171900  0.66128700  1
  Ni  Ni11  1  0.00171900  0.66128700  0.00171900  1
  Ni  Ni12  1  0.66128700  0.00171900  0.00171900  1
  Ni  Ni13  1  0.00000000  0.00000000  0.00000000  1
  Ni  Ni14  1  0.86209100  0.37930300  0.37930300  1
  Ni  Ni15  1  0.37930300  0.86209100  0.37930300  1
  Ni  Ni16  1  0.37930300  0.37930300  0.37930300  1
  Ni  Ni17  1  0.37930300  0.37930300  0.86209100  1
  Ni  Ni18  1  0.16802200  0.61065900  0.61065900  1
  Ni  Ni19  1  0.61065900  0.16802200  0.61065900  1
  Ni  Ni20  1  0.61065900  0.61065900  0.61065900  1
  Ni  Ni21  1  0.61065900  0.61065900  0.16802200  1
  Ni  Ni22  1  0.25000000  0.25000000  0.25000000  1
  B  B23  1  0.27290200  0.72709800  0.27290200  1
  B  B24  1  0.72709800  0.27290200  0.27290200  1
  B  B25  1  0.72709800  0.72709800  0.27290200  1
  B  B26  1  0.72709800  0.27290200  0.72709800  1
  B  B27  1  0.27290200  0.27290200  0.72709800  1
  B  B28  1  0.27290200  0.72709800  0.72709800  1
