# generated using pymatgen
data_GdY3V4O16
_symmetry_space_group_name_H-M   'P 1'
_cell_length_a   6.03429551
_cell_length_b   6.03429551
_cell_length_c   10.23907800
_cell_angle_alpha   90.00000000
_cell_angle_beta   90.00000000
_cell_angle_gamma   116.07250292
_symmetry_Int_Tables_number   1
_chemical_formula_structural   GdY3V4O16
_chemical_formula_sum   'Gd1 Y3 V4 O16'
_cell_volume   334.89272851
_cell_formula_units_Z   1
loop_
 _symmetry_equiv_pos_site_id
 _symmetry_equiv_pos_as_xyz
  1  'x, y, z'
loop_
 _atom_site_type_symbol
 _atom_site_label
 _atom_site_symmetry_multiplicity
 _atom_site_fract_x
 _atom_site_fract_y
 _atom_site_fract_z
 _atom_site_occupancy
  Gd  Gd0  1  0.00000000  0.00000000  0.50000000  1
  Y  Y1  1  0.50000000  0.50000000  0.00000000  1
  Y  Y2  1  0.50000000  0.00000000  0.24965500  1
  Y  Y3  1  0.00000000  0.50000000  0.75034500  1
  V  V4  1  0.00000000  0.50000000  0.24880300  1
  V  V5  1  0.50000000  0.00000000  0.75119700  1
  V  V6  1  0.50000000  0.50000000  0.50000000  1
  V  V7  1  0.00000000  0.00000000  0.00000000  1
  O  O8  1  0.91686200  0.23363100  0.34151500  1
  O  O9  1  0.41811900  0.73255600  0.84291000  1
  O  O10  1  0.23412600  0.41982400  0.59283600  1
  O  O11  1  0.73322900  0.91814600  0.09248700  1
  O  O12  1  0.41982400  0.23412600  0.40716400  1
  O  O13  1  0.91814600  0.73322900  0.90751300  1
  O  O14  1  0.73255600  0.41811900  0.15709000  1
  O  O15  1  0.23363100  0.91686200  0.65848500  1
  O  O16  1  0.58017600  0.76587400  0.40716400  1
  O  O17  1  0.08185400  0.26677100  0.90751300  1
  O  O18  1  0.26744400  0.58188100  0.15709000  1
  O  O19  1  0.76636900  0.08313800  0.65848500  1
  O  O20  1  0.08313800  0.76636900  0.34151500  1
  O  O21  1  0.58188100  0.26744400  0.84291000  1
  O  O22  1  0.76587400  0.58017600  0.59283600  1
  O  O23  1  0.26677100  0.08185400  0.09248700  1
