# generated using pymatgen
data_HfNbN2
_symmetry_space_group_name_H-M   'P 1'
_cell_length_a   5.51998547
_cell_length_b   5.51998547
_cell_length_c   5.51998619
_cell_angle_alpha   33.46995128
_cell_angle_beta   33.46995128
_cell_angle_gamma   33.46994920
_symmetry_Int_Tables_number   1
_chemical_formula_structural   HfNbN2
_chemical_formula_sum   'Hf1 Nb1 N2'
_cell_volume   45.56011676
_cell_formula_units_Z   1
loop_
 _symmetry_equiv_pos_site_id
 _symmetry_equiv_pos_as_xyz
  1  'x, y, z'
loop_
 _atom_site_type_symbol
 _atom_site_label
 _atom_site_symmetry_multiplicity
 _atom_site_fract_x
 _atom_site_fract_y
 _atom_site_fract_z
 _atom_site_occupancy
  Hf  Hf0  1  0.00000000  0.00000000  0.00000000  1
  Nb  Nb1  1  0.50000000  0.50000000  0.50000000  1
  N  N2  1  0.25423100  0.25423100  0.25423100  1
  N  N3  1  0.74576900  0.74576900  0.74576900  1
