# generated using pymatgen
data_Hf4Ni3As8
_symmetry_space_group_name_H-M   'P 1'
_cell_length_a   3.83327700
_cell_length_b   3.83327700
_cell_length_c   17.43610000
_cell_angle_alpha   90.00000000
_cell_angle_beta   90.00000000
_cell_angle_gamma   90.00000000
_symmetry_Int_Tables_number   1
_chemical_formula_structural   Hf4Ni3As8
_chemical_formula_sum   'Hf4 Ni3 As8'
_cell_volume   256.20627238
_cell_formula_units_Z   1
loop_
 _symmetry_equiv_pos_site_id
 _symmetry_equiv_pos_as_xyz
  1  'x, y, z'
loop_
 _atom_site_type_symbol
 _atom_site_label
 _atom_site_symmetry_multiplicity
 _atom_site_fract_x
 _atom_site_fract_y
 _atom_site_fract_z
 _atom_site_occupancy
  Hf  Hf0  1  0.50000000  0.00000000  0.12730600  1
  Hf  Hf1  1  0.50000000  0.00000000  0.62998100  1
  Hf  Hf2  1  0.00000000  0.50000000  0.87269400  1
  Hf  Hf3  1  0.00000000  0.50000000  0.37001900  1
  Ni  Ni4  1  0.00000000  0.00000000  0.50000000  1
  Ni  Ni5  1  0.50000000  0.50000000  0.00000000  1
  Ni  Ni6  1  0.50000000  0.50000000  0.50000000  1
  As  As7  1  0.50000000  0.00000000  0.92609600  1
  As  As8  1  0.50000000  0.00000000  0.41748200  1
  As  As9  1  0.00000000  0.50000000  0.07390400  1
  As  As10  1  0.00000000  0.50000000  0.58251800  1
  As  As11  1  0.00000000  0.00000000  0.75104600  1
  As  As12  1  0.00000000  0.00000000  0.24895400  1
  As  As13  1  0.50000000  0.50000000  0.75087600  1
  As  As14  1  0.50000000  0.50000000  0.24912400  1
