# generated using pymatgen
data_Ho12Ge5S28
_symmetry_space_group_name_H-M   'P 1'
_cell_length_a   9.81876600
_cell_length_b   11.36780176
_cell_length_c   11.37919101
_cell_angle_alpha   96.55467307
_cell_angle_beta   115.54571392
_cell_angle_gamma   115.57347763
_symmetry_Int_Tables_number   1
_chemical_formula_structural   Ho12Ge5S28
_chemical_formula_sum   'Ho12 Ge5 S28'
_cell_volume   960.74619124
_cell_formula_units_Z   1
loop_
 _symmetry_equiv_pos_site_id
 _symmetry_equiv_pos_as_xyz
  1  'x, y, z'
loop_
 _atom_site_type_symbol
 _atom_site_label
 _atom_site_symmetry_multiplicity
 _atom_site_fract_x
 _atom_site_fract_y
 _atom_site_fract_z
 _atom_site_occupancy
  Ho  Ho0  1  0.06401700  0.93222800  0.29750300  1
  Ho  Ho1  1  0.59243500  0.46626100  0.81339400  1
  Ho  Ho2  1  0.92476200  0.70226600  0.57642900  1
  Ho  Ho3  1  0.41331900  0.18206000  0.05021400  1
  Ho  Ho4  1  0.40151100  0.74878200  0.52979800  1
  Ho  Ho5  1  0.86994000  0.23384400  0.99688600  1
  Ho  Ho6  1  0.91622800  0.03831600  0.69415400  1
  Ho  Ho7  1  0.43084000  0.57030600  0.20249800  1
  Ho  Ho8  1  0.08648400  0.31768000  0.45360700  1
  Ho  Ho9  1  0.58600500  0.80595100  0.92908300  1
  Ho  Ho10  1  0.63536800  0.27076200  0.49916900  1
  Ho  Ho11  1  0.10361200  0.75781900  0.97891000  1
  Ge  Ge12  1  0.41211900  0.08370900  0.74703200  1
  Ge  Ge13  1  0.91867600  0.57981100  0.25124500  1
  Ge  Ge14  1  0.66765200  0.00139000  0.33413300  1
  Ge  Ge15  1  0.16929800  0.50153100  0.83603900  1
  Ge  Ge16  1  0.23079600  0.23200500  0.23164300  1
  S  S17  1  0.64813500  0.24578000  0.74943400  1
  S  S18  1  0.16663300  0.73372000  0.26134700  1
  S  S19  1  0.30415500  0.21287700  0.78197300  1
  S  S20  1  0.80336100  0.69899400  0.29625200  1
  S  S21  1  0.53219700  0.04582900  0.94623900  1
  S  S22  1  0.02882300  0.54550200  0.45224700  1
  S  S23  1  0.58631400  0.00864400  0.48874900  1
  S  S24  1  0.08884200  0.50767300  0.99276900  1
  S  S25  1  0.94274400  0.03968200  0.45666000  1
  S  S26  1  0.44321900  0.53973800  0.96272900  1
  S  S27  1  0.71840500  0.20309300  0.29897200  1
  S  S28  1  0.21863200  0.69972800  0.79772100  1
  S  S29  1  0.22510700  0.89128800  0.55788300  1
  S  S30  1  0.72454400  0.39065000  0.05785600  1
  S  S31  1  0.97766600  0.30249400  0.65216000  1
  S  S32  1  0.47618200  0.81792100  0.13545600  1
  S  S33  1  0.31493800  0.22403700  0.46081600  1
  S  S34  1  0.83399700  0.73530700  0.00158300  1
  S  S35  1  0.08308000  0.91539700  0.81872000  1
  S  S36  1  0.53327400  0.38958300  0.29656800  1
  S  S37  1  0.68867900  0.95014600  0.78216500  1
  S  S38  1  0.17751300  0.41734900  0.27060100  1
  S  S39  1  0.64591800  0.74363600  0.48242100  1
  S  S40  1  0.15166700  0.24013200  0.99458300  1
  S  S41  1  0.91543500  0.07282600  0.16089200  1
  S  S42  1  0.40170800  0.56441800  0.66220300  1
  S  S43  1  0.28390400  0.03750500  0.19528400  1
  S  S44  1  0.79286500  0.53232900  0.69498000  1
