# generated using pymatgen
data_Ho9B5S21
_symmetry_space_group_name_H-M   'P 1'
_cell_length_a   11.15553703
_cell_length_b   11.15553703
_cell_length_c   11.15553708
_cell_angle_alpha   94.12384305
_cell_angle_beta   94.12384305
_cell_angle_gamma   94.12384572
_symmetry_Int_Tables_number   1
_chemical_formula_structural   Ho9B5S21
_chemical_formula_sum   'Ho18 B10 S42'
_cell_volume   1376.93060190
_cell_formula_units_Z   2
loop_
 _symmetry_equiv_pos_site_id
 _symmetry_equiv_pos_as_xyz
  1  'x, y, z'
loop_
 _atom_site_type_symbol
 _atom_site_label
 _atom_site_symmetry_multiplicity
 _atom_site_fract_x
 _atom_site_fract_y
 _atom_site_fract_z
 _atom_site_occupancy
  Ho  Ho0  1  0.92222100  0.53288100  0.76193000  1
  Ho  Ho1  1  0.55559100  0.19760100  0.41765500  1
  Ho  Ho2  1  0.23837900  0.84957100  0.08446000  1
  Ho  Ho3  1  0.19760100  0.41765500  0.55559100  1
  Ho  Ho4  1  0.84957100  0.08446000  0.23837900  1
  Ho  Ho5  1  0.53288100  0.76193000  0.92222100  1
  Ho  Ho6  1  0.08446000  0.23837900  0.84957100  1
  Ho  Ho7  1  0.76193000  0.92222100  0.53288100  1
  Ho  Ho8  1  0.41765500  0.55559100  0.19760100  1
  Ho  Ho9  1  0.72332200  0.08172400  0.86593900  1
  Ho  Ho10  1  0.37625800  0.76543600  0.53182600  1
  Ho  Ho11  1  0.05796100  0.44664300  0.21093000  1
  Ho  Ho12  1  0.44664300  0.21093000  0.05796100  1
  Ho  Ho13  1  0.08172400  0.86593900  0.72332200  1
  Ho  Ho14  1  0.76543600  0.53182600  0.37625800  1
  Ho  Ho15  1  0.53182600  0.37625800  0.76543600  1
  Ho  Ho16  1  0.21093000  0.05796100  0.44664300  1
  Ho  Ho17  1  0.86593900  0.72332200  0.08172400  1
  B  B18  1  0.76012100  0.42199200  0.08491200  1
  B  B19  1  0.42199200  0.08491200  0.76012100  1
  B  B20  1  0.08491200  0.76012100  0.42199200  1
  B  B21  1  0.58600800  0.92008900  0.26115300  1
  B  B22  1  0.26115300  0.58600800  0.92008900  1
  B  B23  1  0.92008900  0.26115300  0.58600800  1
  B  B24  1  0.02392700  0.02392700  0.02392700  1
  B  B25  1  0.69853800  0.69853800  0.69853800  1
  B  B26  1  0.19811200  0.19811200  0.19811200  1
  B  B27  1  0.52414600  0.52414600  0.52414600  1
  S  S28  1  0.97249100  0.65514700  0.30958500  1
  S  S29  1  0.65514700  0.30958500  0.97249100  1
  S  S30  1  0.30958500  0.97249100  0.65514700  1
  S  S31  1  0.47359100  0.80741400  0.15635700  1
  S  S32  1  0.15635700  0.47359100  0.80741400  1
  S  S33  1  0.80741400  0.15635700  0.47359100  1
  S  S34  1  0.51132400  0.35480200  0.25233700  1
  S  S35  1  0.15106300  0.01902900  0.92953600  1
  S  S36  1  0.82015600  0.68927300  0.59763800  1
  S  S37  1  0.68927300  0.59763800  0.82015600  1
  S  S38  1  0.35480200  0.25233700  0.51132400  1
  S  S39  1  0.01902900  0.92953600  0.15106300  1
  S  S40  1  0.92953600  0.15106300  0.01902900  1
  S  S41  1  0.59763800  0.82015600  0.68927300  1
  S  S42  1  0.25233700  0.51132400  0.35480200  1
  S  S43  1  0.73563500  0.88937300  0.99455600  1
  S  S44  1  0.41539200  0.54736700  0.63698300  1
  S  S45  1  0.08366000  0.21651300  0.30588200  1
  S  S46  1  0.54736700  0.63698300  0.41539200  1
  S  S47  1  0.21651300  0.30588200  0.08366000  1
  S  S48  1  0.88937300  0.99455600  0.73563500  1
  S  S49  1  0.30588200  0.08366000  0.21651300  1
  S  S50  1  0.99455600  0.73563500  0.88937300  1
  S  S51  1  0.63698300  0.41539200  0.54736700  1
  S  S52  1  0.68378600  0.56646500  0.14057600  1
  S  S53  1  0.34642800  0.22755300  0.82002500  1
  S  S54  1  0.01163200  0.90371200  0.47949800  1
  S  S55  1  0.90371200  0.47949800  0.01163200  1
  S  S56  1  0.56646500  0.14057600  0.68378600  1
  S  S57  1  0.22755300  0.82002500  0.34642800  1
  S  S58  1  0.82002500  0.34642800  0.22755300  1
  S  S59  1  0.47949800  0.01163200  0.90371200  1
  S  S60  1  0.14057600  0.68378600  0.56646500  1
  S  S61  1  0.74498800  0.86165500  0.28906400  1
  S  S62  1  0.41996800  0.52605400  0.94898700  1
  S  S63  1  0.07933800  0.20079400  0.60885300  1
  S  S64  1  0.52605400  0.94898700  0.41996800  1
  S  S65  1  0.20079400  0.60885300  0.07933800  1
  S  S66  1  0.86165500  0.28906400  0.74498800  1
  S  S67  1  0.60885300  0.07933800  0.20079400  1
  S  S68  1  0.28906400  0.74498800  0.86165500  1
  S  S69  1  0.94898700  0.41996800  0.52605400  1
