# generated using pymatgen
data_Hf20(FeSb3)3
_symmetry_space_group_name_H-M   'P 1'
_cell_length_a   5.54417500
_cell_length_b   8.23641477
_cell_length_c   15.53639605
_cell_angle_alpha   90.00000000
_cell_angle_beta   90.00000000
_cell_angle_gamma   109.66771861
_symmetry_Int_Tables_number   1
_chemical_formula_structural   Hf20(FeSb3)3
_chemical_formula_sum   'Hf20 Fe3 Sb9'
_cell_volume   668.06649741
_cell_formula_units_Z   1
loop_
 _symmetry_equiv_pos_site_id
 _symmetry_equiv_pos_as_xyz
  1  'x, y, z'
loop_
 _atom_site_type_symbol
 _atom_site_label
 _atom_site_symmetry_multiplicity
 _atom_site_fract_x
 _atom_site_fract_y
 _atom_site_fract_z
 _atom_site_occupancy
  Hf  Hf0  1  0.43579500  0.87136500  0.36511100  1
  Hf  Hf1  1  0.91919800  0.85945500  0.85488900  1
  Hf  Hf2  1  0.05974300  0.14054500  0.14511100  1
  Hf  Hf3  1  0.56443000  0.12863500  0.63488900  1
  Hf  Hf4  1  0.65494800  0.29067100  0.07049400  1
  Hf  Hf5  1  0.13414800  0.26656700  0.56388900  1
  Hf  Hf6  1  0.86758200  0.73343300  0.43611100  1
  Hf  Hf7  1  0.36427800  0.70932900  0.92950600  1
  Hf  Hf8  1  0.84505200  0.70932900  0.07049400  1
  Hf  Hf9  1  0.36585200  0.73343300  0.56388900  1
  Hf  Hf10  1  0.63241800  0.26656700  0.43611100  1
  Hf  Hf11  1  0.13572200  0.29067100  0.92950600  1
  Hf  Hf12  1  0.06420500  0.12863500  0.36511100  1
  Hf  Hf13  1  0.58080200  0.14054500  0.85488900  1
  Hf  Hf14  1  0.44025700  0.85945500  0.14511100  1
  Hf  Hf15  1  0.93557000  0.87136500  0.63488900  1
  Hf  Hf16  1  0.50022000  0.50038800  0.24928100  1
  Hf  Hf17  1  0.99983200  0.49961200  0.75071900  1
  Hf  Hf18  1  0.99978000  0.49961200  0.24928100  1
  Hf  Hf19  1  0.50016800  0.50038800  0.75071900  1
  Fe  Fe20  1  0.75000000  0.00000000  0.50000000  1
  Fe  Fe21  1  0.75000000  0.00000000  0.00000000  1
  Fe  Fe22  1  0.25000000  0.00000000  0.50000000  1
  Sb  Sb23  1  0.91610500  0.82889800  0.25023600  1
  Sb  Sb24  1  0.41279300  0.82889800  0.74976400  1
  Sb  Sb25  1  0.58389500  0.17110200  0.25023600  1
  Sb  Sb26  1  0.08720700  0.17110200  0.74976400  1
  Sb  Sb27  1  0.25000000  0.50000000  0.08541900  1
  Sb  Sb28  1  0.75000000  0.50000000  0.58592100  1
  Sb  Sb29  1  0.25000000  0.50000000  0.41407900  1
  Sb  Sb30  1  0.75000000  0.50000000  0.91458100  1
  Sb  Sb31  1  0.25000000  0.00000000  0.00000000  1
