# generated using pymatgen
data_K2YTi(PO4)3
_symmetry_space_group_name_H-M   'P 1'
_cell_length_a   10.30627700
_cell_length_b   10.30627700
_cell_length_c   10.30627700
_cell_angle_alpha   90.00000000
_cell_angle_beta   90.00000000
_cell_angle_gamma   90.00000000
_symmetry_Int_Tables_number   1
_chemical_formula_structural   K2YTi(PO4)3
_chemical_formula_sum   'K8 Y4 Ti4 P12 O48'
_cell_volume   1094.72599852
_cell_formula_units_Z   4
loop_
 _symmetry_equiv_pos_site_id
 _symmetry_equiv_pos_as_xyz
  1  'x, y, z'
loop_
 _atom_site_type_symbol
 _atom_site_label
 _atom_site_symmetry_multiplicity
 _atom_site_fract_x
 _atom_site_fract_y
 _atom_site_fract_z
 _atom_site_occupancy
  K  K0  1  0.93062000  0.56938000  0.43062000  1
  K  K1  1  0.56938000  0.43062000  0.93062000  1
  K  K2  1  0.06938000  0.06938000  0.06938000  1
  K  K3  1  0.43062000  0.93062000  0.56938000  1
  K  K4  1  0.70448000  0.79552000  0.20448000  1
  K  K5  1  0.79552000  0.20448000  0.70448000  1
  K  K6  1  0.29552000  0.29552000  0.29552000  1
  K  K7  1  0.20448000  0.70448000  0.79552000  1
  Y  Y8  1  0.08334300  0.91665700  0.41665700  1
  Y  Y9  1  0.58334300  0.58334300  0.58334300  1
  Y  Y10  1  0.41665700  0.08334300  0.91665700  1
  Y  Y11  1  0.91665700  0.41665700  0.08334300  1
  Ti  Ti12  1  0.85596400  0.85596400  0.85596400  1
  Ti  Ti13  1  0.14403600  0.35596400  0.64403600  1
  Ti  Ti14  1  0.35596400  0.64403600  0.14403600  1
  Ti  Ti15  1  0.64403600  0.14403600  0.35596400  1
  P  P16  1  0.04510500  0.74006700  0.11589500  1
  P  P17  1  0.88410500  0.54510500  0.75993300  1
  P  P18  1  0.24006700  0.38410500  0.95489500  1
  P  P19  1  0.54510500  0.75993300  0.88410500  1
  P  P20  1  0.38410500  0.95489500  0.24006700  1
  P  P21  1  0.74006700  0.11589500  0.04510500  1
  P  P22  1  0.95489500  0.24006700  0.38410500  1
  P  P23  1  0.11589500  0.04510500  0.74006700  1
  P  P24  1  0.75993300  0.88410500  0.54510500  1
  P  P25  1  0.45489500  0.25993300  0.61589500  1
  P  P26  1  0.61589500  0.45489500  0.25993300  1
  P  P27  1  0.25993300  0.61589500  0.45489500  1
  O  O28  1  0.01819600  0.83674200  0.22587000  1
  O  O29  1  0.77413000  0.51819600  0.66325800  1
  O  O30  1  0.33674200  0.27413000  0.98180400  1
  O  O31  1  0.51819600  0.66325800  0.77413000  1
  O  O32  1  0.27413000  0.98180400  0.33674200  1
  O  O33  1  0.83674200  0.22587000  0.01819600  1
  O  O34  1  0.98180400  0.33674200  0.27413000  1
  O  O35  1  0.22587000  0.01819600  0.83674200  1
  O  O36  1  0.66325800  0.77413000  0.51819600  1
  O  O37  1  0.48180400  0.16325800  0.72587000  1
  O  O38  1  0.72587000  0.48180400  0.16325800  1
  O  O39  1  0.16325800  0.72587000  0.48180400  1
  O  O40  1  0.97217400  0.79341000  0.99356000  1
  O  O41  1  0.00644000  0.47217400  0.70659000  1
  O  O42  1  0.29341000  0.50644000  0.02782600  1
  O  O43  1  0.47217400  0.70659000  0.00644000  1
  O  O44  1  0.50644000  0.02782600  0.29341000  1
  O  O45  1  0.79341000  0.99356000  0.97217400  1
  O  O46  1  0.02782600  0.29341000  0.50644000  1
  O  O47  1  0.99356000  0.97217400  0.79341000  1
  O  O48  1  0.70659000  0.00644000  0.47217400  1
  O  O49  1  0.52782600  0.20659000  0.49356000  1
  O  O50  1  0.49356000  0.52782600  0.20659000  1
  O  O51  1  0.20659000  0.49356000  0.52782600  1
  O  O52  1  0.19358300  0.73505600  0.08432300  1
  O  O53  1  0.91567700  0.69358300  0.76494400  1
  O  O54  1  0.23505600  0.41567700  0.80641700  1
  O  O55  1  0.69358300  0.76494400  0.91567700  1
  O  O56  1  0.41567700  0.80641700  0.23505600  1
  O  O57  1  0.73505600  0.08432300  0.19358300  1
  O  O58  1  0.80641700  0.23505600  0.41567700  1
  O  O59  1  0.08432300  0.19358300  0.73505600  1
  O  O60  1  0.76494400  0.91567700  0.69358300  1
  O  O61  1  0.30641700  0.26494400  0.58432300  1
  O  O62  1  0.58432300  0.30641700  0.26494400  1
  O  O63  1  0.26494400  0.58432300  0.30641700  1
  O  O64  1  0.99237800  0.60634300  0.15247600  1
  O  O65  1  0.84752400  0.49237800  0.89365700  1
  O  O66  1  0.10634300  0.34752400  0.00762200  1
  O  O67  1  0.49237800  0.89365700  0.84752400  1
  O  O68  1  0.34752400  0.00762200  0.10634300  1
  O  O69  1  0.60634300  0.15247600  0.99237800  1
  O  O70  1  0.00762200  0.10634300  0.34752400  1
  O  O71  1  0.15247600  0.99237800  0.60634300  1
  O  O72  1  0.89365700  0.84752400  0.49237800  1
  O  O73  1  0.50762200  0.39365700  0.65247600  1
  O  O74  1  0.65247600  0.50762200  0.39365700  1
  O  O75  1  0.39365700  0.65247600  0.50762200  1
