# generated using pymatgen
data_K8Cu9S8(ClO18)2
_symmetry_space_group_name_H-M   'P 1'
_cell_length_a   9.88354800
_cell_length_b   10.16966411
_cell_length_c   10.17404615
_cell_angle_alpha   86.62738913
_cell_angle_beta   104.06153882
_cell_angle_gamma   104.05902208
_symmetry_Int_Tables_number   1
_chemical_formula_structural   K8Cu9S8(ClO18)2
_chemical_formula_sum   'K8 Cu9 S8 Cl2 O36'
_cell_volume   962.26138987
_cell_formula_units_Z   1
loop_
 _symmetry_equiv_pos_site_id
 _symmetry_equiv_pos_as_xyz
  1  'x, y, z'
loop_
 _atom_site_type_symbol
 _atom_site_label
 _atom_site_symmetry_multiplicity
 _atom_site_fract_x
 _atom_site_fract_y
 _atom_site_fract_z
 _atom_site_occupancy
  K  K0  1  0.92772200  0.68505600  0.93811900  1
  K  K1  1  0.42191400  0.68503300  0.93796100  1
  K  K2  1  0.11629000  0.31531200  0.06198600  1
  K  K3  1  0.61019200  0.31462500  0.06196200  1
  K  K4  1  0.45282900  0.06212900  0.68506100  1
  K  K5  1  0.95881800  0.06201100  0.68512100  1
  K  K6  1  0.57922300  0.93790000  0.31450200  1
  K  K7  1  0.08528300  0.93776800  0.31525000  1
  Cu  Cu8  1  0.77554700  0.00004900  0.00001400  1
  Cu  Cu9  1  0.46858000  0.53620200  0.34984300  1
  Cu  Cu10  1  0.96943900  0.53664300  0.35013600  1
  Cu  Cu11  1  0.52544600  0.46375900  0.64970800  1
  Cu  Cu12  1  0.02573200  0.46351100  0.64960000  1
  Cu  Cu13  1  0.29366700  0.65011500  0.53573700  1
  Cu  Cu14  1  0.79388700  0.64969800  0.53670900  1
  Cu  Cu15  1  0.70057100  0.35008500  0.46353800  1
  Cu  Cu16  1  0.20108500  0.35013700  0.46343100  1
  S  S17  1  0.78668100  0.32240100  0.79056400  1
  S  S18  1  0.28714200  0.32394800  0.79051500  1
  S  S19  1  0.23004200  0.67624000  0.20935200  1
  S  S20  1  0.72994900  0.67737500  0.20937800  1
  S  S21  1  0.39188300  0.20929300  0.32392100  1
  S  S22  1  0.89134200  0.20926400  0.32232200  1
  S  S23  1  0.62554500  0.79086000  0.67766500  1
  S  S24  1  0.12522500  0.79066000  0.67610600  1
  Cl  Cl25  1  0.55387500  0.00001400  0.99997600  1
  Cl  Cl26  1  0.99732200  0.99996600  0.00002300  1
  O  O27  1  0.40494700  0.45112600  0.78635800  1
  O  O28  1  0.90577500  0.44861500  0.78819200  1
  O  O29  1  0.28641500  0.54900500  0.21359200  1
  O  O30  1  0.78651500  0.55109700  0.21162300  1
  O  O31  1  0.51173200  0.21351700  0.45112200  1
  O  O32  1  0.01157900  0.21163500  0.44831000  1
  O  O33  1  0.68139600  0.78866000  0.55142900  1
  O  O34  1  0.17940100  0.78643100  0.54895500  1
  O  O35  1  0.82117800  0.25004300  0.91954500  1
  O  O36  1  0.32110100  0.25292800  0.91905000  1
  O  O37  1  0.23570500  0.74724800  0.08092700  1
  O  O38  1  0.73588500  0.75000900  0.08052900  1
  O  O39  1  0.36158700  0.08072300  0.25287300  1
  O  O40  1  0.86130500  0.08025500  0.24986700  1
  O  O41  1  0.69631600  0.91979200  0.75020600  1
  O  O42  1  0.19482700  0.91923200  0.74714500  1
  O  O43  1  0.62457300  0.50197600  0.49922900  1
  O  O44  1  0.12392300  0.49746200  0.50181300  1
  O  O45  1  0.37325600  0.49920800  0.49901100  1
  O  O46  1  0.87526000  0.50086900  0.50192200  1
  O  O47  1  0.76740600  0.23747300  0.67111200  1
  O  O48  1  0.26743000  0.23904100  0.67063100  1
  O  O49  1  0.31294400  0.76094300  0.32943400  1
  O  O50  1  0.81273600  0.76231800  0.32890200  1
  O  O51  1  0.43251800  0.32927800  0.23924100  1
  O  O52  1  0.93151300  0.32888700  0.23747000  1
  O  O53  1  0.64875200  0.67120100  0.76229800  1
  O  O54  1  0.14785700  0.67064300  0.76080700  1
  O  O55  1  0.65044900  0.36754100  0.78680600  1
  O  O56  1  0.14975300  0.36874300  0.78580600  1
  O  O57  1  0.57287700  0.63256500  0.21308000  1
  O  O58  1  0.07293100  0.63139200  0.21408000  1
  O  O59  1  0.25691900  0.21409500  0.36853100  1
  O  O60  1  0.75695400  0.21291200  0.36750400  1
  O  O61  1  0.46678000  0.78713800  0.63277200  1
  O  O62  1  0.96547200  0.78594300  0.63132800  1
