# generated using pymatgen
data_GdFe2BiO6
_symmetry_space_group_name_H-M   'P 1'
_cell_length_a   5.35068500
_cell_length_b   5.58462600
_cell_length_c   7.66015100
_cell_angle_alpha   90.00000000
_cell_angle_beta   90.00000000
_cell_angle_gamma   90.00000000
_symmetry_Int_Tables_number   1
_chemical_formula_structural   GdFe2BiO6
_chemical_formula_sum   'Gd2 Fe4 Bi2 O12'
_cell_volume   228.89737331
_cell_formula_units_Z   2
loop_
 _symmetry_equiv_pos_site_id
 _symmetry_equiv_pos_as_xyz
  1  'x, y, z'
loop_
 _atom_site_type_symbol
 _atom_site_label
 _atom_site_symmetry_multiplicity
 _atom_site_fract_x
 _atom_site_fract_y
 _atom_site_fract_z
 _atom_site_occupancy
  Gd  Gd0  1  0.23585800  0.44036300  0.50000000  1
  Gd  Gd1  1  0.76414200  0.94036300  0.50000000  1
  Fe  Fe2  1  0.24947900  0.99977100  0.74676800  1
  Fe  Fe3  1  0.75052100  0.49977100  0.25323200  1
  Fe  Fe4  1  0.24947900  0.99977100  0.25323200  1
  Fe  Fe5  1  0.75052100  0.49977100  0.74676800  1
  Bi  Bi6  1  0.26186500  0.55138000  0.00000000  1
  Bi  Bi7  1  0.73813500  0.05138000  0.00000000  1
  O  O8  1  0.55639900  0.80048700  0.78895900  1
  O  O9  1  0.44360100  0.30048700  0.21104100  1
  O  O10  1  0.94738700  0.20116800  0.30103100  1
  O  O11  1  0.05261300  0.70116800  0.69896900  1
  O  O12  1  0.94738700  0.20116800  0.69896900  1
  O  O13  1  0.05261300  0.70116800  0.30103100  1
  O  O14  1  0.55639900  0.80048700  0.21104100  1
  O  O15  1  0.44360100  0.30048700  0.78895900  1
  O  O16  1  0.16087500  0.97521800  0.00000000  1
  O  O17  1  0.83912500  0.47521800  0.00000000  1
  O  O18  1  0.34387900  0.03018600  0.50000000  1
  O  O19  1  0.65612100  0.53018600  0.50000000  1
