# generated using pymatgen
data_K2FeH8(SO6)2
_symmetry_space_group_name_H-M   'P 1'
_cell_length_a   7.71849256
_cell_length_b   7.71849256
_cell_length_c   10.04182314
_cell_angle_alpha   86.10008911
_cell_angle_beta   86.10008911
_cell_angle_gamma   78.26215943
_symmetry_Int_Tables_number   1
_chemical_formula_structural   K2FeH8(SO6)2
_chemical_formula_sum   'K4 Fe2 H16 S4 O24'
_cell_volume   583.47700092
_cell_formula_units_Z   2
loop_
 _symmetry_equiv_pos_site_id
 _symmetry_equiv_pos_as_xyz
  1  'x, y, z'
loop_
 _atom_site_type_symbol
 _atom_site_label
 _atom_site_symmetry_multiplicity
 _atom_site_fract_x
 _atom_site_fract_y
 _atom_site_fract_z
 _atom_site_occupancy
  K  K0  1  0.90549300  0.43394200  0.75173500  1
  K  K1  1  0.42729600  0.90863000  0.75190600  1
  K  K2  1  0.09137000  0.57270400  0.24809400  1
  K  K3  1  0.56605800  0.09450700  0.24826500  1
  Fe  Fe4  1  0.99987900  0.00012100  0.00000000  1
  Fe  Fe5  1  0.49922100  0.50077900  0.50000000  1
  H  H6  1  0.77813400  0.33607300  0.03871400  1
  H  H7  1  0.33603600  0.77801900  0.03887800  1
  H  H8  1  0.22198100  0.66396400  0.96112200  1
  H  H9  1  0.66392700  0.22186600  0.96128600  1
  H  H10  1  0.94594200  0.95043300  0.27893900  1
  H  H11  1  0.04956700  0.05405800  0.72106100  1
  H  H12  1  0.71736300  0.44466500  0.26943600  1
  H  H13  1  0.44448200  0.71894700  0.26954300  1
  H  H14  1  0.28105300  0.55551800  0.73045700  1
  H  H15  1  0.55533500  0.28263700  0.73056400  1
  H  H16  1  0.07791800  0.08371500  0.26375500  1
  H  H17  1  0.91628500  0.92208200  0.73624500  1
  H  H18  1  0.81723200  0.33468400  0.38977600  1
  H  H19  1  0.33401600  0.81755200  0.39055200  1
  H  H20  1  0.18244800  0.66598400  0.60944800  1
  H  H21  1  0.66531600  0.18276800  0.61022400  1
  S  S22  1  0.70379800  0.70417400  0.04598000  1
  S  S23  1  0.29582600  0.29620200  0.95402000  1
  S  S24  1  0.20544800  0.21093000  0.47382000  1
  S  S25  1  0.78907000  0.79455200  0.52618000  1
  O  O26  1  0.78056700  0.21943300  0.00000000  1
  O  O27  1  0.21951100  0.78048900  0.00000000  1
  O  O28  1  0.66558800  0.66895300  0.56210400  1
  O  O29  1  0.33104700  0.33441200  0.43789600  1
  O  O30  1  0.77724000  0.52563900  0.11261100  1
  O  O31  1  0.52545700  0.77756000  0.11276700  1
  O  O32  1  0.22244000  0.47454300  0.88723300  1
  O  O33  1  0.47436100  0.22276000  0.88738900  1
  O  O34  1  0.17488200  0.17484400  0.92997500  1
  O  O35  1  0.82515600  0.82511800  0.07002500  1
  O  O36  1  0.68645800  0.68724700  0.90277700  1
  O  O37  1  0.31275300  0.31354200  0.09722300  1
  O  O38  1  0.69719400  0.37692300  0.35517000  1
  O  O39  1  0.37628000  0.69836900  0.35499500  1
  O  O40  1  0.30163100  0.62372000  0.64500500  1
  O  O41  1  0.62307700  0.30280600  0.64483000  1
  O  O42  1  0.01716200  0.01210700  0.21282500  1
  O  O43  1  0.98789300  0.98283800  0.78717500  1
  O  O44  1  0.17326100  0.19227300  0.62142900  1
  O  O45  1  0.80772700  0.82673900  0.37857100  1
  O  O46  1  0.03729100  0.28507400  0.40719400  1
  O  O47  1  0.28538200  0.03617800  0.41971000  1
  O  O48  1  0.96382200  0.71461800  0.58029000  1
  O  O49  1  0.71492600  0.96270900  0.59280600  1
