# generated using pymatgen
data_K3NaSi6(SnO10)2
_symmetry_space_group_name_H-M   'P 1'
_cell_length_a   11.63809700
_cell_length_b   6.57226500
_cell_length_c   13.00409956
_cell_angle_alpha   76.01801932
_cell_angle_beta   90.00000000
_cell_angle_gamma   90.00000000
_symmetry_Int_Tables_number   1
_chemical_formula_structural   K3NaSi6(SnO10)2
_chemical_formula_sum   'K6 Na2 Si12 Sn4 O40'
_cell_volume   965.19591364
_cell_formula_units_Z   2
loop_
 _symmetry_equiv_pos_site_id
 _symmetry_equiv_pos_as_xyz
  1  'x, y, z'
loop_
 _atom_site_type_symbol
 _atom_site_label
 _atom_site_symmetry_multiplicity
 _atom_site_fract_x
 _atom_site_fract_y
 _atom_site_fract_z
 _atom_site_occupancy
  K  K0  1  0.62129100  0.04513200  0.63445500  1
  K  K1  1  0.12129100  0.95486800  0.36554500  1
  K  K2  1  0.38121400  0.45470400  0.86496800  1
  K  K3  1  0.88121400  0.54529600  0.13503200  1
  K  K4  1  0.04305300  0.52160200  0.65873500  1
  K  K5  1  0.54305300  0.47839800  0.34126500  1
  Na  Na6  1  0.95502300  0.94991200  0.86667700  1
  Na  Na7  1  0.45502300  0.05008800  0.13332300  1
  Si  Si8  1  0.02277200  0.43286800  0.40956300  1
  Si  Si9  1  0.52277200  0.56713200  0.59043700  1
  Si  Si10  1  0.97624500  0.06767200  0.08804500  1
  Si  Si11  1  0.47624500  0.93232800  0.91195500  1
  Si  Si12  1  0.76139600  0.96940900  0.23191900  1
  Si  Si13  1  0.26139600  0.03059100  0.76808100  1
  Si  Si14  1  0.23505100  0.53455700  0.26703000  1
  Si  Si15  1  0.73505100  0.46544300  0.73297000  1
  Si  Si16  1  0.80633700  0.17395900  0.41077200  1
  Si  Si17  1  0.30633700  0.82604100  0.58922800  1
  Si  Si18  1  0.19574300  0.32344300  0.08991700  1
  Si  Si19  1  0.69574300  0.67655700  0.91008300  1
  Sn  Sn20  1  0.78015600  0.64624800  0.47081700  1
  Sn  Sn21  1  0.28015600  0.35375200  0.52918300  1
  Sn  Sn22  1  0.21991900  0.85415700  0.02926100  1
  Sn  Sn23  1  0.71991900  0.14584300  0.97073900  1
  O  O24  1  0.95286700  0.62180600  0.44176100  1
  O  O25  1  0.45286700  0.37819400  0.55823900  1
  O  O26  1  0.04562000  0.87828000  0.05549500  1
  O  O27  1  0.54562100  0.12172000  0.94450500  1
  O  O28  1  0.59789500  0.46402400  0.69758600  1
  O  O29  1  0.09789500  0.53597600  0.30241400  1
  O  O30  1  0.39755800  0.03166500  0.80662500  1
  O  O31  1  0.89755800  0.96833500  0.19337500  1
  O  O32  1  0.60664100  0.69391700  0.49671100  1
  O  O33  1  0.10664100  0.30608300  0.50328900  1
  O  O34  1  0.39379100  0.80500800  0.00647300  1
  O  O35  1  0.89379100  0.19499200  0.99352700  1
  O  O36  1  0.80852300  0.94478100  0.49315300  1
  O  O37  1  0.30852300  0.05521900  0.50684700  1
  O  O38  1  0.19129800  0.55273800  0.00648400  1
  O  O39  1  0.69129800  0.44726200  0.99351600  1
  O  O40  1  0.98953600  0.97883500  0.64043500  1
  O  O41  1  0.48953600  0.02116500  0.35956500  1
  O  O42  1  0.01694600  0.55415900  0.88438500  1
  O  O43  1  0.51694600  0.44584100  0.11561500  1
  O  O44  1  0.73685800  0.34138700  0.46044500  1
  O  O45  1  0.23685800  0.65861300  0.53955500  1
  O  O46  1  0.26993300  0.15626600  0.04309200  1
  O  O47  1  0.76993300  0.84373400  0.95690800  1
  O  O48  1  0.43778100  0.73944300  0.62481400  1
  O  O49  1  0.93778100  0.26055700  0.37518600  1
  O  O50  1  0.56439300  0.76570000  0.87696500  1
  O  O51  1  0.06439300  0.23430000  0.12303500  1
  O  O52  1  0.73875100  0.73955000  0.30993700  1
  O  O53  1  0.23875100  0.26045000  0.69006300  1
  O  O54  1  0.26076800  0.76282800  0.18948100  1
  O  O55  1  0.76076800  0.23717200  0.81051900  1
  O  O56  1  0.74731900  0.15759900  0.29632200  1
  O  O57  1  0.24731900  0.84240100  0.70367800  1
  O  O58  1  0.25213700  0.34522200  0.20379200  1
  O  O59  1  0.75213700  0.65477800  0.79620800  1
  O  O60  1  0.81615800  0.51910500  0.62893500  1
  O  O61  1  0.31615800  0.48089500  0.37106500  1
  O  O62  1  0.17702600  0.97899700  0.87048300  1
  O  O63  1  0.67702600  0.02100300  0.12951700  1
