# generated using pymatgen
data_K9Ta2VS12
_symmetry_space_group_name_H-M   'P 1'
_cell_length_a   9.33580500
_cell_length_b   14.42360111
_cell_length_c   21.82888093
_cell_angle_alpha   78.92062648
_cell_angle_beta   89.99009150
_cell_angle_gamma   89.99307220
_symmetry_Int_Tables_number   1
_chemical_formula_structural   K9Ta2VS12
_chemical_formula_sum   'K36 Ta8 V4 S48'
_cell_volume   2884.60356291
_cell_formula_units_Z   4
loop_
 _symmetry_equiv_pos_site_id
 _symmetry_equiv_pos_as_xyz
  1  'x, y, z'
loop_
 _atom_site_type_symbol
 _atom_site_label
 _atom_site_symmetry_multiplicity
 _atom_site_fract_x
 _atom_site_fract_y
 _atom_site_fract_z
 _atom_site_occupancy
  K  K0  1  0.63781700  0.69429100  0.44423900  1
  K  K1  1  0.63680900  0.36065600  0.11065400  1
  K  K2  1  0.63782600  0.02753500  0.77758300  1
  K  K3  1  0.13604700  0.80594100  0.55603600  1
  K  K4  1  0.13658100  0.47217000  0.22211300  1
  K  K5  1  0.13628700  0.13993600  0.88993400  1
  K  K6  1  0.36284100  0.97242800  0.22241600  1
  K  K7  1  0.36282200  0.63907400  0.88902300  1
  K  K8  1  0.36293800  0.30572700  0.55577800  1
  K  K9  1  0.86272600  0.86106500  0.11093600  1
  K  K10  1  0.86274300  0.52749400  0.77766500  1
  K  K11  1  0.86276800  0.19434200  0.44430000  1
  K  K12  1  0.55618000  0.96011800  0.41517000  1
  K  K13  1  0.55580100  0.62645100  0.08183200  1
  K  K14  1  0.55616900  0.29341700  0.74855400  1
  K  K15  1  0.05582600  0.20691200  0.25143200  1
  K  K16  1  0.05525600  0.87312900  0.91882500  1
  K  K17  1  0.05528200  0.53975600  0.58552200  1
  K  K18  1  0.44618700  0.43459200  0.38726700  1
  K  K19  1  0.44518800  0.10235500  0.05397900  1
  K  K20  1  0.44622500  0.76787000  0.72061200  1
  K  K21  1  0.94336300  0.73124300  0.27851000  1
  K  K22  1  0.94513500  0.39764800  0.94601400  1
  K  K23  1  0.94334400  0.06456700  0.61187400  1
  K  K24  1  0.44615400  0.70484700  0.25213100  1
  K  K25  1  0.44516800  0.37122300  0.91958300  1
  K  K26  1  0.44617400  0.03815700  0.58550200  1
  K  K27  1  0.94331200  0.46095900  0.41365800  1
  K  K28  1  0.94510900  0.12879000  0.08040000  1
  K  K29  1  0.94332900  0.79424800  0.74701800  1
  K  K30  1  0.55576400  0.23362700  0.27825500  1
  K  K31  1  0.55617800  0.90028600  0.94513500  1
  K  K32  1  0.55613300  0.56684900  0.61182900  1
  K  K33  1  0.05522800  0.93406400  0.38832700  1
  K  K34  1  0.05583300  0.59963600  0.05506600  1
  K  K35  1  0.05520200  0.26739600  0.72169000  1
  Ta  Ta36  1  0.21573800  0.99549600  0.74550900  1
  Ta  Ta37  1  0.21574100  0.66217100  0.41215100  1
  Ta  Ta38  1  0.28413100  0.82874500  0.07875200  1
  Ta  Ta39  1  0.28412500  0.49539400  0.74545800  1
  Ta  Ta40  1  0.28410400  0.16214800  0.41204900  1
  Ta  Ta41  1  0.78427100  0.67119200  0.92128800  1
  Ta  Ta42  1  0.78440500  0.33788300  0.58789400  1
  Ta  Ta43  1  0.78427800  0.00465700  0.25455400  1
  V  V44  1  0.71497500  0.17139700  0.92142400  1
  V  V45  1  0.71484800  0.83812200  0.58812800  1
  V  V46  1  0.71495800  0.50472800  0.25473100  1
  V  V47  1  0.21503700  0.32861600  0.07860000  1
  S  S48  1  0.82803100  0.92601800  0.51218600  1
  S  S49  1  0.82803700  0.59258100  0.17879000  1
  S  S50  1  0.82816500  0.25932700  0.84549300  1
  S  S51  1  0.33415900  0.56884700  0.49224800  1
  S  S52  1  0.32815100  0.24076100  0.15456900  1
  S  S53  1  0.33416200  0.90216000  0.82558800  1
  S  S54  1  0.16537100  0.96664900  0.04292200  1
  S  S55  1  0.16525900  0.63327700  0.70965700  1
  S  S56  1  0.16531500  0.29998200  0.37635300  1
  S  S57  1  0.66603000  0.86674200  0.29016700  1
  S  S58  1  0.66535700  0.53333600  0.95704400  1
  S  S59  1  0.66602800  0.20000200  0.62348500  1
  S  S60  1  0.16531400  0.73518300  0.15875500  1
  S  S61  1  0.16532600  0.40170800  0.82545900  1
  S  S62  1  0.16533300  0.06847100  0.49204700  1
  S  S63  1  0.66537500  0.09823100  0.17455700  1
  S  S64  1  0.66606900  0.76462500  0.84120600  1
  S  S65  1  0.66601400  0.43130100  0.50782300  1
  S  S66  1  0.82801700  0.70758400  0.62140600  1
  S  S67  1  0.82802800  0.37419600  0.28799300  1
  S  S68  1  0.82818800  0.04085800  0.95472800  1
  S  S69  1  0.33415000  0.80009400  0.37662500  1
  S  S70  1  0.32815900  0.45917300  0.04536600  1
  S  S71  1  0.33416600  0.13337300  0.70995500  1
  S  S72  1  0.50249700  0.80700100  0.55697300  1
  S  S73  1  0.50260400  0.47362600  0.22360200  1
  S  S74  1  0.50232100  0.14032900  0.89034900  1
  S  S75  1  0.99133300  0.69467500  0.44468800  1
  S  S76  1  0.00233300  0.35968800  0.10968600  1
  S  S77  1  0.99138500  0.02802400  0.77803600  1
  S  S78  1  0.50819600  0.86125900  0.11133800  1
  S  S79  1  0.50822000  0.52800200  0.77796000  1
  S  S80  1  0.50821000  0.19463800  0.44463300  1
  S  S81  1  0.00832300  0.97201700  0.22204100  1
  S  S82  1  0.00832000  0.63871300  0.88867700  1
  S  S83  1  0.00848400  0.30535900  0.55533700  1
  S  S84  1  0.69487400  0.58106800  0.33105700  1
  S  S85  1  0.69522500  0.24772700  0.99774500  1
  S  S86  1  0.69484300  0.91444900  0.66445900  1
  S  S87  1  0.19399500  0.58181000  0.33180800  1
  S  S88  1  0.19523100  0.25231700  0.00231800  1
  S  S89  1  0.19399300  0.91512700  0.66514200  1
  S  S90  1  0.30648700  0.08197300  0.33161700  1
  S  S91  1  0.30650100  0.74817200  0.99851900  1
  S  S92  1  0.30644600  0.41512600  0.66513700  1
  S  S93  1  0.80654500  0.08505200  0.33500600  1
  S  S94  1  0.80654800  0.75165900  0.00169900  1
  S  S95  1  0.80652700  0.41836200  0.66834900  1
