# generated using pymatgen
data_K12Ag4As8CSe20O
_symmetry_space_group_name_H-M   'P 1'
_cell_length_a   9.40180400
_cell_length_b   11.87172751
_cell_length_c   13.20831878
_cell_angle_alpha   90.19142678
_cell_angle_beta   106.74271498
_cell_angle_gamma   90.19464737
_symmetry_Int_Tables_number   1
_chemical_formula_structural   K12Ag4As8CSe20O
_chemical_formula_sum   'K12 Ag4 As8 C1 Se20 O1'
_cell_volume   1411.73601480
_cell_formula_units_Z   1
loop_
 _symmetry_equiv_pos_site_id
 _symmetry_equiv_pos_as_xyz
  1  'x, y, z'
loop_
 _atom_site_type_symbol
 _atom_site_label
 _atom_site_symmetry_multiplicity
 _atom_site_fract_x
 _atom_site_fract_y
 _atom_site_fract_z
 _atom_site_occupancy
  K  K0  1  0.53820400  0.28548400  0.57347100  1
  K  K1  1  0.44560600  0.79779300  0.91724800  1
  K  K2  1  0.46286100  0.70391400  0.41681100  1
  K  K3  1  0.52786600  0.19982400  0.08037300  1
  K  K4  1  0.85967500  0.85061800  0.76367400  1
  K  K5  1  0.13902400  0.36404600  0.70802700  1
  K  K6  1  0.13353100  0.12446800  0.19443600  1
  K  K7  1  0.86166000  0.62632900  0.30134400  1
  K  K8  1  0.84997200  0.25169700  0.39633600  1
  K  K9  1  0.14500800  0.74887700  0.10536100  1
  K  K10  1  0.15490800  0.74347300  0.60345200  1
  K  K11  1  0.83751800  0.25753600  0.87879700  1
  Ag  Ag12  1  0.66531100  0.99256900  0.53370700  1
  Ag  Ag13  1  0.32719700  0.49249100  0.96604000  1
  Ag  Ag14  1  0.33113000  0.00740700  0.46076200  1
  Ag  Ag15  1  0.66522600  0.50873900  0.03926200  1
  As  As16  1  0.50157100  0.07917200  0.75133100  1
  As  As17  1  0.49474500  0.56855200  0.74922900  1
  As  As18  1  0.50577300  0.92510000  0.25450700  1
  As  As19  1  0.48786600  0.42781300  0.24682500  1
  As  As20  1  0.09081300  0.05484300  0.61522800  1
  As  As21  1  0.89555900  0.55337900  0.87965800  1
  As  As22  1  0.91651500  0.94281700  0.39285400  1
  As  As23  1  0.07987100  0.44417300  0.10946000  1
  C  C24  1  0.90975600  0.04092000  0.97632700  1
  Se  Se25  1  0.80905800  0.80901300  0.48562100  1
  Se  Se26  1  0.18353500  0.31189900  0.01385400  1
  Se  Se27  1  0.19038000  0.18557800  0.51702700  1
  Se  Se28  1  0.79625900  0.68800900  0.97504800  1
  Se  Se29  1  0.87616800  0.14248100  0.65007300  1
  Se  Se30  1  0.11185700  0.63915500  0.84694300  1
  Se  Se31  1  0.12727500  0.85248000  0.35346400  1
  Se  Se32  1  0.86660100  0.35434300  0.14675500  1
  Se  Se33  1  0.49739400  0.90340100  0.65540000  1
  Se  Se34  1  0.50093100  0.39719100  0.84999900  1
  Se  Se35  1  0.51186200  0.10186900  0.35039000  1
  Se  Se36  1  0.48595000  0.60278800  0.14947500  1
  Se  Se37  1  0.73121500  0.99126100  0.95182000  1
  Se  Se38  1  0.34120400  0.51940600  0.56724300  1
  Se  Se39  1  0.34604100  0.96659600  0.08342000  1
  Se  Se40  1  0.65006600  0.46959100  0.41739500  1
  Se  Se41  1  0.27676300  0.06606200  0.79985900  1
  Se  Se42  1  0.72101500  0.56573200  0.69387800  1
  Se  Se43  1  0.74154600  0.92961900  0.20978000  1
  Se  Se44  1  0.25028700  0.43410000  0.29212400  1
  O  O45  1  0.15742800  0.52538800  0.57591200  1
