# generated using pymatgen
data_Fe2Pd
_symmetry_space_group_name_H-M   'P 1'
_cell_length_a   2.76512879
_cell_length_b   2.76512879
_cell_length_c   6.14017500
_cell_angle_alpha   90.00000000
_cell_angle_beta   90.00000000
_cell_angle_gamma   120.00001880
_symmetry_Int_Tables_number   1
_chemical_formula_structural   Fe2Pd
_chemical_formula_sum   'Fe2 Pd1'
_cell_volume   40.65762681
_cell_formula_units_Z   1
loop_
 _symmetry_equiv_pos_site_id
 _symmetry_equiv_pos_as_xyz
  1  'x, y, z'
loop_
 _atom_site_type_symbol
 _atom_site_label
 _atom_site_symmetry_multiplicity
 _atom_site_fract_x
 _atom_site_fract_y
 _atom_site_fract_z
 _atom_site_occupancy
  Fe  Fe0  1  0.33333300  0.66666700  0.65112000  1
  Fe  Fe1  1  0.66666700  0.33333300  0.34888000  1
  Pd  Pd2  1  0.00000000  0.00000000  0.00000000  1
