# generated using pymatgen
data_KIn(TeMo)6
_symmetry_space_group_name_H-M   'P 1'
_cell_length_a   4.62350900
_cell_length_b   9.82570112
_cell_length_c   9.82993497
_cell_angle_alpha   119.50897201
_cell_angle_beta   90.00000000
_cell_angle_gamma   90.00000000
_symmetry_Int_Tables_number   1
_chemical_formula_structural   KIn(TeMo)6
_chemical_formula_sum   'K1 In1 Te6 Mo6'
_cell_volume   388.63704419
_cell_formula_units_Z   1
loop_
 _symmetry_equiv_pos_site_id
 _symmetry_equiv_pos_as_xyz
  1  'x, y, z'
loop_
 _atom_site_type_symbol
 _atom_site_label
 _atom_site_symmetry_multiplicity
 _atom_site_fract_x
 _atom_site_fract_y
 _atom_site_fract_z
 _atom_site_occupancy
  K  K0  1  0.75000000  0.66251100  0.33274000  1
  In  In1  1  0.25000000  0.34283100  0.67913100  1
  Te  Te2  1  0.75000000  0.64634000  0.69293400  1
  Te  Te3  1  0.75000000  0.30822000  0.95136300  1
  Te  Te4  1  0.75000000  0.04291300  0.35143900  1
  Te  Te5  1  0.25000000  0.34855600  0.31172200  1
  Te  Te6  1  0.25000000  0.68548400  0.03722500  1
  Te  Te7  1  0.25000000  0.96500000  0.64890700  1
  Mo  Mo8  1  0.75000000  0.98162500  0.83354400  1
  Mo  Mo9  1  0.75000000  0.16453700  0.14444400  1
  Mo  Mo10  1  0.75000000  0.85315600  0.01935500  1
  Mo  Mo11  1  0.25000000  0.01765100  0.16359200  1
  Mo  Mo12  1  0.25000000  0.83460500  0.85384200  1
  Mo  Mo13  1  0.25000000  0.14657200  0.97976200  1
