# generated using pymatgen
data_KMnP2H5O9
_symmetry_space_group_name_H-M   'P 1'
_cell_length_a   6.74500900
_cell_length_b   7.87922100
_cell_length_c   15.94011000
_cell_angle_alpha   90.00000000
_cell_angle_beta   90.00000000
_cell_angle_gamma   90.00000000
_symmetry_Int_Tables_number   1
_chemical_formula_structural   KMnP2H5O9
_chemical_formula_sum   'K4 Mn4 P8 H20 O36'
_cell_volume   847.14378593
_cell_formula_units_Z   4
loop_
 _symmetry_equiv_pos_site_id
 _symmetry_equiv_pos_as_xyz
  1  'x, y, z'
loop_
 _atom_site_type_symbol
 _atom_site_label
 _atom_site_symmetry_multiplicity
 _atom_site_fract_x
 _atom_site_fract_y
 _atom_site_fract_z
 _atom_site_occupancy
  K  K0  1  0.37578100  0.74465800  0.53768100  1
  K  K1  1  0.12421900  0.74465800  0.03768100  1
  K  K2  1  0.62421900  0.24465800  0.46231900  1
  K  K3  1  0.87578100  0.24465800  0.96231900  1
  Mn  Mn4  1  0.05830600  0.75031700  0.80435500  1
  Mn  Mn5  1  0.44169400  0.75031700  0.30435500  1
  Mn  Mn6  1  0.94169400  0.25031700  0.19564500  1
  Mn  Mn7  1  0.55830600  0.25031700  0.69564500  1
  P  P8  1  0.85685200  0.93747100  0.63556400  1
  P  P9  1  0.63345000  0.55641300  0.13272900  1
  P  P10  1  0.14314800  0.43747100  0.36443600  1
  P  P11  1  0.36655000  0.05641300  0.86727100  1
  P  P12  1  0.13345000  0.05641300  0.36727100  1
  P  P13  1  0.35685200  0.43747100  0.86443600  1
  P  P14  1  0.86655000  0.55641300  0.63272900  1
  P  P15  1  0.64314800  0.93747100  0.13556400  1
  H  H16  1  0.89751000  0.14813100  0.76605800  1
  H  H17  1  0.60265900  0.35604900  0.26461900  1
  H  H18  1  0.10249000  0.64813100  0.23394200  1
  H  H19  1  0.39734100  0.85604900  0.73538100  1
  H  H20  1  0.10265900  0.85604900  0.23538100  1
  H  H21  1  0.39751000  0.64813100  0.73394200  1
  H  H22  1  0.89734100  0.35604900  0.76461900  1
  H  H23  1  0.60249000  0.14813100  0.26605800  1
  H  H24  1  0.21782800  0.15284100  0.60334900  1
  H  H25  1  0.28477300  0.35275300  0.10058300  1
  H  H26  1  0.78217200  0.65284100  0.39665100  1
  H  H27  1  0.71522700  0.85275300  0.89941700  1
  H  H28  1  0.78477300  0.85275300  0.39941700  1
  H  H29  1  0.71782800  0.65284100  0.89665100  1
  H  H30  1  0.21522700  0.35275300  0.60058300  1
  H  H31  1  0.28217200  0.15284100  0.10334900  1
  H  H32  1  0.00531600  0.99568300  0.51155300  1
  H  H33  1  0.99468400  0.49568300  0.48844700  1
  H  H34  1  0.50531600  0.49568300  0.98844700  1
  H  H35  1  0.49468400  0.99568300  0.01155300  1
  O  O36  1  0.78072900  0.74850900  0.61214500  1
  O  O37  1  0.71927100  0.74850900  0.11214500  1
  O  O38  1  0.21927100  0.24850900  0.38785500  1
  O  O39  1  0.28072900  0.24850900  0.88785500  1
  O  O40  1  0.82563900  0.25229500  0.78397700  1
  O  O41  1  0.67436100  0.25229500  0.28397700  1
  O  O42  1  0.17436100  0.75229500  0.21602300  1
  O  O43  1  0.32563900  0.75229500  0.71602300  1
  O  O44  1  0.68464500  0.05239500  0.61246900  1
  O  O45  1  0.81133100  0.44404100  0.11290000  1
  O  O46  1  0.31535500  0.55239500  0.38753100  1
  O  O47  1  0.18866900  0.94404100  0.88710000  1
  O  O48  1  0.31133100  0.94404100  0.38710000  1
  O  O49  1  0.18464500  0.55239500  0.88753100  1
  O  O50  1  0.68866900  0.44404100  0.61290000  1
  O  O51  1  0.81535500  0.05239500  0.11246900  1
  O  O52  1  0.30537600  0.25331300  0.60406000  1
  O  O53  1  0.19462400  0.25331300  0.10406000  1
  O  O54  1  0.69462400  0.75331300  0.39594000  1
  O  O55  1  0.80537600  0.75331300  0.89594000  1
  O  O56  1  0.92622300  0.94388900  0.72581400  1
  O  O57  1  0.56692500  0.55437600  0.22413800  1
  O  O58  1  0.07377700  0.44388900  0.27418600  1
  O  O59  1  0.43307500  0.05437600  0.77586200  1
  O  O60  1  0.06692500  0.05437600  0.27586200  1
  O  O61  1  0.42622300  0.44388900  0.77418600  1
  O  O62  1  0.93307500  0.55437600  0.72413800  1
  O  O63  1  0.57377700  0.94388900  0.22581400  1
  O  O64  1  0.04256400  0.97280100  0.57687200  1
  O  O65  1  0.45783500  0.52606500  0.07198900  1
  O  O66  1  0.95743600  0.47280100  0.42312800  1
  O  O67  1  0.54216500  0.02606500  0.92801100  1
  O  O68  1  0.95783500  0.02606500  0.42801100  1
  O  O69  1  0.54256400  0.47280100  0.92312800  1
  O  O70  1  0.04216500  0.52606500  0.57198900  1
  O  O71  1  0.45743600  0.97280100  0.07687200  1
