# generated using pymatgen
data_Ge3P6H42N12O25
_symmetry_space_group_name_H-M   'P 1'
_cell_length_a   9.46396832
_cell_length_b   9.46396832
_cell_length_c   10.50799902
_cell_angle_alpha   80.54593955
_cell_angle_beta   80.54593955
_cell_angle_gamma   109.93393196
_symmetry_Int_Tables_number   1
_chemical_formula_structural   Ge3P6H42N12O25
_chemical_formula_sum   'Ge3 P6 H42 N12 O25'
_cell_volume   847.78425241
_cell_formula_units_Z   1
loop_
 _symmetry_equiv_pos_site_id
 _symmetry_equiv_pos_as_xyz
  1  'x, y, z'
loop_
 _atom_site_type_symbol
 _atom_site_label
 _atom_site_symmetry_multiplicity
 _atom_site_fract_x
 _atom_site_fract_y
 _atom_site_fract_z
 _atom_site_occupancy
  Ge  Ge0  1  0.00000000  0.00000000  0.00000000  1
  Ge  Ge1  1  0.33340500  0.66659500  0.00000000  1
  Ge  Ge2  1  0.66659500  0.33340500  0.00000000  1
  P  P3  1  0.21304300  0.87963700  0.80471700  1
  P  P4  1  0.54619700  0.54619700  0.80473400  1
  P  P5  1  0.87963700  0.21304300  0.80471700  1
  P  P6  1  0.45380300  0.45380300  0.19526600  1
  P  P7  1  0.78695700  0.12036300  0.19528300  1
  P  P8  1  0.12036300  0.78695700  0.19528300  1
  H  H9  1  0.16052500  0.27085400  0.64042100  1
  H  H10  1  0.49433100  0.93804500  0.64060400  1
  H  H11  1  0.82765600  0.60514600  0.64059500  1
  H  H12  1  0.27085400  0.16052500  0.64042100  1
  H  H13  1  0.60514600  0.82765600  0.64059500  1
  H  H14  1  0.93804500  0.49433100  0.64060400  1
  H  H15  1  0.50566900  0.06195500  0.35939600  1
  H  H16  1  0.83947500  0.72914600  0.35957900  1
  H  H17  1  0.17234400  0.39485400  0.35940500  1
  H  H18  1  0.39485400  0.17234400  0.35940500  1
  H  H19  1  0.72914600  0.83947500  0.35957900  1
  H  H20  1  0.06195500  0.50566900  0.35939600  1
  H  H21  1  0.23651400  0.45917300  0.87841900  1
  H  H22  1  0.56996900  0.12594200  0.87844400  1
  H  H23  1  0.90327700  0.79265300  0.87826100  1
  H  H24  1  0.45917300  0.23651400  0.87841900  1
  H  H25  1  0.79265300  0.90327700  0.87826100  1
  H  H26  1  0.12594200  0.56996900  0.87844400  1
  H  H27  1  0.43003100  0.87405800  0.12155600  1
  H  H28  1  0.76348600  0.54082700  0.12158100  1
  H  H29  1  0.09672300  0.20734700  0.12173900  1
  H  H30  1  0.20734700  0.09672300  0.12173900  1
  H  H31  1  0.54082700  0.76348600  0.12158100  1
  H  H32  1  0.87405800  0.43003100  0.12155600  1
  H  H33  1  0.33018500  0.33018500  0.68761000  1
  H  H34  1  0.66416300  0.99705300  0.68740100  1
  H  H35  1  0.99705300  0.66416300  0.68740100  1
  H  H36  1  0.33583700  0.00294700  0.31259900  1
  H  H37  1  0.66981500  0.66981500  0.31239000  1
  H  H38  1  0.00294700  0.33583700  0.31259900  1
  H  H39  1  0.42888000  0.09556300  0.01287300  1
  H  H40  1  0.76233000  0.76233000  0.01279800  1
  H  H41  1  0.09556300  0.42888000  0.01287300  1
  H  H42  1  0.23767000  0.23767000  0.98720200  1
  H  H43  1  0.57112000  0.90443700  0.98712700  1
  H  H44  1  0.90443700  0.57112000  0.98712700  1
  H  H45  1  0.32750900  0.32750900  0.52245000  1
  H  H46  1  0.66220200  0.99453100  0.52263300  1
  H  H47  1  0.99453100  0.66220200  0.52263300  1
  H  H48  1  0.33779900  0.00546900  0.47736700  1
  H  H49  1  0.67249100  0.67249100  0.47755000  1
  H  H50  1  0.00546900  0.33779800  0.47736700  1
  N  N51  1  0.51142700  0.17815000  0.93495700  1
  N  N52  1  0.84483400  0.84483400  0.93487000  1
  N  N53  1  0.17815000  0.51142700  0.93495700  1
  N  N54  1  0.15516600  0.15516600  0.06513000  1
  N  N55  1  0.48857300  0.82185000  0.06504300  1
  N  N56  1  0.82185000  0.48857300  0.06504300  1
  N  N57  1  0.27323200  0.27323200  0.62151000  1
  N  N58  1  0.60696500  0.94013600  0.62151000  1
  N  N59  1  0.94013600  0.60696500  0.62151000  1
  N  N60  1  0.39303500  0.05986400  0.37849000  1
  N  N61  1  0.72676800  0.72676800  0.37849000  1
  N  N62  1  0.05986400  0.39303500  0.37849000  1
  O  O63  1  0.33211800  0.83542500  0.87448800  1
  O  O64  1  0.66534800  0.50215700  0.87417000  1
  O  O65  1  0.99879300  0.16881600  0.87425200  1
  O  O66  1  0.16881600  0.99879300  0.87425200  1
  O  O67  1  0.50215700  0.66534800  0.87417000  1
  O  O68  1  0.83542500  0.33211800  0.87448800  1
  O  O69  1  0.33465200  0.49784300  0.12583000  1
  O  O70  1  0.66788200  0.16457500  0.12551200  1
  O  O71  1  0.00120700  0.83118400  0.12574800  1
  O  O72  1  0.49784300  0.33465200  0.12583000  1
  O  O73  1  0.83118400  0.00120700  0.12574800  1
  O  O74  1  0.16457500  0.66788200  0.12551200  1
  O  O75  1  0.30151200  0.96735200  0.66159500  1
  O  O76  1  0.63353200  0.63353200  0.66105300  1
  O  O77  1  0.96735200  0.30151200  0.66159500  1
  O  O78  1  0.36646800  0.36646800  0.33894700  1
  O  O79  1  0.69848800  0.03264800  0.33840500  1
  O  O80  1  0.03264800  0.69848800  0.33840500  1
  O  O81  1  0.40073600  0.40073600  0.81765600  1
  O  O82  1  0.73413400  0.06774300  0.81773300  1
  O  O83  1  0.06774300  0.73413400  0.81773300  1
  O  O84  1  0.26586600  0.93225700  0.18226700  1
  O  O85  1  0.59926400  0.59926400  0.18234400  1
  O  O86  1  0.93225700  0.26586600  0.18226700  1
  O  O87  1  0.00000000  0.00000000  0.50000000  1
