# generated using pymatgen
data_In2FeSbO7
_symmetry_space_group_name_H-M   'P 1'
_cell_length_a   7.22129715
_cell_length_b   7.22129715
_cell_length_c   7.22129715
_cell_angle_alpha   120.13143761
_cell_angle_beta   119.57426610
_cell_angle_gamma   90.25573185
_symmetry_Int_Tables_number   1
_chemical_formula_structural   In2FeSbO7
_chemical_formula_sum   'In4 Fe2 Sb2 O14'
_cell_volume   266.85666922
_cell_formula_units_Z   2
loop_
 _symmetry_equiv_pos_site_id
 _symmetry_equiv_pos_as_xyz
  1  'x, y, z'
loop_
 _atom_site_type_symbol
 _atom_site_label
 _atom_site_symmetry_multiplicity
 _atom_site_fract_x
 _atom_site_fract_y
 _atom_site_fract_z
 _atom_site_occupancy
  In  In0  1  0.00000000  0.00000000  0.50000000  1
  In  In1  1  0.00000000  0.50000000  0.00000000  1
  In  In2  1  0.00000000  0.00000000  0.00000000  1
  In  In3  1  0.50000000  0.00000000  0.50000000  1
  Fe  Fe4  1  0.50000000  0.50000000  0.50000000  1
  Fe  Fe5  1  0.50000000  0.00000000  0.00000000  1
  Sb  Sb6  1  0.50000000  0.50000000  0.00000000  1
  Sb  Sb7  1  0.00000000  0.50000000  0.50000000  1
  O  O8  1  0.11731000  0.86731000  0.25000000  1
  O  O9  1  0.88269000  0.13269000  0.75000000  1
  O  O10  1  0.82660300  0.57660300  0.25000000  1
  O  O11  1  0.39832600  0.14832600  0.25000000  1
  O  O12  1  0.83854500  0.16668900  0.26215000  1
  O  O13  1  0.40453900  0.57639500  0.23785000  1
  O  O14  1  0.83854500  0.57639500  0.67185600  1
  O  O15  1  0.40453900  0.16668900  0.82814400  1
  O  O16  1  0.17339700  0.42339700  0.75000000  1
  O  O17  1  0.60167400  0.85167400  0.75000000  1
  O  O18  1  0.16145500  0.83331100  0.73785000  1
  O  O19  1  0.59546100  0.42360500  0.76215000  1
  O  O20  1  0.16145500  0.42360500  0.32814400  1
  O  O21  1  0.59546100  0.83331100  0.17185600  1
