# generated using pymatgen
data_In4(Co4C)3
_symmetry_space_group_name_H-M   'P 1'
_cell_length_a   3.82839200
_cell_length_b   3.82839200
_cell_length_c   15.17993700
_cell_angle_alpha   90.00000000
_cell_angle_beta   90.00000000
_cell_angle_gamma   90.00000000
_symmetry_Int_Tables_number   1
_chemical_formula_structural   In4(Co4C)3
_chemical_formula_sum   'In4 Co12 C3'
_cell_volume   222.48604158
_cell_formula_units_Z   1
loop_
 _symmetry_equiv_pos_site_id
 _symmetry_equiv_pos_as_xyz
  1  'x, y, z'
loop_
 _atom_site_type_symbol
 _atom_site_label
 _atom_site_symmetry_multiplicity
 _atom_site_fract_x
 _atom_site_fract_y
 _atom_site_fract_z
 _atom_site_occupancy
  In  In0  1  0.00000000  0.00000000  0.87717000  1
  In  In1  1  0.00000000  0.00000000  0.12283000  1
  In  In2  1  0.00000000  0.00000000  0.37469800  1
  In  In3  1  0.00000000  0.00000000  0.62530200  1
  Co  Co4  1  0.50000000  0.50000000  0.88026600  1
  Co  Co5  1  0.50000000  0.50000000  0.11973400  1
  Co  Co6  1  0.50000000  0.50000000  0.37371200  1
  Co  Co7  1  0.50000000  0.50000000  0.62628800  1
  Co  Co8  1  0.50000000  0.00000000  0.00000000  1
  Co  Co9  1  0.50000000  0.00000000  0.25010000  1
  Co  Co10  1  0.50000000  0.00000000  0.50000000  1
  Co  Co11  1  0.50000000  0.00000000  0.74990000  1
  Co  Co12  1  0.00000000  0.50000000  0.00000000  1
  Co  Co13  1  0.00000000  0.50000000  0.25010000  1
  Co  Co14  1  0.00000000  0.50000000  0.50000000  1
  Co  Co15  1  0.00000000  0.50000000  0.74990000  1
  C  C16  1  0.50000000  0.50000000  0.24351700  1
  C  C17  1  0.50000000  0.50000000  0.50000000  1
  C  C18  1  0.50000000  0.50000000  0.75648300  1
