# generated using pymatgen
data_K2H14Rh2N12O17
_symmetry_space_group_name_H-M   'P 1'
_cell_length_a   7.65209262
_cell_length_b   9.29038010
_cell_length_c   16.97967065
_cell_angle_alpha   90.54856493
_cell_angle_beta   94.35977630
_cell_angle_gamma   107.43106568
_symmetry_Int_Tables_number   1
_chemical_formula_structural   K2H14Rh2N12O17
_chemical_formula_sum   'K4 H28 Rh4 N24 O34'
_cell_volume   1147.67035911
_cell_formula_units_Z   2
loop_
 _symmetry_equiv_pos_site_id
 _symmetry_equiv_pos_as_xyz
  1  'x, y, z'
loop_
 _atom_site_type_symbol
 _atom_site_label
 _atom_site_symmetry_multiplicity
 _atom_site_fract_x
 _atom_site_fract_y
 _atom_site_fract_z
 _atom_site_occupancy
  K  K0  1  0.10001200  0.38734600  0.82679400  1
  K  K1  1  0.89998800  0.61265400  0.17320600  1
  K  K2  1  0.58125200  0.27094900  0.94664800  1
  K  K3  1  0.41874800  0.72905100  0.05335200  1
  H  H4  1  0.13911400  0.84655800  0.86447100  1
  H  H5  1  0.86088600  0.15344200  0.13552900  1
  H  H6  1  0.67441100  0.35966700  0.60364300  1
  H  H7  1  0.32558900  0.64033300  0.39635700  1
  H  H8  1  0.68206700  0.76191800  0.69558500  1
  H  H9  1  0.31793300  0.23808200  0.30441500  1
  H  H10  1  0.98947700  0.59900800  0.61736500  1
  H  H11  1  0.01052300  0.40099200  0.38263500  1
  H  H12  1  0.07602400  0.86499600  0.77024100  1
  H  H13  1  0.92397600  0.13500400  0.22975900  1
  H  H14  1  0.76571300  0.94419200  0.72443400  1
  H  H15  1  0.23428700  0.05580800  0.27556600  1
  H  H16  1  0.68869100  0.22619900  0.66721600  1
  H  H17  1  0.31130900  0.77380100  0.33278400  1
  H  H18  1  0.07925500  0.99957900  0.83644300  1
  H  H19  1  0.92074500  0.00042100  0.16355700  1
  H  H20  1  0.63970100  0.18104800  0.57226800  1
  H  H21  1  0.36029900  0.81895200  0.42773200  1
  H  H22  1  0.06362800  0.59508800  0.53568900  1
  H  H23  1  0.93637200  0.40491200  0.46431100  1
  H  H24  1  0.55313600  0.84442300  0.74301100  1
  H  H25  1  0.44686400  0.15557700  0.25698900  1
  H  H26  1  0.36332200  0.32432500  0.48954000  1
  H  H27  1  0.63667800  0.67567500  0.51045900  1
  H  H28  1  0.15705400  0.19793600  0.49272300  1
  H  H29  1  0.84294600  0.80206400  0.50727700  1
  H  H30  1  0.33984800  0.14079900  0.47887200  1
  H  H31  1  0.66015200  0.85920100  0.52112800  1
  Rh  Rh32  1  0.77730000  0.77381000  0.85046700  1
  Rh  Rh33  1  0.22270000  0.22619000  0.14953300  1
  Rh  Rh34  1  0.33598500  0.20004400  0.63151800  1
  Rh  Rh35  1  0.66401500  0.79995600  0.36848200  1
  N  N36  1  0.37927500  0.43079000  0.64569300  1
  N  N37  1  0.62072500  0.56921000  0.35430700  1
  N  N38  1  0.29513000  0.21888600  0.50767400  1
  N  N39  1  0.70487000  0.78111400  0.49232600  1
  N  N40  1  0.50883000  0.66955700  0.86850200  1
  N  N41  1  0.49117000  0.33044300  0.13149800  1
  N  N42  1  0.05610000  0.15076000  0.63759100  1
  N  N43  1  0.94390000  0.84924000  0.36240900  1
  N  N44  1  0.05225600  0.88542400  0.82742500  1
  N  N45  1  0.94774400  0.11457600  0.17257500  1
  N  N46  1  0.80529800  0.58280700  0.79593300  1
  N  N47  1  0.19470200  0.41719300  0.20406700  1
  N  N48  1  0.30067900  0.97097000  0.61521600  1
  N  N49  1  0.69932100  0.02903000  0.38478400  1
  N  N50  1  0.39800800  0.17640800  0.74959900  1
  N  N51  1  0.60199200  0.82359200  0.25040100  1
  N  N52  1  0.68449200  0.83981200  0.73915100  1
  N  N53  1  0.31550800  0.16018800  0.26084900  1
  N  N54  1  0.87672200  0.71194600  0.95628000  1
  N  N55  1  0.12327800  0.28805400  0.04372000  1
  N  N56  1  0.76056700  0.97302800  0.90139400  1
  N  N57  1  0.23943300  0.02697200  0.09860600  1
  N  N58  1  0.61971700  0.24828000  0.61682100  1
  N  N59  1  0.38028300  0.75172000  0.38317900  1
  O  O60  1  0.33098300  0.22875400  0.80409600  1
  O  O61  1  0.66901700  0.77124600  0.19590400  1
  O  O62  1  0.87989100  0.59883000  0.73222900  1
  O  O63  1  0.12010900  0.40117000  0.26777100  1
  O  O64  1  0.51333200  0.10820500  0.76654200  1
  O  O65  1  0.48666800  0.89179500  0.23345800  1
  O  O66  1  0.49351000  0.51624900  0.60435000  1
  O  O67  1  0.50649000  0.48375100  0.39565000  1
  O  O68  1  0.65754000  0.97190200  0.95518900  1
  O  O69  1  0.34246000  0.02809800  0.04481100  1
  O  O70  1  0.95457500  0.10704300  0.57541700  1
  O  O71  1  0.04542500  0.89295700  0.42458300  1
  O  O72  1  0.76004900  0.45650900  0.82669100  1
  O  O73  1  0.23995100  0.54349100  0.17330900  1
  O  O74  1  0.46404400  0.55325500  0.90838100  1
  O  O75  1  0.53595600  0.44674500  0.09161900  1
  O  O76  1  0.38837100  0.72357200  0.83895700  1
  O  O77  1  0.61162900  0.27642800  0.16104300  1
  O  O78  1  0.18202400  0.87685400  0.65000600  1
  O  O79  1  0.81797600  0.12314600  0.34999400  1
  O  O80  1  0.29824700  0.48350800  0.69384900  1
  O  O81  1  0.70175300  0.51649200  0.30615100  1
  O  O82  1  0.85300300  0.09522600  0.87515600  1
  O  O83  1  0.14699700  0.90477400  0.12484400  1
  O  O84  1  0.02234900  0.67603900  0.95758000  1
  O  O85  1  0.97765100  0.32396100  0.04241900  1
  O  O86  1  0.40160900  0.93050800  0.57077500  1
  O  O87  1  0.59839100  0.06949200  0.42922500  1
  O  O88  1  0.94978300  0.57311400  0.56173600  1
  O  O89  1  0.05021700  0.42688600  0.43826400  1
  O  O90  1  0.79643600  0.71161600  0.01743400  1
  O  O91  1  0.20356400  0.28838400  0.98256600  1
  O  O92  1  0.98642300  0.15868200  0.70138500  1
  O  O93  1  0.01357700  0.84131800  0.29861500  1
