# generated using pymatgen
data_Ho4NiSn8
_symmetry_space_group_name_H-M   'P 1'
_cell_length_a   4.39099500
_cell_length_b   4.39743500
_cell_length_c   16.88804900
_cell_angle_alpha   90.00000000
_cell_angle_beta   90.00000000
_cell_angle_gamma   90.00000000
_symmetry_Int_Tables_number   1
_chemical_formula_structural   Ho4NiSn8
_chemical_formula_sum   'Ho4 Ni1 Sn8'
_cell_volume   326.09328192
_cell_formula_units_Z   1
loop_
 _symmetry_equiv_pos_site_id
 _symmetry_equiv_pos_as_xyz
  1  'x, y, z'
loop_
 _atom_site_type_symbol
 _atom_site_label
 _atom_site_symmetry_multiplicity
 _atom_site_fract_x
 _atom_site_fract_y
 _atom_site_fract_z
 _atom_site_occupancy
  Ho  Ho0  1  0.25000000  0.00000000  0.09652300  1
  Ho  Ho1  1  0.25000000  0.50000000  0.60333500  1
  Ho  Ho2  1  0.75000000  0.50000000  0.39828500  1
  Ho  Ho3  1  0.75000000  0.00000000  0.90003100  1
  Ni  Ni4  1  0.25000000  0.00000000  0.31041700  1
  Sn  Sn5  1  0.25000000  0.00000000  0.45682500  1
  Sn  Sn6  1  0.25000000  0.50000000  0.93481100  1
  Sn  Sn7  1  0.75000000  0.50000000  0.05798800  1
  Sn  Sn8  1  0.75000000  0.00000000  0.57465400  1
  Sn  Sn9  1  0.25000000  0.50000000  0.23583800  1
  Sn  Sn10  1  0.25000000  0.00000000  0.74697700  1
  Sn  Sn11  1  0.75000000  0.00000000  0.23621400  1
  Sn  Sn12  1  0.75000000  0.50000000  0.75510100  1
