# generated using pymatgen
data_La6TaGa11O28
_symmetry_space_group_name_H-M   'P 1'
_cell_length_a   8.23742308
_cell_length_b   9.91316585
_cell_length_c   9.92641305
_cell_angle_alpha   63.10505357
_cell_angle_beta   64.22469828
_cell_angle_gamma   63.98673892
_symmetry_Int_Tables_number   1
_chemical_formula_structural   La6TaGa11O28
_chemical_formula_sum   'La6 Ta1 Ga11 O28'
_cell_volume   620.75552517
_cell_formula_units_Z   1
loop_
 _symmetry_equiv_pos_site_id
 _symmetry_equiv_pos_as_xyz
  1  'x, y, z'
loop_
 _atom_site_type_symbol
 _atom_site_label
 _atom_site_symmetry_multiplicity
 _atom_site_fract_x
 _atom_site_fract_y
 _atom_site_fract_z
 _atom_site_occupancy
  La  La0  1  0.00036700  0.28887200  0.29362900  1
  La  La1  1  0.00020800  0.79155300  0.78814000  1
  La  La2  1  0.57599100  0.21959400  0.22479000  1
  La  La3  1  0.58186500  0.71501900  0.70888600  1
  La  La4  1  0.41375600  0.50650800  0.50510100  1
  La  La5  1  0.42854100  0.00366200  0.01200100  1
  Ta  Ta6  1  0.99868700  0.00236500  0.00080000  1
  Ga  Ga7  1  0.78015300  0.71755300  0.25814000  1
  Ga  Ga8  1  0.75991000  0.24945600  0.75010200  1
  Ga  Ga9  1  0.22541700  0.14401800  0.61015600  1
  Ga  Ga10  1  0.23668600  0.63349100  0.12347000  1
  Ga  Ga11  1  0.00042500  0.86963600  0.37657600  1
  Ga  Ga12  1  0.99829200  0.37600200  0.87082500  1
  Ga  Ga13  1  0.33908600  0.92688100  0.39843300  1
  Ga  Ga14  1  0.32916700  0.43460900  0.90239400  1
  Ga  Ga15  1  0.66104700  0.06729600  0.60209600  1
  Ga  Ga16  1  0.67058900  0.56726100  0.09560400  1
  Ga  Ga17  1  0.00114800  0.50074600  0.50218200  1
  O  O18  1  0.67927100  0.23843200  0.42230000  1
  O  O19  1  0.67800400  0.74371000  0.92261900  1
  O  O20  1  0.32151200  0.76110400  0.58156500  1
  O  O21  1  0.32222600  0.26036600  0.07885800  1
  O  O22  1  0.86222900  0.99439100  0.22797900  1
  O  O23  1  0.85486000  0.47757000  0.73411500  1
  O  O24  1  0.14426000  0.66088400  0.40918500  1
  O  O25  1  0.13867100  0.15870200  0.92293300  1
  O  O26  1  0.94507800  0.29265100  0.55689200  1
  O  O27  1  0.92150100  0.81651400  0.04829600  1
  O  O28  1  0.07654700  0.01095100  0.77690900  1
  O  O29  1  0.05480600  0.53016500  0.26312900  1
  O  O30  1  0.55107000  0.89280600  0.22886600  1
  O  O31  1  0.53641300  0.41125500  0.72556200  1
  O  O32  1  0.45347500  0.99992400  0.66802100  1
  O  O33  1  0.46067200  0.49696800  0.17396500  1
  O  O34  1  0.23724000  0.34608300  0.55688700  1
  O  O35  1  0.23086300  0.84595800  0.06531700  1
  O  O36  1  0.76976000  0.67873100  0.46294300  1
  O  O37  1  0.76396100  0.18008400  0.96310300  1
  O  O38  1  0.30839200  0.12130800  0.40849800  1
  O  O39  1  0.30421500  0.62500400  0.91681000  1
  O  O40  1  0.69028100  0.07417000  0.77627100  1
  O  O41  1  0.69148900  0.56134200  0.27805100  1
  O  O42  1  0.14948000  0.00339800  0.30156400  1
  O  O43  1  0.14304900  0.50937000  0.80241200  1
  O  O44  1  0.85255700  0.87614100  0.58121100  1
  O  O45  1  0.85678300  0.37459500  0.07951500  1
