# generated using pymatgen
data_Hf2(TiGa)3
_symmetry_space_group_name_H-M   'P 1'
_cell_length_a   7.76778823
_cell_length_b   7.76778823
_cell_length_c   5.62278100
_cell_angle_alpha   90.00000000
_cell_angle_beta   90.00000000
_cell_angle_gamma   120.00000192
_symmetry_Int_Tables_number   1
_chemical_formula_structural   Hf2(TiGa)3
_chemical_formula_sum   'Hf4 Ti6 Ga6'
_cell_volume   293.81674664
_cell_formula_units_Z   2
loop_
 _symmetry_equiv_pos_site_id
 _symmetry_equiv_pos_as_xyz
  1  'x, y, z'
loop_
 _atom_site_type_symbol
 _atom_site_label
 _atom_site_symmetry_multiplicity
 _atom_site_fract_x
 _atom_site_fract_y
 _atom_site_fract_z
 _atom_site_occupancy
  Hf  Hf0  1  0.66666700  0.33333300  0.00000000  1
  Hf  Hf1  1  0.33333300  0.66666700  0.00000000  1
  Hf  Hf2  1  0.33333300  0.66666700  0.50000000  1
  Hf  Hf3  1  0.66666700  0.33333300  0.50000000  1
  Ti  Ti4  1  0.76282700  0.76282700  0.75000000  1
  Ti  Ti5  1  0.23717300  0.00000000  0.75000000  1
  Ti  Ti6  1  0.00000000  0.23717300  0.75000000  1
  Ti  Ti7  1  0.23717300  0.23717300  0.25000000  1
  Ti  Ti8  1  0.76282700  0.00000000  0.25000000  1
  Ti  Ti9  1  0.00000000  0.76282700  0.25000000  1
  Ga  Ga10  1  0.38625100  0.38625100  0.75000000  1
  Ga  Ga11  1  0.61374900  0.00000000  0.75000000  1
  Ga  Ga12  1  0.00000000  0.61374900  0.75000000  1
  Ga  Ga13  1  0.61374900  0.61374900  0.25000000  1
  Ga  Ga14  1  0.38625100  0.00000000  0.25000000  1
  Ga  Ga15  1  0.00000000  0.38625100  0.25000000  1
