# generated using pymatgen
data_Lu12Co31Sn16
_symmetry_space_group_name_H-M   'P 1'
_cell_length_a   7.45413852
_cell_length_b   8.70669381
_cell_length_c   15.17417511
_cell_angle_alpha   89.99969750
_cell_angle_beta   89.95711636
_cell_angle_gamma   89.99812737
_symmetry_Int_Tables_number   1
_chemical_formula_structural   Lu12Co31Sn16
_chemical_formula_sum   'Lu12 Co31 Sn16'
_cell_volume   984.81737144
_cell_formula_units_Z   1
loop_
 _symmetry_equiv_pos_site_id
 _symmetry_equiv_pos_as_xyz
  1  'x, y, z'
loop_
 _atom_site_type_symbol
 _atom_site_label
 _atom_site_symmetry_multiplicity
 _atom_site_fract_x
 _atom_site_fract_y
 _atom_site_fract_z
 _atom_site_occupancy
  Lu  Lu0  1  0.49762400  0.28750900  0.23801100  1
  Lu  Lu1  1  0.50527300  0.78521800  0.73867600  1
  Lu  Lu2  1  0.49760700  0.71245200  0.23804400  1
  Lu  Lu3  1  0.50525900  0.21473400  0.73874600  1
  Lu  Lu4  1  0.49895900  0.49990300  0.02456500  1
  Lu  Lu5  1  0.50470400  0.99989200  0.52288200  1
  Lu  Lu6  1  0.99884200  0.21256900  0.26195100  1
  Lu  Lu7  1  0.99474100  0.70960700  0.76327400  1
  Lu  Lu8  1  0.99885800  0.78736000  0.26199700  1
  Lu  Lu9  1  0.99480500  0.29038200  0.76331700  1
  Lu  Lu10  1  0.99564500  0.99985000  0.47319900  1
  Lu  Lu11  1  0.99915200  0.49998900  0.97570400  1
  Co  Co12  1  0.03200000  0.65134700  0.45039500  1
  Co  Co13  1  0.03250100  0.15022500  0.94937400  1
  Co  Co14  1  0.03199600  0.34884600  0.45047100  1
  Co  Co15  1  0.03244900  0.84987700  0.94941900  1
  Co  Co16  1  0.02936800  0.99997100  0.09993300  1
  Co  Co17  1  0.03264000  0.50002100  0.59878600  1
  Co  Co18  1  0.53048900  0.84875500  0.04995900  1
  Co  Co19  1  0.52869600  0.34806700  0.55065900  1
  Co  Co20  1  0.53045500  0.15127700  0.04993600  1
  Co  Co21  1  0.52871300  0.65202200  0.55069500  1
  Co  Co22  1  0.52874800  0.50000300  0.40053800  1
  Co  Co23  1  0.52799000  0.00002800  0.89962000  1
  Co  Co24  1  0.33950200  0.74329000  0.42060000  1
  Co  Co25  1  0.34078600  0.24083100  0.91834900  1
  Co  Co26  1  0.33947400  0.25673300  0.42061400  1
  Co  Co27  1  0.34069300  0.75927100  0.91836400  1
  Co  Co28  1  0.34209700  0.00001500  0.16187800  1
  Co  Co29  1  0.33897100  0.50002200  0.66125000  1
  Co  Co30  1  0.84371000  0.75771300  0.08041500  1
  Co  Co31  1  0.84797000  0.25791700  0.58080900  1
  Co  Co32  1  0.84365200  0.24229000  0.08043200  1
  Co  Co33  1  0.84798300  0.74212500  0.58083000  1
  Co  Co34  1  0.84512600  0.49999700  0.33833800  1
  Co  Co35  1  0.84806500  0.99996100  0.83789700  1
  Co  Co36  1  0.78674300  0.00000700  0.99900100  1
  Co  Co37  1  0.78636800  0.50004500  0.50005800  1
  Co  Co38  1  0.28586400  0.00002300  0.99916700  1
  Co  Co39  1  0.28535100  0.50002600  0.50207100  1
  Co  Co40  1  0.65675100  0.99995500  0.33325800  1
  Co  Co41  1  0.65780500  0.49997200  0.83218900  1
  Co  Co42  1  0.15165500  0.50002300  0.16731600  1
  Sn  Sn43  1  0.71192100  0.75633300  0.41362100  1
  Sn  Sn44  1  0.71232800  0.25800200  0.91430800  1
  Sn  Sn45  1  0.71192400  0.24360900  0.41360000  1
  Sn  Sn46  1  0.71228000  0.74199700  0.91435400  1
  Sn  Sn47  1  0.71129800  0.99994000  0.17170900  1
  Sn  Sn48  1  0.71142800  0.49997700  0.67053300  1
  Sn  Sn49  1  0.21375500  0.74196500  0.08635500  1
  Sn  Sn50  1  0.21017900  0.22868200  0.59063100  1
  Sn  Sn51  1  0.21369200  0.25808000  0.08640300  1
  Sn  Sn52  1  0.21014600  0.77123500  0.59058600  1
  Sn  Sn53  1  0.21354100  0.49998700  0.32850000  1
  Sn  Sn54  1  0.20943200  0.99998900  0.81962000  1
  Sn  Sn55  1  0.30320000  0.99998000  0.33325500  1
  Sn  Sn56  1  0.30319800  0.50002400  0.83395200  1
  Sn  Sn57  1  0.80128700  0.50006500  0.16654000  1
  Sn  Sn58  1  0.80511500  0.99996400  0.66639300  1
