# generated using pymatgen
data_H10PtC4(NCl3)2
_symmetry_space_group_name_H-M   'P 1'
_cell_length_a   7.39868603
_cell_length_b   8.25310635
_cell_length_c   8.22149678
_cell_angle_alpha   95.50462123
_cell_angle_beta   116.46680196
_cell_angle_gamma   63.09577167
_symmetry_Int_Tables_number   1
_chemical_formula_structural   H10PtC4(NCl3)2
_chemical_formula_sum   'H10 Pt1 C4 N2 Cl6'
_cell_volume   397.23325271
_cell_formula_units_Z   1
loop_
 _symmetry_equiv_pos_site_id
 _symmetry_equiv_pos_as_xyz
  1  'x, y, z'
loop_
 _atom_site_type_symbol
 _atom_site_label
 _atom_site_symmetry_multiplicity
 _atom_site_fract_x
 _atom_site_fract_y
 _atom_site_fract_z
 _atom_site_occupancy
  H  H0  1  0.80048600  0.92771900  0.49430100  1
  H  H1  1  0.19221100  0.51051000  0.89775900  1
  H  H2  1  0.76609600  0.50569900  0.07228100  1
  H  H3  1  0.19503800  0.10224100  0.48949000  1
  H  H4  1  0.71939000  0.99653900  0.68668400  1
  H  H5  1  0.28395300  0.67952400  0.99542200  1
  H  H6  1  0.97075500  0.31331600  0.00346100  1
  H  H7  1  0.03194600  0.00457800  0.32047600  1
  H  H8  1  0.25713500  0.02102600  0.30193000  1
  H  H9  1  0.02376900  0.69807000  0.97897400  1
  Pt  Pt10  1  0.50578600  0.49421400  0.50578600  1
  C  C11  1  0.84039500  0.89601000  0.63657300  1
  C  C12  1  0.13547400  0.65705900  0.91094600  1
  C  C13  1  0.90016900  0.36342700  0.10399000  1
  C  C14  1  0.11841400  0.08905400  0.34294100  1
  N  N15  1  0.01433300  0.75862400  0.73654300  1
  N  N16  1  0.96358600  0.26345700  0.24137600  1
  Cl  Cl17  1  0.56286000  0.67069800  0.34309200  1
  Cl  Cl18  1  0.45453200  0.31640600  0.67251900  1
  Cl  Cl19  1  0.10953300  0.65690800  0.32930200  1
  Cl  Cl20  1  0.90158100  0.32748100  0.68359400  1
  Cl  Cl21  1  0.48955300  0.70755900  0.71611700  1
  Cl  Cl22  1  0.51900500  0.28388300  0.29244100  1
