# generated using pymatgen
data_K2Mn5Si12O31
_symmetry_space_group_name_H-M   'P 1'
_cell_length_a   10.57549583
_cell_length_b   10.57549583
_cell_length_c   14.44427100
_cell_angle_alpha   90.00000000
_cell_angle_beta   90.00000000
_cell_angle_gamma   119.99999895
_symmetry_Int_Tables_number   1
_chemical_formula_structural   K2Mn5Si12O31
_chemical_formula_sum   'K4 Mn10 Si24 O62'
_cell_volume   1399.03229927
_cell_formula_units_Z   2
loop_
 _symmetry_equiv_pos_site_id
 _symmetry_equiv_pos_as_xyz
  1  'x, y, z'
loop_
 _atom_site_type_symbol
 _atom_site_label
 _atom_site_symmetry_multiplicity
 _atom_site_fract_x
 _atom_site_fract_y
 _atom_site_fract_z
 _atom_site_occupancy
  K  K0  1  0.00000000  0.00000000  0.00000000  1
  K  K1  1  0.00000000  0.00000000  0.50000000  1
  K  K2  1  0.33333300  0.66666700  0.75000000  1
  K  K3  1  0.66666700  0.33333300  0.25000000  1
  Mn  Mn4  1  0.33333300  0.66666700  0.00569800  1
  Mn  Mn5  1  0.33333300  0.66666700  0.49430200  1
  Mn  Mn6  1  0.66666700  0.33333300  0.50569900  1
  Mn  Mn7  1  0.66666700  0.33333300  0.99430100  1
  Mn  Mn8  1  0.49979200  0.49979200  0.00000000  1
  Mn  Mn9  1  0.50020800  0.00000000  0.00000000  1
  Mn  Mn10  1  0.00000000  0.50020800  0.00000000  1
  Mn  Mn11  1  0.49979200  0.49979200  0.50000000  1
  Mn  Mn12  1  0.50020800  0.00000000  0.50000000  1
  Mn  Mn13  1  0.00000000  0.50020800  0.50000000  1
  Si  Si14  1  0.11011900  0.77137500  0.86221800  1
  Si  Si15  1  0.22862500  0.33874400  0.86221800  1
  Si  Si16  1  0.66125600  0.88988100  0.86221800  1
  Si  Si17  1  0.11011900  0.77137500  0.63778200  1
  Si  Si18  1  0.22862500  0.33874400  0.63778200  1
  Si  Si19  1  0.66125600  0.88988100  0.63778200  1
  Si  Si20  1  0.77137500  0.11011900  0.36221800  1
  Si  Si21  1  0.33874400  0.22862500  0.36221800  1
  Si  Si22  1  0.88988100  0.66125600  0.36221800  1
  Si  Si23  1  0.77137500  0.11011900  0.13778200  1
  Si  Si24  1  0.33874400  0.22862500  0.13778200  1
  Si  Si25  1  0.88988100  0.66125600  0.13778200  1
  Si  Si26  1  0.88866000  0.23021000  0.63825900  1
  Si  Si27  1  0.76979000  0.65845000  0.63825900  1
  Si  Si28  1  0.34155000  0.11134000  0.63825900  1
  Si  Si29  1  0.88866000  0.23021000  0.86174100  1
  Si  Si30  1  0.76979000  0.65845000  0.86174100  1
  Si  Si31  1  0.34155000  0.11134000  0.86174100  1
  Si  Si32  1  0.23021000  0.88866000  0.13825900  1
  Si  Si33  1  0.65845000  0.76979000  0.13825900  1
  Si  Si34  1  0.11134000  0.34155000  0.13825900  1
  Si  Si35  1  0.23021000  0.88866000  0.36174100  1
  Si  Si36  1  0.65845000  0.76979000  0.36174100  1
  Si  Si37  1  0.11134000  0.34155000  0.36174100  1
  O  O38  1  0.12273500  0.75566900  0.75000000  1
  O  O39  1  0.24433100  0.36706700  0.75000000  1
  O  O40  1  0.63293300  0.87726500  0.75000000  1
  O  O41  1  0.75566900  0.12273500  0.25000000  1
  O  O42  1  0.36706700  0.24433100  0.25000000  1
  O  O43  1  0.87726500  0.63293300  0.25000000  1
  O  O44  1  0.88004800  0.24433300  0.75000000  1
  O  O45  1  0.75566700  0.63571400  0.75000000  1
  O  O46  1  0.36428600  0.11995200  0.75000000  1
  O  O47  1  0.24433300  0.88004800  0.25000000  1
  O  O48  1  0.63571400  0.75566700  0.25000000  1
  O  O49  1  0.11995200  0.36428600  0.25000000  1
  O  O50  1  0.15605800  0.66568600  0.91495000  1
  O  O51  1  0.33431400  0.49037200  0.91495000  1
  O  O52  1  0.50962800  0.84394200  0.91495000  1
  O  O53  1  0.15605800  0.66568600  0.58505000  1
  O  O54  1  0.33431400  0.49037200  0.58505000  1
  O  O55  1  0.50962800  0.84394200  0.58505000  1
  O  O56  1  0.66568600  0.15605800  0.41495000  1
  O  O57  1  0.49037200  0.33431400  0.41495000  1
  O  O58  1  0.84394200  0.50962800  0.41495000  1
  O  O59  1  0.66568600  0.15605800  0.08505000  1
  O  O60  1  0.49037200  0.33431400  0.08505000  1
  O  O61  1  0.84394200  0.50962800  0.08505000  1
  O  O62  1  0.84684200  0.33454900  0.58140000  1
  O  O63  1  0.66545100  0.51229300  0.58140000  1
  O  O64  1  0.48770700  0.15315800  0.58140000  1
  O  O65  1  0.84684200  0.33454900  0.91860000  1
  O  O66  1  0.66545100  0.51229300  0.91860000  1
  O  O67  1  0.48770700  0.15315800  0.91860000  1
  O  O68  1  0.33454900  0.84684200  0.08140000  1
  O  O69  1  0.51229300  0.66545100  0.08140000  1
  O  O70  1  0.15315800  0.48770700  0.08140000  1
  O  O71  1  0.33454900  0.84684200  0.41860000  1
  O  O72  1  0.51229300  0.66545100  0.41860000  1
  O  O73  1  0.15315800  0.48770700  0.41860000  1
  O  O74  1  0.21303000  0.94379100  0.88997800  1
  O  O75  1  0.05620900  0.26923900  0.88997800  1
  O  O76  1  0.73076100  0.78697000  0.88997800  1
  O  O77  1  0.21303000  0.94379100  0.61002200  1
  O  O78  1  0.05620900  0.26923900  0.61002200  1
  O  O79  1  0.73076100  0.78697000  0.61002200  1
  O  O80  1  0.94379100  0.21303000  0.38997800  1
  O  O81  1  0.26923900  0.05620900  0.38997800  1
  O  O82  1  0.78697000  0.73076100  0.38997800  1
  O  O83  1  0.94379100  0.21303000  0.11002200  1
  O  O84  1  0.26923900  0.05620900  0.11002200  1
  O  O85  1  0.78697000  0.73076100  0.11002200  1
  O  O86  1  0.78670700  0.05650800  0.60957400  1
  O  O87  1  0.94349200  0.73019900  0.60957400  1
  O  O88  1  0.26980100  0.21329300  0.60957400  1
  O  O89  1  0.78670700  0.05650800  0.89042600  1
  O  O90  1  0.94349200  0.73019900  0.89042600  1
  O  O91  1  0.26980100  0.21329300  0.89042600  1
  O  O92  1  0.05650800  0.78670700  0.10957400  1
  O  O93  1  0.73019900  0.94349200  0.10957400  1
  O  O94  1  0.21329300  0.26980100  0.10957400  1
  O  O95  1  0.05650800  0.78670700  0.39042600  1
  O  O96  1  0.73019900  0.94349200  0.39042600  1
  O  O97  1  0.21329300  0.26980100  0.39042600  1
  O  O98  1  0.66666700  0.33333300  0.75000000  1
  O  O99  1  0.33333300  0.66666700  0.25000000  1
