# generated using pymatgen
data_In(CoSb3)16
_symmetry_space_group_name_H-M   'P 1'
_cell_length_a   7.94406539
_cell_length_b   7.94406539
_cell_length_c   25.91609969
_cell_angle_alpha   89.97866387
_cell_angle_beta   89.97866387
_cell_angle_gamma   70.49102483
_symmetry_Int_Tables_number   1
_chemical_formula_structural   In(CoSb3)16
_chemical_formula_sum   'In1 Co16 Sb48'
_cell_volume   1541.62119511
_cell_formula_units_Z   1
loop_
 _symmetry_equiv_pos_site_id
 _symmetry_equiv_pos_as_xyz
  1  'x, y, z'
loop_
 _atom_site_type_symbol
 _atom_site_label
 _atom_site_symmetry_multiplicity
 _atom_site_fract_x
 _atom_site_fract_y
 _atom_site_fract_z
 _atom_site_occupancy
  In  In0  1  0.00000000  0.00000000  0.00000000  1
  Co  Co1  1  0.25017600  0.74969100  0.87506700  1
  Co  Co2  1  0.74999500  0.25009100  0.62509500  1
  Co  Co3  1  0.25000500  0.74990900  0.37490500  1
  Co  Co4  1  0.74982400  0.25030900  0.12493300  1
  Co  Co5  1  0.49991100  0.99990400  0.75015300  1
  Co  Co6  1  0.00000000  0.50000000  0.50000000  1
  Co  Co7  1  0.50008900  0.00009600  0.24984700  1
  Co  Co8  1  0.00000000  0.50000000  0.00000000  1
  Co  Co9  1  0.99990400  0.49991100  0.75015300  1
  Co  Co10  1  0.50000000  0.00000000  0.50000000  1
  Co  Co11  1  0.00009600  0.50008900  0.24984700  1
  Co  Co12  1  0.50000000  0.00000000  0.00000000  1
  Co  Co13  1  0.74969100  0.25017600  0.87506700  1
  Co  Co14  1  0.25009100  0.74999500  0.62509500  1
  Co  Co15  1  0.74990900  0.25000500  0.37490500  1
  Co  Co16  1  0.25030900  0.74982400  0.12493300  1
  Sb  Sb17  1  0.50635100  0.82522600  0.83285400  1
  Sb  Sb18  1  0.00694600  0.32617700  0.58335100  1
  Sb  Sb19  1  0.50701100  0.82643400  0.33348300  1
  Sb  Sb20  1  0.00717200  0.32878200  0.08417300  1
  Sb  Sb21  1  0.99282800  0.67121800  0.91582700  1
  Sb  Sb22  1  0.49298900  0.17356600  0.66651700  1
  Sb  Sb23  1  0.99305400  0.67382300  0.41664900  1
  Sb  Sb24  1  0.49364900  0.17477400  0.16714600  1
  Sb  Sb25  1  0.82522600  0.50635100  0.83285400  1
  Sb  Sb26  1  0.32617700  0.00694600  0.58335100  1
  Sb  Sb27  1  0.82643400  0.50701100  0.33348300  1
  Sb  Sb28  1  0.32878200  0.00717200  0.08417300  1
  Sb  Sb29  1  0.67121800  0.99282800  0.91582700  1
  Sb  Sb30  1  0.17356600  0.49298900  0.66651700  1
  Sb  Sb31  1  0.67382300  0.99305400  0.41664900  1
  Sb  Sb32  1  0.17477400  0.49364900  0.16714600  1
  Sb  Sb33  1  0.41537200  0.74554800  0.95972700  1
  Sb  Sb34  1  0.91330500  0.24670800  0.71000000  1
  Sb  Sb35  1  0.41328800  0.74648200  0.46009400  1
  Sb  Sb36  1  0.91345600  0.24636000  0.21030300  1
  Sb  Sb37  1  0.08654400  0.75364000  0.78969700  1
  Sb  Sb38  1  0.58671200  0.25351800  0.53990600  1
  Sb  Sb39  1  0.08669500  0.75329200  0.29000000  1
  Sb  Sb40  1  0.58462800  0.25445200  0.04027300  1
  Sb  Sb41  1  0.75364000  0.08654400  0.78969700  1
  Sb  Sb42  1  0.25351800  0.58671200  0.53990600  1
  Sb  Sb43  1  0.75329200  0.08669500  0.29000000  1
  Sb  Sb44  1  0.25445200  0.58462800  0.04027300  1
  Sb  Sb45  1  0.74554800  0.41537200  0.95972700  1
  Sb  Sb46  1  0.24670800  0.91330500  0.71000000  1
  Sb  Sb47  1  0.74648200  0.41328800  0.46009400  1
  Sb  Sb48  1  0.24636000  0.91345600  0.21030300  1
  Sb  Sb49  1  0.25465800  0.25465800  0.79283300  1
  Sb  Sb50  1  0.75371700  0.75371700  0.54341900  1
  Sb  Sb51  1  0.25357900  0.25357900  0.29356300  1
  Sb  Sb52  1  0.75149500  0.75149500  0.04402100  1
  Sb  Sb53  1  0.24850500  0.24850500  0.95597900  1
  Sb  Sb54  1  0.74642100  0.74642100  0.70643700  1
  Sb  Sb55  1  0.24628300  0.24628300  0.45658100  1
  Sb  Sb56  1  0.74534200  0.74534200  0.20716700  1
  Sb  Sb57  1  0.41372100  0.41372100  0.87265800  1
  Sb  Sb58  1  0.91307700  0.91307700  0.62322400  1
  Sb  Sb59  1  0.41319200  0.41319200  0.37331400  1
  Sb  Sb60  1  0.91254400  0.91254400  0.12444700  1
  Sb  Sb61  1  0.08745600  0.08745600  0.87555300  1
  Sb  Sb62  1  0.58680800  0.58680800  0.62668600  1
  Sb  Sb63  1  0.08692300  0.08692300  0.37677600  1
  Sb  Sb64  1  0.58627900  0.58627900  0.12734200  1
