# generated using pymatgen
data_La9In5S21
_symmetry_space_group_name_H-M   'P 1'
_cell_length_a   12.09209238
_cell_length_b   12.09209238
_cell_length_c   12.09209148
_cell_angle_alpha   94.99290805
_cell_angle_beta   94.99290805
_cell_angle_gamma   94.99290724
_symmetry_Int_Tables_number   1
_chemical_formula_structural   La9In5S21
_chemical_formula_sum   'La18 In10 S42'
_cell_volume   1746.70598911
_cell_formula_units_Z   2
loop_
 _symmetry_equiv_pos_site_id
 _symmetry_equiv_pos_as_xyz
  1  'x, y, z'
loop_
 _atom_site_type_symbol
 _atom_site_label
 _atom_site_symmetry_multiplicity
 _atom_site_fract_x
 _atom_site_fract_y
 _atom_site_fract_z
 _atom_site_occupancy
  La  La0  1  0.43831800  0.21164500  0.58324100  1
  La  La1  1  0.11020000  0.87888800  0.25852400  1
  La  La2  1  0.77598700  0.54782400  0.92146400  1
  La  La3  1  0.54782400  0.92146400  0.77598700  1
  La  La4  1  0.21164500  0.58324100  0.43831800  1
  La  La5  1  0.87888800  0.25852400  0.11020000  1
  La  La6  1  0.25852400  0.11020000  0.87888800  1
  La  La7  1  0.92146400  0.77598700  0.54782400  1
  La  La8  1  0.58324100  0.43831800  0.21164500  1
  La  La9  1  0.22053600  0.44952100  0.07611000  1
  La  La10  1  0.88385400  0.11038600  0.73827500  1
  La  La11  1  0.55502300  0.78591600  0.40657900  1
  La  La12  1  0.11038600  0.73827500  0.88385400  1
  La  La13  1  0.78591600  0.40657900  0.55502300  1
  La  La14  1  0.44952100  0.07611000  0.22053600  1
  La  La15  1  0.40657900  0.55502300  0.78591600  1
  La  La16  1  0.07611000  0.22053600  0.44952100  1
  La  La17  1  0.73827500  0.88385400  0.11038600  1
  In  In18  1  0.88957100  0.55598500  0.22234500  1
  In  In19  1  0.55598500  0.22234500  0.88957100  1
  In  In20  1  0.22234500  0.88957100  0.55598500  1
  In  In21  1  0.38974600  0.72285400  0.05537100  1
  In  In22  1  0.05537100  0.38974600  0.72285400  1
  In  In23  1  0.72285400  0.05537100  0.38974600  1
  In  In24  1  0.00069700  0.00069700  0.00069700  1
  In  In25  1  0.68901200  0.68901200  0.68901200  1
  In  In26  1  0.18896900  0.18896900  0.18896900  1
  In  In27  1  0.50071500  0.50071500  0.50071500  1
  S  S28  1  0.95129200  0.80450700  0.05477200  1
  S  S29  1  0.61435600  0.47428600  0.70966900  1
  S  S30  1  0.27596900  0.12598900  0.37552300  1
  S  S31  1  0.12598900  0.37552300  0.27596900  1
  S  S32  1  0.80450700  0.05477200  0.95129200  1
  S  S33  1  0.47428600  0.70966900  0.61435600  1
  S  S34  1  0.70966900  0.61435600  0.47428600  1
  S  S35  1  0.37552300  0.27596900  0.12598900  1
  S  S36  1  0.05477200  0.95129200  0.80450700  1
  S  S37  1  0.42256300  0.56900400  0.31890700  1
  S  S38  1  0.08470800  0.22462600  0.98913000  1
  S  S39  1  0.74218300  0.89237100  0.64275700  1
  S  S40  1  0.22462600  0.98913000  0.08470800  1
  S  S41  1  0.89237100  0.64275700  0.74218300  1
  S  S42  1  0.56900400  0.31890700  0.42256300  1
  S  S43  1  0.64275700  0.74218300  0.89237100  1
  S  S44  1  0.31890700  0.42256300  0.56900400  1
  S  S45  1  0.98913000  0.08470800  0.22462600  1
  S  S46  1  0.80993700  0.38617900  0.30022900  1
  S  S47  1  0.48229800  0.04884700  0.96660200  1
  S  S48  1  0.14646500  0.71710400  0.63288800  1
  S  S49  1  0.71710400  0.63288800  0.14646500  1
  S  S50  1  0.38617900  0.30022900  0.80993700  1
  S  S51  1  0.04884700  0.96660200  0.48229800  1
  S  S52  1  0.96660200  0.48229800  0.04884700  1
  S  S53  1  0.63288800  0.14646500  0.71710400  1
  S  S54  1  0.30022900  0.80993700  0.38617900  1
  S  S55  1  0.34784600  0.78142100  0.86507500  1
  S  S56  1  0.02133700  0.44591900  0.52998400  1
  S  S57  1  0.68544300  0.11433400  0.19903800  1
  S  S58  1  0.44591900  0.52998400  0.02133700  1
  S  S59  1  0.11433400  0.19903800  0.68544300  1
  S  S60  1  0.78142100  0.86507500  0.34784600  1
  S  S61  1  0.19903800  0.68544300  0.11433400  1
  S  S62  1  0.86507500  0.34784600  0.78142100  1
  S  S63  1  0.52998400  0.02133700  0.44591900  1
  S  S64  1  0.68232400  0.35247700  0.01652900  1
  S  S65  1  0.35247700  0.01652900  0.68232400  1
  S  S66  1  0.01652900  0.68232400  0.35247700  1
  S  S67  1  0.51686900  0.85222200  0.18226600  1
  S  S68  1  0.18226600  0.51686900  0.85222200  1
  S  S69  1  0.85222200  0.18226600  0.51686900  1
