# generated using pymatgen
data_La9Lu11(GaO4)12
_symmetry_space_group_name_H-M   'P 1'
_cell_length_a   11.26864175
_cell_length_b   11.26864175
_cell_length_c   12.98230332
_cell_angle_alpha   54.87440429
_cell_angle_beta   54.87440429
_cell_angle_gamma   70.55027293
_symmetry_Int_Tables_number   1
_chemical_formula_structural   La9Lu11(GaO4)12
_chemical_formula_sum   'La9 Lu11 Ga12 O48'
_cell_volume   1102.77223738
_cell_formula_units_Z   1
loop_
 _symmetry_equiv_pos_site_id
 _symmetry_equiv_pos_as_xyz
  1  'x, y, z'
loop_
 _atom_site_type_symbol
 _atom_site_label
 _atom_site_symmetry_multiplicity
 _atom_site_fract_x
 _atom_site_fract_y
 _atom_site_fract_z
 _atom_site_occupancy
  La  La0  1  0.87585700  0.12414300  0.50000000  1
  La  La1  1  0.62386900  0.12527600  0.87643400  1
  La  La2  1  0.87472400  0.37613100  0.12356600  1
  La  La3  1  0.74962900  0.75003900  0.37543500  1
  La  La4  1  0.24996100  0.25037100  0.62456500  1
  La  La5  1  0.37458300  0.62541700  0.50000000  1
  La  La6  1  0.12542800  0.87457200  0.00000000  1
  La  La7  1  0.37501100  0.87460500  0.62502400  1
  La  La8  1  0.12539500  0.62498900  0.37497600  1
  Lu  Lu9  1  0.00255600  0.00130300  0.24947400  1
  Lu  Lu10  1  0.99869700  0.99744400  0.75052600  1
  Lu  Lu11  1  0.50161000  0.50122200  0.24509100  1
  Lu  Lu12  1  0.49877800  0.49839000  0.75490900  1
  Lu  Lu13  1  0.00322000  0.49841500  0.24801700  1
  Lu  Lu14  1  0.99552700  0.50214800  0.75173800  1
  Lu  Lu15  1  0.50158500  0.99678000  0.75198300  1
  Lu  Lu16  1  0.49785200  0.00447300  0.24826200  1
  Lu  Lu17  1  0.25174200  0.25017000  0.12433900  1
  Lu  Lu18  1  0.74983000  0.74825800  0.87566100  1
  Lu  Lu19  1  0.62441900  0.37558100  0.00000000  1
  Ga  Ga20  1  0.25228800  0.25069900  0.37017800  1
  Ga  Ga21  1  0.74930100  0.74771200  0.62982200  1
  Ga  Ga22  1  0.87206100  0.12793900  0.00000000  1
  Ga  Ga23  1  0.62505200  0.37494800  0.50000000  1
  Ga  Ga24  1  0.37594500  0.87589100  0.12422400  1
  Ga  Ga25  1  0.12410900  0.62405500  0.87577600  1
  Ga  Ga26  1  0.74984300  0.74985900  0.12221800  1
  Ga  Ga27  1  0.25014100  0.25015700  0.87778200  1
  Ga  Ga28  1  0.12416400  0.87583600  0.50000000  1
  Ga  Ga29  1  0.37873800  0.62126200  0.00000000  1
  Ga  Ga30  1  0.62465000  0.12641700  0.37283200  1
  Ga  Ga31  1  0.87358300  0.37535000  0.62716800  1
  O  O32  1  0.02253600  0.08700200  0.85048200  1
  O  O33  1  0.91299800  0.97746400  0.14951800  1
  O  O34  1  0.58643700  0.52353600  0.54076200  1
  O  O35  1  0.47646400  0.41356300  0.45923800  1
  O  O36  1  0.18704800  0.87548900  0.16244100  1
  O  O37  1  0.37592400  0.68672000  0.27417600  1
  O  O38  1  0.31328000  0.62407600  0.72582400  1
  O  O39  1  0.12451100  0.81295200  0.83755900  1
  O  O40  1  0.28882800  0.40029000  0.37326900  1
  O  O41  1  0.21093600  0.10030300  0.56134700  1
  O  O42  1  0.59971000  0.71117200  0.62673100  1
  O  O43  1  0.89969700  0.78906400  0.43865300  1
  O  O44  1  0.97003000  0.90719400  0.65472000  1
  O  O45  1  0.09280600  0.02997000  0.34528000  1
  O  O46  1  0.41851900  0.46509300  0.96838200  1
  O  O47  1  0.53490700  0.58148100  0.03161800  1
  O  O48  1  0.81236800  0.12451200  0.33772500  1
  O  O49  1  0.62349000  0.31241300  0.21939000  1
  O  O50  1  0.68758700  0.37651000  0.78061000  1
  O  O51  1  0.87548800  0.18763200  0.66227500  1
  O  O52  1  0.71208300  0.60578500  0.11363800  1
  O  O53  1  0.78735000  0.89488700  0.93217400  1
  O  O54  1  0.39421500  0.28791700  0.88636200  1
  O  O55  1  0.10511300  0.21265000  0.06782600  1
  O  O56  1  0.96982300  0.59277800  0.87525200  1
  O  O57  1  0.09414000  0.46997800  0.06133500  1
  O  O58  1  0.40722200  0.03017700  0.12474800  1
  O  O59  1  0.53002200  0.90586000  0.93866500  1
  O  O60  1  0.81319000  0.37654700  0.34844100  1
  O  O61  1  0.62345300  0.18681000  0.65155900  1
  O  O62  1  0.68208500  0.13554400  0.03767200  1
  O  O63  1  0.86445600  0.31791500  0.96232800  1
  O  O64  1  0.71287300  0.89297400  0.67453200  1
  O  O65  1  0.78207400  0.60062200  0.78529200  1
  O  O66  1  0.39937800  0.21792600  0.21470800  1
  O  O67  1  0.10702600  0.28712700  0.32546800  1
  O  O68  1  0.02483000  0.41367400  0.62575100  1
  O  O69  1  0.91316200  0.52343700  0.43691000  1
  O  O70  1  0.58632600  0.97517000  0.37424900  1
  O  O71  1  0.47656300  0.08683800  0.56309000  1
  O  O72  1  0.18866400  0.62388100  0.14956500  1
  O  O73  1  0.37611900  0.81133600  0.85043500  1
  O  O74  1  0.31310400  0.87623200  0.46141400  1
  O  O75  1  0.12376800  0.68689600  0.53858600  1
  O  O76  1  0.28940600  0.09978500  0.83792000  1
  O  O77  1  0.20937600  0.39975000  0.72800900  1
  O  O78  1  0.60025000  0.79062400  0.27199100  1
  O  O79  1  0.90021500  0.71059400  0.16208000  1
