# generated using pymatgen
data_Ga2Ni5Te4
_symmetry_space_group_name_H-M   'P 1'
_cell_length_a   3.86611405
_cell_length_b   3.86611405
_cell_length_c   15.49480000
_cell_angle_alpha   90.00000000
_cell_angle_beta   90.00000000
_cell_angle_gamma   120.00000092
_symmetry_Int_Tables_number   1
_chemical_formula_structural   Ga2Ni5Te4
_chemical_formula_sum   'Ga2 Ni5 Te4'
_cell_volume   200.56997783
_cell_formula_units_Z   1
loop_
 _symmetry_equiv_pos_site_id
 _symmetry_equiv_pos_as_xyz
  1  'x, y, z'
loop_
 _atom_site_type_symbol
 _atom_site_label
 _atom_site_symmetry_multiplicity
 _atom_site_fract_x
 _atom_site_fract_y
 _atom_site_fract_z
 _atom_site_occupancy
  Ga  Ga0  1  0.33333300  0.66666700  0.74496600  1
  Ga  Ga1  1  0.66666700  0.33333300  0.25503400  1
  Ni  Ni2  1  0.00000000  0.00000000  0.83159700  1
  Ni  Ni3  1  0.00000000  0.00000000  0.16840300  1
  Ni  Ni4  1  0.00000000  0.00000000  0.32821500  1
  Ni  Ni5  1  0.00000000  0.00000000  0.67178500  1
  Ni  Ni6  1  0.00000000  0.00000000  0.00000000  1
  Te  Te7  1  0.66666700  0.33333300  0.90843400  1
  Te  Te8  1  0.33333300  0.66666700  0.09156600  1
  Te  Te9  1  0.33333300  0.66666700  0.40588600  1
  Te  Te10  1  0.66666700  0.33333300  0.59411400  1
