# generated using pymatgen
data_In4Bi3S10
_symmetry_space_group_name_H-M   'P 1'
_cell_length_a   7.75957400
_cell_length_b   11.71683311
_cell_length_c   18.01981977
_cell_angle_alpha   98.09602815
_cell_angle_beta   90.00144354
_cell_angle_gamma   90.11378641
_symmetry_Int_Tables_number   1
_chemical_formula_structural   In4Bi3S10
_chemical_formula_sum   'In16 Bi12 S40'
_cell_volume   1621.98765821
_cell_formula_units_Z   4
loop_
 _symmetry_equiv_pos_site_id
 _symmetry_equiv_pos_as_xyz
  1  'x, y, z'
loop_
 _atom_site_type_symbol
 _atom_site_label
 _atom_site_symmetry_multiplicity
 _atom_site_fract_x
 _atom_site_fract_y
 _atom_site_fract_z
 _atom_site_occupancy
  In  In0  1  0.49871300  0.22072100  0.03880500  1
  In  In1  1  0.24932800  0.73093300  0.38092600  1
  In  In2  1  0.75062900  0.73478800  0.38243300  1
  In  In3  1  0.24373800  0.94481700  0.67902000  1
  In  In4  1  0.75126400  0.94461000  0.67503800  1
  In  In5  1  0.99925300  0.90234900  0.85681600  1
  In  In6  1  0.50425900  0.69428100  0.55919600  1
  In  In7  1  0.49905000  0.90767100  0.85766500  1
  In  In8  1  0.49960800  0.77789900  0.20417100  1
  In  In9  1  0.99971300  0.21938200  0.03847900  1
  In  In10  1  0.99533500  0.69065900  0.56478300  1
  In  In11  1  0.99992800  0.77729400  0.20364000  1
  In  In12  1  0.25051400  0.86012000  0.03494800  1
  In  In13  1  0.74996600  0.86018700  0.03505900  1
  In  In14  1  0.24979500  0.41714100  0.20016500  1
  In  In15  1  0.75064900  0.41842300  0.20026400  1
  Bi  Bi16  1  0.29523500  0.57049000  0.73617900  1
  Bi  Bi17  1  0.69917800  0.57085100  0.73615600  1
  Bi  Bi18  1  0.24786200  0.37443400  0.43339200  1
  Bi  Bi19  1  0.74419600  0.36512400  0.43279500  1
  Bi  Bi20  1  0.49840200  0.25983900  0.80429000  1
  Bi  Bi21  1  0.24882800  0.50533700  0.98447400  1
  Bi  Bi22  1  0.75135900  0.50505300  0.98469100  1
  Bi  Bi23  1  0.49936000  0.13261400  0.25432500  1
  Bi  Bi24  1  0.99844800  0.27760000  0.80797800  1
  Bi  Bi25  1  0.99427300  0.13325200  0.25456300  1
  Bi  Bi26  1  0.43739300  0.06278500  0.50181500  1
  Bi  Bi27  1  0.03051300  0.06956700  0.50275200  1
  S  S28  1  0.99982400  0.00112500  0.00002600  1
  S  S29  1  0.99931300  0.08551800  0.64757500  1
  S  S30  1  0.49969600  0.48428300  0.87731200  1
  S  S31  1  0.49826800  0.86544000  0.34806800  1
  S  S32  1  0.24907500  0.63504200  0.23803600  1
  S  S33  1  0.75002300  0.63651700  0.23894600  1
  S  S34  1  0.00181500  0.86468900  0.34844900  1
  S  S35  1  0.50013200  0.71452800  0.05893800  1
  S  S36  1  0.49133800  0.29774600  0.51833200  1
  S  S37  1  0.00042100  0.59885100  0.42609600  1
  S  S38  1  0.99985700  0.80014400  0.70577000  1
  S  S39  1  0.24773300  0.27333000  0.94801100  1
  S  S40  1  0.75097800  0.27305800  0.94788200  1
  S  S41  1  0.50107300  0.36451600  0.29053900  1
  S  S42  1  0.24818500  0.15114300  0.36131900  1
  S  S43  1  0.74782000  0.14544200  0.36336000  1
  S  S44  1  0.00007700  0.43497400  0.09495600  1
  S  S45  1  0.25785500  0.84081500  0.53231900  1
  S  S46  1  0.75651300  0.83711200  0.53332800  1
  S  S47  1  0.99993200  0.49633200  0.87576600  1
  S  S48  1  0.49982800  0.59880000  0.42202900  1
  S  S49  1  0.25199600  0.77243400  0.89082100  1
  S  S50  1  0.74663600  0.77348600  0.89051900  1
  S  S51  1  0.99946600  0.71442200  0.05822400  1
  S  S52  1  0.50046000  0.00315800  0.00085400  1
  S  S53  1  0.24961200  0.20271900  0.14398500  1
  S  S54  1  0.75010500  0.20284400  0.14378400  1
  S  S55  1  0.99863800  0.36514900  0.29106300  1
  S  S56  1  0.00080900  0.30080600  0.51867800  1
  S  S57  1  0.49227000  0.08059600  0.64746700  1
  S  S58  1  0.25286900  0.55696300  0.59061600  1
  S  S59  1  0.74285600  0.55166300  0.59116300  1
  S  S60  1  0.24771500  0.03895600  0.81637500  1
  S  S61  1  0.74761200  0.03941500  0.81325800  1
  S  S62  1  0.25297600  0.33840300  0.71993400  1
  S  S63  1  0.74383700  0.33812000  0.72044500  1
  S  S64  1  0.50001400  0.79676400  0.70644800  1
  S  S65  1  0.50082000  0.43547000  0.09479900  1
  S  S66  1  0.24996100  0.92287500  0.18006900  1
  S  S67  1  0.75070100  0.92303000  0.18047000  1
