# generated using pymatgen
data_GaAgTeSe
_symmetry_space_group_name_H-M   'P 1'
_cell_length_a   7.34323963
_cell_length_b   7.34323963
_cell_length_c   7.34323963
_cell_angle_alpha   130.02760219
_cell_angle_beta   129.25711222
_cell_angle_gamma   73.98088557
_symmetry_Int_Tables_number   1
_chemical_formula_structural   GaAgTeSe
_chemical_formula_sum   'Ga2 Ag2 Te2 Se2'
_cell_volume   228.97370993
_cell_formula_units_Z   2
loop_
 _symmetry_equiv_pos_site_id
 _symmetry_equiv_pos_as_xyz
  1  'x, y, z'
loop_
 _atom_site_type_symbol
 _atom_site_label
 _atom_site_symmetry_multiplicity
 _atom_site_fract_x
 _atom_site_fract_y
 _atom_site_fract_z
 _atom_site_occupancy
  Ga  Ga0  1  0.13423000  0.88423000  0.25000000  1
  Ga  Ga1  1  0.36577000  0.61577000  0.75000000  1
  Ag  Ag2  1  0.62965200  0.37965200  0.25000000  1
  Ag  Ag3  1  0.87034800  0.12034800  0.75000000  1
  Te  Te4  1  0.25000000  0.51802100  0.26802100  1
  Te  Te5  1  0.75000000  0.98197900  0.23197900  1
  Se  Se6  1  0.46936400  0.25000000  0.71936400  1
  Se  Se7  1  0.03063600  0.75000000  0.78063600  1
