# generated using pymatgen
data_GaFe2
_symmetry_space_group_name_H-M   'P 1'
_cell_length_a   6.31492716
_cell_length_b   6.13749708
_cell_length_c   2.59942799
_cell_angle_alpha   81.80618210
_cell_angle_beta   74.15031209
_cell_angle_gamma   24.04350581
_symmetry_Int_Tables_number   1
_chemical_formula_structural   GaFe2
_chemical_formula_sum   'Ga1 Fe2'
_cell_volume   37.99029334
_cell_formula_units_Z   1
loop_
 _symmetry_equiv_pos_site_id
 _symmetry_equiv_pos_as_xyz
  1  'x, y, z'
loop_
 _atom_site_type_symbol
 _atom_site_label
 _atom_site_symmetry_multiplicity
 _atom_site_fract_x
 _atom_site_fract_y
 _atom_site_fract_z
 _atom_site_occupancy
  Ga  Ga0  1  0.00000000  0.00000000  0.00000000  1
  Fe  Fe1  1  0.33003300  0.33003300  0.66996700  1
  Fe  Fe2  1  0.66996700  0.66996700  0.33003300  1
