# generated using pymatgen
data_GaCo4Ge3
_symmetry_space_group_name_H-M   'P 1'
_cell_length_a   4.63850781
_cell_length_b   4.63850781
_cell_length_c   4.63850773
_cell_angle_alpha   89.31366276
_cell_angle_beta   89.31366276
_cell_angle_gamma   89.31367012
_symmetry_Int_Tables_number   1
_chemical_formula_structural   GaCo4Ge3
_chemical_formula_sum   'Ga1 Co4 Ge3'
_cell_volume   99.77968398
_cell_formula_units_Z   1
loop_
 _symmetry_equiv_pos_site_id
 _symmetry_equiv_pos_as_xyz
  1  'x, y, z'
loop_
 _atom_site_type_symbol
 _atom_site_label
 _atom_site_symmetry_multiplicity
 _atom_site_fract_x
 _atom_site_fract_y
 _atom_site_fract_z
 _atom_site_occupancy
  Ga  Ga0  1  0.34118400  0.34118400  0.34118400  1
  Co  Co1  1  0.64146600  0.64146600  0.64146600  1
  Co  Co2  1  0.13209900  0.36368500  0.86108100  1
  Co  Co3  1  0.36368500  0.86108100  0.13209900  1
  Co  Co4  1  0.86108100  0.13209900  0.36368500  1
  Ge  Ge5  1  0.83976900  0.65655100  0.16416500  1
  Ge  Ge6  1  0.65655100  0.16416500  0.83976900  1
  Ge  Ge7  1  0.16416500  0.83976900  0.65655100  1
