# generated using pymatgen
data_K2Fe9H18S6O43
_symmetry_space_group_name_H-M   'P 1'
_cell_length_a   12.33997688
_cell_length_b   12.33997688
_cell_length_c   10.35420507
_cell_angle_alpha   67.69523122
_cell_angle_beta   67.69523122
_cell_angle_gamma   35.05813745
_symmetry_Int_Tables_number   1
_chemical_formula_structural   K2Fe9H18S6O43
_chemical_formula_sum   'K2 Fe9 H18 S6 O43'
_cell_volume   830.83371942
_cell_formula_units_Z   1
loop_
 _symmetry_equiv_pos_site_id
 _symmetry_equiv_pos_as_xyz
  1  'x, y, z'
loop_
 _atom_site_type_symbol
 _atom_site_label
 _atom_site_symmetry_multiplicity
 _atom_site_fract_x
 _atom_site_fract_y
 _atom_site_fract_z
 _atom_site_occupancy
  K  K0  1  0.33309300  0.33309300  0.66770400  1
  K  K1  1  0.66690700  0.66690700  0.33229600  1
  Fe  Fe2  1  0.33146500  0.83344600  0.16572500  1
  Fe  Fe3  1  0.00000000  0.50000000  0.50000000  1
  Fe  Fe4  1  0.66853500  0.16655400  0.83427500  1
  Fe  Fe5  1  0.50000000  0.50000000  0.50000000  1
  Fe  Fe6  1  0.16533000  0.16533000  0.83377900  1
  Fe  Fe7  1  0.83467000  0.83467000  0.16622100  1
  Fe  Fe8  1  0.16655400  0.66853500  0.83427500  1
  Fe  Fe9  1  0.83344600  0.33146500  0.16572500  1
  Fe  Fe10  1  0.50000000  0.00000000  0.50000000  1
  H  H11  1  0.85296700  0.27065200  0.42585400  1
  H  H12  1  0.51887600  0.93786500  0.76005100  1
  H  H13  1  0.18516600  0.61128600  0.09215300  1
  H  H14  1  0.99355600  0.99355600  0.71147000  1
  H  H15  1  0.65835200  0.65835200  0.03889700  1
  H  H16  1  0.32578500  0.32578500  0.37132900  1
  H  H17  1  0.27065200  0.85296700  0.42585400  1
  H  H18  1  0.93786500  0.51887600  0.76005100  1
  H  H19  1  0.61128600  0.18516600  0.09215300  1
  H  H20  1  0.14703300  0.72934800  0.57414600  1
  H  H21  1  0.81483400  0.38871400  0.90784700  1
  H  H22  1  0.48112400  0.06213500  0.23994900  1
  H  H23  1  0.00644400  0.00644400  0.28853000  1
  H  H24  1  0.67421500  0.67421500  0.62867100  1
  H  H25  1  0.34164800  0.34164800  0.96110300  1
  H  H26  1  0.72934800  0.14703300  0.57414600  1
  H  H27  1  0.38871400  0.81483400  0.90784700  1
  H  H28  1  0.06213500  0.48112400  0.23994900  1
  S  S29  1  0.12872600  0.12872600  0.56310900  1
  S  S30  1  0.79507800  0.79507800  0.89754000  1
  S  S31  1  0.46167300  0.46167300  0.23173000  1
  S  S32  1  0.87127400  0.87127400  0.43689100  1
  S  S33  1  0.53832700  0.53832700  0.76827000  1
  S  S34  1  0.20492200  0.20492200  0.10246000  1
  O  O35  1  0.00180300  0.33064100  0.49889900  1
  O  O36  1  0.66814900  0.99708300  0.83421300  1
  O  O37  1  0.33489100  0.66330400  0.16896800  1
  O  O38  1  0.11209300  0.11209300  0.71785700  1
  O  O39  1  0.77796400  0.77796400  0.05320200  1
  O  O40  1  0.44400100  0.44400100  0.38793500  1
  O  O41  1  0.33064100  0.00180300  0.49889900  1
  O  O42  1  0.99708300  0.66814900  0.83421300  1
  O  O43  1  0.66330400  0.33489100  0.16896800  1
  O  O44  1  0.99819700  0.66935900  0.50110100  1
  O  O45  1  0.66510900  0.33669600  0.83103200  1
  O  O46  1  0.33185100  0.00291700  0.16578700  1
  O  O47  1  0.88790700  0.88790700  0.28214300  1
  O  O48  1  0.55599900  0.55599900  0.61206500  1
  O  O49  1  0.22203600  0.22203600  0.94679800  1
  O  O50  1  0.66935900  0.99819700  0.50110100  1
  O  O51  1  0.33669600  0.66510900  0.83103200  1
  O  O52  1  0.00291700  0.33185100  0.16578700  1
  O  O53  1  0.74458600  0.36601600  0.37249800  1
  O  O54  1  0.41144100  0.03256600  0.70586900  1
  O  O55  1  0.07964100  0.69585300  0.03920300  1
  O  O56  1  0.95061700  0.95061700  0.78203100  1
  O  O57  1  0.61821300  0.61821300  0.12034700  1
  O  O58  1  0.28559700  0.28559700  0.45260300  1
  O  O59  1  0.36601600  0.74458600  0.37249800  1
  O  O60  1  0.03256600  0.41144100  0.70586900  1
  O  O61  1  0.69585300  0.07964100  0.03920300  1
  O  O62  1  0.25541400  0.63398400  0.62750200  1
  O  O63  1  0.92035900  0.30414700  0.96079700  1
  O  O64  1  0.58855900  0.96743400  0.29413100  1
  O  O65  1  0.04938300  0.04938300  0.21796900  1
  O  O66  1  0.71440300  0.71440300  0.54739700  1
  O  O67  1  0.38178700  0.38178700  0.87965300  1
  O  O68  1  0.63398400  0.25541400  0.62750200  1
  O  O69  1  0.30414700  0.92035900  0.96079700  1
  O  O70  1  0.96743400  0.58855900  0.29413100  1
  O  O71  1  0.07192600  0.07192600  0.53543700  1
  O  O72  1  0.73842900  0.73842900  0.86924500  1
  O  O73  1  0.40514800  0.40514800  0.20311500  1
  O  O74  1  0.92807400  0.92807400  0.46456300  1
  O  O75  1  0.59485200  0.59485200  0.79688500  1
  O  O76  1  0.26157100  0.26157100  0.13075500  1
  O  O77  1  0.00000000  0.00000000  0.00000000  1
