# generated using pymatgen
data_Ga2Se3
_symmetry_space_group_name_H-M   'P 1'
_cell_length_a   6.86948340
_cell_length_b   6.86948340
_cell_length_c   6.86948340
_cell_angle_alpha   146.98498020
_cell_angle_beta   130.17768234
_cell_angle_gamma   61.07345761
_symmetry_Int_Tables_number   1
_chemical_formula_structural   Ga2Se3
_chemical_formula_sum   'Ga2 Se3'
_cell_volume   133.66682890
_cell_formula_units_Z   1
loop_
 _symmetry_equiv_pos_site_id
 _symmetry_equiv_pos_as_xyz
  1  'x, y, z'
loop_
 _atom_site_type_symbol
 _atom_site_label
 _atom_site_symmetry_multiplicity
 _atom_site_fract_x
 _atom_site_fract_y
 _atom_site_fract_z
 _atom_site_occupancy
  Ga  Ga0  1  0.33009100  0.33886300  0.99122800  1
  Ga  Ga1  1  0.65236500  0.66113700  0.99122800  1
  Se  Se2  1  0.59653300  0.83729800  0.75923600  1
  Se  Se3  1  0.92193800  0.16270200  0.75923600  1
  Se  Se4  1  0.24907400  0.50000000  0.74907400  1
