# generated using pymatgen
data_Ga2BiAs
_symmetry_space_group_name_H-M   'P 1'
_cell_length_a   4.34028506
_cell_length_b   4.34028506
_cell_length_c   7.49090484
_cell_angle_alpha   73.15977907
_cell_angle_beta   90.00000000
_cell_angle_gamma   120.00000000
_symmetry_Int_Tables_number   1
_chemical_formula_structural   Ga2BiAs
_chemical_formula_sum   'Ga2 Bi1 As1'
_cell_volume   115.16785840
_cell_formula_units_Z   1
loop_
 _symmetry_equiv_pos_site_id
 _symmetry_equiv_pos_as_xyz
  1  'x, y, z'
loop_
 _atom_site_type_symbol
 _atom_site_label
 _atom_site_symmetry_multiplicity
 _atom_site_fract_x
 _atom_site_fract_y
 _atom_site_fract_z
 _atom_site_occupancy
  Ga  Ga0  1  0.88282700  0.76565400  0.35151900  1
  Ga  Ga1  1  0.36710700  0.73421300  0.89868000  1
  Bi  Bi2  1  0.49956900  0.99913800  0.50129300  1
  As  As3  1  0.00049700  0.00099500  0.99850800  1
