# generated using pymatgen
data_Ga5Ag13
_symmetry_space_group_name_H-M   'P 1'
_cell_length_a   2.97430100
_cell_length_b   7.89883288
_cell_length_c   13.48197521
_cell_angle_alpha   89.94923941
_cell_angle_beta   89.93383051
_cell_angle_gamma   89.70055131
_symmetry_Int_Tables_number   1
_chemical_formula_structural   Ga5Ag13
_chemical_formula_sum   'Ga5 Ag13'
_cell_volume   316.73421292
_cell_formula_units_Z   1
loop_
 _symmetry_equiv_pos_site_id
 _symmetry_equiv_pos_as_xyz
  1  'x, y, z'
loop_
 _atom_site_type_symbol
 _atom_site_label
 _atom_site_symmetry_multiplicity
 _atom_site_fract_x
 _atom_site_fract_y
 _atom_site_fract_z
 _atom_site_occupancy
  Ga  Ga0  1  0.74985700  0.00010800  0.33349400  1
  Ga  Ga1  1  0.25037000  0.99987900  0.66734300  1
  Ga  Ga2  1  0.24892900  0.50068500  0.16650400  1
  Ga  Ga3  1  0.99915500  0.00028900  0.99926500  1
  Ga  Ga4  1  0.99899800  0.49998500  0.50008000  1
  Ag  Ag5  1  0.25316100  0.66940700  0.98790900  1
  Ag  Ag6  1  0.25154900  0.16501800  0.48404200  1
  Ag  Ag7  1  0.25267300  0.64733600  0.67139300  1
  Ag  Ag8  1  0.25222500  0.14387200  0.17554400  1
  Ag  Ag9  1  0.25290900  0.18525400  0.84064500  1
  Ag  Ag10  1  0.25320900  0.68997900  0.34029500  1
  Ag  Ag11  1  0.74788200  0.83490000  0.51471500  1
  Ag  Ag12  1  0.74729200  0.33204700  0.01818300  1
  Ag  Ag13  1  0.74781000  0.85957900  0.82460300  1
  Ag  Ag14  1  0.74863800  0.35609700  0.32497500  1
  Ag  Ag15  1  0.74741700  0.30630400  0.65728000  1
  Ag  Ag16  1  0.74830500  0.80917900  0.16035800  1
  Ag  Ag17  1  0.74962100  0.50008000  0.83337300  1
