# generated using pymatgen
data_K2PH3SO8
_symmetry_space_group_name_H-M   'P 1'
_cell_length_a   7.51126000
_cell_length_b   9.63808836
_cell_length_c   11.26460102
_cell_angle_alpha   88.57241342
_cell_angle_beta   88.11181116
_cell_angle_gamma   88.54691792
_symmetry_Int_Tables_number   1
_chemical_formula_structural   K2PH3SO8
_chemical_formula_sum   'K8 P4 H12 S4 O32'
_cell_volume   814.55012339
_cell_formula_units_Z   4
loop_
 _symmetry_equiv_pos_site_id
 _symmetry_equiv_pos_as_xyz
  1  'x, y, z'
loop_
 _atom_site_type_symbol
 _atom_site_label
 _atom_site_symmetry_multiplicity
 _atom_site_fract_x
 _atom_site_fract_y
 _atom_site_fract_z
 _atom_site_occupancy
  K  K0  1  0.70090300  0.40932700  0.80030500  1
  K  K1  1  0.19804700  0.09933600  0.19654200  1
  K  K2  1  0.29909700  0.59067300  0.19969500  1
  K  K3  1  0.80195300  0.90066400  0.80345800  1
  K  K4  1  0.81072700  0.39572500  0.30337900  1
  K  K5  1  0.30361400  0.09168200  0.69857400  1
  K  K6  1  0.18927300  0.60427500  0.69662100  1
  K  K7  1  0.69638600  0.90831800  0.30142600  1
  P  P8  1  0.69531900  0.66623100  0.57664300  1
  P  P9  1  0.30468100  0.33376900  0.42335700  1
  P  P10  1  0.71045800  0.16230100  0.07618900  1
  P  P11  1  0.28954200  0.83769900  0.92381100  1
  H  H12  1  0.49708900  0.32631500  0.06301300  1
  H  H13  1  0.93738700  0.16819900  0.94290000  1
  H  H14  1  0.50291100  0.67368500  0.93698700  1
  H  H15  1  0.06261300  0.83180100  0.05710000  1
  H  H16  1  0.92138000  0.66571500  0.44488000  1
  H  H17  1  0.47867100  0.82766400  0.55838900  1
  H  H18  1  0.07862000  0.33428500  0.55512000  1
  H  H19  1  0.52132900  0.17233600  0.44161100  1
  H  H20  1  0.50000000  0.50000000  0.50000000  1
  H  H21  1  0.00000000  0.00000000  0.50000000  1
  H  H22  1  0.50000000  0.00000000  0.00000000  1
  H  H23  1  0.00000000  0.50000000  0.00000000  1
  S  S24  1  0.19845600  0.82993900  0.42737700  1
  S  S25  1  0.80154400  0.17006100  0.57262300  1
  S  S26  1  0.20889800  0.33342100  0.92703700  1
  S  S27  1  0.79110200  0.66657900  0.07296300  1
  O  O28  1  0.78791300  0.64694700  0.44821700  1
  O  O29  1  0.27370100  0.85281800  0.54564700  1
  O  O30  1  0.21208700  0.35305300  0.55178300  1
  O  O31  1  0.72629900  0.14718200  0.45435300  1
  O  O32  1  0.55252400  0.06229700  0.08315600  1
  O  O33  1  0.05127600  0.43761100  0.91285600  1
  O  O34  1  0.44747600  0.93770300  0.91684400  1
  O  O35  1  0.94872400  0.56238900  0.08714400  1
  O  O36  1  0.54015500  0.56352700  0.58600800  1
  O  O37  1  0.04380000  0.93615700  0.41179700  1
  O  O38  1  0.45984500  0.43647300  0.41399200  1
  O  O39  1  0.95620000  0.06384300  0.58820300  1
  O  O40  1  0.82644700  0.65366900  0.67428700  1
  O  O41  1  0.32879200  0.85074000  0.32900900  1
  O  O42  1  0.17355300  0.34633100  0.32571300  1
  O  O43  1  0.67120800  0.14926000  0.67099100  1
  O  O44  1  0.80329700  0.14791000  0.94760000  1
  O  O45  1  0.28455500  0.35309000  0.04563400  1
  O  O46  1  0.19670300  0.85209000  0.05240000  1
  O  O47  1  0.71544500  0.64691000  0.95436600  1
  O  O48  1  0.62810600  0.31735500  0.08033000  1
  O  O49  1  0.13608100  0.19131800  0.91963600  1
  O  O50  1  0.37189400  0.68264500  0.91967000  1
  O  O51  1  0.86391900  0.80868200  0.08036400  1
  O  O52  1  0.84083700  0.14447700  0.17395300  1
  O  O53  1  0.33828600  0.35821800  0.82901500  1
  O  O54  1  0.15916300  0.85552300  0.82604700  1
  O  O55  1  0.66171400  0.64178200  0.17098500  1
  O  O56  1  0.61096900  0.82032600  0.57536500  1
  O  O57  1  0.12390400  0.68826400  0.42371400  1
  O  O58  1  0.38903100  0.17967400  0.42463500  1
  O  O59  1  0.87609600  0.31173600  0.57628600  1
