# generated using pymatgen
data_Fe15O16
_symmetry_space_group_name_H-M   'P 1'
_cell_length_a   10.89091294
_cell_length_b   10.89091294
_cell_length_c   10.89091353
_cell_angle_alpha   33.15853329
_cell_angle_beta   33.15853329
_cell_angle_gamma   33.15853171
_symmetry_Int_Tables_number   1
_chemical_formula_structural   Fe15O16
_chemical_formula_sum   'Fe15 O16'
_cell_volume   344.00098970
_cell_formula_units_Z   1
loop_
 _symmetry_equiv_pos_site_id
 _symmetry_equiv_pos_as_xyz
  1  'x, y, z'
loop_
 _atom_site_type_symbol
 _atom_site_label
 _atom_site_symmetry_multiplicity
 _atom_site_fract_x
 _atom_site_fract_y
 _atom_site_fract_z
 _atom_site_occupancy
  Fe  Fe0  1  0.50000000  0.50000000  0.50000000  1
  Fe  Fe1  1  0.00000000  0.00000000  0.00000000  1
  Fe  Fe2  1  0.74924800  0.74924800  0.24683200  1
  Fe  Fe3  1  0.25075200  0.25075200  0.75316800  1
  Fe  Fe4  1  0.74924800  0.24683200  0.74924800  1
  Fe  Fe5  1  0.25075200  0.75316800  0.25075200  1
  Fe  Fe6  1  0.24683200  0.74924800  0.74924800  1
  Fe  Fe7  1  0.75316800  0.25075200  0.25075200  1
  Fe  Fe8  1  0.82021700  0.82021700  0.82021700  1
  Fe  Fe9  1  0.17978300  0.17978300  0.17978300  1
  Fe  Fe10  1  0.25864600  0.25864600  0.25864600  1
  Fe  Fe11  1  0.74135400  0.74135400  0.74135400  1
  Fe  Fe12  1  0.50000000  0.50000000  0.00000000  1
  Fe  Fe13  1  0.50000000  0.00000000  0.50000000  1
  Fe  Fe14  1  0.00000000  0.50000000  0.50000000  1
  O  O15  1  0.88132900  0.88132900  0.88132900  1
  O  O16  1  0.37540200  0.37540200  0.37540200  1
  O  O17  1  0.12677600  0.12677600  0.62578200  1
  O  O18  1  0.62853900  0.62853900  0.11565900  1
  O  O19  1  0.12677600  0.62578200  0.12677600  1
  O  O20  1  0.62853900  0.11565900  0.62853900  1
  O  O21  1  0.62578200  0.12677600  0.12677600  1
  O  O22  1  0.11565900  0.62853900  0.62853900  1
  O  O23  1  0.62459800  0.62459800  0.62459800  1
  O  O24  1  0.11867100  0.11867100  0.11867100  1
  O  O25  1  0.37146100  0.37146100  0.88434100  1
  O  O26  1  0.87322400  0.87322400  0.37421800  1
  O  O27  1  0.37146100  0.88434100  0.37146100  1
  O  O28  1  0.87322400  0.37421800  0.87322400  1
  O  O29  1  0.88434100  0.37146100  0.37146100  1
  O  O30  1  0.37421800  0.87322400  0.87322400  1
