# generated using pymatgen
data_Gd2Zr2O7
_symmetry_space_group_name_H-M   'P 1'
_cell_length_a   7.52140263
_cell_length_b   7.52140263
_cell_length_c   7.52140263
_cell_angle_alpha   122.15284023
_cell_angle_beta   118.80053884
_cell_angle_gamma   89.20118415
_symmetry_Int_Tables_number   1
_chemical_formula_structural   Gd2Zr2O7
_chemical_formula_sum   'Gd4 Zr4 O14'
_cell_volume   298.34736328
_cell_formula_units_Z   2
loop_
 _symmetry_equiv_pos_site_id
 _symmetry_equiv_pos_as_xyz
  1  'x, y, z'
loop_
 _atom_site_type_symbol
 _atom_site_label
 _atom_site_symmetry_multiplicity
 _atom_site_fract_x
 _atom_site_fract_y
 _atom_site_fract_z
 _atom_site_occupancy
  Gd  Gd0  1  0.00000000  0.00000000  0.50000000  1
  Gd  Gd1  1  0.00000000  0.50000000  0.00000000  1
  Gd  Gd2  1  0.50000000  0.50000000  0.50000000  1
  Gd  Gd3  1  0.50000000  0.00000000  0.00000000  1
  Zr  Zr4  1  0.00000000  0.00000000  0.00000000  1
  Zr  Zr5  1  0.50000000  0.00000000  0.50000000  1
  Zr  Zr6  1  0.50000000  0.50000000  0.00000000  1
  Zr  Zr7  1  0.00000000  0.50000000  0.50000000  1
  O  O8  1  0.36337400  0.11083100  0.71559700  1
  O  O9  1  0.89523500  0.11083100  0.24745700  1
  O  O10  1  0.87112900  0.62112900  0.25000000  1
  O  O11  1  0.89523500  0.64777700  0.78440300  1
  O  O12  1  0.36337400  0.64777700  0.25254300  1
  O  O13  1  0.33091700  0.08091700  0.25000000  1
  O  O14  1  0.63662600  0.88916900  0.28440300  1
  O  O15  1  0.10476500  0.88916900  0.75254300  1
  O  O16  1  0.12887100  0.37887100  0.75000000  1
  O  O17  1  0.10476500  0.35222300  0.21559700  1
  O  O18  1  0.63662600  0.35222300  0.74745700  1
  O  O19  1  0.66908300  0.91908300  0.75000000  1
  O  O20  1  0.63313300  0.38313300  0.25000000  1
  O  O21  1  0.36686700  0.61686700  0.75000000  1
