# generated using pymatgen
data_FeCo(BiO3)2
_symmetry_space_group_name_H-M   'P 1'
_cell_length_a   3.76283700
_cell_length_b   3.76283700
_cell_length_c   9.76354100
_cell_angle_alpha   90.00000000
_cell_angle_beta   90.00000000
_cell_angle_gamma   90.00000000
_symmetry_Int_Tables_number   1
_chemical_formula_structural   FeCo(BiO3)2
_chemical_formula_sum   'Fe1 Co1 Bi2 O6'
_cell_volume   138.24141355
_cell_formula_units_Z   1
loop_
 _symmetry_equiv_pos_site_id
 _symmetry_equiv_pos_as_xyz
  1  'x, y, z'
loop_
 _atom_site_type_symbol
 _atom_site_label
 _atom_site_symmetry_multiplicity
 _atom_site_fract_x
 _atom_site_fract_y
 _atom_site_fract_z
 _atom_site_occupancy
  Fe  Fe0  1  0.50000000  0.50000000  0.78773900  1
  Co  Co1  1  0.50000000  0.50000000  0.28600200  1
  Bi  Bi2  1  0.00000000  0.00000000  0.00413800  1
  Bi  Bi3  1  0.00000000  0.00000000  0.49775600  1
  O  O4  1  0.50000000  0.50000000  0.10530900  1
  O  O5  1  0.50000000  0.50000000  0.60095000  1
  O  O6  1  0.00000000  0.50000000  0.36279200  1
  O  O7  1  0.00000000  0.50000000  0.86816100  1
  O  O8  1  0.50000000  0.00000000  0.36279200  1
  O  O9  1  0.50000000  0.00000000  0.86816100  1
