# generated using pymatgen
data_FeCu2SbO6
_symmetry_space_group_name_H-M   'P 1'
_cell_length_a   8.39704554
_cell_length_b   8.39704554
_cell_length_c   8.39704554
_cell_angle_alpha   109.74441787
_cell_angle_beta   109.37467882
_cell_angle_gamma   109.29492085
_symmetry_Int_Tables_number   1
_chemical_formula_structural   FeCu2SbO6
_chemical_formula_sum   'Fe4 Cu8 Sb4 O24'
_cell_volume   455.77449168
_cell_formula_units_Z   4
loop_
 _symmetry_equiv_pos_site_id
 _symmetry_equiv_pos_as_xyz
  1  'x, y, z'
loop_
 _atom_site_type_symbol
 _atom_site_label
 _atom_site_symmetry_multiplicity
 _atom_site_fract_x
 _atom_site_fract_y
 _atom_site_fract_z
 _atom_site_occupancy
  Fe  Fe0  1  0.46088700  0.25000000  0.71088700  1
  Fe  Fe1  1  0.03911300  0.75000000  0.78911300  1
  Fe  Fe2  1  0.53911300  0.75000000  0.28911300  1
  Fe  Fe3  1  0.96088700  0.25000000  0.21088700  1
  Cu  Cu4  1  0.72126800  0.47126800  0.25000000  1
  Cu  Cu5  1  0.77873200  0.02873200  0.75000000  1
  Cu  Cu6  1  0.25000000  0.72258100  0.47258100  1
  Cu  Cu7  1  0.75000000  0.77741900  0.02741900  1
  Cu  Cu8  1  0.27873200  0.52873200  0.75000000  1
  Cu  Cu9  1  0.22126800  0.97126800  0.25000000  1
  Cu  Cu10  1  0.75000000  0.27741900  0.52741900  1
  Cu  Cu11  1  0.25000000  0.22258100  0.97258100  1
  Sb  Sb12  1  0.00000000  0.50000000  0.00000000  1
  Sb  Sb13  1  0.50000000  0.00000000  0.00000000  1
  Sb  Sb14  1  0.00000000  0.00000000  0.50000000  1
  Sb  Sb15  1  0.50000000  0.50000000  0.50000000  1
  O  O16  1  0.03690300  0.26561300  0.98731500  1
  O  O17  1  0.72170100  0.23438700  0.27129000  1
  O  O18  1  0.77829900  0.04958900  0.51268500  1
  O  O19  1  0.46309700  0.45041100  0.22871000  1
  O  O20  1  0.97125500  0.04447300  0.27261000  1
  O  O21  1  0.27186300  0.69864400  0.22739000  1
  O  O22  1  0.52874500  0.80135600  0.07321800  1
  O  O23  1  0.22813700  0.45552700  0.42678200  1
  O  O24  1  0.27675500  0.97966400  0.04815700  1
  O  O25  1  0.22324500  0.27140200  0.70290900  1
  O  O26  1  0.06849300  0.52033600  0.79709100  1
  O  O27  1  0.43150700  0.22859800  0.45184300  1
  O  O28  1  0.96309700  0.73438700  0.01268500  1
  O  O29  1  0.27829900  0.76561300  0.72871000  1
  O  O30  1  0.22170100  0.95041100  0.48731500  1
  O  O31  1  0.53690300  0.54958900  0.77129000  1
  O  O32  1  0.02874500  0.95552700  0.72739000  1
  O  O33  1  0.72813700  0.30135600  0.77261000  1
  O  O34  1  0.47125500  0.19864400  0.92678200  1
  O  O35  1  0.77186300  0.54447300  0.57321800  1
  O  O36  1  0.72324500  0.02033600  0.95184300  1
  O  O37  1  0.77675500  0.72859800  0.29709100  1
  O  O38  1  0.93150700  0.47966400  0.20290900  1
  O  O39  1  0.56849300  0.77140200  0.54815700  1
