# generated using pymatgen
data_La6NbGa11O28
_symmetry_space_group_name_H-M   'P 1'
_cell_length_a   8.26841410
_cell_length_b   9.80353330
_cell_length_c   9.81258382
_cell_angle_alpha   63.95109326
_cell_angle_beta   64.98772635
_cell_angle_gamma   64.65855121
_symmetry_Int_Tables_number   1
_chemical_formula_structural   La6NbGa11O28
_chemical_formula_sum   'La6 Nb1 Ga11 O28'
_cell_volume   618.23670077
_cell_formula_units_Z   1
loop_
 _symmetry_equiv_pos_site_id
 _symmetry_equiv_pos_as_xyz
  1  'x, y, z'
loop_
 _atom_site_type_symbol
 _atom_site_label
 _atom_site_symmetry_multiplicity
 _atom_site_fract_x
 _atom_site_fract_y
 _atom_site_fract_z
 _atom_site_occupancy
  La  La0  1  0.00028000  0.28890600  0.28575600  1
  La  La1  1  0.99925000  0.78578700  0.79054500  1
  La  La2  1  0.41746300  0.00210800  0.99981700  1
  La  La3  1  0.43408800  0.50583600  0.49941400  1
  La  La4  1  0.57589500  0.71137600  0.71960200  1
  La  La5  1  0.57439900  0.21268600  0.21220800  1
  Nb  Nb6  1  0.00224100  0.49976500  0.49974100  1
  Ga  Ga7  1  0.33148800  0.93676700  0.40495800  1
  Ga  Ga8  1  0.34324300  0.42503000  0.89803100  1
  Ga  Ga9  1  0.66341200  0.06877500  0.59673300  1
  Ga  Ga10  1  0.66184400  0.57253500  0.10358700  1
  Ga  Ga11  1  0.99844700  0.87586500  0.37082700  1
  Ga  Ga12  1  0.00029900  0.36953500  0.87757500  1
  Ga  Ga13  1  0.99846700  0.99711000  0.99748600  1
  Ga  Ga14  1  0.76109600  0.76979300  0.24616800  1
  Ga  Ga15  1  0.77297000  0.22998800  0.75664000  1
  Ga  Ga16  1  0.23557400  0.12925400  0.64356000  1
  Ga  Ga17  1  0.23518800  0.63831700  0.11985900  1
  O  O18  1  0.53666300  0.93033300  0.22382800  1
  O  O19  1  0.55445800  0.41363300  0.72399200  1
  O  O20  1  0.45703000  0.99111000  0.69478100  1
  O  O21  1  0.45135100  0.50226900  0.19430300  1
  O  O22  1  0.22997200  0.34642400  0.57018500  1
  O  O23  1  0.22840600  0.84736900  0.06300000  1
  O  O24  1  0.77270300  0.68181600  0.46054900  1
  O  O25  1  0.77039500  0.18062200  0.96348000  1
  O  O26  1  0.14420300  0.00805600  0.30629800  1
  O  O27  1  0.14926300  0.50277200  0.80750800  1
  O  O28  1  0.85416900  0.88016400  0.57823000  1
  O  O29  1  0.85023200  0.38026100  0.08117200  1
  O  O30  1  0.85290700  0.96645600  0.23546400  1
  O  O31  1  0.86354800  0.49189500  0.72920400  1
  O  O32  1  0.14095700  0.66026800  0.42194000  1
  O  O33  1  0.14374900  0.16089500  0.89826400  1
  O  O34  1  0.67392900  0.24126100  0.41850100  1
  O  O35  1  0.67500500  0.74086800  0.92134800  1
  O  O36  1  0.32968900  0.75813800  0.57765200  1
  O  O37  1  0.32221500  0.25668500  0.07924600  1
  O  O38  1  0.91872800  0.31513600  0.54484300  1
  O  O39  1  0.94198000  0.79280900  0.04933700  1
  O  O40  1  0.05089300  0.02656200  0.76207400  1
  O  O41  1  0.08445700  0.50421300  0.27329100  1
  O  O42  1  0.31273200  0.12087400  0.43055100  1
  O  O43  1  0.32529600  0.61089000  0.92020900  1
  O  O44  1  0.67427900  0.08021400  0.77625300  1
  O  O45  1  0.68515000  0.59177500  0.27518900  1
