# generated using pymatgen
data_FeAu
_symmetry_space_group_name_H-M   'P 1'
_cell_length_a   4.75745622
_cell_length_b   4.75745622
_cell_length_c   4.75745587
_cell_angle_alpha   34.52431893
_cell_angle_beta   34.52431893
_cell_angle_gamma   34.52432508
_symmetry_Int_Tables_number   1
_chemical_formula_structural   FeAu
_chemical_formula_sum   'Fe1 Au1'
_cell_volume   30.85739557
_cell_formula_units_Z   1
loop_
 _symmetry_equiv_pos_site_id
 _symmetry_equiv_pos_as_xyz
  1  'x, y, z'
loop_
 _atom_site_type_symbol
 _atom_site_label
 _atom_site_symmetry_multiplicity
 _atom_site_fract_x
 _atom_site_fract_y
 _atom_site_fract_z
 _atom_site_occupancy
  Fe  Fe0  1  0.50000000  0.50000000  0.50000000  1
  Au  Au1  1  0.00000000  0.00000000  0.00000000  1
