# generated using pymatgen
data_KU11(GeO19)2
_symmetry_space_group_name_H-M   'P 1'
_cell_length_a   10.34948618
_cell_length_b   10.34948618
_cell_length_c   17.41248700
_cell_angle_alpha   90.00000000
_cell_angle_beta   90.00000000
_cell_angle_gamma   120.00000115
_symmetry_Int_Tables_number   1
_chemical_formula_structural   KU11(GeO19)2
_chemical_formula_sum   'K2 U22 Ge4 O76'
_cell_volume   1615.21005590
_cell_formula_units_Z   2
loop_
 _symmetry_equiv_pos_site_id
 _symmetry_equiv_pos_as_xyz
  1  'x, y, z'
loop_
 _atom_site_type_symbol
 _atom_site_label
 _atom_site_symmetry_multiplicity
 _atom_site_fract_x
 _atom_site_fract_y
 _atom_site_fract_z
 _atom_site_occupancy
  K  K0  1  0.66666700  0.33333300  0.75000000  1
  K  K1  1  0.33333300  0.66666700  0.25000000  1
  U  U2  1  0.14175800  0.28351700  0.75000000  1
  U  U3  1  0.14175800  0.85824200  0.75000000  1
  U  U4  1  0.71648300  0.85824200  0.75000000  1
  U  U5  1  0.85824200  0.71648300  0.25000000  1
  U  U6  1  0.85824200  0.14175800  0.25000000  1
  U  U7  1  0.28351700  0.14175800  0.25000000  1
  U  U8  1  0.33333300  0.66666700  0.90058800  1
  U  U9  1  0.66666700  0.33333300  0.40058800  1
  U  U10  1  0.66666700  0.33333300  0.09941200  1
  U  U11  1  0.33333300  0.66666700  0.59941200  1
  U  U12  1  0.98141000  0.33817700  0.94086400  1
  U  U13  1  0.35676700  0.01859000  0.94086400  1
  U  U14  1  0.66182300  0.64323300  0.94086400  1
  U  U15  1  0.64323300  0.66182300  0.44086400  1
  U  U16  1  0.01859000  0.35676700  0.44086400  1
  U  U17  1  0.33817700  0.98141000  0.44086400  1
  U  U18  1  0.01859000  0.66182300  0.05913600  1
  U  U19  1  0.64323300  0.98141000  0.05913600  1
  U  U20  1  0.33817700  0.35676700  0.05913600  1
  U  U21  1  0.35676700  0.33817700  0.55913600  1
  U  U22  1  0.98141000  0.64323300  0.55913600  1
  U  U23  1  0.66182300  0.01859000  0.55913600  1
  Ge  Ge24  1  0.00000000  0.00000000  0.40060700  1
  Ge  Ge25  1  0.00000000  0.00000000  0.90060700  1
  Ge  Ge26  1  0.00000000  0.00000000  0.59939300  1
  Ge  Ge27  1  0.00000000  0.00000000  0.09939300  1
  O  O28  1  0.18452800  0.47060500  0.84541900  1
  O  O29  1  0.28607700  0.81547200  0.84541900  1
  O  O30  1  0.52939500  0.71392300  0.84541900  1
  O  O31  1  0.71392300  0.52939500  0.34541900  1
  O  O32  1  0.81547200  0.28607700  0.34541900  1
  O  O33  1  0.47060500  0.18452800  0.34541900  1
  O  O34  1  0.81547200  0.52939500  0.15458100  1
  O  O35  1  0.71392300  0.18452800  0.15458100  1
  O  O36  1  0.47060500  0.28607700  0.15458100  1
  O  O37  1  0.28607700  0.47060500  0.65458100  1
  O  O38  1  0.18452800  0.71392300  0.65458100  1
  O  O39  1  0.52939500  0.81547200  0.65458100  1
  O  O40  1  0.86145100  0.35310000  0.87049700  1
  O  O41  1  0.49164900  0.13854900  0.87049700  1
  O  O42  1  0.64690000  0.50835100  0.87049700  1
  O  O43  1  0.50835100  0.64690000  0.37049700  1
  O  O44  1  0.13854900  0.49164900  0.37049700  1
  O  O45  1  0.35310000  0.86145100  0.37049700  1
  O  O46  1  0.13854900  0.64690000  0.12950300  1
  O  O47  1  0.50835100  0.86145100  0.12950300  1
  O  O48  1  0.35310000  0.49164900  0.12950300  1
  O  O49  1  0.49164900  0.35310000  0.62950300  1
  O  O50  1  0.86145100  0.50835100  0.62950300  1
  O  O51  1  0.64690000  0.13854900  0.62950300  1
  O  O52  1  0.15201900  0.97972900  0.86982100  1
  O  O53  1  0.82770900  0.84798100  0.86982100  1
  O  O54  1  0.02027100  0.17229100  0.86982100  1
  O  O55  1  0.17229100  0.02027100  0.36982100  1
  O  O56  1  0.84798100  0.82770900  0.36982100  1
  O  O57  1  0.97972900  0.15201900  0.36982100  1
  O  O58  1  0.84798100  0.02027100  0.13017900  1
  O  O59  1  0.17229100  0.15201900  0.13017900  1
  O  O60  1  0.97972900  0.82770900  0.13017900  1
  O  O61  1  0.82770900  0.97972900  0.63017900  1
  O  O62  1  0.15201900  0.17229100  0.63017900  1
  O  O63  1  0.02027100  0.84798100  0.63017900  1
  O  O64  1  0.10326900  0.32216800  0.01595800  1
  O  O65  1  0.21889900  0.89673100  0.01595800  1
  O  O66  1  0.67783200  0.78110100  0.01595800  1
  O  O67  1  0.78110100  0.67783200  0.51595800  1
  O  O68  1  0.89673100  0.21889900  0.51595800  1
  O  O69  1  0.32216800  0.10326900  0.51595800  1
  O  O70  1  0.89673100  0.67783200  0.98404200  1
  O  O71  1  0.78110100  0.10326900  0.98404200  1
  O  O72  1  0.32216800  0.21889900  0.98404200  1
  O  O73  1  0.21889900  0.32216800  0.48404200  1
  O  O74  1  0.10326900  0.78110100  0.48404200  1
  O  O75  1  0.67783200  0.89673100  0.48404200  1
  O  O76  1  0.30894700  0.28841500  0.78284000  1
  O  O77  1  0.97946900  0.69105300  0.78284000  1
  O  O78  1  0.71158500  0.02053100  0.78284000  1
  O  O79  1  0.02053100  0.71158500  0.28284000  1
  O  O80  1  0.69105300  0.97946900  0.28284000  1
  O  O81  1  0.28841500  0.30894700  0.28284000  1
  O  O82  1  0.69105300  0.71158500  0.21716000  1
  O  O83  1  0.02053100  0.30894700  0.21716000  1
  O  O84  1  0.28841500  0.97946900  0.21716000  1
  O  O85  1  0.97946900  0.28841500  0.71716000  1
  O  O86  1  0.30894700  0.02053100  0.71716000  1
  O  O87  1  0.71158500  0.69105300  0.71716000  1
  O  O88  1  0.00000000  0.00000000  0.50000000  1
  O  O89  1  0.00000000  0.00000000  0.00000000  1
  O  O90  1  0.40766900  0.54278200  0.96660600  1
  O  O91  1  0.13511400  0.59233100  0.96660600  1
  O  O92  1  0.45721800  0.86488600  0.96660600  1
  O  O93  1  0.86488600  0.45721800  0.46660600  1
  O  O94  1  0.59233100  0.13511400  0.46660600  1
  O  O95  1  0.54278200  0.40766900  0.46660600  1
  O  O96  1  0.59233100  0.45721800  0.03339400  1
  O  O97  1  0.86488600  0.40766900  0.03339400  1
  O  O98  1  0.54278200  0.13511400  0.03339400  1
  O  O99  1  0.13511400  0.54278200  0.53339400  1
  O  O100  1  0.40766900  0.86488600  0.53339400  1
  O  O101  1  0.45721800  0.59233100  0.53339400  1
  O  O102  1  0.00000000  0.00000000  0.75000000  1
  O  O103  1  0.00000000  0.00000000  0.25000000  1
