# generated using pymatgen
data_HRuRh(CO)6
_symmetry_space_group_name_H-M   'P 1'
_cell_length_a   10.15537700
_cell_length_b   10.25725457
_cell_length_c   10.44421831
_cell_angle_alpha   94.81588883
_cell_angle_beta   90.42910444
_cell_angle_gamma   98.21118414
_symmetry_Int_Tables_number   1
_chemical_formula_structural   HRuRh(CO)6
_chemical_formula_sum   'H4 Ru4 Rh4 C24 O24'
_cell_volume   1072.77156633
_cell_formula_units_Z   4
loop_
 _symmetry_equiv_pos_site_id
 _symmetry_equiv_pos_as_xyz
  1  'x, y, z'
loop_
 _atom_site_type_symbol
 _atom_site_label
 _atom_site_symmetry_multiplicity
 _atom_site_fract_x
 _atom_site_fract_y
 _atom_site_fract_z
 _atom_site_occupancy
  H  H0  1  0.85938800  0.89426400  0.18879900  1
  H  H1  1  0.14061200  0.10573600  0.81120100  1
  H  H2  1  0.75796100  0.90338400  0.40621900  1
  H  H3  1  0.24203900  0.09661600  0.59378100  1
  Ru  Ru4  1  0.69841000  0.91443300  0.24663000  1
  Ru  Ru5  1  0.30159000  0.08556700  0.75337000  1
  Ru  Ru6  1  0.78465000  0.73512300  0.43542700  1
  Ru  Ru7  1  0.21535000  0.26487700  0.56457300  1
  Rh  Rh8  1  0.61868300  0.64107200  0.22032800  1
  Rh  Rh9  1  0.38131700  0.35892800  0.77967200  1
  Rh  Rh10  1  0.88771900  0.72691700  0.18672300  1
  Rh  Rh11  1  0.11228100  0.27308300  0.81327700  1
  C  C12  1  0.58130800  0.67725500  0.43018300  1
  C  C13  1  0.41869200  0.32274500  0.56981700  1
  C  C14  1  0.95157000  0.56356300  0.18652000  1
  C  C15  1  0.04843000  0.43643700  0.81348000  1
  C  C16  1  0.53024400  0.94942400  0.31188100  1
  C  C17  1  0.46975600  0.05057600  0.68811900  1
  C  C18  1  0.58880300  0.45097400  0.21344800  1
  C  C19  1  0.41119700  0.54902600  0.78655200  1
  C  C20  1  0.82001200  0.57156700  0.48872100  1
  C  C21  1  0.17998800  0.42843300  0.51127900  1
  C  C22  1  0.64980400  0.93271000  0.07245900  1
  C  C23  1  0.35019600  0.06729000  0.92754100  1
  C  C24  1  0.97574100  0.79871200  0.38887200  1
  C  C25  1  0.02425900  0.20128800  0.61112800  1
  C  C26  1  0.80309100  0.80992600  0.60836600  1
  C  C27  1  0.19690900  0.19007400  0.39163400  1
  C  C28  1  0.44850300  0.66644700  0.16209100  1
  C  C29  1  0.55149700  0.33355300  0.83790900  1
  C  C30  1  0.72533700  0.65256000  0.05388600  1
  C  C31  1  0.27466300  0.34744000  0.94611400  1
  C  C32  1  0.02330300  0.79728300  0.07565500  1
  C  C33  1  0.97669700  0.20271700  0.92434500  1
  C  C34  1  0.78244800  0.09382600  0.28134200  1
  C  C35  1  0.21755200  0.90617400  0.71865800  1
  O  O36  1  0.56998800  0.33656700  0.20310200  1
  O  O37  1  0.43001200  0.66343300  0.79689800  1
  O  O38  1  0.62677900  0.94724200  0.96630600  1
  O  O39  1  0.37322100  0.05275800  0.03369400  1
  O  O40  1  0.82189900  0.85625100  0.71318200  1
  O  O41  1  0.17810100  0.14374900  0.28681800  1
  O  O42  1  0.48202900  0.66394900  0.48762700  1
  O  O43  1  0.51797100  0.33605100  0.51237300  1
  O  O44  1  0.43068000  0.97602200  0.35221100  1
  O  O45  1  0.56932000  0.02397800  0.64778900  1
  O  O46  1  0.83080100  0.20261500  0.30220900  1
  O  O47  1  0.16919900  0.79738500  0.69779100  1
  O  O48  1  0.84053400  0.47156700  0.52320500  1
  O  O49  1  0.15946600  0.52843300  0.47679500  1
  O  O50  1  0.99514600  0.46507000  0.18176000  1
  O  O51  1  0.00485400  0.53493000  0.81824000  1
  O  O52  1  0.71566700  0.63250100  0.94156900  1
  O  O53  1  0.28433300  0.36749900  0.05843100  1
  O  O54  1  0.08440800  0.84989000  0.41568000  1
  O  O55  1  0.91559200  0.15011000  0.58432000  1
  O  O56  1  0.10098500  0.84158200  0.00492200  1
  O  O57  1  0.89901500  0.15841800  0.99507800  1
  O  O58  1  0.34594800  0.68175800  0.12072100  1
  O  O59  1  0.65405200  0.31824200  0.87927900  1
