# generated using pymatgen
data_EuYAl4
_symmetry_space_group_name_H-M   'P 1'
_cell_length_a   5.63345891
_cell_length_b   5.63345891
_cell_length_c   5.63345891
_cell_angle_alpha   90.00000000
_cell_angle_beta   60.00000000
_cell_angle_gamma   120.00000000
_symmetry_Int_Tables_number   1
_chemical_formula_structural   EuYAl4
_chemical_formula_sum   'Eu1 Y1 Al4'
_cell_volume   126.41843105
_cell_formula_units_Z   1
loop_
 _symmetry_equiv_pos_site_id
 _symmetry_equiv_pos_as_xyz
  1  'x, y, z'
loop_
 _atom_site_type_symbol
 _atom_site_label
 _atom_site_symmetry_multiplicity
 _atom_site_fract_x
 _atom_site_fract_y
 _atom_site_fract_z
 _atom_site_occupancy
  Eu  Eu0  1  0.50000000  0.75000000  0.75000000  1
  Y  Y1  1  0.00000000  0.00000000  0.00000000  1
  Al  Al2  1  0.74966800  0.37483400  0.87549900  1
  Al  Al3  1  0.25033200  0.37483400  0.37483400  1
  Al  Al4  1  0.25033200  0.87549900  0.37483400  1
  Al  Al5  1  0.74966800  0.37483400  0.37483400  1
