# generated using pymatgen
data_Er2Co3Cu
_symmetry_space_group_name_H-M   'P 1'
_cell_length_a   5.08421404
_cell_length_b   5.08421404
_cell_length_c   5.08421465
_cell_angle_alpha   59.20111453
_cell_angle_beta   59.20111453
_cell_angle_gamma   59.20111013
_symmetry_Int_Tables_number   1
_chemical_formula_structural   Er2Co3Cu
_chemical_formula_sum   'Er2 Co3 Cu1'
_cell_volume   91.23866548
_cell_formula_units_Z   1
loop_
 _symmetry_equiv_pos_site_id
 _symmetry_equiv_pos_as_xyz
  1  'x, y, z'
loop_
 _atom_site_type_symbol
 _atom_site_label
 _atom_site_symmetry_multiplicity
 _atom_site_fract_x
 _atom_site_fract_y
 _atom_site_fract_z
 _atom_site_occupancy
  Er  Er0  1  0.12168900  0.12168900  0.12168900  1
  Er  Er1  1  0.87831100  0.87831100  0.87831100  1
  Co  Co2  1  0.50000000  0.00000000  0.50000000  1
  Co  Co3  1  0.00000000  0.50000000  0.50000000  1
  Co  Co4  1  0.50000000  0.50000000  0.00000000  1
  Cu  Cu5  1  0.50000000  0.50000000  0.50000000  1
