# generated using pymatgen
data_Mn2Al3Fe(PO7)3
_symmetry_space_group_name_H-M   'P 1'
_cell_length_a   6.97712310
_cell_length_b   15.92604168
_cell_length_c   13.03615975
_cell_angle_alpha   89.96102448
_cell_angle_beta   90.17793197
_cell_angle_gamma   102.65310139
_symmetry_Int_Tables_number   1
_chemical_formula_structural   Mn2Al3Fe(PO7)3
_chemical_formula_sum   'Mn8 Al12 Fe4 P12 O84'
_cell_volume   1413.36530042
_cell_formula_units_Z   4
loop_
 _symmetry_equiv_pos_site_id
 _symmetry_equiv_pos_as_xyz
  1  'x, y, z'
loop_
 _atom_site_type_symbol
 _atom_site_label
 _atom_site_symmetry_multiplicity
 _atom_site_fract_x
 _atom_site_fract_y
 _atom_site_fract_z
 _atom_site_occupancy
  Mn  Mn0  1  0.45986858  0.41973615  0.75000000  1
  Mn  Mn1  1  0.12660641  0.75321381  0.75000000  1
  Mn  Mn2  1  0.29124489  0.08248978  0.75000000  1
  Mn  Mn3  1  0.96011465  0.42022829  0.75000000  1
  Mn  Mn4  1  0.62483951  0.74968001  0.75000000  1
  Mn  Mn5  1  0.20632712  0.91265423  0.25000000  1
  Mn  Mn6  1  0.87570624  0.25141147  0.25000000  1
  Mn  Mn7  1  0.54003149  0.58006397  0.25000000  1
  Al  Al8  1  0.00202760  0.49848793  0.50200559  1
  Al  Al9  1  0.66953253  0.83331986  0.50647403  1
  Al  Al10  1  0.33884512  0.16658151  0.50741069  1
  Al  Al11  1  0.17311178  0.83576952  0.49979819  1
  Al  Al12  1  0.83998776  0.16695821  0.49215186  1
  Al  Al13  1  0.50282748  0.49954195  0.49907811  1
  Al  Al14  1  0.99646034  0.49848793  0.99799441  1
  Al  Al15  1  0.66378833  0.83331986  0.99352597  1
  Al  Al16  1  0.32773539  0.16658151  0.99258931  1
  Al  Al17  1  0.16265874  0.83576952  0.00020181  1
  Al  Al18  1  0.82696945  0.16695821  0.00784814  1
  Al  Al19  1  0.49671448  0.49954195  0.00092189  1
  Fe  Fe20  1  0.70905365  0.91810729  0.25000000  1
  Fe  Fe21  1  0.37511086  0.25022071  0.25000000  1
  Fe  Fe22  1  0.04238264  0.58476627  0.25000000  1
  Fe  Fe23  1  0.79185981  0.08371963  0.75000000  1
  P  P24  1  0.71284251  0.41497442  0.16987320  1
  P  P25  1  0.37418234  0.74922009  0.16800627  1
  P  P26  1  0.03532909  0.08171630  0.16956303  1
  P  P27  1  0.96377622  0.91906275  0.82813806  1
  P  P28  1  0.62113927  0.25087007  0.82925291  1
  P  P29  1  0.29022348  0.58553828  0.83076813  1
  P  P30  1  0.79531579  0.58553828  0.66923187  1
  P  P31  1  0.45528553  0.91906275  0.67186194  1
  P  P32  1  0.12973080  0.25087007  0.67074709  1
  P  P33  1  0.87503774  0.74922009  0.33199373  1
  P  P34  1  0.54638821  0.08171630  0.33043697  1
  P  P35  1  0.20213091  0.41497442  0.33012680  1
  O  O36  1  0.10000054  0.58264517  0.89213173  1
  O  O37  1  0.77490070  0.91824837  0.88952298  1
  O  O38  1  0.43897609  0.25103033  0.89431431  1
  O  O39  1  0.18644305  0.75348414  0.10654486  1
  O  O40  1  0.85058605  0.08143460  0.10501511  1
  O  O41  1  0.52633395  0.41558705  0.10609826  1
  O  O42  1  0.69802911  0.74860915  0.40259746  1
  O  O43  1  0.36421500  0.08224914  0.39897458  1
  O  O44  1  0.02238575  0.41560941  0.39687605  1
  O  O45  1  0.61673067  0.58439816  0.59967437  1
  O  O46  1  0.27661863  0.91847210  0.60321629  1
  O  O47  1  0.94407834  0.24817265  0.60234012  1
  O  O48  1  0.55058004  0.74860915  0.09740254  1
  O  O49  1  0.21803514  0.08224914  0.10102542  1
  O  O50  1  0.89322266  0.41560941  0.10312395  1
  O  O51  1  0.46766849  0.58439816  0.90032563  1
  O  O52  1  0.14185247  0.91847210  0.89678371  1
  O  O53  1  0.80409431  0.24817265  0.89765988  1
  O  O54  1  0.98264563  0.58264517  0.60786827  1
  O  O55  1  0.64334666  0.91824837  0.61047702  1
  O  O56  1  0.31205424  0.25103033  0.60568569  1
  O  O57  1  0.06704109  0.75348414  0.39345514  1
  O  O58  1  0.73084955  0.08143460  0.39498489  1
  O  O59  1  0.38925210  0.41558705  0.39390174  1
  O  O60  1  0.83632526  0.66509839  0.26582972  1
  O  O61  1  0.50267974  0.99779266  0.26441124  1
  O  O62  1  0.15830938  0.33047761  0.26196487  1
  O  O63  1  0.83586553  0.66932353  0.73585149  1
  O  O64  1  0.49469862  0.00355288  0.73956727  1
  O  O65  1  0.16471092  0.33439089  0.73707022  1
  O  O66  1  0.66967897  0.33439089  0.76292978  1
  O  O67  1  0.33345799  0.66932353  0.76414851  1
  O  O68  1  0.00885526  0.00355288  0.76043273  1
  O  O69  1  0.99511192  0.99779266  0.23558876  1
  O  O70  1  0.67216823  0.33047761  0.23803513  1
  O  O71  1  0.32877413  0.66509839  0.23417028  1
  O  O72  1  0.73969098  0.47355073  0.47620568  1
  O  O73  1  0.41072695  0.81156372  0.47547707  1
  O  O74  1  0.07998916  0.14347478  0.47611267  1
  O  O75  1  0.93226840  0.85509063  0.53023482  1
  O  O76  1  0.60265336  0.18997385  0.52129293  1
  O  O77  1  0.26476964  0.52290474  0.52686639  1
  O  O78  1  0.75813411  0.52290474  0.97313361  1
  O  O79  1  0.42282223  0.85509063  0.96976518  1
  O  O80  1  0.08732149  0.18997385  0.97870707  1
  O  O81  1  0.90083577  0.81156372  0.02452293  1
  O  O82  1  0.56348563  0.14347478  0.02388733  1
  O  O83  1  0.23386076  0.47355073  0.02379432  1
  O  O84  1  0.75504578  0.49631047  0.24234073  1
  O  O85  1  0.42289795  0.83023293  0.24056279  1
  O  O86  1  0.07847620  0.16408290  0.24106697  1
  O  O87  1  0.92486987  0.83747034  0.75619662  1
  O  O88  1  0.58049729  0.16851406  0.75756990  1
  O  O89  1  0.25279671  0.50418329  0.75813168  1
  O  O90  1  0.75138658  0.50418329  0.74186832  1
  O  O91  1  0.41260147  0.83747034  0.74380338  1
  O  O92  1  0.08801577  0.16851406  0.74243010  1
  O  O93  1  0.90733598  0.83023293  0.25943721  1
  O  O94  1  0.58560570  0.16408290  0.25893303  1
  O  O95  1  0.24126470  0.49631047  0.25765927  1
  O  O96  1  0.02687700  0.57995962  0.10165235  1
  O  O97  1  0.69581682  0.91055720  0.10134108  1
  O  O98  1  0.36583058  0.24180906  0.10259722  1
  O  O99  1  0.11279185  0.75148372  0.89670131  1
  O  O100  1  0.78957235  0.09200244  0.89774888  1
  O  O101  1  0.46267816  0.42304603  0.88552861  1
  O  O102  1  0.61930231  0.75371003  0.61603487  1
  O  O103  1  0.29660436  0.08978633  0.62266918  1
  O  O104  1  0.94698112  0.41619566  0.60455829  1
  O  O105  1  0.53494275  0.57711941  0.38554539  1
  O  O106  1  0.19546235  0.91734103  0.39529894  1
  O  O107  1  0.87414067  0.24387409  0.37745581  1
  O  O108  1  0.63440772  0.75371003  0.88396513  1
  O  O109  1  0.29318297  0.08978633  0.87733082  1
  O  O110  1  0.96921354  0.41619566  0.89544171  1
  O  O111  1  0.54217766  0.57711941  0.11445461  1
  O  O112  1  0.22187768  0.91734103  0.10470106  1
  O  O113  1  0.86973342  0.24387409  0.12254419  1
  O  O114  1  0.05308363  0.57995962  0.39834765  1
  O  O115  1  0.71473937  0.91055720  0.39865892  1
  O  O116  1  0.37597849  0.24180906  0.39740278  1
  O  O117  1  0.13869186  0.75148372  0.60329869  1
  O  O118  1  0.80243108  0.09200244  0.60225112  1
  O  O119  1  0.46036687  0.42304603  0.61447139  1
