# generated using pymatgen
data_Er(Fe5Si)2
_symmetry_space_group_name_H-M   'P 1'
_cell_length_a   4.74766200
_cell_length_b   6.33370632
_cell_length_c   6.33370632
_cell_angle_alpha   98.38614216
_cell_angle_beta   112.01154109
_cell_angle_gamma   67.98845891
_symmetry_Int_Tables_number   1
_chemical_formula_structural   Er(Fe5Si)2
_chemical_formula_sum   'Er1 Fe10 Si2'
_cell_volume   163.69980483
_cell_formula_units_Z   1
loop_
 _symmetry_equiv_pos_site_id
 _symmetry_equiv_pos_as_xyz
  1  'x, y, z'
loop_
 _atom_site_type_symbol
 _atom_site_label
 _atom_site_symmetry_multiplicity
 _atom_site_fract_x
 _atom_site_fract_y
 _atom_site_fract_z
 _atom_site_occupancy
  Er  Er0  1  0.00000000  0.00000000  0.00000000  1
  Fe  Fe1  1  0.63898200  0.36101800  0.63898200  1
  Fe  Fe2  1  0.36101800  0.63898200  0.36101800  1
  Fe  Fe3  1  0.00000000  0.35447400  0.35447400  1
  Fe  Fe4  1  0.00000000  0.64552600  0.64552600  1
  Fe  Fe5  1  0.50000000  0.79110600  0.79110600  1
  Fe  Fe6  1  0.50000000  0.20889400  0.20889400  1
  Fe  Fe7  1  0.50000000  0.00000000  0.50000000  1
  Fe  Fe8  1  0.00000000  0.00000000  0.50000000  1
  Fe  Fe9  1  0.50000000  0.50000000  0.00000000  1
  Fe  Fe10  1  0.00000000  0.50000000  0.00000000  1
  Si  Si11  1  0.73344100  0.76655900  0.23344100  1
  Si  Si12  1  0.26655900  0.23344100  0.76655900  1
