# generated using pymatgen
data_Er2AlSi
_symmetry_space_group_name_H-M   'P 1'
_cell_length_a   3.96508400
_cell_length_b   5.77893900
_cell_length_c   7.92956400
_cell_angle_alpha   90.00000000
_cell_angle_beta   90.00000000
_cell_angle_gamma   90.00000000
_symmetry_Int_Tables_number   1
_chemical_formula_structural   Er2AlSi
_chemical_formula_sum   'Er4 Al2 Si2'
_cell_volume   181.69785953
_cell_formula_units_Z   2
loop_
 _symmetry_equiv_pos_site_id
 _symmetry_equiv_pos_as_xyz
  1  'x, y, z'
loop_
 _atom_site_type_symbol
 _atom_site_label
 _atom_site_symmetry_multiplicity
 _atom_site_fract_x
 _atom_site_fract_y
 _atom_site_fract_z
 _atom_site_occupancy
  Er  Er0  1  0.25000000  0.37977800  0.67906100  1
  Er  Er1  1  0.25000000  0.12022200  0.17906100  1
  Er  Er2  1  0.75000000  0.60836100  0.32231300  1
  Er  Er3  1  0.75000000  0.89163900  0.82231300  1
  Al  Al4  1  0.25000000  0.87260600  0.53670600  1
  Al  Al5  1  0.25000000  0.62739400  0.03670600  1
  Si  Si6  1  0.75000000  0.12671400  0.46191900  1
  Si  Si7  1  0.75000000  0.37328600  0.96191900  1
