# generated using pymatgen
data_K2Sc2P2WO12
_symmetry_space_group_name_H-M   'P 1'
_cell_length_a   10.54104700
_cell_length_b   10.57396257
_cell_length_c   10.58540178
_cell_angle_alpha   89.63127818
_cell_angle_beta   89.47694028
_cell_angle_gamma   89.85999479
_symmetry_Int_Tables_number   1
_chemical_formula_structural   K2Sc2P2WO12
_chemical_formula_sum   'K8 Sc8 P8 W4 O48'
_cell_volume   1179.77866879
_cell_formula_units_Z   4
loop_
 _symmetry_equiv_pos_site_id
 _symmetry_equiv_pos_as_xyz
  1  'x, y, z'
loop_
 _atom_site_type_symbol
 _atom_site_label
 _atom_site_symmetry_multiplicity
 _atom_site_fract_x
 _atom_site_fract_y
 _atom_site_fract_z
 _atom_site_occupancy
  K  K0  1  0.79466200  0.31128900  0.19424200  1
  K  K1  1  0.30341400  0.19974100  0.79598800  1
  K  K2  1  0.22016100  0.79075500  0.30430400  1
  K  K3  1  0.69787600  0.69876700  0.70046900  1
  K  K4  1  0.56270400  0.08307800  0.42903500  1
  K  K5  1  0.06142800  0.41045000  0.55600000  1
  K  K6  1  0.44437100  0.55466900  0.08888000  1
  K  K7  1  0.90748400  0.94353200  0.92338000  1
  Sc  Sc8  1  0.06575000  0.56756600  0.93493500  1
  Sc  Sc9  1  0.58652500  0.91091300  0.08298200  1
  Sc  Sc10  1  0.91040500  0.10737300  0.60070800  1
  Sc  Sc11  1  0.41570000  0.40740700  0.39852500  1
  Sc  Sc12  1  0.37756500  0.87717800  0.62157000  1
  Sc  Sc13  1  0.84769500  0.62202800  0.34832800  1
  Sc  Sc14  1  0.65567200  0.34934000  0.86297000  1
  Sc  Sc15  1  0.15389500  0.16546200  0.14582600  1
  P  P16  1  0.76392500  0.62354300  0.04002800  1
  P  P17  1  0.54493100  0.72776600  0.36580100  1
  P  P18  1  0.62915200  0.04445400  0.77378800  1
  P  P19  1  0.72113600  0.37429800  0.54238400  1
  P  P20  1  0.96261100  0.26825700  0.88200900  1
  P  P21  1  0.12602800  0.46007900  0.23613700  1
  P  P22  1  0.22610300  0.13196900  0.45517400  1
  P  P23  1  0.46526700  0.22521000  0.12029900  1
  W  W24  1  0.37147500  0.54637000  0.72650600  1
  W  W25  1  0.26789500  0.87160200  0.95093400  1
  W  W26  1  0.04529000  0.77231700  0.62759400  1
  W  W27  1  0.87726600  0.95565900  0.27891600  1
  O  O28  1  0.42732500  0.70968800  0.73370800  1
  O  O29  1  0.26227900  0.92912000  0.78838400  1
  O  O30  1  0.20928200  0.76424000  0.57084800  1
  O  O31  1  0.93584200  0.79442300  0.26910500  1
  O  O32  1  0.76386900  0.57274000  0.17905000  1
  O  O33  1  0.68744900  0.72698700  0.40339800  1
  O  O34  1  0.58581900  0.18414300  0.77956700  1
  O  O35  1  0.72005200  0.41820100  0.68196600  1
  O  O36  1  0.82234600  0.26372700  0.92839200  1
  O  O37  1  0.08058400  0.32031200  0.23624200  1
  O  O38  1  0.22207400  0.08910100  0.31531000  1
  O  O39  1  0.32487100  0.23191700  0.07430400  1
  O  O40  1  0.34266100  0.49241600  0.56831700  1
  O  O41  1  0.42579400  0.83201600  0.00236900  1
  O  O42  1  0.99451600  0.93175100  0.66077300  1
  O  O43  1  0.84779200  0.00466300  0.43952700  1
  O  O44  1  0.90304700  0.64457600  0.99735600  1
  O  O45  1  0.49230300  0.59224000  0.35005000  1
  O  O46  1  0.64327600  0.98602200  0.90764000  1
  O  O47  1  0.58576100  0.35388500  0.49113500  1
  O  O48  1  0.00130700  0.40707600  0.85886900  1
  O  O49  1  0.14332800  0.50550100  0.09774600  1
  O  O50  1  0.09043100  0.14972600  0.51094500  1
  O  O51  1  0.50412700  0.08510600  0.13793800  1
  O  O52  1  0.22735800  0.52366300  0.81592200  1
  O  O53  1  0.17480600  0.73206000  0.97583700  1
  O  O54  1  0.02122300  0.68290800  0.77042600  1
  O  O55  1  0.73454500  0.98319100  0.18951400  1
  O  O56  1  0.69549000  0.75270500  0.02920600  1
  O  O57  1  0.52385100  0.80464300  0.24243200  1
  O  O58  1  0.75830000  0.02965000  0.70430800  1
  O  O59  1  0.79941800  0.24968600  0.52797000  1
  O  O60  1  0.97924300  0.19835500  0.75451600  1
  O  O61  1  0.25484100  0.47576000  0.30271900  1
  O  O62  1  0.30297200  0.25570700  0.47048700  1
  O  O63  1  0.47873800  0.29735900  0.24773700  1
  O  O64  1  0.48411500  0.44604800  0.80571900  1
  O  O65  1  0.19699700  0.98730000  0.05369200  1
  O  O66  1  0.94272200  0.69807900  0.51462500  1
  O  O67  1  0.98865200  0.05787300  0.20016800  1
  O  O68  1  0.69719300  0.52604100  0.95464800  1
  O  O69  1  0.47059400  0.79957200  0.47246900  1
  O  O70  1  0.52763300  0.97007700  0.69717500  1
  O  O71  1  0.79298600  0.47396200  0.45927400  1
  O  O72  1  0.05008200  0.20303400  0.97922700  1
  O  O73  1  0.02421500  0.53901300  0.30701100  1
  O  O74  1  0.29960000  0.02672800  0.52986100  1
  O  O75  1  0.55190300  0.29593600  0.02441100  1
