data_image0
_chemical_formula_structural       Ag2Ga2Te4
_chemical_formula_sum              "Ag2 Ga2 Te4"
_cell_length_a       6.41156
_cell_length_b       6.41156
_cell_length_c       7.64105
_cell_angle_alpha    114.806
_cell_angle_beta     114.806
_cell_angle_gamma    90

_space_group_name_H-M_alt    "P 1"
_space_group_IT_number       1

loop_
  _space_group_symop_operation_xyz
  'x, y, z'

loop_
  _atom_site_type_symbol
  _atom_site_label
  _atom_site_symmetry_multiplicity
  _atom_site_fract_x
  _atom_site_fract_y
  _atom_site_fract_z
  _atom_site_occupancy
  Ag  Ag1       1.0  0.00000  0.00000  0.00000  1.0000
  Ag  Ag2       1.0  0.25000  0.75000  0.50000  1.0000
  Ga  Ga1       1.0  0.50000  0.50000  0.00000  1.0000
  Ga  Ga2       1.0  0.75000  0.25000  0.50000  1.0000
  Te  Te1       1.0  0.39200  0.37500  0.25000  1.0000
  Te  Te2       1.0  0.85800  0.87500  0.25000  1.0000
  Te  Te3       1.0  0.62500  0.14200  0.75000  1.0000
  Te  Te4       1.0  0.12500  0.60800  0.75000  1.0000
