# generated using pymatgen
data_Dy4MnS7
_symmetry_space_group_name_H-M   'P 1'
_cell_length_a   6.54788519
_cell_length_b   6.54788519
_cell_length_c   11.46126937
_cell_angle_alpha   75.84940537
_cell_angle_beta   75.84940537
_cell_angle_gamma   33.82175551
_symmetry_Int_Tables_number   1
_chemical_formula_structural   Dy4MnS7
_chemical_formula_sum   'Dy4 Mn1 S7'
_cell_volume   264.43867758
_cell_formula_units_Z   1
loop_
 _symmetry_equiv_pos_site_id
 _symmetry_equiv_pos_as_xyz
  1  'x, y, z'
loop_
 _atom_site_type_symbol
 _atom_site_label
 _atom_site_symmetry_multiplicity
 _atom_site_fract_x
 _atom_site_fract_y
 _atom_site_fract_z
 _atom_site_occupancy
  Dy  Dy0  1  0.69294800  0.69294800  0.20451900  1
  Dy  Dy1  1  0.30615000  0.30615000  0.80192700  1
  Dy  Dy2  1  0.99986000  0.99986000  0.00598200  1
  Dy  Dy3  1  0.11402100  0.11402100  0.56652900  1
  Mn  Mn4  1  0.88566600  0.88566600  0.42080300  1
  S  S5  1  0.74426900  0.74426900  0.64004600  1
  S  S6  1  0.26903800  0.26903800  0.35235000  1
  S  S7  1  0.33828100  0.33828100  0.05123600  1
  S  S8  1  0.65959900  0.65959900  0.94886600  1
  S  S9  1  0.03347100  0.03347100  0.22668400  1
  S  S10  1  0.96370200  0.96370200  0.78413600  1
  S  S11  1  0.49299300  0.49299300  0.49692200  1
