# generated using pymatgen
data_Dy(CuTe)3
_symmetry_space_group_name_H-M   'P 1'
_cell_length_a   8.22018759
_cell_length_b   8.22018759
_cell_length_c   8.22018804
_cell_angle_alpha   53.93836001
_cell_angle_beta   53.93836001
_cell_angle_gamma   53.93836400
_symmetry_Int_Tables_number   1
_chemical_formula_structural   Dy(CuTe)3
_chemical_formula_sum   'Dy2 Cu6 Te6'
_cell_volume   337.14082912
_cell_formula_units_Z   2
loop_
 _symmetry_equiv_pos_site_id
 _symmetry_equiv_pos_as_xyz
  1  'x, y, z'
loop_
 _atom_site_type_symbol
 _atom_site_label
 _atom_site_symmetry_multiplicity
 _atom_site_fract_x
 _atom_site_fract_y
 _atom_site_fract_z
 _atom_site_occupancy
  Dy  Dy0  1  0.83397300  0.83397300  0.83397300  1
  Dy  Dy1  1  0.16602700  0.16602700  0.16602700  1
  Cu  Cu2  1  0.26762000  0.97604900  0.62840200  1
  Cu  Cu3  1  0.62840200  0.26762000  0.97604900  1
  Cu  Cu4  1  0.97604900  0.62840200  0.26762000  1
  Cu  Cu5  1  0.02395100  0.37159800  0.73238000  1
  Cu  Cu6  1  0.37159800  0.73238000  0.02395100  1
  Cu  Cu7  1  0.73238000  0.02395100  0.37159800  1
  Te  Te8  1  0.09706500  0.73564300  0.41904700  1
  Te  Te9  1  0.73564300  0.41904700  0.09706500  1
  Te  Te10  1  0.41904700  0.09706500  0.73564300  1
  Te  Te11  1  0.58095300  0.90293500  0.26435700  1
  Te  Te12  1  0.26435700  0.58095300  0.90293500  1
  Te  Te13  1  0.90293500  0.26435700  0.58095300  1
