# generated using pymatgen
data_KU2SO12
_symmetry_space_group_name_H-M   'P 1'
_cell_length_a   8.35310304
_cell_length_b   8.35310304
_cell_length_c   17.67777409
_cell_angle_alpha   97.21374702
_cell_angle_beta   97.21374702
_cell_angle_gamma   116.57468442
_symmetry_Int_Tables_number   1
_chemical_formula_structural   KU2SO12
_chemical_formula_sum   'K4 U8 S4 O48'
_cell_volume   1071.20493440
_cell_formula_units_Z   4
loop_
 _symmetry_equiv_pos_site_id
 _symmetry_equiv_pos_as_xyz
  1  'x, y, z'
loop_
 _atom_site_type_symbol
 _atom_site_label
 _atom_site_symmetry_multiplicity
 _atom_site_fract_x
 _atom_site_fract_y
 _atom_site_fract_z
 _atom_site_occupancy
  K  K0  1  0.80516200  0.31357900  0.37599300  1
  K  K1  1  0.68642100  0.19483800  0.12400800  1
  K  K2  1  0.19483800  0.68642100  0.62400800  1
  K  K3  1  0.31357900  0.80516200  0.87599200  1
  U  U4  1  0.31826100  0.35431500  0.41483500  1
  U  U5  1  0.64568500  0.68173900  0.08516500  1
  U  U6  1  0.68173900  0.64568500  0.58516500  1
  U  U7  1  0.35431500  0.31826100  0.91483500  1
  U  U8  1  0.84878200  0.82118600  0.41443700  1
  U  U9  1  0.17881400  0.15121800  0.08556300  1
  U  U10  1  0.15121800  0.17881400  0.58556300  1
  U  U11  1  0.82118600  0.84878200  0.91443700  1
  S  S12  1  0.49580600  0.50419400  0.25000000  1
  S  S13  1  0.50419400  0.49580600  0.75000000  1
  S  S14  1  0.99890800  0.00109200  0.25000000  1
  S  S15  1  0.00109200  0.99890800  0.75000000  1
  O  O16  1  0.36291200  0.49259800  0.30019600  1
  O  O17  1  0.50740200  0.63708800  0.19980400  1
  O  O18  1  0.63708800  0.50740200  0.69980400  1
  O  O19  1  0.49259800  0.36291200  0.80019600  1
  O  O20  1  0.16633300  0.65456300  0.09697900  1
  O  O21  1  0.34543700  0.83366700  0.40302100  1
  O  O22  1  0.83366700  0.34543700  0.90302100  1
  O  O23  1  0.65456300  0.16633300  0.59697900  1
  O  O24  1  0.98722200  0.86800900  0.29994500  1
  O  O25  1  0.13199100  0.01277800  0.20005500  1
  O  O26  1  0.01277800  0.13199100  0.70005500  1
  O  O27  1  0.86800900  0.98722200  0.79994500  1
  O  O28  1  0.19028000  0.47864400  0.43438000  1
  O  O29  1  0.52135600  0.80972000  0.06562000  1
  O  O30  1  0.80972000  0.52135600  0.56562000  1
  O  O31  1  0.47864400  0.19028000  0.93438000  1
  O  O32  1  0.00221600  0.45757400  0.23837300  1
  O  O33  1  0.54242600  0.99778400  0.26162700  1
  O  O34  1  0.99778400  0.54242600  0.76162700  1
  O  O35  1  0.45757400  0.00221600  0.73837300  1
  O  O36  1  0.05522500  0.18139700  0.30150400  1
  O  O37  1  0.81860300  0.94477500  0.19849600  1
  O  O38  1  0.94477500  0.81860300  0.69849600  1
  O  O39  1  0.18139700  0.05522500  0.80150400  1
  O  O40  1  0.97077600  0.69045900  0.43046500  1
  O  O41  1  0.30954100  0.02922400  0.06953500  1
  O  O42  1  0.02922400  0.30954100  0.56953500  1
  O  O43  1  0.69045900  0.97077600  0.93046500  1
  O  O44  1  0.43804600  0.22897900  0.38467500  1
  O  O45  1  0.77102100  0.56195400  0.11532500  1
  O  O46  1  0.56195400  0.77102100  0.61532500  1
  O  O47  1  0.22897900  0.43804600  0.88467500  1
  O  O48  1  0.10705600  0.09950500  0.45652900  1
  O  O49  1  0.90049500  0.89294400  0.04347100  1
  O  O50  1  0.89294400  0.90049500  0.54347100  1
  O  O51  1  0.09950500  0.10705600  0.95652900  1
  O  O52  1  0.67592200  0.56072200  0.30133100  1
  O  O53  1  0.43927800  0.32407800  0.19866900  1
  O  O54  1  0.32407800  0.43927800  0.69866900  1
  O  O55  1  0.56072200  0.67592200  0.80133100  1
  O  O56  1  0.71800100  0.93827000  0.38501800  1
  O  O57  1  0.06173000  0.28199900  0.11498200  1
  O  O58  1  0.28199900  0.06173000  0.61498200  1
  O  O59  1  0.93827000  0.71800100  0.88501800  1
  O  O60  1  0.59697200  0.61140600  0.45708200  1
  O  O61  1  0.38859400  0.40302800  0.04291800  1
  O  O62  1  0.40302800  0.38859400  0.54291800  1
  O  O63  1  0.61140600  0.59697200  0.95708200  1
