# generated using pymatgen
data_Er2(SeO4)3
_symmetry_space_group_name_H-M   'P 1'
_cell_length_a   6.55319143
_cell_length_b   7.04731700
_cell_length_c   7.04847127
_cell_angle_alpha   60.00542174
_cell_angle_beta   100.57103095
_cell_angle_gamma   90.00000000
_symmetry_Int_Tables_number   1
_chemical_formula_structural   Er2(SeO4)3
_chemical_formula_sum   'Er2 Se3 O12'
_cell_volume   275.52270917
_cell_formula_units_Z   1
loop_
 _symmetry_equiv_pos_site_id
 _symmetry_equiv_pos_as_xyz
  1  'x, y, z'
loop_
 _atom_site_type_symbol
 _atom_site_label
 _atom_site_symmetry_multiplicity
 _atom_site_fract_x
 _atom_site_fract_y
 _atom_site_fract_z
 _atom_site_occupancy
  Er  Er0  1  0.86224800  0.85322900  0.42098000  1
  Er  Er1  1  0.13775200  0.27420900  0.57902000  1
  Se  Se2  1  0.37086400  0.74360900  0.58478800  1
  Se  Se3  1  0.62913600  0.32839800  0.41521200  1
  Se  Se4  1  0.00000000  0.38110900  0.00000000  1
  O  O5  1  0.51363200  0.87630700  0.38753900  1
  O  O6  1  0.48636800  0.26384500  0.61246100  1
  O  O7  1  0.82603600  0.11046100  0.54012100  1
  O  O8  1  0.17396400  0.65058300  0.45987900  1
  O  O9  1  0.82895700  0.19646800  0.09373800  1
  O  O10  1  0.17104300  0.29020600  0.90626200  1
  O  O11  1  0.80638200  0.49645600  0.46657200  1
  O  O12  1  0.19361800  0.96302800  0.53342800  1
  O  O13  1  0.87696300  0.62419900  0.79442000  1
  O  O14  1  0.12303700  0.41861900  0.20558000  1
  O  O15  1  0.79629200  0.77549800  0.12827800  1
  O  O16  1  0.20370800  0.90377600  0.87172200  1
