# generated using pymatgen
data_EuZnPb
_symmetry_space_group_name_H-M   'P 1'
_cell_length_a   6.24826788
_cell_length_b   6.24826788
_cell_length_c   7.77867229
_cell_angle_alpha   52.59675188
_cell_angle_beta   52.59675188
_cell_angle_gamma   45.97661554
_symmetry_Int_Tables_number   1
_chemical_formula_structural   EuZnPb
_chemical_formula_sum   'Eu2 Zn2 Pb2'
_cell_volume   164.08620529
_cell_formula_units_Z   2
loop_
 _symmetry_equiv_pos_site_id
 _symmetry_equiv_pos_as_xyz
  1  'x, y, z'
loop_
 _atom_site_type_symbol
 _atom_site_label
 _atom_site_symmetry_multiplicity
 _atom_site_fract_x
 _atom_site_fract_y
 _atom_site_fract_z
 _atom_site_occupancy
  Eu  Eu0  1  0.46115300  0.46115300  0.78708500  1
  Eu  Eu1  1  0.53884700  0.53884700  0.21291500  1
  Zn  Zn2  1  0.85522600  0.85522600  0.59858400  1
  Zn  Zn3  1  0.14477400  0.14477400  0.40141600  1
  Pb  Pb4  1  0.17583500  0.17583500  0.76390700  1
  Pb  Pb5  1  0.82416500  0.82416500  0.23609300  1
