# generated using pymatgen
data_DyCdIn
_symmetry_space_group_name_H-M   'P 1'
_cell_length_a   4.88344575
_cell_length_b   4.88344575
_cell_length_c   7.41708000
_cell_angle_alpha   90.00000000
_cell_angle_beta   90.00000000
_cell_angle_gamma   119.99999655
_symmetry_Int_Tables_number   1
_chemical_formula_structural   DyCdIn
_chemical_formula_sum   'Dy2 Cd2 In2'
_cell_volume   153.18503647
_cell_formula_units_Z   2
loop_
 _symmetry_equiv_pos_site_id
 _symmetry_equiv_pos_as_xyz
  1  'x, y, z'
loop_
 _atom_site_type_symbol
 _atom_site_label
 _atom_site_symmetry_multiplicity
 _atom_site_fract_x
 _atom_site_fract_y
 _atom_site_fract_z
 _atom_site_occupancy
  Dy  Dy0  1  0.00000000  0.00000000  0.26246200  1
  Dy  Dy1  1  0.00000000  0.00000000  0.73753800  1
  Cd  Cd2  1  0.33333300  0.66666700  0.47382800  1
  Cd  Cd3  1  0.66666700  0.33333300  0.52617200  1
  In  In4  1  0.66666700  0.33333300  0.94785400  1
  In  In5  1  0.33333300  0.66666700  0.05214600  1
