# generated using pymatgen
data_DyAlNi
_symmetry_space_group_name_H-M   'P 1'
_cell_length_a   5.28176593
_cell_length_b   5.28211069
_cell_length_c   8.62517900
_cell_angle_alpha   90.00000000
_cell_angle_beta   90.00000000
_cell_angle_gamma   61.45345663
_symmetry_Int_Tables_number   1
_chemical_formula_structural   DyAlNi
_chemical_formula_sum   'Dy4 Al4 Ni4'
_cell_volume   211.37885180
_cell_formula_units_Z   4
loop_
 _symmetry_equiv_pos_site_id
 _symmetry_equiv_pos_as_xyz
  1  'x, y, z'
loop_
 _atom_site_type_symbol
 _atom_site_label
 _atom_site_symmetry_multiplicity
 _atom_site_fract_x
 _atom_site_fract_y
 _atom_site_fract_z
 _atom_site_occupancy
  Dy  Dy0  1  0.32935600  0.32943700  0.56765500  1
  Dy  Dy1  1  0.65920800  0.65914300  0.45970700  1
  Dy  Dy2  1  0.65920800  0.65914300  0.04029300  1
  Dy  Dy3  1  0.32935600  0.32943700  0.93234500  1
  Al  Al4  1  0.85992100  0.85992600  0.75000000  1
  Al  Al5  1  0.16064200  0.66481300  0.25000000  1
  Al  Al6  1  0.66486300  0.16058900  0.25000000  1
  Al  Al7  1  0.16283000  0.16282600  0.25000000  1
  Ni  Ni8  1  0.99289400  0.99283100  0.48859700  1
  Ni  Ni9  1  0.99289400  0.99283100  0.01140300  1
  Ni  Ni10  1  0.84963200  0.33928800  0.75000000  1
  Ni  Ni11  1  0.33919600  0.84973300  0.75000000  1
