# generated using pymatgen
data_KFe8P8H16N7(O4F)8
_symmetry_space_group_name_H-M   'P 1'
_cell_length_a   6.36460075
_cell_length_b   10.94173084
_cell_length_c   13.20351923
_cell_angle_alpha   90.77599153
_cell_angle_beta   90.74617144
_cell_angle_gamma   89.85832936
_symmetry_Int_Tables_number   1
_chemical_formula_structural   KFe8P8H16N7(O4F)8
_chemical_formula_sum   'K1 Fe8 P8 H16 N7 O32 F8'
_cell_volume   919.32503722
_cell_formula_units_Z   1
loop_
 _symmetry_equiv_pos_site_id
 _symmetry_equiv_pos_as_xyz
  1  'x, y, z'
loop_
 _atom_site_type_symbol
 _atom_site_label
 _atom_site_symmetry_multiplicity
 _atom_site_fract_x
 _atom_site_fract_y
 _atom_site_fract_z
 _atom_site_occupancy
  K  K0  1  0.73875400  0.11894400  0.61595000  1
  Fe  Fe1  1  0.02846900  0.40798600  0.62016400  1
  Fe  Fe2  1  0.98374000  0.92363000  0.38103200  1
  Fe  Fe3  1  0.52725700  0.90976800  0.87426200  1
  Fe  Fe4  1  0.47417100  0.41276400  0.12697300  1
  Fe  Fe5  1  0.27089500  0.16192000  0.74428400  1
  Fe  Fe6  1  0.73213900  0.66769400  0.25410500  1
  Fe  Fe7  1  0.77788500  0.65899200  0.75235000  1
  Fe  Fe8  1  0.22984100  0.16406100  0.24931000  1
  P  P9  1  0.52472500  0.41213100  0.68866500  1
  P  P10  1  0.48400100  0.91740500  0.31175600  1
  P  P11  1  0.02269000  0.91407300  0.80896800  1
  P  P12  1  0.97865300  0.41697100  0.18962000  1
  P  P13  1  0.32369200  0.18193800  0.99957700  1
  P  P14  1  0.67934000  0.68113900  0.99866300  1
  P  P15  1  0.82271200  0.68171300  0.49887700  1
  P  P16  1  0.17624700  0.16825500  0.49549500  1
  H  H17  1  0.89235900  0.43663200  0.87824100  1
  H  H18  1  0.10940500  0.93683600  0.12556000  1
  H  H19  1  0.35302700  0.92662900  0.62698500  1
  H  H20  1  0.60823900  0.44354100  0.36906900  1
  H  H21  1  0.96544100  0.29066700  0.89761000  1
  H  H22  1  0.03697500  0.79036700  0.10668300  1
  H  H23  1  0.45704300  0.78558300  0.60843000  1
  H  H24  1  0.53040200  0.29862900  0.39158300  1
  H  H25  1  0.70876300  0.32798400  0.88319300  1
  H  H26  1  0.29340900  0.82756400  0.12230600  1
  H  H27  1  0.19413500  0.80930700  0.60736500  1
  H  H28  1  0.78911500  0.33220700  0.37501700  1
  H  H29  1  0.83855700  0.37079800  0.99142600  1
  H  H30  1  0.16429400  0.86648500  0.01359400  1
  H  H31  1  0.33667400  0.86065900  0.50903800  1
  H  H32  1  0.66454900  0.37918700  0.48209500  1
  N  N33  1  0.85231300  0.35622300  0.91238900  1
  N  N34  1  0.15040000  0.85500600  0.09169800  1
  N  N35  1  0.33803800  0.84505300  0.58803500  1
  N  N36  1  0.64818600  0.36326200  0.40423800  1
  N  N37  1  0.17726800  0.56929300  0.44629500  1
  N  N38  1  0.32190600  0.57191100  0.94712200  1
  N  N39  1  0.67775900  0.07098100  0.05337300  1
  O  O40  1  0.32789800  0.43752400  0.62265500  1
  O  O41  1  0.67714500  0.94600700  0.38049700  1
  O  O42  1  0.82841600  0.94175900  0.87487900  1
  O  O43  1  0.17243300  0.44178800  0.12291500  1
  O  O44  1  0.21052900  0.17179300  0.89764400  1
  O  O45  1  0.79578800  0.67404300  0.09899500  1
  O  O46  1  0.71091800  0.66963000  0.59924100  1
  O  O47  1  0.30962300  0.18700700  0.40035100  1
  O  O48  1  0.06742200  0.02113500  0.73579900  1
  O  O49  1  0.92673300  0.52542000  0.26099100  1
  O  O50  1  0.57969600  0.51974200  0.76037600  1
  O  O51  1  0.42669600  0.02465600  0.24132900  1
  O  O52  1  0.45621800  0.29699300  0.01008400  1
  O  O53  1  0.54545900  0.79599600  0.98709800  1
  O  O54  1  0.95644500  0.79576500  0.49118600  1
  O  O55  1  0.03512700  0.28312400  0.51471000  1
  O  O56  1  0.48856200  0.29473500  0.75262500  1
  O  O57  1  0.52650600  0.80288800  0.24323600  1
  O  O58  1  0.98326700  0.79619500  0.74493800  1
  O  O59  1  0.01857700  0.30086000  0.25353600  1
  O  O60  1  0.31776100  0.14756200  0.59146900  1
  O  O61  1  0.68850100  0.64880800  0.40720700  1
  O  O62  1  0.80855400  0.64667400  0.90680700  1
  O  O63  1  0.19496100  0.14826500  0.09035600  1
  O  O64  1  0.51239000  0.06651200  0.98796700  1
  O  O65  1  0.49208300  0.56706700  0.00934200  1
  O  O66  1  0.00851900  0.56333200  0.50768100  1
  O  O67  1  0.02581000  0.05811500  0.48151400  1
  O  O68  1  0.71334700  0.38810600  0.61529700  1
  O  O69  1  0.29575200  0.89207100  0.38345600  1
  O  O70  1  0.21702700  0.89800100  0.88130100  1
  O  O71  1  0.78543300  0.39745400  0.11544500  1
  F  F72  1  0.49794700  0.03750800  0.76563200  1
  F  F73  1  0.50436900  0.54435000  0.22952000  1
  F  F74  1  0.00067600  0.53684400  0.72782800  1
  F  F75  1  0.00767000  0.04096900  0.26593800  1
  F  F76  1  0.03628200  0.27930300  0.72644600  1
  F  F77  1  0.95956100  0.78719700  0.27611500  1
  F  F78  1  0.54513700  0.78187600  0.76971200  1
  F  F79  1  0.46129600  0.28429500  0.22648700  1
