# generated using pymatgen
data_K6Sr2Ni5(P2O7)5
_symmetry_space_group_name_H-M   'P 1'
_cell_length_a   7.52678394
_cell_length_b   11.23836250
_cell_length_c   19.81665132
_cell_angle_alpha   90.17883105
_cell_angle_beta   89.52161698
_cell_angle_gamma   100.29317292
_symmetry_Int_Tables_number   1
_chemical_formula_structural   K6Sr2Ni5(P2O7)5
_chemical_formula_sum   'K12 Sr4 Ni10 P20 O70'
_cell_volume   1649.22829725
_cell_formula_units_Z   2
loop_
 _symmetry_equiv_pos_site_id
 _symmetry_equiv_pos_as_xyz
  1  'x, y, z'
loop_
 _atom_site_type_symbol
 _atom_site_label
 _atom_site_symmetry_multiplicity
 _atom_site_fract_x
 _atom_site_fract_y
 _atom_site_fract_z
 _atom_site_occupancy
  K  K0  1  0.89855604  0.64847303  0.09214961  1
  K  K1  1  0.59796922  0.35166586  0.59092107  1
  K  K2  1  0.10144396  0.35152697  0.90785039  1
  K  K3  1  0.40203078  0.64833414  0.40907893  1
  K  K4  1  0.45243882  0.29046025  0.39984035  1
  K  K5  1  0.04645138  0.70639230  0.89665258  1
  K  K6  1  0.54756118  0.70953975  0.60015965  1
  K  K7  1  0.95354862  0.29360770  0.10334742  1
  K  K8  1  0.59233405  0.27619286  0.80729371  1
  K  K9  1  0.91051698  0.72053453  0.30701400  1
  K  K10  1  0.40766595  0.72380714  0.19270629  1
  K  K11  1  0.08948302  0.27946547  0.69298600  1
  Sr  Sr12  1  0.92857151  0.13013837  0.29028563  1
  Sr  Sr13  1  0.57451641  0.87434713  0.78944232  1
  Sr  Sr14  1  0.07142849  0.86986163  0.70971437  1
  Sr  Sr15  1  0.42548359  0.12565287  0.21055768  1
  Ni  Ni16  1  0.85089278  0.91186034  0.46509011  1
  Ni  Ni17  1  0.64958503  0.08801767  0.96506498  1
  Ni  Ni18  1  0.14910722  0.08813966  0.53490989  1
  Ni  Ni19  1  0.35041497  0.91198233  0.03493502  1
  Ni  Ni20  1  0.50000000  0.00000000  0.50000000  1
  Ni  Ni21  1  -0.00000000  0.00000000  0.00000000  1
  Ni  Ni22  1  0.97508214  0.43047610  0.36892582  1
  Ni  Ni23  1  0.53165998  0.57018882  0.87083258  1
  Ni  Ni24  1  0.02491786  0.56952390  0.63107418  1
  Ni  Ni25  1  0.46834002  0.42981118  0.12916742  1
  P  P26  1  0.28545212  0.99412100  0.87707059  1
  P  P27  1  0.21437395  0.00528850  0.37731107  1
  P  P28  1  0.71454788  0.00587900  0.12292941  1
  P  P29  1  0.78562605  0.99471150  0.62268893  1
  P  P30  1  0.67029268  0.79406643  0.96593560  1
  P  P31  1  0.83075962  0.20615850  0.46590090  1
  P  P32  1  0.32970732  0.20593357  0.03406440  1
  P  P33  1  0.16924038  0.79384150  0.53409910  1
  P  P34  1  0.35889957  0.62517213  0.01297907  1
  P  P35  1  0.13967300  0.37492073  0.51324737  1
  P  P36  1  0.64110043  0.37482787  0.98702093  1
  P  P37  1  0.86032700  0.62507927  0.48675263  1
  P  P38  1  0.95215063  0.07891390  0.84412180  1
  P  P39  1  0.54972129  0.92102447  0.34410250  1
  P  P40  1  0.04784937  0.92108610  0.15587820  1
  P  P41  1  0.45027871  0.07897553  0.65589750  1
  P  P42  1  0.62871770  0.45718356  0.25049810  1
  P  P43  1  0.37128230  0.54281644  0.74950190  1
  P  P44  1  0.76364212  0.54298318  0.73096515  1
  P  P45  1  0.23635788  0.45701682  0.26903485  1
  O  O46  1  0.32034572  0.58146104  0.93968866  1
  O  O47  1  0.17931792  0.41889064  0.44017754  1
  O  O48  1  0.67965428  0.41853896  0.06031134  1
  O  O49  1  0.82068208  0.58110936  0.55982246  1
  O  O50  1  0.89957466  0.96514618  0.80130962  1
  O  O51  1  0.60291663  0.03510699  0.30136966  1
  O  O52  1  0.10042534  0.03485382  0.19869038  1
  O  O53  1  0.39708337  0.96489301  0.69863034  1
  O  O54  1  0.86290688  0.82382014  0.99166037  1
  O  O55  1  0.63711933  0.17566326  0.49177263  1
  O  O56  1  0.13709312  0.17617986  0.00833963  1
  O  O57  1  0.36288067  0.82433674  0.50822737  1
  O  O58  1  0.33669403  0.52456863  0.06470118  1
  O  O59  1  0.16094930  0.47491493  0.56595217  1
  O  O60  1  0.66330597  0.47543137  0.93529882  1
  O  O61  1  0.83905070  0.52508507  0.43404783  1
  O  O62  1  0.87475762  0.05764313  0.91670822  1
  O  O63  1  0.62599490  0.94222137  0.41633274  1
  O  O64  1  0.12524238  0.94235687  0.08329178  1
  O  O65  1  0.37400510  0.05777863  0.58366726  1
  O  O66  1  0.57430815  0.68809467  0.01684270  1
  O  O67  1  0.92397362  0.31203470  0.51703734  1
  O  O68  1  0.42569185  0.31190533  0.98315730  1
  O  O69  1  0.07602638  0.68796530  0.48296266  1
  O  O70  1  0.20779735  0.94686866  0.94632571  1
  O  O71  1  0.29188296  0.05320911  0.44612365  1
  O  O72  1  0.79220265  0.05313134  0.05367429  1
  O  O73  1  0.70811704  0.94679089  0.55387635  1
  O  O74  1  0.56113433  0.89729039  0.97193367  1
  O  O75  1  0.93972931  0.10322226  0.47153817  1
  O  O76  1  0.43886567  0.10270961  0.02806633  1
  O  O77  1  0.06027069  0.89677774  0.52846183  1
  O  O78  1  0.25293083  0.72564071  0.03233201  1
  O  O79  1  0.24507404  0.27442818  0.53193720  1
  O  O80  1  0.74706917  0.27435929  0.96766799  1
  O  O81  1  0.75492596  0.72557182  0.46806280  1
  O  O82  1  0.77747753  0.46440796  0.30134296  1
  O  O83  1  0.74455696  0.53563690  0.80754112  1
  O  O84  1  0.22252247  0.53559204  0.69865704  1
  O  O85  1  0.25544304  0.46436310  0.19245888  1
  O  O86  1  0.58514447  0.33727373  0.21071772  1
  O  O87  1  0.88304509  0.66069090  0.70597491  1
  O  O88  1  0.41485553  0.66272627  0.78928228  1
  O  O89  1  0.11695491  0.33930910  0.29402509  1
  O  O90  1  0.25492459  0.89058915  0.82575965  1
  O  O91  1  0.24509520  0.10813458  0.32559574  1
  O  O92  1  0.74507541  0.10941085  0.17424035  1
  O  O93  1  0.75490480  0.89186542  0.67440426  1
  O  O94  1  0.48293907  0.06035954  0.87688600  1
  O  O95  1  0.01719245  0.93895682  0.37724182  1
  O  O96  1  0.51706093  0.93964046  0.12311400  1
  O  O97  1  0.98280755  0.06104318  0.62275818  1
  O  O98  1  0.64760546  0.56078669  0.19869718  1
  O  O99  1  0.82852919  0.43753970  0.69446755  1
  O  O100  1  0.35239454  0.43921331  0.80130282  1
  O  O101  1  0.17147081  0.56246030  0.30553245  1
  O  O102  1  0.17311277  0.09794443  0.85346469  1
  O  O103  1  0.32820457  0.90175237  0.35354802  1
  O  O104  1  0.82688723  0.90205557  0.14653531  1
  O  O105  1  0.67179543  0.09824763  0.64645198  1
  O  O106  1  0.66149187  0.74210829  0.89396199  1
  O  O107  1  0.84112312  0.25843335  0.39381584  1
  O  O108  1  0.33850813  0.25789171  0.10603801  1
  O  O109  1  0.15887688  0.74156665  0.60618416  1
  O  O110  1  0.91947573  0.19566070  0.81324205  1
  O  O111  1  0.58296183  0.80439460  0.31252751  1
  O  O112  1  0.08052427  0.80433930  0.18675795  1
  O  O113  1  0.41703817  0.19560540  0.68747249  1
  O  O114  1  0.55511345  0.53906074  0.70228105  1
  O  O115  1  0.44488655  0.46093926  0.29771895  1
