data_image0
_chemical_formula_structural       AsF6Rb
_chemical_formula_sum              "As1 F6 Rb1"
_cell_length_a       4.7807
_cell_length_b       4.7807
_cell_length_c       4.7807
_cell_angle_alpha    97.4121
_cell_angle_beta     97.4121
_cell_angle_gamma    97.4121

_space_group_name_H-M_alt    "P 1"
_space_group_IT_number       1

loop_
  _space_group_symop_operation_xyz
  'x, y, z'

loop_
  _atom_site_type_symbol
  _atom_site_label
  _atom_site_symmetry_multiplicity
  _atom_site_fract_x
  _atom_site_fract_y
  _atom_site_fract_z
  _atom_site_occupancy
  As  As1       1.0  0.00000  0.00000  0.00000  1.0000
  F   F1        1.0  0.71000  0.77500  0.08230  1.0000
  F   F2        1.0  0.91800  0.29000  0.22500  1.0000
  F   F3        1.0  0.22500  0.91800  0.29000  1.0000
  F   F4        1.0  0.77500  0.08230  0.71000  1.0000
  F   F5        1.0  0.08230  0.71000  0.77500  1.0000
  F   F6        1.0  0.29000  0.22500  0.91800  1.0000
  Rb  Rb1       1.0  0.50000  0.50000  0.50000  1.0000
