# generated using pymatgen
data_Eu(ZnGa)2
_symmetry_space_group_name_H-M   'P 1'
_cell_length_a   4.34506700
_cell_length_b   4.34506700
_cell_length_c   6.18891876
_cell_angle_alpha   69.44929833
_cell_angle_beta   69.44929833
_cell_angle_gamma   90.00000000
_symmetry_Int_Tables_number   1
_chemical_formula_structural   Eu(ZnGa)2
_chemical_formula_sum   'Eu1 Zn2 Ga2'
_cell_volume   101.42919838
_cell_formula_units_Z   1
loop_
 _symmetry_equiv_pos_site_id
 _symmetry_equiv_pos_as_xyz
  1  'x, y, z'
loop_
 _atom_site_type_symbol
 _atom_site_label
 _atom_site_symmetry_multiplicity
 _atom_site_fract_x
 _atom_site_fract_y
 _atom_site_fract_z
 _atom_site_occupancy
  Eu  Eu0  1  0.00000000  0.00000000  0.00000000  1
  Zn  Zn1  1  0.38500100  0.38500100  0.22999800  1
  Zn  Zn2  1  0.61499900  0.61499900  0.77000200  1
  Ga  Ga3  1  0.75000000  0.25000000  0.50000000  1
  Ga  Ga4  1  0.25000000  0.75000000  0.50000000  1
