# generated using pymatgen
data_La4GaSi3
_symmetry_space_group_name_H-M   'P 1'
_cell_length_a   4.05544700
_cell_length_b   4.53185300
_cell_length_c   11.41028700
_cell_angle_alpha   90.00000000
_cell_angle_beta   90.00000000
_cell_angle_gamma   90.00000000
_symmetry_Int_Tables_number   1
_chemical_formula_structural   La4GaSi3
_chemical_formula_sum   'La4 Ga1 Si3'
_cell_volume   209.70612363
_cell_formula_units_Z   1
loop_
 _symmetry_equiv_pos_site_id
 _symmetry_equiv_pos_as_xyz
  1  'x, y, z'
loop_
 _atom_site_type_symbol
 _atom_site_label
 _atom_site_symmetry_multiplicity
 _atom_site_fract_x
 _atom_site_fract_y
 _atom_site_fract_z
 _atom_site_occupancy
  La  La0  1  0.00000000  0.00000000  0.36181000  1
  La  La1  1  0.00000000  0.50000000  0.85634700  1
  La  La2  1  0.50000000  0.50000000  0.14351900  1
  La  La3  1  0.50000000  0.00000000  0.63936800  1
  Ga  Ga4  1  0.00000000  0.00000000  0.06752800  1
  Si  Si5  1  0.00000000  0.50000000  0.56784800  1
  Si  Si6  1  0.50000000  0.50000000  0.43374600  1
  Si  Si7  1  0.50000000  0.00000000  0.92983300  1
