# generated using pymatgen
data_K2Re3S4O7
_symmetry_space_group_name_H-M   'P 1'
_cell_length_a   8.08185600
_cell_length_b   9.23129584
_cell_length_c   9.96575116
_cell_angle_alpha   81.47850790
_cell_angle_beta   75.02293928
_cell_angle_gamma   69.16583255
_symmetry_Int_Tables_number   1
_chemical_formula_structural   K2Re3S4O7
_chemical_formula_sum   'K4 Re6 S8 O14'
_cell_volume   669.97925552
_cell_formula_units_Z   2
loop_
 _symmetry_equiv_pos_site_id
 _symmetry_equiv_pos_as_xyz
  1  'x, y, z'
loop_
 _atom_site_type_symbol
 _atom_site_label
 _atom_site_symmetry_multiplicity
 _atom_site_fract_x
 _atom_site_fract_y
 _atom_site_fract_z
 _atom_site_occupancy
  K  K0  1  0.69353800  0.84622900  0.59055000  1
  K  K1  1  0.30646200  0.15377100  0.40945000  1
  K  K2  1  0.28452500  0.45339300  0.69689600  1
  K  K3  1  0.71547500  0.54660700  0.30310400  1
  Re  Re4  1  0.26863500  0.83360500  0.96231200  1
  Re  Re5  1  0.73136500  0.16639500  0.03768800  1
  Re  Re6  1  0.03345900  0.15424000  0.82950800  1
  Re  Re7  1  0.96654100  0.84576000  0.17049200  1
  Re  Re8  1  0.03802500  0.16690500  0.09900300  1
  Re  Re9  1  0.96197500  0.83309500  0.90099600  1
  S  S10  1  0.20175700  0.89784600  0.73626500  1
  S  S11  1  0.79824300  0.10215400  0.26373500  1
  S  S12  1  0.85354500  0.38209900  0.96842600  1
  S  S13  1  0.14645500  0.61790100  0.03157400  1
  S  S14  1  0.21852100  0.90743200  0.19092700  1
  S  S15  1  0.78147900  0.09256800  0.80907300  1
  S  S16  1  0.29995700  0.09855200  0.91366600  1
  S  S17  1  0.70004300  0.90144800  0.08633400  1
  O  O18  1  0.05049200  0.30708400  0.19794900  1
  O  O19  1  0.94950800  0.69291600  0.80205100  1
  O  O20  1  0.66356100  0.49118200  0.62162800  1
  O  O21  1  0.33643900  0.50881800  0.37837200  1
  O  O22  1  0.02078100  0.93204700  0.53085900  1
  O  O23  1  0.97921900  0.06795300  0.46914100  1
  O  O24  1  0.71073900  0.36266500  0.56819200  1
  O  O25  1  0.28926100  0.63733500  0.43180800  1
  O  O26  1  0.48712700  0.69632400  0.91939800  1
  O  O27  1  0.51287300  0.30367600  0.08060200  1
  O  O28  1  0.48977600  0.17056000  0.59678900  1
  O  O29  1  0.51022400  0.82944000  0.40321100  1
  O  O30  1  0.07080400  0.28503400  0.68324900  1
  O  O31  1  0.92919600  0.71496600  0.31675100  1
