# generated using pymatgen
data_Er4AlSi3
_symmetry_space_group_name_H-M   'P 1'
_cell_length_a   3.57520800
_cell_length_b   3.57520800
_cell_length_c   13.52950200
_cell_angle_alpha   90.00000000
_cell_angle_beta   90.00000000
_cell_angle_gamma   90.00000000
_symmetry_Int_Tables_number   1
_chemical_formula_structural   Er4AlSi3
_chemical_formula_sum   'Er4 Al1 Si3'
_cell_volume   172.93561316
_cell_formula_units_Z   1
loop_
 _symmetry_equiv_pos_site_id
 _symmetry_equiv_pos_as_xyz
  1  'x, y, z'
loop_
 _atom_site_type_symbol
 _atom_site_label
 _atom_site_symmetry_multiplicity
 _atom_site_fract_x
 _atom_site_fract_y
 _atom_site_fract_z
 _atom_site_occupancy
  Er  Er0  1  0.50000000  0.50000000  0.12989400  1
  Er  Er1  1  0.50000000  0.50000000  0.37642700  1
  Er  Er2  1  0.50000000  0.50000000  0.62357300  1
  Er  Er3  1  0.50000000  0.50000000  0.87010600  1
  Al  Al4  1  0.00000000  0.00000000  0.00000000  1
  Si  Si5  1  0.00000000  0.00000000  0.24779200  1
  Si  Si6  1  0.00000000  0.00000000  0.50000000  1
  Si  Si7  1  0.00000000  0.00000000  0.75220800  1
