# generated using pymatgen
data_Er2Se3
_symmetry_space_group_name_H-M   'P 1'
_cell_length_a   3.94703900
_cell_length_b   3.94703900
_cell_length_c   8.05741500
_cell_angle_alpha   90.00000000
_cell_angle_beta   90.00000000
_cell_angle_gamma   90.00000000
_symmetry_Int_Tables_number   1
_chemical_formula_structural   Er2Se3
_chemical_formula_sum   'Er2 Se3'
_cell_volume   125.52740994
_cell_formula_units_Z   1
loop_
 _symmetry_equiv_pos_site_id
 _symmetry_equiv_pos_as_xyz
  1  'x, y, z'
loop_
 _atom_site_type_symbol
 _atom_site_label
 _atom_site_symmetry_multiplicity
 _atom_site_fract_x
 _atom_site_fract_y
 _atom_site_fract_z
 _atom_site_occupancy
  Er  Er0  1  0.50000000  0.00000000  0.76202500  1
  Er  Er1  1  0.00000000  0.50000000  0.23797500  1
  Se  Se2  1  0.00000000  0.50000000  0.86594800  1
  Se  Se3  1  0.50000000  0.00000000  0.13405200  1
  Se  Se4  1  0.50000000  0.50000000  0.50000000  1
