# generated using pymatgen
data_Dy2FeMoO7
_symmetry_space_group_name_H-M   'P 1'
_cell_length_a   7.25213793
_cell_length_b   7.25213793
_cell_length_c   7.29696648
_cell_angle_alpha   60.39594678
_cell_angle_beta   60.39594678
_cell_angle_gamma   59.80357535
_symmetry_Int_Tables_number   1
_chemical_formula_structural   Dy2FeMoO7
_chemical_formula_sum   'Dy4 Fe2 Mo2 O14'
_cell_volume   272.56897682
_cell_formula_units_Z   2
loop_
 _symmetry_equiv_pos_site_id
 _symmetry_equiv_pos_as_xyz
  1  'x, y, z'
loop_
 _atom_site_type_symbol
 _atom_site_label
 _atom_site_symmetry_multiplicity
 _atom_site_fract_x
 _atom_site_fract_y
 _atom_site_fract_z
 _atom_site_occupancy
  Dy  Dy0  1  0.00000000  0.50000000  0.00000000  1
  Dy  Dy1  1  0.00000000  0.00000000  0.50000000  1
  Dy  Dy2  1  0.50000000  0.00000000  0.00000000  1
  Dy  Dy3  1  0.50000000  0.50000000  0.50000000  1
  Fe  Fe4  1  0.00000000  0.50000000  0.50000000  1
  Fe  Fe5  1  0.50000000  0.00000000  0.50000000  1
  Mo  Mo6  1  0.50000000  0.50000000  0.00000000  1
  Mo  Mo7  1  0.00000000  0.00000000  0.00000000  1
  O  O8  1  0.11791600  0.11791600  0.11380500  1
  O  O9  1  0.88208400  0.88208400  0.88619500  1
  O  O10  1  0.39194200  0.82936600  0.83352300  1
  O  O11  1  0.82936600  0.39194200  0.83352300  1
  O  O12  1  0.83677800  0.83677800  0.38475200  1
  O  O13  1  0.60805800  0.17063400  0.16647700  1
  O  O14  1  0.17063400  0.60805800  0.16647700  1
  O  O15  1  0.16322200  0.16322200  0.61524800  1
  O  O16  1  0.87476700  0.39818900  0.39225800  1
  O  O17  1  0.39818900  0.87476700  0.39225800  1
  O  O18  1  0.39893000  0.39893000  0.87080600  1
  O  O19  1  0.12523300  0.60181100  0.60774200  1
  O  O20  1  0.60181100  0.12523300  0.60774200  1
  O  O21  1  0.60107000  0.60107000  0.12919400  1
