# generated using pymatgen
data_DyGePd
_symmetry_space_group_name_H-M   'P 1'
_cell_length_a   5.66062297
_cell_length_b   5.66062297
_cell_length_c   7.02919955
_cell_angle_alpha   51.86047484
_cell_angle_beta   51.86047484
_cell_angle_gamma   45.68302758
_symmetry_Int_Tables_number   1
_chemical_formula_structural   DyGePd
_chemical_formula_sum   'Dy2 Ge2 Pd2'
_cell_volume   119.61416740
_cell_formula_units_Z   2
loop_
 _symmetry_equiv_pos_site_id
 _symmetry_equiv_pos_as_xyz
  1  'x, y, z'
loop_
 _atom_site_type_symbol
 _atom_site_label
 _atom_site_symmetry_multiplicity
 _atom_site_fract_x
 _atom_site_fract_y
 _atom_site_fract_z
 _atom_site_occupancy
  Dy  Dy0  1  0.54231900  0.54231900  0.69832900  1
  Dy  Dy1  1  0.45768100  0.45768100  0.30167100  1
  Ge  Ge2  1  0.83958200  0.83958200  0.10816900  1
  Ge  Ge3  1  0.16041800  0.16041800  0.89183100  1
  Pd  Pd4  1  0.17802200  0.17802200  0.27312000  1
  Pd  Pd5  1  0.82197800  0.82197800  0.72688000  1
