# generated using pymatgen
data_FeP2H6NO8
_symmetry_space_group_name_H-M   'P 1'
_cell_length_a   7.21571902
_cell_length_b   8.83139245
_cell_length_c   9.63690225
_cell_angle_alpha   64.23789472
_cell_angle_beta   70.21629716
_cell_angle_gamma   70.02445881
_symmetry_Int_Tables_number   1
_chemical_formula_structural   FeP2H6NO8
_chemical_formula_sum   'Fe3 P6 H18 N3 O24'
_cell_volume   506.53411075
_cell_formula_units_Z   3
loop_
 _symmetry_equiv_pos_site_id
 _symmetry_equiv_pos_as_xyz
  1  'x, y, z'
loop_
 _atom_site_type_symbol
 _atom_site_label
 _atom_site_symmetry_multiplicity
 _atom_site_fract_x
 _atom_site_fract_y
 _atom_site_fract_z
 _atom_site_occupancy
  Fe  Fe0  1  0.50000000  0.50000000  0.50000000  1
  Fe  Fe1  1  0.29673700  0.27952900  0.05059100  1
  Fe  Fe2  1  0.70326300  0.72047100  0.94940900  1
  P  P3  1  0.95639800  0.56085100  0.21924500  1
  P  P4  1  0.04360200  0.43914900  0.78075500  1
  P  P5  1  0.40961000  0.87410500  0.23566900  1
  P  P6  1  0.59039000  0.12589500  0.76433100  1
  P  P7  1  0.58985100  0.34352000  0.22111800  1
  P  P8  1  0.41014900  0.65648000  0.77888200  1
  H  H9  1  0.80178100  0.78482000  0.43137700  1
  H  H10  1  0.19821900  0.21518000  0.56862300  1
  H  H11  1  0.15360000  0.20300600  0.41333300  1
  H  H12  1  0.84640000  0.79699400  0.58666700  1
  H  H13  1  0.96470700  0.20592300  0.57331200  1
  H  H14  1  0.03529300  0.79407700  0.42668800  1
  H  H15  1  0.10590200  0.73947000  0.74234800  1
  H  H16  1  0.89409800  0.26053000  0.25765200  1
  H  H17  1  0.16150200  0.02926700  0.58785200  1
  H  H18  1  0.83849800  0.97073300  0.41214800  1
  H  H19  1  0.42488000  0.96052500  0.77075800  1
  H  H20  1  0.57512000  0.03947500  0.22924200  1
  H  H21  1  0.76494000  0.46073500  0.70821600  1
  H  H22  1  0.23506000  0.53926500  0.29178400  1
  H  H23  1  0.04177700  0.12654500  0.97460000  1
  H  H24  1  0.95822300  0.87345500  0.02540000  1
  H  H25  1  0.88685200  0.07092700  0.93976000  1
  H  H26  1  0.11314800  0.92907300  0.06024000  1
  N  N27  1  0.12009300  0.16318300  0.53537300  1
  N  N28  1  0.87990700  0.83681700  0.46462700  1
  N  N29  1  0.00000000  0.00000000  0.00000000  1
  O  O30  1  0.51588100  0.75903300  0.81063300  1
  O  O31  1  0.48411900  0.24096700  0.18936700  1
  O  O32  1  0.23729200  0.44706900  0.65088400  1
  O  O33  1  0.76270800  0.55293100  0.34911600  1
  O  O34  1  0.32998200  0.73495600  0.39105500  1
  O  O35  1  0.67001800  0.26504400  0.60894500  1
  O  O36  1  0.67041600  0.48379600  0.07319500  1
  O  O37  1  0.32958400  0.51620400  0.92680500  1
  O  O38  1  0.91438600  0.70605900  0.05931300  1
  O  O39  1  0.08561400  0.29394100  0.94068700  1
  O  O40  1  0.05746500  0.37916400  0.20860200  1
  O  O41  1  0.94253500  0.62083600  0.79139800  1
  O  O42  1  0.22059300  0.79671000  0.71251400  1
  O  O43  1  0.77940700  0.20329000  0.28748600  1
  O  O44  1  0.24466800  0.04421800  0.20336000  1
  O  O45  1  0.75533200  0.95578200  0.79664000  1
  O  O46  1  0.44355200  0.41266500  0.35228900  1
  O  O47  1  0.55644800  0.58733500  0.64771100  1
  O  O48  1  0.89262200  0.37685500  0.74139900  1
  O  O49  1  0.10737800  0.62314500  0.25860100  1
  O  O50  1  0.47583700  0.81330400  0.09553600  1
  O  O51  1  0.52416300  0.18669600  0.90446400  1
  O  O52  1  0.40625300  0.08912800  0.73736300  1
  O  O53  1  0.59374700  0.91087200  0.26263700  1
