# generated using pymatgen
data_Cu5Ge2
_symmetry_space_group_name_H-M   'P 1'
_cell_length_a   6.99973242
_cell_length_b   6.99973242
_cell_length_c   6.99973291
_cell_angle_alpha   34.17618326
_cell_angle_beta   34.17618326
_cell_angle_gamma   34.17618256
_symmetry_Int_Tables_number   1
_chemical_formula_structural   Cu5Ge2
_chemical_formula_sum   'Cu5 Ge2'
_cell_volume   96.49458734
_cell_formula_units_Z   1
loop_
 _symmetry_equiv_pos_site_id
 _symmetry_equiv_pos_as_xyz
  1  'x, y, z'
loop_
 _atom_site_type_symbol
 _atom_site_label
 _atom_site_symmetry_multiplicity
 _atom_site_fract_x
 _atom_site_fract_y
 _atom_site_fract_z
 _atom_site_occupancy
  Cu  Cu0  1  0.74477300  0.74477300  0.74477300  1
  Cu  Cu1  1  0.25890000  0.25890000  0.25890000  1
  Cu  Cu2  1  0.87506400  0.87506400  0.87506400  1
  Cu  Cu3  1  0.12885500  0.12885500  0.12885500  1
  Cu  Cu4  1  0.62128900  0.62128900  0.62128900  1
  Ge  Ge5  1  0.00452000  0.00452000  0.00452000  1
  Ge  Ge6  1  0.49159800  0.49159800  0.49159800  1
