# generated using pymatgen
data_Eu(GaGe2)2
_symmetry_space_group_name_H-M   'P 1'
_cell_length_a   6.06318406
_cell_length_b   6.06318406
_cell_length_c   13.44880900
_cell_angle_alpha   90.00000000
_cell_angle_beta   90.00000000
_cell_angle_gamma   139.43404785
_symmetry_Int_Tables_number   1
_chemical_formula_structural   Eu(GaGe2)2
_chemical_formula_sum   'Eu2 Ga4 Ge8'
_cell_volume   321.52473070
_cell_formula_units_Z   2
loop_
 _symmetry_equiv_pos_site_id
 _symmetry_equiv_pos_as_xyz
  1  'x, y, z'
loop_
 _atom_site_type_symbol
 _atom_site_label
 _atom_site_symmetry_multiplicity
 _atom_site_fract_x
 _atom_site_fract_y
 _atom_site_fract_z
 _atom_site_occupancy
  Eu  Eu0  1  0.79194400  0.20805600  0.25000000  1
  Eu  Eu1  1  0.20805600  0.79194400  0.75000000  1
  Ga  Ga2  1  0.47687000  0.52313000  0.09133300  1
  Ga  Ga3  1  0.52313000  0.47687000  0.90866700  1
  Ga  Ga4  1  0.47687000  0.52313000  0.40866700  1
  Ga  Ga5  1  0.52313000  0.47687000  0.59133300  1
  Ge  Ge6  1  0.25871800  0.74128200  0.05461600  1
  Ge  Ge7  1  0.74128200  0.25871800  0.94538400  1
  Ge  Ge8  1  0.25871800  0.74128200  0.44538400  1
  Ge  Ge9  1  0.74128200  0.25871800  0.55461600  1
  Ge  Ge10  1  0.06761200  0.93238800  0.15548800  1
  Ge  Ge11  1  0.93238800  0.06761200  0.84451200  1
  Ge  Ge12  1  0.06761200  0.93238800  0.34451200  1
  Ge  Ge13  1  0.93238800  0.06761200  0.65548800  1
