# generated using pymatgen
data_CuSi2P3
_symmetry_space_group_name_H-M   'P 1'
_cell_length_a   3.73198987
_cell_length_b   3.73198987
_cell_length_c   9.08557200
_cell_angle_alpha   90.00000000
_cell_angle_beta   90.00000000
_cell_angle_gamma   119.99999775
_symmetry_Int_Tables_number   1
_chemical_formula_structural   CuSi2P3
_chemical_formula_sum   'Cu1 Si2 P3'
_cell_volume   109.58820894
_cell_formula_units_Z   1
loop_
 _symmetry_equiv_pos_site_id
 _symmetry_equiv_pos_as_xyz
  1  'x, y, z'
loop_
 _atom_site_type_symbol
 _atom_site_label
 _atom_site_symmetry_multiplicity
 _atom_site_fract_x
 _atom_site_fract_y
 _atom_site_fract_z
 _atom_site_occupancy
  Cu  Cu0  1  0.33333300  0.66666700  0.73699100  1
  Si  Si1  1  0.66666700  0.33333300  0.08330800  1
  Si  Si2  1  0.00000000  0.00000000  0.43280100  1
  P  P3  1  0.33333300  0.66666700  0.99173400  1
  P  P4  1  0.66666700  0.33333300  0.33468000  1
  P  P5  1  0.00000000  0.00000000  0.67048500  1
