# generated using pymatgen
data_Dy(SN)3
_symmetry_space_group_name_H-M   'P 1'
_cell_length_a   4.18761500
_cell_length_b   5.75855103
_cell_length_c   6.92752984
_cell_angle_alpha   106.37117048
_cell_angle_beta   90.00000000
_cell_angle_gamma   90.00000000
_symmetry_Int_Tables_number   1
_chemical_formula_structural   Dy(SN)3
_chemical_formula_sum   'Dy1 S3 N3'
_cell_volume   160.28149995
_cell_formula_units_Z   1
loop_
 _symmetry_equiv_pos_site_id
 _symmetry_equiv_pos_as_xyz
  1  'x, y, z'
loop_
 _atom_site_type_symbol
 _atom_site_label
 _atom_site_symmetry_multiplicity
 _atom_site_fract_x
 _atom_site_fract_y
 _atom_site_fract_z
 _atom_site_occupancy
  Dy  Dy0  1  0.00000000  0.49400800  0.35048700  1
  S  S1  1  0.50000000  0.32997900  0.55286200  1
  S  S2  1  0.50000000  0.71278100  0.68014100  1
  S  S3  1  0.50000000  0.81241800  0.41140900  1
  N  N4  1  0.00000000  0.70556200  0.07232800  1
  N  N5  1  0.00000000  0.91506600  0.09134400  1
  N  N6  1  0.00000000  0.12648700  0.10803000  1
