# generated using pymatgen
data_Dy2Fe17CN
_symmetry_space_group_name_H-M   'P 1'
_cell_length_a   6.43700600
_cell_length_b   6.45877368
_cell_length_c   6.51130658
_cell_angle_alpha   83.63300186
_cell_angle_beta   83.51402678
_cell_angle_gamma   82.80840485
_symmetry_Int_Tables_number   1
_chemical_formula_structural   Dy2Fe17CN
_chemical_formula_sum   'Dy2 Fe17 C1 N1'
_cell_volume   265.57145434
_cell_formula_units_Z   1
loop_
 _symmetry_equiv_pos_site_id
 _symmetry_equiv_pos_as_xyz
  1  'x, y, z'
loop_
 _atom_site_type_symbol
 _atom_site_label
 _atom_site_symmetry_multiplicity
 _atom_site_fract_x
 _atom_site_fract_y
 _atom_site_fract_z
 _atom_site_occupancy
  Dy  Dy0  1  0.66188300  0.65198600  0.66011900  1
  Dy  Dy1  1  0.33811700  0.34801400  0.33988100  1
  Fe  Fe2  1  0.90340700  0.90438900  0.90440400  1
  Fe  Fe3  1  0.09659300  0.09561100  0.09559600  1
  Fe  Fe4  1  0.34605500  0.85273300  0.34064600  1
  Fe  Fe5  1  0.85076900  0.34456700  0.34097100  1
  Fe  Fe6  1  0.34413600  0.34279400  0.85255500  1
  Fe  Fe7  1  0.65394500  0.14726700  0.65935400  1
  Fe  Fe8  1  0.14923100  0.65543300  0.65902900  1
  Fe  Fe9  1  0.65586400  0.65720600  0.14744500  1
  Fe  Fe10  1  0.00000000  0.50000000  0.00000000  1
  Fe  Fe11  1  0.50000000  0.00000000  0.00000000  1
  Fe  Fe12  1  0.00000000  0.00000000  0.50000000  1
  Fe  Fe13  1  0.71340700  0.00346900  0.28463800  1
  Fe  Fe14  1  0.99992300  0.28199400  0.71806600  1
  Fe  Fe15  1  0.29405100  0.70754200  0.99790900  1
  Fe  Fe16  1  0.00007700  0.71800600  0.28193400  1
  Fe  Fe17  1  0.70594900  0.29245800  0.00209100  1
  Fe  Fe18  1  0.28659300  0.99653100  0.71536200  1
  C  C19  1  0.50000000  0.00000000  0.50000000  1
  N  N20  1  0.00000000  0.50000000  0.50000000  1
