# generated using pymatgen
data_Dy6Ge3Se14
_symmetry_space_group_name_H-M   'P 1'
_cell_length_a   6.03804300
_cell_length_b   10.39911600
_cell_length_c   10.39915134
_cell_angle_alpha   59.99946841
_cell_angle_beta   90.00073818
_cell_angle_gamma   90.00002051
_symmetry_Int_Tables_number   1
_chemical_formula_structural   Dy6Ge3Se14
_chemical_formula_sum   'Dy6 Ge3 Se14'
_cell_volume   565.48205589
_cell_formula_units_Z   1
loop_
 _symmetry_equiv_pos_site_id
 _symmetry_equiv_pos_as_xyz
  1  'x, y, z'
loop_
 _atom_site_type_symbol
 _atom_site_label
 _atom_site_symmetry_multiplicity
 _atom_site_fract_x
 _atom_site_fract_y
 _atom_site_fract_z
 _atom_site_occupancy
  Dy  Dy0  1  0.24799700  0.22684500  0.13071600  1
  Dy  Dy1  1  0.24798900  0.64245700  0.22684300  1
  Dy  Dy2  1  0.24799400  0.13071200  0.64243700  1
  Dy  Dy3  1  0.74972500  0.77246300  0.86900500  1
  Dy  Dy4  1  0.74972200  0.35851600  0.77247100  1
  Dy  Dy5  1  0.74972100  0.86899600  0.35853000  1
  Ge  Ge6  1  0.82904800  0.33334000  0.33333100  1
  Ge  Ge7  1  0.33167400  0.66666300  0.66666500  1
  Ge  Ge8  1  0.47922600  0.99999100  0.00000400  1
  Se  Se9  1  0.43784000  0.33338800  0.33330800  1
  Se  Se10  1  0.93971400  0.66665900  0.66667000  1
  Se  Se11  1  0.99780300  0.09426000  0.41979200  1
  Se  Se12  1  0.99780700  0.48596700  0.09424100  1
  Se  Se13  1  0.99780900  0.41979200  0.48595600  1
  Se  Se14  1  0.50033100  0.90529700  0.58101200  1
  Se  Se15  1  0.50033900  0.51367600  0.90531200  1
  Se  Se16  1  0.50033600  0.58099700  0.51368800  1
  Se  Se17  1  0.71917500  0.16126900  0.09819300  1
  Se  Se18  1  0.71918500  0.74053800  0.16127700  1
  Se  Se19  1  0.71918100  0.09818200  0.74053600  1
  Se  Se20  1  0.22445600  0.83591100  0.90394200  1
  Se  Se21  1  0.22447000  0.26013500  0.83592100  1
  Se  Se22  1  0.22445600  0.90394600  0.26015000  1
