# generated using pymatgen
data_Er2MnGa3
_symmetry_space_group_name_H-M   'P 1'
_cell_length_a   5.65964590
_cell_length_b   5.65964590
_cell_length_c   7.06865653
_cell_angle_alpha   51.86495882
_cell_angle_beta   51.86495882
_cell_angle_gamma   45.37821715
_symmetry_Int_Tables_number   1
_chemical_formula_structural   Er2MnGa3
_chemical_formula_sum   'Er2 Mn1 Ga3'
_cell_volume   119.73611258
_cell_formula_units_Z   1
loop_
 _symmetry_equiv_pos_site_id
 _symmetry_equiv_pos_as_xyz
  1  'x, y, z'
loop_
 _atom_site_type_symbol
 _atom_site_label
 _atom_site_symmetry_multiplicity
 _atom_site_fract_x
 _atom_site_fract_y
 _atom_site_fract_z
 _atom_site_occupancy
  Er  Er0  1  0.45791300  0.45791300  0.79133700  1
  Er  Er1  1  0.54501400  0.54501400  0.20259000  1
  Mn  Mn2  1  0.83361800  0.83361800  0.61643000  1
  Ga  Ga3  1  0.15727200  0.15727200  0.38988600  1
  Ga  Ga4  1  0.16739200  0.16739200  0.78667300  1
  Ga  Ga5  1  0.83879100  0.83879100  0.21308300  1
