# generated using pymatgen
data_Er2FeSbO7
_symmetry_space_group_name_H-M   'P 1'
_cell_length_a   7.19727844
_cell_length_b   7.19727844
_cell_length_c   7.19727844
_cell_angle_alpha   120.38974293
_cell_angle_beta   119.21114737
_cell_angle_gamma   90.34900030
_symmetry_Int_Tables_number   1
_chemical_formula_structural   Er2FeSbO7
_chemical_formula_sum   'Er4 Fe2 Sb2 O14'
_cell_volume   264.38217122
_cell_formula_units_Z   2
loop_
 _symmetry_equiv_pos_site_id
 _symmetry_equiv_pos_as_xyz
  1  'x, y, z'
loop_
 _atom_site_type_symbol
 _atom_site_label
 _atom_site_symmetry_multiplicity
 _atom_site_fract_x
 _atom_site_fract_y
 _atom_site_fract_z
 _atom_site_occupancy
  Er  Er0  1  0.00000000  0.00000000  0.50000000  1
  Er  Er1  1  0.00000000  0.50000000  0.00000000  1
  Er  Er2  1  0.00000000  0.00000000  0.00000000  1
  Er  Er3  1  0.50000000  0.00000000  0.50000000  1
  Fe  Fe4  1  0.50000000  0.50000000  0.50000000  1
  Fe  Fe5  1  0.50000000  0.00000000  0.00000000  1
  Sb  Sb6  1  0.50000000  0.50000000  0.00000000  1
  Sb  Sb7  1  0.00000000  0.50000000  0.50000000  1
  O  O8  1  0.12396900  0.87396900  0.25000000  1
  O  O9  1  0.87603100  0.12603100  0.75000000  1
  O  O10  1  0.41610000  0.16610000  0.25000000  1
  O  O11  1  0.83602200  0.58602200  0.25000000  1
  O  O12  1  0.41306000  0.58267800  0.24837800  1
  O  O13  1  0.83430000  0.16468200  0.25162200  1
  O  O14  1  0.41306000  0.16468200  0.83038100  1
  O  O15  1  0.83430000  0.58267800  0.66961900  1
  O  O16  1  0.58390000  0.83390000  0.75000000  1
  O  O17  1  0.16397800  0.41397800  0.75000000  1
  O  O18  1  0.58694000  0.41732200  0.75162200  1
  O  O19  1  0.16570000  0.83531800  0.74837800  1
  O  O20  1  0.58694000  0.83531800  0.16961900  1
  O  O21  1  0.16570000  0.41732200  0.33038100  1
