# generated using pymatgen
data_Er4US7
_symmetry_space_group_name_H-M   'P 1'
_cell_length_a   6.64088101
_cell_length_b   6.64088101
_cell_length_c   11.54989485
_cell_angle_alpha   75.62283493
_cell_angle_beta   75.62283493
_cell_angle_gamma   32.89313110
_symmetry_Int_Tables_number   1
_chemical_formula_structural   Er4US7
_chemical_formula_sum   'Er4 U1 S7'
_cell_volume   267.19152367
_cell_formula_units_Z   1
loop_
 _symmetry_equiv_pos_site_id
 _symmetry_equiv_pos_as_xyz
  1  'x, y, z'
loop_
 _atom_site_type_symbol
 _atom_site_label
 _atom_site_symmetry_multiplicity
 _atom_site_fract_x
 _atom_site_fract_y
 _atom_site_fract_z
 _atom_site_occupancy
  Er  Er0  1  0.70011000  0.70011000  0.18799200  1
  Er  Er1  1  0.30106400  0.30106400  0.81128200  1
  Er  Er2  1  0.11675600  0.11675600  0.57723600  1
  Er  Er3  1  0.99971000  0.99971000  0.99814900  1
  U  U4  1  0.88498600  0.88498600  0.42376800  1
  S  S5  1  0.04164800  0.04164800  0.21323300  1
  S  S6  1  0.95879500  0.95879500  0.78450800  1
  S  S7  1  0.34136800  0.34136800  0.05086100  1
  S  S8  1  0.65909900  0.65909900  0.94950800  1
  S  S9  1  0.73902200  0.73902200  0.65228600  1
  S  S10  1  0.25559700  0.25559700  0.34877100  1
  S  S11  1  0.50184400  0.50184400  0.50240600  1
