# generated using pymatgen
data_Er3ScS6
_symmetry_space_group_name_H-M   'P 1'
_cell_length_a   3.85756900
_cell_length_b   10.86397200
_cell_length_c   11.06681465
_cell_angle_alpha   70.64034219
_cell_angle_beta   90.00000000
_cell_angle_gamma   90.00000000
_symmetry_Int_Tables_number   1
_chemical_formula_structural   Er3ScS6
_chemical_formula_sum   'Er6 Sc2 S12'
_cell_volume   437.56922095
_cell_formula_units_Z   2
loop_
 _symmetry_equiv_pos_site_id
 _symmetry_equiv_pos_as_xyz
  1  'x, y, z'
loop_
 _atom_site_type_symbol
 _atom_site_label
 _atom_site_symmetry_multiplicity
 _atom_site_fract_x
 _atom_site_fract_y
 _atom_site_fract_z
 _atom_site_occupancy
  Er  Er0  1  0.25000000  0.45117500  0.19326700  1
  Er  Er1  1  0.75000000  0.54882500  0.80673300  1
  Er  Er2  1  0.25000000  0.81819000  0.00005100  1
  Er  Er3  1  0.75000000  0.18181000  0.99994900  1
  Er  Er4  1  0.25000000  0.33598600  0.58349500  1
  Er  Er5  1  0.75000000  0.66401400  0.41650500  1
  Sc  Sc6  1  0.25000000  0.06237800  0.33423300  1
  Sc  Sc7  1  0.75000000  0.93762200  0.66576700  1
  S  S8  1  0.25000000  0.38929700  0.96360600  1
  S  S9  1  0.75000000  0.61070300  0.03639400  1
  S  S10  1  0.25000000  0.76478500  0.76920300  1
  S  S11  1  0.75000000  0.23521500  0.23079700  1
  S  S12  1  0.25000000  0.69080700  0.25003000  1
  S  S13  1  0.75000000  0.30919300  0.74997000  1
  S  S14  1  0.25000000  0.01908500  0.12147100  1
  S  S15  1  0.75000000  0.98091500  0.87852900  1
  S  S16  1  0.25000000  0.09686200  0.56077900  1
  S  S17  1  0.75000000  0.90313800  0.43922100  1
  S  S18  1  0.25000000  0.58182900  0.60013700  1
  S  S19  1  0.75000000  0.41817100  0.39986300  1
