# generated using pymatgen
data_Cu19Sn16
_symmetry_space_group_name_H-M   'P 1'
_cell_length_a   7.54866400
_cell_length_b   9.77652994
_cell_length_c   9.79287863
_cell_angle_alpha   116.54957109
_cell_angle_beta   90.17547041
_cell_angle_gamma   90.32568388
_symmetry_Int_Tables_number   1
_chemical_formula_structural   Cu19Sn16
_chemical_formula_sum   'Cu19 Sn16'
_cell_volume   646.47734129
_cell_formula_units_Z   1
loop_
 _symmetry_equiv_pos_site_id
 _symmetry_equiv_pos_as_xyz
  1  'x, y, z'
loop_
 _atom_site_type_symbol
 _atom_site_label
 _atom_site_symmetry_multiplicity
 _atom_site_fract_x
 _atom_site_fract_y
 _atom_site_fract_z
 _atom_site_occupancy
  Cu  Cu0  1  0.75774000  0.31221300  0.19176100  1
  Cu  Cu1  1  0.25583800  0.18789400  0.81023300  1
  Cu  Cu2  1  0.24680200  0.68729400  0.81208000  1
  Cu  Cu3  1  0.74626400  0.81364700  0.18997800  1
  Cu  Cu4  1  0.26995600  0.44485900  0.05960300  1
  Cu  Cu5  1  0.77660900  0.05773900  0.94223700  1
  Cu  Cu6  1  0.72328500  0.55698600  0.94364100  1
  Cu  Cu7  1  0.22669700  0.94074500  0.05853300  1
  Cu  Cu8  1  0.22804300  0.18724300  0.31586400  1
  Cu  Cu9  1  0.72368900  0.31751200  0.68654500  1
  Cu  Cu10  1  0.77545000  0.81467600  0.68151800  1
  Cu  Cu11  1  0.26874700  0.68249500  0.31441400  1
  Cu  Cu12  1  0.74368000  0.06731500  0.43018900  1
  Cu  Cu13  1  0.24840900  0.43109000  0.56649500  1
  Cu  Cu14  1  0.25592700  0.93086200  0.56860900  1
  Cu  Cu15  1  0.75486500  0.56794100  0.43053000  1
  Cu  Cu16  1  0.09183200  0.93773200  0.80923300  1
  Cu  Cu17  1  0.40939400  0.43758800  0.81216900  1
  Cu  Cu18  1  0.90833700  0.06298700  0.19059500  1
  Sn  Sn19  1  0.09570200  0.21492100  0.06927700  1
  Sn  Sn20  1  0.59344900  0.29322400  0.94179600  1
  Sn  Sn21  1  0.90581300  0.78477300  0.92995900  1
  Sn  Sn22  1  0.41335900  0.71040300  0.07662400  1
  Sn  Sn23  1  0.55159500  0.06259000  0.18243700  1
  Sn  Sn24  1  0.05336900  0.43668000  0.81652000  1
  Sn  Sn25  1  0.44892800  0.93850100  0.81578200  1
  Sn  Sn26  1  0.92811300  0.56244200  0.18322300  1
  Sn  Sn27  1  0.58834700  0.81887400  0.44289500  1
  Sn  Sn28  1  0.09154400  0.66785400  0.54406800  1
  Sn  Sn29  1  0.41245900  0.16901500  0.54509200  1
  Sn  Sn30  1  0.91023000  0.33183900  0.45694900  1
  Sn  Sn31  1  0.08525900  0.92215500  0.32230900  1
  Sn  Sn32  1  0.58370900  0.57718800  0.67696800  1
  Sn  Sn33  1  0.91176800  0.07817700  0.67819600  1
  Sn  Sn34  1  0.42469100  0.43064800  0.31377900  1
