# generated using pymatgen
data_Cu2SiS3
_symmetry_space_group_name_H-M   'P 1'
_cell_length_a   12.27414608
_cell_length_b   11.73281754
_cell_length_c   6.35271905
_cell_angle_alpha   79.42359793
_cell_angle_beta   69.99405749
_cell_angle_gamma   30.58234458
_symmetry_Int_Tables_number   1
_chemical_formula_structural   Cu2SiS3
_chemical_formula_sum   'Cu8 Si4 S12'
_cell_volume   425.42213030
_cell_formula_units_Z   4
loop_
 _symmetry_equiv_pos_site_id
 _symmetry_equiv_pos_as_xyz
  1  'x, y, z'
loop_
 _atom_site_type_symbol
 _atom_site_label
 _atom_site_symmetry_multiplicity
 _atom_site_fract_x
 _atom_site_fract_y
 _atom_site_fract_z
 _atom_site_occupancy
  Cu  Cu0  1  0.58794200  0.24813500  0.24120800  1
  Cu  Cu1  1  0.92069200  0.57930800  0.92069200  1
  Cu  Cu2  1  0.24120800  0.92271400  0.58794200  1
  Cu  Cu3  1  0.00186500  0.66205800  0.32728600  1
  Cu  Cu4  1  0.32728600  0.00879200  0.00186500  1
  Cu  Cu5  1  0.67069200  0.32930800  0.67069200  1
  Cu  Cu6  1  0.41556400  0.08443600  0.41556400  1
  Cu  Cu7  1  0.16556400  0.83443600  0.16556400  1
  Si  Si8  1  0.76419200  0.40181100  0.06848100  1
  Si  Si9  1  0.06848100  0.76551500  0.76419200  1
  Si  Si10  1  0.48448500  0.18151900  0.84818900  1
  Si  Si11  1  0.84818900  0.48580800  0.48448500  1
  S  S12  1  0.71085400  0.61798500  0.86438900  1
  S  S13  1  0.04657900  0.94173100  0.54939800  1
  S  S14  1  0.38407000  0.28399200  0.19662200  1
  S  S15  1  0.19662200  0.13531600  0.38407000  1
  S  S16  1  0.54939800  0.46229200  0.04657900  1
  S  S17  1  0.86438900  0.80677200  0.71085400  1
  S  S18  1  0.30826900  0.20342100  0.78770800  1
  S  S19  1  0.63201500  0.53914600  0.44322800  1
  S  S20  1  0.96600800  0.86593000  0.11468400  1
  S  S21  1  0.44322800  0.38561100  0.63201500  1
  S  S22  1  0.78770800  0.70060200  0.30826900  1
  S  S23  1  0.11468400  0.05337800  0.96600800  1
