# generated using pymatgen
data_CsTi2(OF)3
_symmetry_space_group_name_H-M   'P 1'
_cell_length_a   7.45228978
_cell_length_b   7.39449299
_cell_length_c   7.23415057
_cell_angle_alpha   61.24029114
_cell_angle_beta   60.44078954
_cell_angle_gamma   58.31891931
_symmetry_Int_Tables_number   1
_chemical_formula_structural   CsTi2(OF)3
_chemical_formula_sum   'Cs2 Ti4 O6 F6'
_cell_volume   281.49732480
_cell_formula_units_Z   2
loop_
 _symmetry_equiv_pos_site_id
 _symmetry_equiv_pos_as_xyz
  1  'x, y, z'
loop_
 _atom_site_type_symbol
 _atom_site_label
 _atom_site_symmetry_multiplicity
 _atom_site_fract_x
 _atom_site_fract_y
 _atom_site_fract_z
 _atom_site_occupancy
  Cs  Cs0  1  0.50000000  0.50000000  0.50000000  1
  Cs  Cs1  1  0.25000000  0.25000000  0.25000000  1
  Ti  Ti2  1  0.38625700  0.87774000  0.85512000  1
  Ti  Ti3  1  0.87774000  0.38625700  0.88088300  1
  Ti  Ti4  1  0.85512000  0.88088300  0.38625700  1
  Ti  Ti5  1  0.88088300  0.85512000  0.87774000  1
  O  O6  1  0.92714100  0.92714100  0.57285900  1
  O  O7  1  0.57285900  0.57285900  0.92714100  1
  O  O8  1  0.93897000  0.56103000  0.93897000  1
  O  O9  1  0.56103000  0.93897000  0.56103000  1
  O  O10  1  0.82961300  0.82961300  0.17038700  1
  O  O11  1  0.17038700  0.17038700  0.82961300  1
  F  F12  1  0.55155000  0.94845000  0.94845000  1
  F  F13  1  0.94845000  0.55155000  0.55155000  1
  F  F14  1  0.80609000  0.19391000  0.80609000  1
  F  F15  1  0.19391000  0.80609000  0.19391000  1
  F  F16  1  0.20001600  0.79998400  0.79998400  1
  F  F17  1  0.79998400  0.20001600  0.20001600  1
