# generated using pymatgen
data_Cu2SnS3
_symmetry_space_group_name_H-M   'P 1'
_cell_length_a   6.68403538
_cell_length_b   6.68403538
_cell_length_c   6.68403538
_cell_angle_alpha   146.13225980
_cell_angle_beta   131.94089956
_cell_angle_gamma   60.08663874
_symmetry_Int_Tables_number   1
_chemical_formula_structural   Cu2SnS3
_chemical_formula_sum   'Cu2 Sn1 S3'
_cell_volume   122.63813807
_cell_formula_units_Z   1
loop_
 _symmetry_equiv_pos_site_id
 _symmetry_equiv_pos_as_xyz
  1  'x, y, z'
loop_
 _atom_site_type_symbol
 _atom_site_label
 _atom_site_symmetry_multiplicity
 _atom_site_fract_x
 _atom_site_fract_y
 _atom_site_fract_z
 _atom_site_occupancy
  Cu  Cu0  1  0.16281700  0.16968400  0.99313300  1
  Cu  Cu1  1  0.82344900  0.83031600  0.99313300  1
  Sn  Sn2  1  0.51927100  0.50000000  0.01927100  1
  S  S3  1  0.93996200  0.67675100  0.26321100  1
  S  S4  1  0.58645900  0.32324900  0.26321100  1
  S  S5  1  0.21803800  0.00000000  0.21803800  1
