# generated using pymatgen
data_GdB2HO5
_symmetry_space_group_name_H-M   'P 1'
_cell_length_a   6.51310300
_cell_length_b   5.92114962
_cell_length_c   11.21120680
_cell_angle_alpha   85.62086163
_cell_angle_beta   90.00000000
_cell_angle_gamma   90.00000000
_symmetry_Int_Tables_number   1
_chemical_formula_structural   GdB2HO5
_chemical_formula_sum   'Gd4 B8 H4 O20'
_cell_volume   431.09860760
_cell_formula_units_Z   4
loop_
 _symmetry_equiv_pos_site_id
 _symmetry_equiv_pos_as_xyz
  1  'x, y, z'
loop_
 _atom_site_type_symbol
 _atom_site_label
 _atom_site_symmetry_multiplicity
 _atom_site_fract_x
 _atom_site_fract_y
 _atom_site_fract_z
 _atom_site_occupancy
  Gd  Gd0  1  0.34992500  0.76252700  0.58147800  1
  Gd  Gd1  1  0.15007500  0.26252700  0.08147800  1
  Gd  Gd2  1  0.63780000  0.29873800  0.42448300  1
  Gd  Gd3  1  0.86220000  0.79873800  0.92448300  1
  B  B4  1  0.37217500  0.81056600  0.88668500  1
  B  B5  1  0.12782500  0.31056600  0.38668500  1
  B  B6  1  0.65991000  0.17400600  0.11210500  1
  B  B7  1  0.84009000  0.67400600  0.61210500  1
  B  B8  1  0.43059700  0.99430000  0.27242900  1
  B  B9  1  0.06940300  0.49430000  0.77242900  1
  B  B10  1  0.62104700  0.09934400  0.71674600  1
  B  B11  1  0.87895300  0.59934400  0.21674600  1
  H  H12  1  0.54087400  0.44187800  0.99050400  1
  H  H13  1  0.95912600  0.94187800  0.49050400  1
  H  H14  1  0.27278300  0.86326400  0.05547600  1
  H  H15  1  0.22721700  0.36326400  0.55547600  1
  O  O16  1  0.30055400  0.93985100  0.18606100  1
  O  O17  1  0.19944600  0.43985100  0.68606100  1
  O  O18  1  0.71539800  0.10834000  0.81455500  1
  O  O19  1  0.78460200  0.60834000  0.31455500  1
  O  O20  1  0.42101000  0.96568000  0.39462400  1
  O  O21  1  0.07899000  0.46568000  0.89462400  1
  O  O22  1  0.57168000  0.09267600  0.60622100  1
  O  O23  1  0.92832000  0.59267600  0.10622100  1
  O  O24  1  0.51066100  0.30483300  0.04898600  1
  O  O25  1  0.98933900  0.80483300  0.54898600  1
  O  O26  1  0.53736300  0.69577700  0.93760000  1
  O  O27  1  0.96263700  0.19577700  0.43760000  1
  O  O28  1  0.33763200  0.85962700  0.76928800  1
  O  O29  1  0.16236800  0.35962700  0.26928800  1
  O  O30  1  0.61392800  0.12810400  0.23502500  1
  O  O31  1  0.88607200  0.62810400  0.73502500  1
  O  O32  1  0.27534400  0.39790700  0.46906800  1
  O  O33  1  0.22465600  0.89790700  0.96906800  1
  O  O34  1  0.66652700  0.59258300  0.56566700  1
  O  O35  1  0.83347300  0.09258300  0.06566700  1
