# generated using pymatgen
data_Cu8GeSe6
_symmetry_space_group_name_H-M   'P 1'
_cell_length_a   7.42383203
_cell_length_b   7.42383203
_cell_length_c   11.64498800
_cell_angle_alpha   89.88310426
_cell_angle_beta   89.88310426
_cell_angle_gamma   119.67436407
_symmetry_Int_Tables_number   1
_chemical_formula_structural   Cu8GeSe6
_chemical_formula_sum   'Cu16 Ge2 Se12'
_cell_volume   557.61968907
_cell_formula_units_Z   2
loop_
 _symmetry_equiv_pos_site_id
 _symmetry_equiv_pos_as_xyz
  1  'x, y, z'
loop_
 _atom_site_type_symbol
 _atom_site_label
 _atom_site_symmetry_multiplicity
 _atom_site_fract_x
 _atom_site_fract_y
 _atom_site_fract_z
 _atom_site_occupancy
  Cu  Cu0  1  0.81281400  0.18798100  0.04959500  1
  Cu  Cu1  1  0.81079800  0.62435800  0.04684900  1
  Cu  Cu2  1  0.37488900  0.18909200  0.04855500  1
  Cu  Cu3  1  0.18798100  0.81281400  0.54959500  1
  Cu  Cu4  1  0.18909200  0.37488900  0.54855500  1
  Cu  Cu5  1  0.62435800  0.81079800  0.54684900  1
  Cu  Cu6  1  0.52417800  0.48835700  0.42348400  1
  Cu  Cu7  1  0.52279900  0.03506000  0.42463300  1
  Cu  Cu8  1  0.48835700  0.52417800  0.92348400  1
  Cu  Cu9  1  0.03506000  0.52279900  0.92463300  1
  Cu  Cu10  1  0.46819700  0.52742000  0.17276700  1
  Cu  Cu11  1  0.47822500  0.95000400  0.18227800  1
  Cu  Cu12  1  0.05982400  0.52392700  0.17278800  1
  Cu  Cu13  1  0.52742000  0.46819700  0.67276700  1
  Cu  Cu14  1  0.52392700  0.05982400  0.67278800  1
  Cu  Cu15  1  0.95000400  0.47822500  0.68227800  1
  Ge  Ge16  1  0.99245400  0.99389800  0.30372600  1
  Ge  Ge17  1  0.99389800  0.99245400  0.80372600  1
  Se  Se18  1  0.34281700  0.68770500  0.04340700  1
  Se  Se19  1  0.68770500  0.34281700  0.54340700  1
  Se  Se20  1  0.00059700  0.00057900  0.50711900  1
  Se  Se21  1  0.00057900  0.00059700  0.00711900  1
  Se  Se22  1  0.31752700  0.65914400  0.40998300  1
  Se  Se23  1  0.65914400  0.31752700  0.90998300  1
  Se  Se24  1  0.81949300  0.18306000  0.25921500  1
  Se  Se25  1  0.81551600  0.63403300  0.25662700  1
  Se  Se26  1  0.35575600  0.17950200  0.25897400  1
  Se  Se27  1  0.18306000  0.81949300  0.75921500  1
  Se  Se28  1  0.17950200  0.35575600  0.75897400  1
  Se  Se29  1  0.63403300  0.81551600  0.75662700  1
