# generated using pymatgen
data_DyScGe
_symmetry_space_group_name_H-M   'P 1'
_cell_length_a   6.18424302
_cell_length_b   8.71069710
_cell_length_c   9.19119846
_cell_angle_alpha   58.15169520
_cell_angle_beta   90.00205003
_cell_angle_gamma   89.99353303
_symmetry_Int_Tables_number   1
_chemical_formula_structural   DyScGe
_chemical_formula_sum   'Dy6 Sc6 Ge6'
_cell_volume   420.57984876
_cell_formula_units_Z   6
loop_
 _symmetry_equiv_pos_site_id
 _symmetry_equiv_pos_as_xyz
  1  'x, y, z'
loop_
 _atom_site_type_symbol
 _atom_site_label
 _atom_site_symmetry_multiplicity
 _atom_site_fract_x
 _atom_site_fract_y
 _atom_site_fract_z
 _atom_site_occupancy
  Dy  Dy0  1  0.74990100  0.26706200  0.70910500  1
  Dy  Dy1  1  0.75011500  0.73289100  0.97614100  1
  Dy  Dy2  1  0.75000000  0.00008300  0.30184800  1
  Dy  Dy3  1  0.25004700  0.74186500  0.26049000  1
  Dy  Dy4  1  0.24994100  0.25788500  0.00263300  1
  Dy  Dy5  1  0.25000300  0.99996000  0.74962800  1
  Sc  Sc6  1  0.50103700  0.30958200  0.34716000  1
  Sc  Sc7  1  0.50108200  0.69057700  0.65665900  1
  Sc  Sc8  1  0.99895700  0.69053500  0.65671200  1
  Sc  Sc9  1  0.99892200  0.30953800  0.34713400  1
  Sc  Sc10  1  0.75010400  0.62946400  0.36469200  1
  Sc  Sc11  1  0.74987200  0.37082700  0.99408000  1
  Ge  Ge12  1  0.54349200  0.99988700  0.02086400  1
  Ge  Ge13  1  0.95651400  0.99991400  0.02084500  1
  Ge  Ge14  1  0.75000100  0.00008000  0.61504700  1
  Ge  Ge15  1  0.24992200  0.40092300  0.58581100  1
  Ge  Ge16  1  0.25009000  0.59887800  0.98674800  1
  Ge  Ge17  1  0.25000000  0.00005100  0.40440300  1
