# generated using pymatgen
data_Cu3Bi2S4Br
_symmetry_space_group_name_H-M   'P 1'
_cell_length_a   4.04041800
_cell_length_b   10.46239500
_cell_length_c   21.06216100
_cell_angle_alpha   90.00000000
_cell_angle_beta   90.00000000
_cell_angle_gamma   90.00000000
_symmetry_Int_Tables_number   1
_chemical_formula_structural   Cu3Bi2S4Br
_chemical_formula_sum   'Cu12 Bi8 S16 Br4'
_cell_volume   890.34912841
_cell_formula_units_Z   4
loop_
 _symmetry_equiv_pos_site_id
 _symmetry_equiv_pos_as_xyz
  1  'x, y, z'
loop_
 _atom_site_type_symbol
 _atom_site_label
 _atom_site_symmetry_multiplicity
 _atom_site_fract_x
 _atom_site_fract_y
 _atom_site_fract_z
 _atom_site_occupancy
  Cu  Cu0  1  0.34051000  0.37699200  0.12547100  1
  Cu  Cu1  1  0.84051000  0.62300800  0.37452900  1
  Cu  Cu2  1  0.65949000  0.12300800  0.62547100  1
  Cu  Cu3  1  0.15949000  0.87699200  0.87452900  1
  Cu  Cu4  1  0.27812400  0.77085800  0.03401200  1
  Cu  Cu5  1  0.77812400  0.22914200  0.46598800  1
  Cu  Cu6  1  0.72187600  0.72914200  0.53401200  1
  Cu  Cu7  1  0.22187600  0.27085800  0.96598800  1
  Cu  Cu8  1  0.93966700  0.48226500  0.03935200  1
  Cu  Cu9  1  0.43966700  0.51773500  0.46064800  1
  Cu  Cu10  1  0.06033300  0.01773500  0.53935200  1
  Cu  Cu11  1  0.56033300  0.98226500  0.96064800  1
  Bi  Bi12  1  0.76177800  0.06398700  0.12521500  1
  Bi  Bi13  1  0.26177800  0.93601300  0.37478500  1
  Bi  Bi14  1  0.23822200  0.43601300  0.62521500  1
  Bi  Bi15  1  0.73822200  0.56398700  0.87478500  1
  Bi  Bi16  1  0.83739500  0.63901200  0.19783900  1
  Bi  Bi17  1  0.33739500  0.36098800  0.30216100  1
  Bi  Bi18  1  0.16260500  0.86098800  0.69783900  1
  Bi  Bi19  1  0.66260500  0.13901200  0.80216100  1
  S  S20  1  0.26199100  0.19773500  0.07109800  1
  S  S21  1  0.76199100  0.80226500  0.42890200  1
  S  S22  1  0.73800900  0.30226500  0.57109800  1
  S  S23  1  0.23800900  0.69773500  0.92890200  1
  S  S24  1  0.25342100  0.59198000  0.10283100  1
  S  S25  1  0.75342100  0.40802000  0.39716900  1
  S  S26  1  0.74657900  0.90802000  0.60283100  1
  S  S27  1  0.24657900  0.09198000  0.89716900  1
  S  S28  1  0.75315500  0.38682700  0.20349500  1
  S  S29  1  0.25315500  0.61317300  0.29650500  1
  S  S30  1  0.24684500  0.11317300  0.70349500  1
  S  S31  1  0.74684500  0.88682700  0.79650500  1
  S  S32  1  0.77401800  0.88257800  0.04054800  1
  S  S33  1  0.27401800  0.11742200  0.45945200  1
  S  S34  1  0.22598200  0.61742200  0.54054800  1
  S  S35  1  0.72598200  0.38257800  0.95945200  1
  Br  Br36  1  0.26062300  0.88987800  0.19890300  1
  Br  Br37  1  0.76062300  0.11012200  0.30109700  1
  Br  Br38  1  0.73937700  0.61012200  0.69890300  1
  Br  Br39  1  0.23937700  0.38987800  0.80109700  1
