# generated using pymatgen
data_Ho20Cu6(Pb3S14)3
_symmetry_space_group_name_H-M   'P 1'
_cell_length_a   8.81661300
_cell_length_b   14.37190475
_cell_length_c   15.60110440
_cell_angle_alpha   102.05313488
_cell_angle_beta   105.03631335
_cell_angle_gamma   101.81371409
_symmetry_Int_Tables_number   1
_chemical_formula_structural   Ho20Cu6(Pb3S14)3
_chemical_formula_sum   'Ho20 Cu6 Pb9 S42'
_cell_volume   1795.54677514
_cell_formula_units_Z   1
loop_
 _symmetry_equiv_pos_site_id
 _symmetry_equiv_pos_as_xyz
  1  'x, y, z'
loop_
 _atom_site_type_symbol
 _atom_site_label
 _atom_site_symmetry_multiplicity
 _atom_site_fract_x
 _atom_site_fract_y
 _atom_site_fract_z
 _atom_site_occupancy
  Ho  Ho0  1  0.69952700  0.59794000  0.54060900  1
  Ho  Ho1  1  0.86176500  0.42948800  0.37262400  1
  Ho  Ho2  1  0.53316300  0.76606600  0.70771100  1
  Ho  Ho3  1  0.03012400  0.26227700  0.20888600  1
  Ho  Ho4  1  0.20036500  0.09542200  0.04248000  1
  Ho  Ho5  1  0.36786700  0.93151200  0.87657100  1
  Ho  Ho6  1  0.33413500  0.16387700  0.66812300  1
  Ho  Ho7  1  0.48476100  0.99912500  0.49077400  1
  Ho  Ho8  1  0.16166300  0.32870000  0.83092200  1
  Ho  Ho9  1  0.67447500  0.83698000  0.33351900  1
  Ho  Ho10  1  0.83213800  0.67218800  0.16634900  1
  Ho  Ho11  1  0.99953800  0.50049600  0.99933700  1
  Ho  Ho12  1  0.30059800  0.38631900  0.47111800  1
  Ho  Ho13  1  0.45902200  0.20967000  0.30660300  1
  Ho  Ho14  1  0.13214300  0.54981100  0.63717700  1
  Ho  Ho15  1  0.64120900  0.05042900  0.14412100  1
  Ho  Ho16  1  0.80432600  0.88381100  0.97764900  1
  Ho  Ho17  1  0.97055400  0.71926300  0.80799500  1
  Ho  Ho18  1  0.26073100  0.81011300  0.12909700  1
  Ho  Ho19  1  0.94497800  0.12775100  0.44589100  1
  Cu  Cu20  1  0.47279600  0.97932900  0.70119400  1
  Cu  Cu21  1  0.80946900  0.64800900  0.36861300  1
  Cu  Cu22  1  0.14167100  0.31153100  0.03528700  1
  Cu  Cu23  1  0.97383400  0.48214100  0.20055200  1
  Cu  Cu24  1  0.30723800  0.14445500  0.86734300  1
  Cu  Cu25  1  0.64158200  0.81477600  0.53376100  1
  Pb  Pb26  1  0.06978500  0.86697200  0.54737200  1
  Pb  Pb27  1  0.23729900  0.70136600  0.38138700  1
  Pb  Pb28  1  0.90409700  0.03139700  0.71634900  1
  Pb  Pb29  1  0.41004900  0.53619300  0.21933200  1
  Pb  Pb30  1  0.57484300  0.36731500  0.05207100  1
  Pb  Pb31  1  0.74191200  0.19804500  0.88758300  1
  Pb  Pb32  1  0.75928400  0.29975600  0.61532800  1
  Pb  Pb33  1  0.42538300  0.63439300  0.94865900  1
  Pb  Pb34  1  0.58981100  0.46620500  0.78146500  1
  S  S35  1  0.24023400  0.00811700  0.73735800  1
  S  S36  1  0.40712900  0.84601400  0.56704400  1
  S  S37  1  0.07442500  0.17510300  0.90315800  1
  S  S38  1  0.57613600  0.67841300  0.40392700  1
  S  S39  1  0.74069900  0.51233800  0.23587200  1
  S  S40  1  0.91142200  0.34519900  0.07123400  1
  S  S41  1  0.79359400  0.99572400  0.28596200  1
  S  S42  1  0.96179900  0.82310200  0.11276300  1
  S  S43  1  0.63837100  0.15258400  0.44304200  1
  S  S44  1  0.12472500  0.66803800  0.95884800  1
  S  S45  1  0.27325700  0.48510800  0.77678800  1
  S  S46  1  0.44290900  0.31868500  0.60968400  1
  S  S47  1  0.18072600  0.20279300  0.35590800  1
  S  S48  1  0.35552100  0.02704500  0.18070700  1
  S  S49  1  0.01987500  0.36288800  0.51326100  1
  S  S50  1  0.51808300  0.86898800  0.02223500  1
  S  S51  1  0.69120100  0.70572400  0.84983800  1
  S  S52  1  0.85823400  0.53934000  0.68509800  1
  S  S53  1  0.19758800  0.03837100  0.49681500  1
  S  S54  1  0.37463100  0.86394200  0.32274700  1
  S  S55  1  0.03807500  0.19650900  0.65609600  1
  S  S56  1  0.53149200  0.70583700  0.16355800  1
  S  S57  1  0.70930500  0.53361300  0.99977800  1
  S  S58  1  0.87423500  0.36539700  0.83238200  1
  S  S59  1  0.74045300  0.24409500  0.25084900  1
  S  S60  1  0.90813100  0.07996700  0.08048100  1
  S  S61  1  0.57771300  0.40755800  0.41813000  1
  S  S62  1  0.07854000  0.91182000  0.91821400  1
  S  S63  1  0.24867000  0.74280800  0.75393400  1
  S  S64  1  0.41357000  0.57787800  0.58657100  1
  S  S65  1  0.78990100  0.95842500  0.51031100  1
  S  S66  1  0.95960600  0.78549000  0.34587400  1
  S  S67  1  0.62189100  0.11753300  0.67369200  1
  S  S68  1  0.12619300  0.62515400  0.17774400  1
  S  S69  1  0.29045400  0.45188200  0.01060800  1
  S  S70  1  0.45712400  0.28643700  0.84566900  1
  S  S71  1  0.81046900  0.78305300  0.65965000  1
  S  S72  1  0.97530300  0.61234100  0.49332500  1
  S  S73  1  0.64330400  0.94910200  0.82785700  1
  S  S74  1  0.14085100  0.44919400  0.32550500  1
  S  S75  1  0.30854500  0.27862600  0.16286400  1
  S  S76  1  0.47781400  0.11531600  0.99443400  1
