data_image0
_chemical_formula_structural       Ce2Pt2Si4
_chemical_formula_sum              "Ce2 Pt2 Si4"
_cell_length_a       4.29785
_cell_length_b       4.35071
_cell_length_c       8.66901
_cell_angle_alpha    75.4672
_cell_angle_beta     90
_cell_angle_gamma    90

_space_group_name_H-M_alt    "P 1"
_space_group_IT_number       1

loop_
  _space_group_symop_operation_xyz
  'x, y, z'

loop_
  _atom_site_type_symbol
  _atom_site_label
  _atom_site_symmetry_multiplicity
  _atom_site_fract_x
  _atom_site_fract_y
  _atom_site_fract_z
  _atom_site_occupancy
  Ce  Ce1       1.0  0.25000  0.89500  0.20900  1.0000
  Ce  Ce2       1.0  0.75000  0.10500  0.79100  1.0000
  Pt  Pt1       1.0  0.75000  0.31900  0.36100  1.0000
  Pt  Pt2       1.0  0.25000  0.68100  0.63900  1.0000
  Si  Si1       1.0  0.75000  0.46400  0.07150  1.0000
  Si  Si2       1.0  0.75000  0.75100  0.49900  1.0000
  Si  Si3       1.0  0.25000  0.24900  0.50100  1.0000
  Si  Si4       1.0  0.25000  0.53600  0.92800  1.0000
