# generated using pymatgen
data_Cu2AgBiPbS4
_symmetry_space_group_name_H-M   'P 1'
_cell_length_a   4.15391700
_cell_length_b   12.86339000
_cell_length_c   14.77709100
_cell_angle_alpha   90.00000000
_cell_angle_beta   90.00000000
_cell_angle_gamma   90.00000000
_symmetry_Int_Tables_number   1
_chemical_formula_structural   Cu2AgBiPbS4
_chemical_formula_sum   'Cu8 Ag4 Bi4 Pb4 S16'
_cell_volume   789.59101809
_cell_formula_units_Z   4
loop_
 _symmetry_equiv_pos_site_id
 _symmetry_equiv_pos_as_xyz
  1  'x, y, z'
loop_
 _atom_site_type_symbol
 _atom_site_label
 _atom_site_symmetry_multiplicity
 _atom_site_fract_x
 _atom_site_fract_y
 _atom_site_fract_z
 _atom_site_occupancy
  Cu  Cu0  1  0.25000000  0.44317300  0.64356800  1
  Cu  Cu1  1  0.25000000  0.94317300  0.85643200  1
  Cu  Cu2  1  0.75000000  0.55682700  0.35643200  1
  Cu  Cu3  1  0.75000000  0.05682700  0.14356800  1
  Cu  Cu4  1  0.25000000  0.94224600  0.13348300  1
  Cu  Cu5  1  0.25000000  0.44224600  0.36651700  1
  Cu  Cu6  1  0.75000000  0.05775400  0.86651700  1
  Cu  Cu7  1  0.75000000  0.55775400  0.63348300  1
  Ag  Ag8  1  0.25000000  0.16842800  0.07727300  1
  Ag  Ag9  1  0.25000000  0.66842800  0.42272700  1
  Ag  Ag10  1  0.75000000  0.83157200  0.92272700  1
  Ag  Ag11  1  0.75000000  0.33157200  0.57727300  1
  Bi  Bi12  1  0.25000000  0.07108100  0.60213100  1
  Bi  Bi13  1  0.25000000  0.57108100  0.89786900  1
  Bi  Bi14  1  0.75000000  0.92891900  0.39786900  1
  Bi  Bi15  1  0.75000000  0.42891900  0.10213100  1
  Pb  Pb16  1  0.25000000  0.21267100  0.33273100  1
  Pb  Pb17  1  0.25000000  0.71267100  0.16726900  1
  Pb  Pb18  1  0.75000000  0.78732900  0.66726900  1
  Pb  Pb19  1  0.75000000  0.28732900  0.83273100  1
  S  S20  1  0.25000000  0.27834900  0.68435800  1
  S  S21  1  0.25000000  0.77834900  0.81564200  1
  S  S22  1  0.75000000  0.72165100  0.31564200  1
  S  S23  1  0.75000000  0.22165100  0.18435800  1
  S  S24  1  0.25000000  0.99197500  0.28574600  1
  S  S25  1  0.25000000  0.49197500  0.21425400  1
  S  S26  1  0.75000000  0.00802500  0.71425400  1
  S  S27  1  0.75000000  0.50802500  0.78574600  1
  S  S28  1  0.25000000  0.10272900  0.91637700  1
  S  S29  1  0.25000000  0.60272900  0.58362300  1
  S  S30  1  0.75000000  0.89727100  0.08362300  1
  S  S31  1  0.75000000  0.39727100  0.41637700  1
  S  S32  1  0.25000000  0.37228500  0.96831100  1
  S  S33  1  0.25000000  0.87228500  0.53168900  1
  S  S34  1  0.75000000  0.62771500  0.03168900  1
  S  S35  1  0.75000000  0.12771500  0.46831100  1
