# generated using pymatgen
data_In16Bi8Pb3S38
_symmetry_space_group_name_H-M   'P 1'
_cell_length_a   7.78597900
_cell_length_b   14.80332743
_cell_length_c   15.05611515
_cell_angle_alpha   114.59078421
_cell_angle_beta   97.46277227
_cell_angle_gamma   97.54617361
_symmetry_Int_Tables_number   1
_chemical_formula_structural   In16Bi8Pb3S38
_chemical_formula_sum   'In16 Bi8 Pb3 S38'
_cell_volume   1531.15993394
_cell_formula_units_Z   1
loop_
 _symmetry_equiv_pos_site_id
 _symmetry_equiv_pos_as_xyz
  1  'x, y, z'
loop_
 _atom_site_type_symbol
 _atom_site_label
 _atom_site_symmetry_multiplicity
 _atom_site_fract_x
 _atom_site_fract_y
 _atom_site_fract_z
 _atom_site_occupancy
  In  In0  1  0.01379100  0.91999300  0.13581300  1
  In  In1  1  0.51376400  0.92004900  0.13520500  1
  In  In2  1  0.98656700  0.07928900  0.86360000  1
  In  In3  1  0.48597200  0.07961100  0.86363300  1
  In  In4  1  0.17562200  0.10529300  0.59664000  1
  In  In5  1  0.67595500  0.10735400  0.59695200  1
  In  In6  1  0.82437700  0.89477800  0.40424700  1
  In  In7  1  0.32481000  0.89527400  0.40421800  1
  In  In8  1  0.81425300  0.14429700  0.11552900  1
  In  In9  1  0.31451700  0.14425100  0.11566600  1
  In  In10  1  0.18107200  0.85397200  0.88244800  1
  In  In11  1  0.68811100  0.85411600  0.88252100  1
  In  In12  1  0.97511100  0.65793800  0.24189100  1
  In  In13  1  0.47621500  0.65812500  0.24169700  1
  In  In14  1  0.02177700  0.34188200  0.75472500  1
  In  In15  1  0.52573400  0.34189600  0.75494400  1
  Bi  Bi16  1  0.15129600  0.21913000  0.38208700  1
  Bi  Bi17  1  0.65169300  0.21814500  0.38441100  1
  Bi  Bi18  1  0.84900900  0.77717600  0.62057100  1
  Bi  Bi19  1  0.34741200  0.77989300  0.61256200  1
  Bi  Bi20  1  0.38431100  0.59750300  0.93902800  1
  Bi  Bi21  1  0.88645800  0.60112700  0.94153500  1
  Bi  Bi22  1  0.61376500  0.39955800  0.05404000  1
  Bi  Bi23  1  0.11391800  0.39891000  0.05456700  1
  Pb  Pb24  1  0.29186000  0.52171200  0.63505600  1
  Pb  Pb25  1  0.20824700  0.48050600  0.36537400  1
  Pb  Pb26  1  0.71050700  0.47983200  0.36986900  1
  S  S27  1  0.02757900  0.84580900  0.26728400  1
  S  S28  1  0.52787100  0.84616400  0.26703100  1
  S  S29  1  0.97475400  0.15517400  0.73430200  1
  S  S30  1  0.47109300  0.15540100  0.73409300  1
  S  S31  1  0.17929400  0.94603200  0.77031600  1
  S  S32  1  0.67979400  0.94606000  0.77026500  1
  S  S33  1  0.82018400  0.05517600  0.23062600  1
  S  S34  1  0.32272200  0.05509000  0.23067300  1
  S  S35  1  0.32721300  0.40144100  0.90967800  1
  S  S36  1  0.82812600  0.40278900  0.90886800  1
  S  S37  1  0.67345400  0.59743200  0.09369300  1
  S  S38  1  0.17014000  0.59725000  0.09372000  1
  S  S39  1  0.29585000  0.20477100  0.97834300  1
  S  S40  1  0.79572700  0.20486300  0.97788800  1
  S  S41  1  0.70455500  0.79627900  0.02185400  1
  S  S42  1  0.20362800  0.79638300  0.02207800  1
  S  S43  1  0.11179500  0.91160100  0.53076600  1
  S  S44  1  0.61214300  0.91286200  0.53121300  1
  S  S45  1  0.88941000  0.08873800  0.46877700  1
  S  S46  1  0.38705100  0.08886000  0.46853900  1
  S  S47  1  0.23421900  0.30452900  0.63420400  1
  S  S48  1  0.73255300  0.29992900  0.63297900  1
  S  S49  1  0.76552600  0.69538900  0.36543700  1
  S  S50  1  0.26622600  0.69584000  0.36504500  1
  S  S51  1  0.50049700  0.00008900  0.00025700  1
  S  S52  1  0.00044700  0.00300900  0.00089200  1
  S  S53  1  0.91712100  0.46579100  0.20689600  1
  S  S54  1  0.41951300  0.46588700  0.20667800  1
  S  S55  1  0.08473700  0.53462100  0.79761300  1
  S  S56  1  0.58051100  0.53435400  0.79728000  1
  S  S57  1  0.05386500  0.63505300  0.54949100  1
  S  S58  1  0.53905000  0.63542300  0.54950300  1
  S  S59  1  0.95826100  0.36453700  0.44919500  1
  S  S60  1  0.44928100  0.36451800  0.44900600  1
  S  S61  1  0.38023100  0.74062400  0.77831600  1
  S  S62  1  0.88014500  0.73902600  0.78049100  1
  S  S63  1  0.62043700  0.26037700  0.22282300  1
  S  S64  1  0.11996700  0.26012000  0.22055500  1
