# generated using pymatgen
data_Mg5Si6
_symmetry_space_group_name_H-M   'P 1'
_cell_length_a   4.02066000
_cell_length_b   6.73301467
_cell_length_c   15.36078267
_cell_angle_alpha   99.71197888
_cell_angle_beta   96.87365186
_cell_angle_gamma   89.81613110
_symmetry_Int_Tables_number   1
_chemical_formula_structural   Mg5Si6
_chemical_formula_sum   'Mg10 Si12'
_cell_volume   406.86735664
_cell_formula_units_Z   2
loop_
 _symmetry_equiv_pos_site_id
 _symmetry_equiv_pos_as_xyz
  1  'x, y, z'
loop_
 _atom_site_type_symbol
 _atom_site_label
 _atom_site_symmetry_multiplicity
 _atom_site_fract_x
 _atom_site_fract_y
 _atom_site_fract_z
 _atom_site_occupancy
  Mg  Mg0  1  0.96707200  0.04937900  0.00898800  1
  Mg  Mg1  1  0.71515800  0.84346900  0.48943000  1
  Mg  Mg2  1  0.81095000  0.07804300  0.69356000  1
  Mg  Mg3  1  0.13806100  0.99110200  0.34002900  1
  Mg  Mg4  1  0.53884900  0.91777100  0.15769900  1
  Mg  Mg5  1  0.39289200  0.15217900  0.85586200  1
  Mg  Mg6  1  0.24577300  0.15818200  0.55385700  1
  Mg  Mg7  1  0.17945100  0.51339400  0.42538200  1
  Mg  Mg8  1  0.50045700  0.39125200  0.07699400  1
  Mg  Mg9  1  0.42606900  0.71680800  0.92412400  1
  Si  Si10  1  0.92641700  0.40477200  0.94160200  1
  Si  Si11  1  0.98789400  0.68739300  0.05963100  1
  Si  Si12  1  0.69381300  0.23021800  0.44364400  1
  Si  Si13  1  0.76743800  0.50179700  0.57486500  1
  Si  Si14  1  0.88665800  0.87769300  0.83304700  1
  Si  Si15  1  0.05971000  0.23443300  0.19419300  1
  Si  Si16  1  0.61793500  0.67324700  0.30581800  1
  Si  Si17  1  0.32288800  0.42216400  0.70865300  1
  Si  Si18  1  0.86167000  0.51764100  0.79614400  1
  Si  Si19  1  0.06968500  0.60594900  0.20684700  1
  Si  Si20  1  0.60913600  0.30087800  0.29351700  1
  Si  Si21  1  0.27839300  0.73224100  0.61248500  1
