# generated using pymatgen
data_K3P3O10
_symmetry_space_group_name_H-M   'P 1'
_cell_length_a   18.68412000
_cell_length_b   7.01996000
_cell_length_c   11.06951885
_cell_angle_alpha   69.27846574
_cell_angle_beta   90.00000000
_cell_angle_gamma   90.00000000
_symmetry_Int_Tables_number   1
_chemical_formula_structural   K3P3O10
_chemical_formula_sum   'K12 P12 O40'
_cell_volume   1357.97609277
_cell_formula_units_Z   4
loop_
 _symmetry_equiv_pos_site_id
 _symmetry_equiv_pos_as_xyz
  1  'x, y, z'
loop_
 _atom_site_type_symbol
 _atom_site_label
 _atom_site_symmetry_multiplicity
 _atom_site_fract_x
 _atom_site_fract_y
 _atom_site_fract_z
 _atom_site_occupancy
  K  K0  1  0.50653200  0.14123500  0.75973400  1
  K  K1  1  0.99346800  0.14123500  0.25973400  1
  K  K2  1  0.49346800  0.85876500  0.24026600  1
  K  K3  1  0.00653200  0.85876500  0.74026600  1
  K  K4  1  0.31225600  0.59368000  0.59033900  1
  K  K5  1  0.18774400  0.59368000  0.09033900  1
  K  K6  1  0.68774400  0.40632000  0.40966100  1
  K  K7  1  0.81225600  0.40632000  0.90966100  1
  K  K8  1  0.32035700  0.15786500  0.97834800  1
  K  K9  1  0.17964300  0.15786500  0.47834800  1
  K  K10  1  0.67964300  0.84213500  0.02165200  1
  K  K11  1  0.82035700  0.84213500  0.52165200  1
  P  P12  1  0.60323700  0.33617400  0.00704300  1
  P  P13  1  0.89676300  0.33617400  0.50704300  1
  P  P14  1  0.39676300  0.66382600  0.99295700  1
  P  P15  1  0.10323700  0.66382600  0.49295700  1
  P  P16  1  0.44366700  0.61884000  0.80801200  1
  P  P17  1  0.05633300  0.61884000  0.30801200  1
  P  P18  1  0.55633300  0.38116000  0.19198800  1
  P  P19  1  0.94366700  0.38116000  0.69198800  1
  P  P20  1  0.56873300  0.60565000  0.82001100  1
  P  P21  1  0.93126700  0.60565000  0.32001100  1
  P  P22  1  0.43126700  0.39435000  0.17998900  1
  P  P23  1  0.06873300  0.39435000  0.67998900  1
  O  O24  1  0.31831800  0.61675500  0.98758600  1
  O  O25  1  0.18168200  0.61675500  0.48758600  1
  O  O26  1  0.68168200  0.38324500  0.01241400  1
  O  O27  1  0.81831800  0.38324500  0.51241400  1
  O  O28  1  0.40588100  0.20113900  0.16491500  1
  O  O29  1  0.09411900  0.20113900  0.66491500  1
  O  O30  1  0.59411900  0.79886100  0.83508500  1
  O  O31  1  0.90588100  0.79886100  0.33508500  1
  O  O32  1  0.74529600  0.12955600  0.79416600  1
  O  O33  1  0.75470400  0.12955600  0.29416600  1
  O  O34  1  0.25470400  0.87044400  0.20583400  1
  O  O35  1  0.24529600  0.87044400  0.70583400  1
  O  O36  1  0.59120300  0.53065700  0.71475900  1
  O  O37  1  0.90879700  0.53065700  0.21475900  1
  O  O38  1  0.40879700  0.46934300  0.28524100  1
  O  O39  1  0.09120300  0.46934300  0.78524100  1
  O  O40  1  0.41349400  0.42173100  0.80368400  1
  O  O41  1  0.08650600  0.42173100  0.30368400  1
  O  O42  1  0.58650600  0.57826900  0.19631600  1
  O  O43  1  0.91349400  0.57826900  0.69631600  1
  O  O44  1  0.42868200  0.82080300  0.70411100  1
  O  O45  1  0.07131800  0.82080300  0.20411100  1
  O  O46  1  0.57131800  0.17919700  0.29588900  1
  O  O47  1  0.92868200  0.17919700  0.79588900  1
  O  O48  1  0.57737600  0.13419400  0.00514100  1
  O  O49  1  0.92262400  0.13419400  0.50514100  1
  O  O50  1  0.42262400  0.86580600  0.99485900  1
  O  O51  1  0.07737600  0.86580600  0.49485900  1
  O  O52  1  0.78282200  0.98499200  0.77179100  1
  O  O53  1  0.71717800  0.98499200  0.27179100  1
  O  O54  1  0.21717800  0.01500800  0.22820900  1
  O  O55  1  0.28282200  0.01500800  0.72820900  1
  O  O56  1  0.69713600  0.82904200  0.37694000  1
  O  O57  1  0.80286400  0.82904200  0.87694000  1
  O  O58  1  0.30286400  0.17095800  0.62306000  1
  O  O59  1  0.19713600  0.17095800  0.12306000  1
  O  O60  1  0.57108200  0.23305600  0.53040700  1
  O  O61  1  0.92891800  0.23305600  0.03040700  1
  O  O62  1  0.42891800  0.76694400  0.46959300  1
  O  O63  1  0.07108200  0.76694400  0.96959300  1
