# generated using pymatgen
data_CoO2
_symmetry_space_group_name_H-M   'P 1'
_cell_length_a   3.15959400
_cell_length_b   3.16792862
_cell_length_c   18.89248663
_cell_angle_alpha   105.92291632
_cell_angle_beta   90.00000000
_cell_angle_gamma   60.08699257
_symmetry_Int_Tables_number   1
_chemical_formula_structural   CoO2
_chemical_formula_sum   'Co1 O2'
_cell_volume   155.48372532
_cell_formula_units_Z   1
loop_
 _symmetry_equiv_pos_site_id
 _symmetry_equiv_pos_as_xyz
  1  'x, y, z'
loop_
 _atom_site_type_symbol
 _atom_site_label
 _atom_site_symmetry_multiplicity
 _atom_site_fract_x
 _atom_site_fract_y
 _atom_site_fract_z
 _atom_site_occupancy
  Co  Co0  1  0.77926300  0.94147500  0.52092300  1
  O  O1  1  0.07966700  0.34066600  0.55297800  1
  O  O2  1  0.89107000  0.71785900  0.42610000  1
