# generated using pymatgen
data_Cs2RbSiF7
_symmetry_space_group_name_H-M   'P 1'
_cell_length_a   8.33162577
_cell_length_b   8.33162577
_cell_length_c   6.13561500
_cell_angle_alpha   90.00000000
_cell_angle_beta   90.00000000
_cell_angle_gamma   90.58617241
_symmetry_Int_Tables_number   1
_chemical_formula_structural   Cs2RbSiF7
_chemical_formula_sum   'Cs4 Rb2 Si2 F14'
_cell_volume   425.88748774
_cell_formula_units_Z   2
loop_
 _symmetry_equiv_pos_site_id
 _symmetry_equiv_pos_as_xyz
  1  'x, y, z'
loop_
 _atom_site_type_symbol
 _atom_site_label
 _atom_site_symmetry_multiplicity
 _atom_site_fract_x
 _atom_site_fract_y
 _atom_site_fract_z
 _atom_site_occupancy
  Cs  Cs0  1  0.50000000  0.00000000  0.00000000  1
  Cs  Cs1  1  0.00000000  0.50000000  0.00000000  1
  Cs  Cs2  1  0.19462600  0.80537400  0.50000000  1
  Cs  Cs3  1  0.80537400  0.19462600  0.50000000  1
  Rb  Rb4  1  0.69514100  0.69514100  0.50000000  1
  Rb  Rb5  1  0.30485900  0.30485900  0.50000000  1
  Si  Si6  1  0.50000000  0.50000000  0.00000000  1
  Si  Si7  1  0.00000000  0.00000000  0.00000000  1
  F  F8  1  0.14536100  0.85463900  0.00000000  1
  F  F9  1  0.85463900  0.14536100  0.00000000  1
  F  F10  1  0.64675900  0.64675900  0.00000000  1
  F  F11  1  0.35324100  0.35324100  0.00000000  1
  F  F12  1  0.39777100  0.60222900  0.79937900  1
  F  F13  1  0.60222900  0.39777100  0.79937900  1
  F  F14  1  0.89586300  0.89586300  0.80024700  1
  F  F15  1  0.10413700  0.10413700  0.80024700  1
  F  F16  1  0.60222900  0.39777100  0.20062100  1
  F  F17  1  0.39777100  0.60222900  0.20062100  1
  F  F18  1  0.10413700  0.10413700  0.19975300  1
  F  F19  1  0.89586300  0.89586300  0.19975300  1
  F  F20  1  0.50000000  0.00000000  0.50000000  1
  F  F21  1  0.00000000  0.50000000  0.50000000  1
