# generated using pymatgen
data_Cs3Rb5(SeO4)4
_symmetry_space_group_name_H-M   'P 1'
_cell_length_a   6.42281200
_cell_length_b   8.37181042
_cell_length_c   11.19787457
_cell_angle_alpha   90.03647125
_cell_angle_beta   90.00000000
_cell_angle_gamma   90.00000000
_symmetry_Int_Tables_number   1
_chemical_formula_structural   Cs3Rb5(SeO4)4
_chemical_formula_sum   'Cs3 Rb5 Se4 O16'
_cell_volume   602.11591417
_cell_formula_units_Z   1
loop_
 _symmetry_equiv_pos_site_id
 _symmetry_equiv_pos_as_xyz
  1  'x, y, z'
loop_
 _atom_site_type_symbol
 _atom_site_label
 _atom_site_symmetry_multiplicity
 _atom_site_fract_x
 _atom_site_fract_y
 _atom_site_fract_z
 _atom_site_occupancy
  Cs  Cs0  1  0.75000000  0.32720300  0.58895400  1
  Cs  Cs1  1  0.75000000  0.82732600  0.91114900  1
  Cs  Cs2  1  0.25000000  0.67278300  0.41102600  1
  Rb  Rb3  1  0.25000000  0.17513400  0.08791300  1
  Rb  Rb4  1  0.75000000  0.50682500  0.20572300  1
  Rb  Rb5  1  0.75000000  0.00708400  0.29404900  1
  Rb  Rb6  1  0.25000000  0.49286300  0.79436400  1
  Rb  Rb7  1  0.25000000  0.99303000  0.70591000  1
  Se  Se8  1  0.75000000  0.27133600  0.92055000  1
  Se  Se9  1  0.75000000  0.77157400  0.58008800  1
  Se  Se10  1  0.25000000  0.72808500  0.08008900  1
  Se  Se11  1  0.25000000  0.22821200  0.41944600  1
  O  O12  1  0.75000000  0.47113000  0.91899500  1
  O  O13  1  0.75000000  0.97138800  0.58108300  1
  O  O14  1  0.25000000  0.52803400  0.08109700  1
  O  O15  1  0.25000000  0.02846300  0.41889100  1
  O  O16  1  0.75000000  0.20285300  0.06191700  1
  O  O17  1  0.75000000  0.70312800  0.43872000  1
  O  O18  1  0.25000000  0.79696600  0.93888300  1
  O  O19  1  0.25000000  0.29685500  0.56084700  1
  O  O20  1  0.96454800  0.20344300  0.85094500  1
  O  O21  1  0.53613500  0.70365300  0.65009800  1
  O  O22  1  0.46357600  0.79683300  0.15004200  1
  O  O23  1  0.03638000  0.29593500  0.34906900  1
  O  O24  1  0.03642400  0.79683300  0.15004200  1
  O  O25  1  0.46362000  0.29593500  0.34906900  1
  O  O26  1  0.53545200  0.20344300  0.85094500  1
  O  O27  1  0.96386500  0.70365300  0.65009800  1
