# generated using pymatgen
data_Co4Ge
_symmetry_space_group_name_H-M   'P 1'
_cell_length_a   9.97841112
_cell_length_b   9.97841112
_cell_length_c   9.97841127
_cell_angle_alpha   15.11643024
_cell_angle_beta   15.11643024
_cell_angle_gamma   15.11642888
_symmetry_Int_Tables_number   1
_chemical_formula_structural   Co4Ge
_chemical_formula_sum   'Co4 Ge1'
_cell_volume   58.85448198
_cell_formula_units_Z   1
loop_
 _symmetry_equiv_pos_site_id
 _symmetry_equiv_pos_as_xyz
  1  'x, y, z'
loop_
 _atom_site_type_symbol
 _atom_site_label
 _atom_site_symmetry_multiplicity
 _atom_site_fract_x
 _atom_site_fract_y
 _atom_site_fract_z
 _atom_site_occupancy
  Co  Co0  1  0.59884000  0.59884000  0.59884000  1
  Co  Co1  1  0.20032000  0.20032000  0.20032000  1
  Co  Co2  1  0.79968000  0.79968000  0.79968000  1
  Co  Co3  1  0.40116000  0.40116000  0.40116000  1
  Ge  Ge4  1  0.00000000  0.00000000  0.00000000  1
