# generated using pymatgen
data_CsGaAs3H5O12
_symmetry_space_group_name_H-M   'P 1'
_cell_length_a   4.82761851
_cell_length_b   7.87057661
_cell_length_c   15.34542430
_cell_angle_alpha   90.99482017
_cell_angle_beta   86.75469566
_cell_angle_gamma   107.85973092
_symmetry_Int_Tables_number   1
_chemical_formula_structural   CsGaAs3H5O12
_chemical_formula_sum   'Cs2 Ga2 As6 H10 O24'
_cell_volume   554.07902905
_cell_formula_units_Z   2
loop_
 _symmetry_equiv_pos_site_id
 _symmetry_equiv_pos_as_xyz
  1  'x, y, z'
loop_
 _atom_site_type_symbol
 _atom_site_label
 _atom_site_symmetry_multiplicity
 _atom_site_fract_x
 _atom_site_fract_y
 _atom_site_fract_z
 _atom_site_occupancy
  Cs  Cs0  1  0.00073500  0.99404500  0.50111800  1
  Cs  Cs1  1  0.00669000  0.00595500  0.00111800  1
  Ga  Ga2  1  0.14304500  0.29019500  0.24785600  1
  Ga  Ga3  1  0.85285000  0.70980500  0.74785600  1
  As  As4  1  0.49623600  0.99393100  0.24937500  1
  As  As5  1  0.50230500  0.00606900  0.74937500  1
  As  As6  1  0.68801700  0.43693100  0.37336500  1
  As  As7  1  0.73549600  0.43065300  0.11993700  1
  As  As8  1  0.30484300  0.56934700  0.61993700  1
  As  As9  1  0.25108600  0.56306900  0.87336500  1
  H  H10  1  0.17587000  0.73306200  0.30956600  1
  H  H11  1  0.56090200  0.73230700  0.19061600  1
  H  H12  1  0.82859500  0.26769300  0.69061600  1
  H  H13  1  0.44280800  0.26693800  0.80956600  1
  H  H14  1  0.47506700  0.63708900  0.43500200  1
  H  H15  1  0.15476600  0.64039500  0.06964400  1
  H  H16  1  0.51437100  0.35960500  0.56964400  1
  H  H17  1  0.83797700  0.36291100  0.93500200  1
  H  H18  1  0.96348000  0.47601000  0.49433400  1
  H  H19  1  0.48747000  0.52399000  0.99433400  1
  O  O20  1  0.99284000  0.48612700  0.30384500  1
  O  O21  1  0.49103000  0.47930800  0.19542900  1
  O  O22  1  0.01172200  0.52069200  0.69542900  1
  O  O23  1  0.50671300  0.51387300  0.80384500  1
  O  O24  1  0.27535600  0.85533300  0.33139500  1
  O  O25  1  0.57979400  0.85356400  0.16830300  1
  O  O26  1  0.72623000  0.14643600  0.66830300  1
  O  O27  1  0.42002300  0.14466700  0.83139500  1
  O  O28  1  0.30446800  0.10327600  0.19443400  1
  O  O29  1  0.79640100  0.10806300  0.30379900  1
  O  O30  1  0.68833800  0.89193700  0.80379900  1
  O  O31  1  0.20119300  0.89672400  0.69443400  1
  O  O32  1  0.77355300  0.37361700  0.47558600  1
  O  O33  1  0.59467600  0.37752600  0.01943300  1
  O  O34  1  0.21715000  0.62247400  0.51943300  1
  O  O35  1  0.39993600  0.62638300  0.97558600  1
  O  O36  1  0.63954500  0.64765800  0.38936600  1
  O  O37  1  0.99342200  0.64571200  0.11204000  1
  O  O38  1  0.34771000  0.35428800  0.61204000  1
  O  O39  1  0.99188700  0.35234200  0.88936600  1
  O  O40  1  0.36313000  0.28163200  0.35412800  1
  O  O41  1  0.91358600  0.28039600  0.14342900  1
  O  O42  1  0.63319000  0.71960400  0.64342900  1
  O  O43  1  0.08149800  0.71836800  0.85412800  1
