# generated using pymatgen
data_CoSbSe
_symmetry_space_group_name_H-M   'P 1'
_cell_length_a   3.57594300
_cell_length_b   5.26523245
_cell_length_c   6.07443538
_cell_angle_alpha   95.12156424
_cell_angle_beta   90.00000000
_cell_angle_gamma   90.00000000
_symmetry_Int_Tables_number   1
_chemical_formula_structural   CoSbSe
_chemical_formula_sum   'Co2 Sb2 Se2'
_cell_volume   113.91388889
_cell_formula_units_Z   2
loop_
 _symmetry_equiv_pos_site_id
 _symmetry_equiv_pos_as_xyz
  1  'x, y, z'
loop_
 _atom_site_type_symbol
 _atom_site_label
 _atom_site_symmetry_multiplicity
 _atom_site_fract_x
 _atom_site_fract_y
 _atom_site_fract_z
 _atom_site_occupancy
  Co  Co0  1  0.50000000  0.50000000  0.50000000  1
  Co  Co1  1  0.00000000  0.00000000  0.00000000  1
  Sb  Sb2  1  0.50000000  0.71957500  0.14803500  1
  Sb  Sb3  1  0.50000000  0.28042500  0.85196500  1
  Se  Se4  1  0.00000000  0.22988300  0.35902400  1
  Se  Se5  1  0.00000000  0.77011700  0.64097600  1
