# generated using pymatgen
data_Cu3Bi2S4Cl
_symmetry_space_group_name_H-M   'P 1'
_cell_length_a   4.03637800
_cell_length_b   10.40375000
_cell_length_c   20.92167300
_cell_angle_alpha   90.00000000
_cell_angle_beta   90.00000000
_cell_angle_gamma   90.00000000
_symmetry_Int_Tables_number   1
_chemical_formula_structural   Cu3Bi2S4Cl
_chemical_formula_sum   'Cu12 Bi8 S16 Cl4'
_cell_volume   878.57359763
_cell_formula_units_Z   4
loop_
 _symmetry_equiv_pos_site_id
 _symmetry_equiv_pos_as_xyz
  1  'x, y, z'
loop_
 _atom_site_type_symbol
 _atom_site_label
 _atom_site_symmetry_multiplicity
 _atom_site_fract_x
 _atom_site_fract_y
 _atom_site_fract_z
 _atom_site_occupancy
  Cu  Cu0  1  0.27704200  0.77294000  0.03276300  1
  Cu  Cu1  1  0.77704200  0.22706000  0.46723700  1
  Cu  Cu2  1  0.72295800  0.72706000  0.53276300  1
  Cu  Cu3  1  0.22295800  0.27294000  0.96723700  1
  Cu  Cu4  1  0.33282300  0.37240800  0.12761000  1
  Cu  Cu5  1  0.83282300  0.62759200  0.37239000  1
  Cu  Cu6  1  0.66717700  0.12759200  0.62761000  1
  Cu  Cu7  1  0.16717700  0.87240800  0.87239000  1
  Cu  Cu8  1  0.92269300  0.48596400  0.03768800  1
  Cu  Cu9  1  0.42269300  0.51403600  0.46231200  1
  Cu  Cu10  1  0.07730700  0.01403600  0.53768800  1
  Cu  Cu11  1  0.57730700  0.98596400  0.96231200  1
  Bi  Bi12  1  0.76337300  0.05801000  0.13036600  1
  Bi  Bi13  1  0.26337300  0.94199000  0.36963400  1
  Bi  Bi14  1  0.23662700  0.44199000  0.63036600  1
  Bi  Bi15  1  0.73662700  0.55801000  0.86963400  1
  Bi  Bi16  1  0.84892400  0.64217300  0.19718400  1
  Bi  Bi17  1  0.34892400  0.35782700  0.30281600  1
  Bi  Bi18  1  0.15107600  0.85782700  0.69718400  1
  Bi  Bi19  1  0.65107600  0.14217300  0.80281600  1
  S  S20  1  0.25684900  0.58814300  0.10092500  1
  S  S21  1  0.75684900  0.41185700  0.39907500  1
  S  S22  1  0.74315100  0.91185700  0.60092500  1
  S  S23  1  0.24315100  0.08814300  0.89907500  1
  S  S24  1  0.77842800  0.88023900  0.04239800  1
  S  S25  1  0.27842800  0.11976100  0.45760200  1
  S  S26  1  0.22157200  0.61976100  0.54239800  1
  S  S27  1  0.72157200  0.38023900  0.95760200  1
  S  S28  1  0.26266000  0.18990500  0.07374400  1
  S  S29  1  0.76266000  0.81009500  0.42625600  1
  S  S30  1  0.73734000  0.31009500  0.57374400  1
  S  S31  1  0.23734000  0.68990500  0.92625600  1
  S  S32  1  0.76709300  0.38728300  0.20389500  1
  S  S33  1  0.26709300  0.61271700  0.29610500  1
  S  S34  1  0.23290700  0.11271700  0.70389500  1
  S  S35  1  0.73290700  0.88728300  0.79610500  1
  Cl  Cl36  1  0.26065300  0.88854000  0.19857700  1
  Cl  Cl37  1  0.76065300  0.11146000  0.30142200  1
  Cl  Cl38  1  0.73934700  0.61146000  0.69857700  1
  Cl  Cl39  1  0.23934700  0.38854000  0.80142300  1
