# generated using pymatgen
data_Cs4BiSbCl12
_symmetry_space_group_name_H-M   'P 1'
_cell_length_a   7.76597500
_cell_length_b   7.76597500
_cell_length_c   10.72351800
_cell_angle_alpha   90.00000000
_cell_angle_beta   90.00000000
_cell_angle_gamma   90.00000000
_symmetry_Int_Tables_number   1
_chemical_formula_structural   Cs4BiSbCl12
_chemical_formula_sum   'Cs4 Bi1 Sb1 Cl12'
_cell_volume   646.73931362
_cell_formula_units_Z   1
loop_
 _symmetry_equiv_pos_site_id
 _symmetry_equiv_pos_as_xyz
  1  'x, y, z'
loop_
 _atom_site_type_symbol
 _atom_site_label
 _atom_site_symmetry_multiplicity
 _atom_site_fract_x
 _atom_site_fract_y
 _atom_site_fract_z
 _atom_site_occupancy
  Cs  Cs0  1  0.50000000  0.00000000  0.77930900  1
  Cs  Cs1  1  0.00000000  0.50000000  0.22069100  1
  Cs  Cs2  1  0.50000000  0.00000000  0.22069100  1
  Cs  Cs3  1  0.00000000  0.50000000  0.77930900  1
  Bi  Bi4  1  0.00000000  0.00000000  0.00000000  1
  Sb  Sb5  1  0.50000000  0.50000000  0.50000000  1
  Cl  Cl6  1  0.00000000  0.00000000  0.74553900  1
  Cl  Cl7  1  0.50000000  0.50000000  0.27407200  1
  Cl  Cl8  1  0.72020500  0.72020500  0.50000000  1
  Cl  Cl9  1  0.24785300  0.24785300  0.00000000  1
  Cl  Cl10  1  0.72020500  0.27979500  0.50000000  1
  Cl  Cl11  1  0.24785300  0.75214700  0.00000000  1
  Cl  Cl12  1  0.00000000  0.00000000  0.25446100  1
  Cl  Cl13  1  0.50000000  0.50000000  0.72592800  1
  Cl  Cl14  1  0.27979500  0.27979500  0.50000000  1
  Cl  Cl15  1  0.75214700  0.75214700  0.00000000  1
  Cl  Cl16  1  0.27979500  0.72020500  0.50000000  1
  Cl  Cl17  1  0.75214700  0.24785300  0.00000000  1
