# generated using pymatgen
data_Co5(SnAs)2
_symmetry_space_group_name_H-M   'P 1'
_cell_length_a   4.08088821
_cell_length_b   4.08105400
_cell_length_c   9.62783000
_cell_angle_alpha   90.00000000
_cell_angle_beta   90.00000000
_cell_angle_gamma   59.99865610
_symmetry_Int_Tables_number   1
_chemical_formula_structural   Co5(SnAs)2
_chemical_formula_sum   'Co5 Sn2 As2'
_cell_volume   138.86097269
_cell_formula_units_Z   1
loop_
 _symmetry_equiv_pos_site_id
 _symmetry_equiv_pos_as_xyz
  1  'x, y, z'
loop_
 _atom_site_type_symbol
 _atom_site_label
 _atom_site_symmetry_multiplicity
 _atom_site_fract_x
 _atom_site_fract_y
 _atom_site_fract_z
 _atom_site_occupancy
  Co  Co0  1  0.99996200  0.00001900  0.25749000  1
  Co  Co1  1  0.00000700  0.99999600  0.75594700  1
  Co  Co2  1  0.99996200  0.00001900  0.99251000  1
  Co  Co3  1  0.00000700  0.99999600  0.49405300  1
  Co  Co4  1  0.33338700  0.33330700  0.12500000  1
  Sn  Sn5  1  0.66654700  0.66672700  0.12500000  1
  Sn  Sn6  1  0.66667500  0.66666300  0.62500000  1
  As  As7  1  0.33342600  0.33328700  0.37753000  1
  As  As8  1  0.33342600  0.33328700  0.87247000  1
