# generated using pymatgen
data_EuGdTi2O7
_symmetry_space_group_name_H-M   'P 1'
_cell_length_a   7.28035234
_cell_length_b   7.28035234
_cell_length_c   7.28035234
_cell_angle_alpha   120.36135324
_cell_angle_beta   119.77206915
_cell_angle_gamma   89.88525072
_symmetry_Int_Tables_number   1
_chemical_formula_structural   EuGdTi2O7
_chemical_formula_sum   'Eu2 Gd2 Ti4 O14'
_cell_volume   272.57669623
_cell_formula_units_Z   2
loop_
 _symmetry_equiv_pos_site_id
 _symmetry_equiv_pos_as_xyz
  1  'x, y, z'
loop_
 _atom_site_type_symbol
 _atom_site_label
 _atom_site_symmetry_multiplicity
 _atom_site_fract_x
 _atom_site_fract_y
 _atom_site_fract_z
 _atom_site_occupancy
  Eu  Eu0  1  0.00000000  0.00000000  0.50000000  1
  Eu  Eu1  1  0.00000000  0.50000000  0.00000000  1
  Gd  Gd2  1  0.00000000  0.00000000  0.00000000  1
  Gd  Gd3  1  0.50000000  0.00000000  0.50000000  1
  Ti  Ti4  1  0.50000000  0.50000000  0.50000000  1
  Ti  Ti5  1  0.50000000  0.00000000  0.00000000  1
  Ti  Ti6  1  0.50000000  0.50000000  0.00000000  1
  Ti  Ti7  1  0.00000000  0.50000000  0.50000000  1
  O  O8  1  0.12698400  0.87698400  0.25000000  1
  O  O9  1  0.87301600  0.12301600  0.75000000  1
  O  O10  1  0.42336300  0.17336300  0.25000000  1
  O  O11  1  0.82544500  0.57544500  0.25000000  1
  O  O12  1  0.42556600  0.57777000  0.25187000  1
  O  O13  1  0.82590000  0.17369600  0.24813000  1
  O  O14  1  0.42556600  0.17369600  0.84779500  1
  O  O15  1  0.82590000  0.57777000  0.65220500  1
  O  O16  1  0.57663700  0.82663700  0.75000000  1
  O  O17  1  0.17455500  0.42455500  0.75000000  1
  O  O18  1  0.57443400  0.42223000  0.74813000  1
  O  O19  1  0.17410000  0.82630400  0.75187000  1
  O  O20  1  0.57443400  0.82630400  0.15220500  1
  O  O21  1  0.17410000  0.42223000  0.34779500  1
