# generated using pymatgen
data_CoAsPd
_symmetry_space_group_name_H-M   'P 1'
_cell_length_a   3.73102700
_cell_length_b   3.73102700
_cell_length_c   6.30949900
_cell_angle_alpha   90.00000000
_cell_angle_beta   90.00000000
_cell_angle_gamma   90.00000000
_symmetry_Int_Tables_number   1
_chemical_formula_structural   CoAsPd
_chemical_formula_sum   'Co2 As2 Pd2'
_cell_volume   87.83177501
_cell_formula_units_Z   2
loop_
 _symmetry_equiv_pos_site_id
 _symmetry_equiv_pos_as_xyz
  1  'x, y, z'
loop_
 _atom_site_type_symbol
 _atom_site_label
 _atom_site_symmetry_multiplicity
 _atom_site_fract_x
 _atom_site_fract_y
 _atom_site_fract_z
 _atom_site_occupancy
  Co  Co0  1  0.00000000  0.50000000  0.63424000  1
  Co  Co1  1  0.50000000  0.00000000  0.36576000  1
  As  As2  1  0.00000000  0.50000000  0.28296500  1
  As  As3  1  0.50000000  0.00000000  0.71703500  1
  Pd  Pd4  1  0.00000000  0.00000000  0.00000000  1
  Pd  Pd5  1  0.50000000  0.50000000  0.00000000  1
