# generated using pymatgen
data_Cs3TlNi3F10
_symmetry_space_group_name_H-M   'P 1'
_cell_length_a   7.89004835
_cell_length_b   7.89004835
_cell_length_c   13.85949819
_cell_angle_alpha   89.75441240
_cell_angle_beta   89.75441240
_cell_angle_gamma   45.94442845
_symmetry_Int_Tables_number   1
_chemical_formula_structural   Cs3TlNi3F10
_chemical_formula_sum   'Cs6 Tl2 Ni6 F20'
_cell_volume   620.05334011
_cell_formula_units_Z   2
loop_
 _symmetry_equiv_pos_site_id
 _symmetry_equiv_pos_as_xyz
  1  'x, y, z'
loop_
 _atom_site_type_symbol
 _atom_site_label
 _atom_site_symmetry_multiplicity
 _atom_site_fract_x
 _atom_site_fract_y
 _atom_site_fract_z
 _atom_site_occupancy
  Cs  Cs0  1  0.95232700  0.95232700  0.63944400  1
  Cs  Cs1  1  0.04767300  0.04767300  0.36055600  1
  Cs  Cs2  1  0.54720700  0.54720700  0.13997100  1
  Cs  Cs3  1  0.45279300  0.45279300  0.86002900  1
  Cs  Cs4  1  0.75545700  0.75545700  0.88866000  1
  Cs  Cs5  1  0.24454300  0.24454300  0.11134000  1
  Tl  Tl6  1  0.74909300  0.74909300  0.38910100  1
  Tl  Tl7  1  0.25090700  0.25090700  0.61089900  1
  Ni  Ni8  1  0.61937000  0.61937000  0.65288800  1
  Ni  Ni9  1  0.38063000  0.38063000  0.34711200  1
  Ni  Ni10  1  0.88112500  0.88112500  0.15398900  1
  Ni  Ni11  1  0.11887500  0.11887500  0.84601100  1
  Ni  Ni12  1  0.50000000  0.50000000  0.50000000  1
  Ni  Ni13  1  0.00000000  0.00000000  0.00000000  1
  F  F14  1  0.38493800  0.81661700  0.53832700  1
  F  F15  1  0.18338300  0.61506200  0.46167300  1
  F  F16  1  0.68597000  0.11589300  0.03852100  1
  F  F17  1  0.88410700  0.31403000  0.96147900  1
  F  F18  1  0.61506200  0.18338300  0.46167300  1
  F  F19  1  0.81661700  0.38493800  0.53832700  1
  F  F20  1  0.31403000  0.88410700  0.96147900  1
  F  F21  1  0.11589300  0.68597000  0.03852100  1
  F  F22  1  0.75368900  0.75368900  0.64715400  1
  F  F23  1  0.24631100  0.24631100  0.35284600  1
  F  F24  1  0.74670900  0.74670900  0.14912600  1
  F  F25  1  0.25329100  0.25329100  0.85087400  1
  F  F26  1  0.36363300  0.86602900  0.74894100  1
  F  F27  1  0.13397100  0.63636700  0.25105900  1
  F  F28  1  0.63636700  0.13397100  0.25105900  1
  F  F29  1  0.86602900  0.36363300  0.74894100  1
  F  F30  1  0.97401600  0.97401600  0.85593800  1
  F  F31  1  0.02598400  0.02598400  0.14406200  1
  F  F32  1  0.52638700  0.52638700  0.35666900  1
  F  F33  1  0.47361300  0.47361300  0.64333100  1
