# generated using pymatgen
data_Cu10Hg2Sb4S13
_symmetry_space_group_name_H-M   'P 1'
_cell_length_a   9.15866362
_cell_length_b   9.15866362
_cell_length_c   9.15866362
_cell_angle_alpha   110.92583797
_cell_angle_beta   110.92583797
_cell_angle_gamma   106.59958946
_symmetry_Int_Tables_number   1
_chemical_formula_structural   Cu10Hg2Sb4S13
_chemical_formula_sum   'Cu10 Hg2 Sb4 S13'
_cell_volume   590.28353780
_cell_formula_units_Z   1
loop_
 _symmetry_equiv_pos_site_id
 _symmetry_equiv_pos_as_xyz
  1  'x, y, z'
loop_
 _atom_site_type_symbol
 _atom_site_label
 _atom_site_symmetry_multiplicity
 _atom_site_fract_x
 _atom_site_fract_y
 _atom_site_fract_z
 _atom_site_occupancy
  Cu  Cu0  1  0.23635900  0.50000000  0.73635900  1
  Cu  Cu1  1  0.50000000  0.23635900  0.73635900  1
  Cu  Cu2  1  0.25000000  0.75000000  0.50000000  1
  Cu  Cu3  1  0.50000000  0.76364100  0.26364100  1
  Cu  Cu4  1  0.76364100  0.50000000  0.26364100  1
  Cu  Cu5  1  0.75000000  0.25000000  0.50000000  1
  Cu  Cu6  1  0.22556900  0.00000000  0.22556900  1
  Cu  Cu7  1  0.00000000  0.77443100  0.77443100  1
  Cu  Cu8  1  0.77443100  0.00000000  0.77443100  1
  Cu  Cu9  1  0.00000000  0.22556900  0.22556900  1
  Hg  Hg10  1  0.76381500  0.76381500  0.00000000  1
  Hg  Hg11  1  0.23618500  0.23618500  0.00000000  1
  Sb  Sb12  1  0.01573200  0.46859400  0.00000000  1
  Sb  Sb13  1  0.46859400  0.01573200  0.00000000  1
  Sb  Sb14  1  0.98426800  0.98426800  0.45286100  1
  Sb  Sb15  1  0.53140600  0.53140600  0.54713900  1
  S  S16  1  0.00000000  0.00000000  0.00000000  1
  S  S17  1  0.74610500  0.48242500  0.00000000  1
  S  S18  1  0.24529500  0.77155200  0.25444900  1
  S  S19  1  0.99084600  0.51710400  0.74555100  1
  S  S20  1  0.48242500  0.74610500  0.00000000  1
  S  S21  1  0.51710400  0.99084600  0.74555100  1
  S  S22  1  0.77155200  0.24529500  0.25444900  1
  S  S23  1  0.25389500  0.25389500  0.73632000  1
  S  S24  1  0.75470500  0.00915400  0.52625800  1
  S  S25  1  0.00915400  0.75470500  0.52625800  1
  S  S26  1  0.51757500  0.51757500  0.26368000  1
  S  S27  1  0.48289600  0.22844800  0.47374200  1
  S  S28  1  0.22844800  0.48289600  0.47374200  1
