# generated using pymatgen
data_CoH4C4(NO3)2
_symmetry_space_group_name_H-M   'P 1'
_cell_length_a   7.38318011
_cell_length_b   7.38318011
_cell_length_c   8.19018402
_cell_angle_alpha   88.41709408
_cell_angle_beta   88.41709408
_cell_angle_gamma   62.79690974
_symmetry_Int_Tables_number   1
_chemical_formula_structural   CoH4C4(NO3)2
_chemical_formula_sum   'Co2 H8 C8 N4 O12'
_cell_volume   396.86803725
_cell_formula_units_Z   2
loop_
 _symmetry_equiv_pos_site_id
 _symmetry_equiv_pos_as_xyz
  1  'x, y, z'
loop_
 _atom_site_type_symbol
 _atom_site_label
 _atom_site_symmetry_multiplicity
 _atom_site_fract_x
 _atom_site_fract_y
 _atom_site_fract_z
 _atom_site_occupancy
  Co  Co0  1  0.00000000  0.50000000  0.50000000  1
  Co  Co1  1  0.50000000  0.00000000  0.00000000  1
  H  H2  1  0.88849300  0.17536200  0.46895300  1
  H  H3  1  0.82463800  0.11150700  0.03104700  1
  H  H4  1  0.11150700  0.82463800  0.53104700  1
  H  H5  1  0.17536200  0.88849300  0.96895300  1
  H  H6  1  0.25175900  0.35943300  0.78824400  1
  H  H7  1  0.64056700  0.74824100  0.71175600  1
  H  H8  1  0.74824100  0.64056700  0.21175600  1
  H  H9  1  0.35943300  0.25175900  0.28824400  1
  C  C10  1  0.73822800  0.31293100  0.48976400  1
  C  C11  1  0.68706900  0.26177200  0.01023600  1
  C  C12  1  0.26177200  0.68706900  0.51023600  1
  C  C13  1  0.31293100  0.73822800  0.98976400  1
  C  C14  1  0.25211200  0.22454700  0.73492700  1
  C  C15  1  0.77545300  0.74788800  0.76507300  1
  C  C16  1  0.74788800  0.77545300  0.26507300  1
  C  C17  1  0.22454700  0.25211200  0.23492700  1
  N  N18  1  0.60034600  0.25772700  0.47483200  1
  N  N19  1  0.74227300  0.39965400  0.02516800  1
  N  N20  1  0.39965400  0.74227300  0.52516800  1
  N  N21  1  0.25772700  0.60034600  0.97483200  1
  O  O22  1  0.14518900  0.24262700  0.60977900  1
  O  O23  1  0.75737300  0.85481100  0.89022100  1
  O  O24  1  0.85481100  0.75737300  0.39022100  1
  O  O25  1  0.24262700  0.14518900  0.10977900  1
  O  O26  1  0.74610800  0.48069800  0.52106700  1
  O  O27  1  0.51930200  0.25389200  0.97893300  1
  O  O28  1  0.25389200  0.51930200  0.47893300  1
  O  O29  1  0.48069800  0.74610800  0.02106700  1
  O  O30  1  0.35653900  0.04888900  0.79937700  1
  O  O31  1  0.95111100  0.64346100  0.70062300  1
  O  O32  1  0.64346100  0.95111100  0.20062300  1
  O  O33  1  0.04888900  0.35653900  0.29937700  1
