data_image0
_chemical_formula_structural       Cu2F2Se2Sr2
_chemical_formula_sum              "Cu2 F2 Se2 Sr2"
_cell_length_a       4.04957
_cell_length_b       4.04957
_cell_length_c       8.77759
_cell_angle_alpha    90
_cell_angle_beta     90
_cell_angle_gamma    90

_space_group_name_H-M_alt    "P 1"
_space_group_IT_number       1

loop_
  _space_group_symop_operation_xyz
  'x, y, z'

loop_
  _atom_site_type_symbol
  _atom_site_label
  _atom_site_symmetry_multiplicity
  _atom_site_fract_x
  _atom_site_fract_y
  _atom_site_fract_z
  _atom_site_occupancy
  Cu  Cu1       1.0  0.75000  0.25000  0.00000  1.0000
  Cu  Cu2       1.0  0.25000  0.75000  0.00000  1.0000
  F   F1        1.0  0.75000  0.25000  0.50000  1.0000
  F   F2        1.0  0.25000  0.75000  0.50000  1.0000
  Se  Se1       1.0  0.75000  0.75000  0.17100  1.0000
  Se  Se2       1.0  0.25000  0.25000  0.82900  1.0000
  Sr  Sr1       1.0  0.25000  0.25000  0.33700  1.0000
  Sr  Sr2       1.0  0.75000  0.75000  0.66300  1.0000
