# generated using pymatgen
data_CrB2W
_symmetry_space_group_name_H-M   'P 1'
_cell_length_a   4.39261982
_cell_length_b   4.39261982
_cell_length_c   3.01256600
_cell_angle_alpha   90.00000000
_cell_angle_beta   90.00000000
_cell_angle_gamma   138.95891375
_symmetry_Int_Tables_number   1
_chemical_formula_structural   CrB2W
_chemical_formula_sum   'Cr1 B2 W1'
_cell_volume   38.16670948
_cell_formula_units_Z   1
loop_
 _symmetry_equiv_pos_site_id
 _symmetry_equiv_pos_as_xyz
  1  'x, y, z'
loop_
 _atom_site_type_symbol
 _atom_site_label
 _atom_site_symmetry_multiplicity
 _atom_site_fract_x
 _atom_site_fract_y
 _atom_site_fract_z
 _atom_site_occupancy
  Cr  Cr0  1  0.85826300  0.14173700  0.00000000  1
  B  B1  1  0.43502200  0.56497800  0.50000000  1
  B  B2  1  0.55783300  0.44216700  0.00000000  1
  W  W3  1  0.14888300  0.85111700  0.50000000  1
