# generated using pymatgen
data_CrCdInS4
_symmetry_space_group_name_H-M   'P 1'
_cell_length_a   7.55548586
_cell_length_b   7.55548586
_cell_length_c   7.55548586
_cell_angle_alpha   120.67649636
_cell_angle_beta   119.76857001
_cell_angle_gamma   89.61680197
_symmetry_Int_Tables_number   1
_chemical_formula_structural   CrCdInS4
_chemical_formula_sum   'Cr2 Cd2 In2 S8'
_cell_volume   303.92334000
_cell_formula_units_Z   2
loop_
 _symmetry_equiv_pos_site_id
 _symmetry_equiv_pos_as_xyz
  1  'x, y, z'
loop_
 _atom_site_type_symbol
 _atom_site_label
 _atom_site_symmetry_multiplicity
 _atom_site_fract_x
 _atom_site_fract_y
 _atom_site_fract_z
 _atom_site_occupancy
  Cr  Cr0  1  0.00000000  0.00000000  0.50000000  1
  Cr  Cr1  1  0.00000000  0.50000000  0.00000000  1
  Cd  Cd2  1  0.37648000  0.62648000  0.75000000  1
  Cd  Cd3  1  0.62352000  0.37352000  0.25000000  1
  In  In4  1  0.00000000  0.00000000  0.00000000  1
  In  In5  1  0.50000000  0.00000000  0.50000000  1
  S  S6  1  0.22696500  0.73987700  0.01291200  1
  S  S7  1  0.22696500  0.21405300  0.48708800  1
  S  S8  1  0.21537600  0.75364100  0.46173500  1
  S  S9  1  0.79190600  0.75364100  0.03826500  1
  S  S10  1  0.77303500  0.26012300  0.98708800  1
  S  S11  1  0.77303500  0.78594700  0.51291200  1
  S  S12  1  0.78462400  0.24635900  0.53826500  1
  S  S13  1  0.20809400  0.24635900  0.96173500  1
