# generated using pymatgen
data_Co3Mo
_symmetry_space_group_name_H-M   'P 1'
_cell_length_a   2.62713965
_cell_length_b   2.63292200
_cell_length_c   8.23924500
_cell_angle_alpha   90.00000000
_cell_angle_beta   90.00000000
_cell_angle_gamma   59.92716451
_symmetry_Int_Tables_number   1
_chemical_formula_structural   Co3Mo
_chemical_formula_sum   'Co3 Mo1'
_cell_volume   49.31965012
_cell_formula_units_Z   1
loop_
 _symmetry_equiv_pos_site_id
 _symmetry_equiv_pos_as_xyz
  1  'x, y, z'
loop_
 _atom_site_type_symbol
 _atom_site_label
 _atom_site_symmetry_multiplicity
 _atom_site_fract_x
 _atom_site_fract_y
 _atom_site_fract_z
 _atom_site_occupancy
  Co  Co0  1  0.33407400  0.33296300  0.87500000  1
  Co  Co1  1  0.66596400  0.66701800  0.11098000  1
  Co  Co2  1  0.66596400  0.66701800  0.63902000  1
  Mo  Mo3  1  0.33399800  0.33300100  0.37500000  1
