# generated using pymatgen
data_CsMo2P3O13
_symmetry_space_group_name_H-M   'P 1'
_cell_length_a   6.45594700
_cell_length_b   9.96318635
_cell_length_c   10.28450499
_cell_angle_alpha   83.10821727
_cell_angle_beta   82.34185534
_cell_angle_gamma   71.86426525
_symmetry_Int_Tables_number   1
_chemical_formula_structural   CsMo2P3O13
_chemical_formula_sum   'Cs2 Mo4 P6 O26'
_cell_volume   620.87916642
_cell_formula_units_Z   2
loop_
 _symmetry_equiv_pos_site_id
 _symmetry_equiv_pos_as_xyz
  1  'x, y, z'
loop_
 _atom_site_type_symbol
 _atom_site_label
 _atom_site_symmetry_multiplicity
 _atom_site_fract_x
 _atom_site_fract_y
 _atom_site_fract_z
 _atom_site_occupancy
  Cs  Cs0  1  0.50078100  0.00100700  0.49820700  1
  Cs  Cs1  1  0.48925200  0.56942000  0.95652900  1
  Mo  Mo2  1  0.85596500  0.63755700  0.25730300  1
  Mo  Mo3  1  0.14506600  0.36174100  0.74214400  1
  Mo  Mo4  1  0.14964000  0.09038500  0.18010100  1
  Mo  Mo5  1  0.84917100  0.91168800  0.81966700  1
  P  P6  1  0.70484700  0.99578400  0.13648800  1
  P  P7  1  0.29487300  0.00428000  0.86382800  1
  P  P8  1  0.29755200  0.72378900  0.32359800  1
  P  P9  1  0.70292500  0.27644000  0.67670000  1
  P  P10  1  0.00879900  0.30318500  0.44472500  1
  P  P11  1  0.99078000  0.69737500  0.55506900  1
  O  O12  1  0.85719900  0.04587000  0.20996000  1
  O  O13  1  0.14405800  0.95265100  0.79007100  1
  O  O14  1  0.16674300  0.66452400  0.24271000  1
  O  O15  1  0.83321200  0.33671000  0.75692400  1
  O  O16  1  0.74253800  0.11765700  0.70308800  1
  O  O17  1  0.25739200  0.88250400  0.29829400  1
  O  O18  1  0.53904800  0.63445900  0.30689400  1
  O  O19  1  0.46151700  0.36639600  0.69350600  1
  O  O20  1  0.46917500  0.08491900  0.18438300  1
  O  O21  1  0.53062900  0.91247300  0.81657100  1
  O  O22  1  0.77067800  0.30778700  0.52191900  1
  O  O23  1  0.22944100  0.69123700  0.47861600  1
  O  O24  1  0.72947300  0.83853200  0.17921900  1
  O  O25  1  0.27198600  0.16052500  0.81968200  1
  O  O26  1  0.83391800  0.71737500  0.44994800  1
  O  O27  1  0.16508900  0.28336300  0.55049300  1
  O  O28  1  0.89655800  0.55861200  0.11447500  1
  O  O29  1  0.10205600  0.44258800  0.88411800  1
  O  O30  1  0.75117000  0.02096300  0.98544600  1
  O  O31  1  0.24929700  0.97759200  0.01433800  1
  O  O32  1  0.92179300  0.82824800  0.63400600  1
  O  O33  1  0.07822200  0.17231400  0.36620900  1
  O  O34  1  0.97647900  0.44217200  0.36145300  1
  O  O35  1  0.02172700  0.55883500  0.63963400  1
  O  O36  1  0.05220100  0.25136000  0.09818500  1
  O  O37  1  0.94865200  0.74894200  0.90020500  1
