# generated using pymatgen
data_CeThC2
_symmetry_space_group_name_H-M   'P 1'
_cell_length_a   6.46341051
_cell_length_b   6.46341051
_cell_length_c   6.46341020
_cell_angle_alpha   33.59060500
_cell_angle_beta   33.59060500
_cell_angle_gamma   33.59060776
_symmetry_Int_Tables_number   1
_chemical_formula_structural   CeThC2
_chemical_formula_sum   'Ce1 Th1 C2'
_cell_volume   73.62114744
_cell_formula_units_Z   1
loop_
 _symmetry_equiv_pos_site_id
 _symmetry_equiv_pos_as_xyz
  1  'x, y, z'
loop_
 _atom_site_type_symbol
 _atom_site_label
 _atom_site_symmetry_multiplicity
 _atom_site_fract_x
 _atom_site_fract_y
 _atom_site_fract_z
 _atom_site_occupancy
  Ce  Ce0  1  0.50000000  0.50000000  0.50000000  1
  Th  Th1  1  0.00000000  0.00000000  0.00000000  1
  C  C2  1  0.24897100  0.24897100  0.24897100  1
  C  C3  1  0.75102900  0.75102900  0.75102900  1
