# generated using pymatgen
data_CeZnAgP2
_symmetry_space_group_name_H-M   'P 1'
_cell_length_a   4.17054309
_cell_length_b   4.17054309
_cell_length_c   6.74151200
_cell_angle_alpha   90.00000000
_cell_angle_beta   90.00000000
_cell_angle_gamma   119.99998555
_symmetry_Int_Tables_number   1
_chemical_formula_structural   CeZnAgP2
_chemical_formula_sum   'Ce1 Zn1 Ag1 P2'
_cell_volume   101.54843437
_cell_formula_units_Z   1
loop_
 _symmetry_equiv_pos_site_id
 _symmetry_equiv_pos_as_xyz
  1  'x, y, z'
loop_
 _atom_site_type_symbol
 _atom_site_label
 _atom_site_symmetry_multiplicity
 _atom_site_fract_x
 _atom_site_fract_y
 _atom_site_fract_z
 _atom_site_occupancy
  Ce  Ce0  1  0.33333300  0.66666700  0.00696700  1
  Zn  Zn1  1  0.66666700  0.33333300  0.63043600  1
  Ag  Ag2  1  0.00000000  0.00000000  0.36408600  1
  P  P3  1  0.00000000  0.00000000  0.75225500  1
  P  P4  1  0.66666700  0.33333300  0.24625700  1
