# generated using pymatgen
data_CeTm4S7
_symmetry_space_group_name_H-M   'P 1'
_cell_length_a   6.72294379
_cell_length_b   6.72294379
_cell_length_c   11.63200287
_cell_angle_alpha   75.91659767
_cell_angle_beta   75.91659767
_cell_angle_gamma   32.75553440
_symmetry_Int_Tables_number   1
_chemical_formula_structural   CeTm4S7
_chemical_formula_sum   'Ce1 Tm4 S7'
_cell_volume   275.15523214
_cell_formula_units_Z   1
loop_
 _symmetry_equiv_pos_site_id
 _symmetry_equiv_pos_as_xyz
  1  'x, y, z'
loop_
 _atom_site_type_symbol
 _atom_site_label
 _atom_site_symmetry_multiplicity
 _atom_site_fract_x
 _atom_site_fract_y
 _atom_site_fract_z
 _atom_site_occupancy
  Ce  Ce0  1  0.88710500  0.88710500  0.42113800  1
  Tm  Tm1  1  0.69903100  0.69903100  0.18635400  1
  Tm  Tm2  1  0.30164100  0.30164100  0.81282700  1
  Tm  Tm3  1  0.11418200  0.11418200  0.58129000  1
  Tm  Tm4  1  0.00026100  0.00026100  0.99774000  1
  S  S5  1  0.73693900  0.73693900  0.65486900  1
  S  S6  1  0.25064600  0.25064600  0.34859500  1
  S  S7  1  0.04500500  0.04500500  0.20800900  1
  S  S8  1  0.95811900  0.95811900  0.78544300  1
  S  S9  1  0.50552200  0.50552200  0.50476800  1
  S  S10  1  0.34207400  0.34207400  0.04987500  1
  S  S11  1  0.65947500  0.65947500  0.94909400  1
