# generated using pymatgen
data_CeYMg4
_symmetry_space_group_name_H-M   'P 1'
_cell_length_a   6.02974842
_cell_length_b   6.02974842
_cell_length_c   6.02974842
_cell_angle_alpha   60.00000000
_cell_angle_beta   60.00000000
_cell_angle_gamma   60.00000000
_symmetry_Int_Tables_number   1
_chemical_formula_structural   CeYMg4
_chemical_formula_sum   'Ce1 Y1 Mg4'
_cell_volume   155.01816096
_cell_formula_units_Z   1
loop_
 _symmetry_equiv_pos_site_id
 _symmetry_equiv_pos_as_xyz
  1  'x, y, z'
loop_
 _atom_site_type_symbol
 _atom_site_label
 _atom_site_symmetry_multiplicity
 _atom_site_fract_x
 _atom_site_fract_y
 _atom_site_fract_z
 _atom_site_occupancy
  Ce  Ce0  1  0.25000000  0.25000000  0.25000000  1
  Y  Y1  1  0.00000000  0.00000000  0.00000000  1
  Mg  Mg2  1  0.12495100  0.62501600  0.62501600  1
  Mg  Mg3  1  0.62501600  0.12495100  0.62501600  1
  Mg  Mg4  1  0.62501600  0.62501600  0.12495100  1
  Mg  Mg5  1  0.62501600  0.62501600  0.62501600  1
