# generated using pymatgen
data_Cr8Fe3CuS16
_symmetry_space_group_name_H-M   'P 1'
_cell_length_a   6.91187900
_cell_length_b   6.91187900
_cell_length_c   9.74899500
_cell_angle_alpha   90.00000000
_cell_angle_beta   90.00000000
_cell_angle_gamma   90.00000000
_symmetry_Int_Tables_number   1
_chemical_formula_structural   Cr8Fe3CuS16
_chemical_formula_sum   'Cr8 Fe3 Cu1 S16'
_cell_volume   465.74918234
_cell_formula_units_Z   1
loop_
 _symmetry_equiv_pos_site_id
 _symmetry_equiv_pos_as_xyz
  1  'x, y, z'
loop_
 _atom_site_type_symbol
 _atom_site_label
 _atom_site_symmetry_multiplicity
 _atom_site_fract_x
 _atom_site_fract_y
 _atom_site_fract_z
 _atom_site_occupancy
  Cr  Cr0  1  0.74921900  0.50000000  0.87448500  1
  Cr  Cr1  1  0.24995500  0.00000000  0.37523700  1
  Cr  Cr2  1  0.75004500  0.00000000  0.37523700  1
  Cr  Cr3  1  0.25078100  0.50000000  0.87448500  1
  Cr  Cr4  1  0.50000000  0.25078100  0.12551500  1
  Cr  Cr5  1  0.00000000  0.75004500  0.62476300  1
  Cr  Cr6  1  0.50000000  0.74921900  0.12551500  1
  Cr  Cr7  1  0.00000000  0.24995500  0.62476300  1
  Fe  Fe8  1  0.00000000  0.00000000  0.00000000  1
  Fe  Fe9  1  0.50000000  0.00000000  0.74948900  1
  Fe  Fe10  1  0.00000000  0.50000000  0.25051100  1
  Cu  Cu11  1  0.50000000  0.50000000  0.50000000  1
  S  S12  1  0.25843900  0.50000000  0.12329000  1
  S  S13  1  0.75585800  0.00000000  0.62097800  1
  S  S14  1  0.74156100  0.50000000  0.12329000  1
  S  S15  1  0.24414200  0.00000000  0.62097800  1
  S  S16  1  0.50000000  0.74156100  0.87671000  1
  S  S17  1  0.00000000  0.24414200  0.37902200  1
  S  S18  1  0.50000000  0.25843900  0.87671000  1
  S  S19  1  0.00000000  0.75585800  0.37902200  1
  S  S20  1  0.73515400  0.00000000  0.13069400  1
  S  S21  1  0.23213800  0.50000000  0.63372000  1
  S  S22  1  0.26484600  0.00000000  0.13069400  1
  S  S23  1  0.76786200  0.50000000  0.63372000  1
  S  S24  1  0.50000000  0.76786200  0.36628000  1
  S  S25  1  0.00000000  0.26484600  0.86930600  1
  S  S26  1  0.50000000  0.23213800  0.36628000  1
  S  S27  1  0.00000000  0.73515400  0.86930600  1
