# generated using pymatgen
data_CeNd3Si8
_symmetry_space_group_name_H-M   'P 1'
_cell_length_a   4.12568400
_cell_length_b   4.14666600
_cell_length_c   14.32710300
_cell_angle_alpha   90.00000000
_cell_angle_beta   90.00000000
_cell_angle_gamma   90.00000000
_symmetry_Int_Tables_number   1
_chemical_formula_structural   CeNd3Si8
_chemical_formula_sum   'Ce1 Nd3 Si8'
_cell_volume   245.10569366
_cell_formula_units_Z   1
loop_
 _symmetry_equiv_pos_site_id
 _symmetry_equiv_pos_as_xyz
  1  'x, y, z'
loop_
 _atom_site_type_symbol
 _atom_site_label
 _atom_site_symmetry_multiplicity
 _atom_site_fract_x
 _atom_site_fract_y
 _atom_site_fract_z
 _atom_site_occupancy
  Ce  Ce0  1  0.25000000  0.00000000  0.37571900  1
  Nd  Nd1  1  0.75000000  0.50000000  0.87637500  1
  Nd  Nd2  1  0.25000000  0.50000000  0.12395000  1
  Nd  Nd3  1  0.75000000  0.00000000  0.62356700  1
  Si  Si4  1  0.75000000  0.50000000  0.29184800  1
  Si  Si5  1  0.25000000  0.00000000  0.79102800  1
  Si  Si6  1  0.75000000  0.00000000  0.21025500  1
  Si  Si7  1  0.25000000  0.50000000  0.70780100  1
  Si  Si8  1  0.75000000  0.50000000  0.45647600  1
  Si  Si9  1  0.25000000  0.00000000  0.95814100  1
  Si  Si10  1  0.75000000  0.00000000  0.04375600  1
  Si  Si11  1  0.25000000  0.50000000  0.54108400  1
