# generated using pymatgen
data_CeSiGe
_symmetry_space_group_name_H-M   'P 1'
_cell_length_a   4.15712100
_cell_length_b   4.09912000
_cell_length_c   8.00995351
_cell_angle_alpha   75.17446355
_cell_angle_beta   74.95977390
_cell_angle_gamma   90.00000000
_symmetry_Int_Tables_number   1
_chemical_formula_structural   CeSiGe
_chemical_formula_sum   'Ce2 Si2 Ge2'
_cell_volume   127.10716096
_cell_formula_units_Z   2
loop_
 _symmetry_equiv_pos_site_id
 _symmetry_equiv_pos_as_xyz
  1  'x, y, z'
loop_
 _atom_site_type_symbol
 _atom_site_label
 _atom_site_symmetry_multiplicity
 _atom_site_fract_x
 _atom_site_fract_y
 _atom_site_fract_z
 _atom_site_occupancy
  Ce  Ce0  1  0.75525700  0.25525700  0.48948600  1
  Ce  Ce1  1  0.99474300  0.99474300  0.01051400  1
  Si  Si2  1  0.33648800  0.83648800  0.32702300  1
  Si  Si3  1  0.41351200  0.41351200  0.17297700  1
  Ge  Ge4  1  0.17181700  0.67181700  0.65636700  1
  Ge  Ge5  1  0.57818300  0.57818300  0.84363300  1
