# generated using pymatgen
data_CsAl3(SiO4)3
_symmetry_space_group_name_H-M   'P 1'
_cell_length_a   5.34859583
_cell_length_b   5.34859583
_cell_length_c   22.16846868
_cell_angle_alpha   82.12581970
_cell_angle_beta   82.12581970
_cell_angle_gamma   60.02261480
_symmetry_Int_Tables_number   1
_chemical_formula_structural   CsAl3(SiO4)3
_chemical_formula_sum   'Cs2 Al6 Si6 O24'
_cell_volume   542.42582262
_cell_formula_units_Z   2
loop_
 _symmetry_equiv_pos_site_id
 _symmetry_equiv_pos_as_xyz
  1  'x, y, z'
loop_
 _atom_site_type_symbol
 _atom_site_label
 _atom_site_symmetry_multiplicity
 _atom_site_fract_x
 _atom_site_fract_y
 _atom_site_fract_z
 _atom_site_occupancy
  Cs  Cs0  1  0.09358500  0.89460200  0.26249500  1
  Cs  Cs1  1  0.89460200  0.09358500  0.76249500  1
  Al  Al2  1  0.36745700  0.82108900  0.49766400  1
  Al  Al3  1  0.19540000  0.62763200  0.99768300  1
  Al  Al4  1  0.62763200  0.19540000  0.49768300  1
  Al  Al5  1  0.82108900  0.36745700  0.99766400  1
  Al  Al6  1  0.71130900  0.52891600  0.37412000  1
  Al  Al7  1  0.52891600  0.71130900  0.87412000  1
  Si  Si8  1  0.40215900  0.18345300  0.37143300  1
  Si  Si9  1  0.81813200  0.60432200  0.12390400  1
  Si  Si10  1  0.60432200  0.81813200  0.62390400  1
  Si  Si11  1  0.18345300  0.40215900  0.87143300  1
  Si  Si12  1  0.47181700  0.29242500  0.12458400  1
  Si  Si13  1  0.29242500  0.47181700  0.62458400  1
  O  O14  1  0.60652700  0.32009800  0.34141300  1
  O  O15  1  0.64585800  0.42495800  0.15438100  1
  O  O16  1  0.42495800  0.64585800  0.65438100  1
  O  O17  1  0.32009800  0.60652700  0.84141300  1
  O  O18  1  0.07580700  0.40603000  0.35372800  1
  O  O19  1  0.62135900  0.94037100  0.14402000  1
  O  O20  1  0.94037100  0.62135900  0.64402000  1
  O  O21  1  0.40603000  0.07580700  0.85372800  1
  O  O22  1  0.51935600  0.88163900  0.34052800  1
  O  O23  1  0.13198700  0.45066600  0.15545500  1
  O  O24  1  0.45066600  0.13198700  0.65545500  1
  O  O25  1  0.88163900  0.51935600  0.84052800  1
  O  O26  1  0.42870600  0.11214600  0.44744900  1
  O  O27  1  0.88687500  0.57104700  0.05089800  1
  O  O28  1  0.57104700  0.88687500  0.55089800  1
  O  O29  1  0.11214600  0.42870600  0.94744900  1
  O  O30  1  0.00675400  0.92745100  0.47230800  1
  O  O31  1  0.06100700  0.98637300  0.03323800  1
  O  O32  1  0.98637300  0.06100700  0.53323800  1
  O  O33  1  0.92745100  0.00675400  0.97230800  1
  O  O34  1  0.60976500  0.52026300  0.45280000  1
  O  O35  1  0.47682700  0.37583100  0.05189800  1
  O  O36  1  0.37583100  0.47682700  0.55189800  1
  O  O37  1  0.52026300  0.60976500  0.95280000  1
