# generated using pymatgen
data_CeTh3Al2
_symmetry_space_group_name_H-M   'P 1'
_cell_length_a   7.76633081
_cell_length_b   6.15166325
_cell_length_c   6.13184544
_cell_angle_alpha   78.43344834
_cell_angle_beta   50.89654974
_cell_angle_gamma   50.67000192
_symmetry_Int_Tables_number   1
_chemical_formula_structural   CeTh3Al2
_chemical_formula_sum   'Ce1 Th3 Al2'
_cell_volume   165.87610406
_cell_formula_units_Z   1
loop_
 _symmetry_equiv_pos_site_id
 _symmetry_equiv_pos_as_xyz
  1  'x, y, z'
loop_
 _atom_site_type_symbol
 _atom_site_label
 _atom_site_symmetry_multiplicity
 _atom_site_fract_x
 _atom_site_fract_y
 _atom_site_fract_z
 _atom_site_occupancy
  Ce  Ce0  1  0.65581600  0.34418400  0.65581600  1
  Th  Th1  1  0.34638700  0.65361400  0.34638600  1
  Th  Th2  1  0.84409800  0.84402200  0.15597800  1
  Th  Th3  1  0.15597800  0.15590200  0.84409800  1
  Al  Al4  1  0.24886000  0.25114000  0.24886000  1
  Al  Al5  1  0.74886000  0.75114000  0.74886000  1
