# generated using pymatgen
data_Ce2ThO6
_symmetry_space_group_name_H-M   'P 1'
_cell_length_a   3.90688914
_cell_length_b   3.90688914
_cell_length_c   9.54012300
_cell_angle_alpha   90.00000000
_cell_angle_beta   90.00000000
_cell_angle_gamma   119.99998548
_symmetry_Int_Tables_number   1
_chemical_formula_structural   Ce2ThO6
_chemical_formula_sum   'Ce2 Th1 O6'
_cell_volume   126.10922189
_cell_formula_units_Z   1
loop_
 _symmetry_equiv_pos_site_id
 _symmetry_equiv_pos_as_xyz
  1  'x, y, z'
loop_
 _atom_site_type_symbol
 _atom_site_label
 _atom_site_symmetry_multiplicity
 _atom_site_fract_x
 _atom_site_fract_y
 _atom_site_fract_z
 _atom_site_occupancy
  Ce  Ce0  1  0.33333300  0.66666700  0.66282600  1
  Ce  Ce1  1  0.66666700  0.33333300  0.33717400  1
  Th  Th2  1  0.00000000  0.00000000  0.00000000  1
  O  O3  1  0.00000000  0.00000000  0.25532700  1
  O  O4  1  0.33333300  0.66666700  0.91277000  1
  O  O5  1  0.66666700  0.33333300  0.58211500  1
  O  O6  1  0.66666700  0.33333300  0.08723000  1
  O  O7  1  0.00000000  0.00000000  0.74467300  1
  O  O8  1  0.33333300  0.66666700  0.41788500  1
