# generated using pymatgen
data_Ce2Al2PdPt
_symmetry_space_group_name_H-M   'P 1'
_cell_length_a   4.44794700
_cell_length_b   7.21283800
_cell_length_c   7.87911600
_cell_angle_alpha   90.00000000
_cell_angle_beta   90.00000000
_cell_angle_gamma   90.00000000
_symmetry_Int_Tables_number   1
_chemical_formula_structural   Ce2Al2PdPt
_chemical_formula_sum   'Ce4 Al4 Pd2 Pt2'
_cell_volume   252.78032984
_cell_formula_units_Z   2
loop_
 _symmetry_equiv_pos_site_id
 _symmetry_equiv_pos_as_xyz
  1  'x, y, z'
loop_
 _atom_site_type_symbol
 _atom_site_label
 _atom_site_symmetry_multiplicity
 _atom_site_fract_x
 _atom_site_fract_y
 _atom_site_fract_z
 _atom_site_occupancy
  Ce  Ce0  1  0.50000000  0.46843700  0.56877100  1
  Ce  Ce1  1  0.50000000  0.96843700  0.43122900  1
  Ce  Ce2  1  0.00000000  0.52830500  0.92869200  1
  Ce  Ce3  1  0.00000000  0.02830500  0.07130800  1
  Al  Al4  1  0.50000000  0.35216700  0.18016600  1
  Al  Al5  1  0.50000000  0.85216700  0.81983400  1
  Al  Al6  1  0.00000000  0.64931300  0.31521400  1
  Al  Al7  1  0.00000000  0.14931300  0.68478600  1
  Pd  Pd8  1  0.00000000  0.78307900  0.63853800  1
  Pd  Pd9  1  0.00000000  0.28307900  0.36146200  1
  Pt  Pt10  1  0.50000000  0.21870000  0.86152700  1
  Pt  Pt11  1  0.50000000  0.71870000  0.13847300  1
