# generated using pymatgen
data_Cd5TeS4
_symmetry_space_group_name_H-M   'P 1'
_cell_length_a   15.38741455
_cell_length_b   15.38741455
_cell_length_c   15.38741455
_cell_angle_alpha   163.92690858
_cell_angle_beta   163.92690858
_cell_angle_gamma   22.80659003
_symmetry_Int_Tables_number   1
_chemical_formula_structural   Cd5TeS4
_chemical_formula_sum   'Cd5 Te1 S4'
_cell_volume   279.21692740
_cell_formula_units_Z   1
loop_
 _symmetry_equiv_pos_site_id
 _symmetry_equiv_pos_as_xyz
  1  'x, y, z'
loop_
 _atom_site_type_symbol
 _atom_site_label
 _atom_site_symmetry_multiplicity
 _atom_site_fract_x
 _atom_site_fract_y
 _atom_site_fract_z
 _atom_site_occupancy
  Cd  Cd0  1  0.80942900  0.80942900  0.00000000  1
  Cd  Cd1  1  0.19057100  0.19057100  0.00000000  1
  Cd  Cd2  1  0.59592200  0.59592200  0.00000000  1
  Cd  Cd3  1  0.00000000  0.00000000  0.00000000  1
  Cd  Cd4  1  0.40407800  0.40407800  0.00000000  1
  Te  Te5  1  0.75000000  0.25000000  0.50000000  1
  S  S6  1  0.14320800  0.64320800  0.50000000  1
  S  S7  1  0.54823900  0.04823900  0.50000000  1
  S  S8  1  0.95176100  0.45176100  0.50000000  1
  S  S9  1  0.35679200  0.85679200  0.50000000  1
