# generated using pymatgen
data_Ce2ThO6
_symmetry_space_group_name_H-M   'P 1'
_cell_length_a   6.76126619
_cell_length_b   6.76126619
_cell_length_c   6.76126619
_cell_angle_alpha   146.41805602
_cell_angle_beta   131.80179978
_cell_angle_gamma   60.02305519
_symmetry_Int_Tables_number   1
_chemical_formula_structural   Ce2ThO6
_chemical_formula_sum   'Ce2 Th1 O6'
_cell_volume   126.28149074
_cell_formula_units_Z   1
loop_
 _symmetry_equiv_pos_site_id
 _symmetry_equiv_pos_as_xyz
  1  'x, y, z'
loop_
 _atom_site_type_symbol
 _atom_site_label
 _atom_site_symmetry_multiplicity
 _atom_site_fract_x
 _atom_site_fract_y
 _atom_site_fract_z
 _atom_site_occupancy
  Ce  Ce0  1  0.66750600  0.66750600  0.00000000  1
  Ce  Ce1  1  0.33249400  0.33249400  0.00000000  1
  Th  Th2  1  0.00000000  0.00000000  0.00000000  1
  O  O3  1  0.74575800  0.50000000  0.24575800  1
  O  O4  1  0.42043400  0.16832500  0.25210900  1
  O  O5  1  0.08378300  0.83167500  0.25210900  1
  O  O6  1  0.25424200  0.50000000  0.75424200  1
  O  O7  1  0.91621700  0.16832500  0.74789100  1
  O  O8  1  0.57956600  0.83167500  0.74789100  1
