# generated using pymatgen
data_Cd4Te3Se
_symmetry_space_group_name_H-M   'P 1'
_cell_length_a   4.61523700
_cell_length_b   6.48116600
_cell_length_c   9.26338600
_cell_angle_alpha   90.00000000
_cell_angle_beta   90.00000000
_cell_angle_gamma   90.00000000
_symmetry_Int_Tables_number   1
_chemical_formula_structural   Cd4Te3Se
_chemical_formula_sum   'Cd4 Te3 Se1'
_cell_volume   277.08748702
_cell_formula_units_Z   1
loop_
 _symmetry_equiv_pos_site_id
 _symmetry_equiv_pos_as_xyz
  1  'x, y, z'
loop_
 _atom_site_type_symbol
 _atom_site_label
 _atom_site_symmetry_multiplicity
 _atom_site_fract_x
 _atom_site_fract_y
 _atom_site_fract_z
 _atom_site_occupancy
  Cd  Cd0  1  0.00000000  0.02049700  0.00000000  1
  Cd  Cd1  1  0.50000000  0.49149000  0.76205500  1
  Cd  Cd2  1  0.00000000  0.99501100  0.50000000  1
  Cd  Cd3  1  0.50000000  0.49149000  0.23794500  1
  Te  Te4  1  0.00000000  0.75023600  0.75641600  1
  Te  Te5  1  0.50000000  0.25314100  0.50000000  1
  Te  Te6  1  0.00000000  0.75023600  0.24358400  1
  Se  Se7  1  0.50000000  0.24789800  0.00000000  1
