# generated using pymatgen
data_Cd4TeSe3
_symmetry_space_group_name_H-M   'P 1'
_cell_length_a   4.46935185
_cell_length_b   6.26811400
_cell_length_c   8.96145981
_cell_angle_alpha   90.00000000
_cell_angle_beta   90.00000000
_cell_angle_gamma   90.00000000
_symmetry_Int_Tables_number   1
_chemical_formula_structural   Cd4TeSe3
_chemical_formula_sum   'Cd4 Te1 Se3'
_cell_volume   251.04998146
_cell_formula_units_Z   1
loop_
 _symmetry_equiv_pos_site_id
 _symmetry_equiv_pos_as_xyz
  1  'x, y, z'
loop_
 _atom_site_type_symbol
 _atom_site_label
 _atom_site_symmetry_multiplicity
 _atom_site_fract_x
 _atom_site_fract_y
 _atom_site_fract_z
 _atom_site_occupancy
  Cd  Cd0  1  0.00000000  0.99176900  0.01168500  1
  Cd  Cd1  1  0.50000000  0.49554100  0.25000000  1
  Cd  Cd2  1  0.00000000  0.99176900  0.48831500  1
  Cd  Cd3  1  0.50000000  0.52208300  0.75000000  1
  Te  Te4  1  0.00000000  0.24710100  0.75000000  1
  Se  Se5  1  0.50000000  0.74991400  0.00682300  1
  Se  Se6  1  0.00000000  0.25190900  0.25000000  1
  Se  Se7  1  0.50000000  0.74991400  0.49317700  1
