# generated using pymatgen
data_CaAlGa
_symmetry_space_group_name_H-M   'P 1'
_cell_length_a   5.78788974
_cell_length_b   5.78788974
_cell_length_c   7.40364303
_cell_angle_alpha   51.66571715
_cell_angle_beta   51.66571715
_cell_angle_gamma   46.39331532
_symmetry_Int_Tables_number   1
_chemical_formula_structural   CaAlGa
_chemical_formula_sum   'Ca2 Al2 Ga2'
_cell_volume   132.53660282
_cell_formula_units_Z   2
loop_
 _symmetry_equiv_pos_site_id
 _symmetry_equiv_pos_as_xyz
  1  'x, y, z'
loop_
 _atom_site_type_symbol
 _atom_site_label
 _atom_site_symmetry_multiplicity
 _atom_site_fract_x
 _atom_site_fract_y
 _atom_site_fract_z
 _atom_site_occupancy
  Ca  Ca0  1  0.54645800  0.54645800  0.20062200  1
  Ca  Ca1  1  0.45354200  0.45354200  0.79937800  1
  Al  Al2  1  0.16224900  0.16224900  0.40366900  1
  Al  Al3  1  0.83775100  0.83775100  0.59633100  1
  Ga  Ga4  1  0.83995000  0.83995000  0.21843100  1
  Ga  Ga5  1  0.16005000  0.16005000  0.78156900  1
