# generated using pymatgen
data_CsLu4F13
_symmetry_space_group_name_H-M   'P 1'
_cell_length_a   7.98681480
_cell_length_b   7.98681480
_cell_length_c   17.26068751
_cell_angle_alpha   89.61874144
_cell_angle_beta   89.61874144
_cell_angle_gamma   60.19299542
_symmetry_Int_Tables_number   1
_chemical_formula_structural   CsLu4F13
_chemical_formula_sum   'Cs3 Lu12 F39'
_cell_volume   955.35420264
_cell_formula_units_Z   3
loop_
 _symmetry_equiv_pos_site_id
 _symmetry_equiv_pos_as_xyz
  1  'x, y, z'
loop_
 _atom_site_type_symbol
 _atom_site_label
 _atom_site_symmetry_multiplicity
 _atom_site_fract_x
 _atom_site_fract_y
 _atom_site_fract_z
 _atom_site_occupancy
  Cs  Cs0  1  0.50084200  0.50084200  0.11568500  1
  Cs  Cs1  1  0.50000700  0.50000700  0.37511800  1
  Cs  Cs2  1  0.49952500  0.49952500  0.63263300  1
  Lu  Lu3  1  0.01390100  0.48550100  0.25434500  1
  Lu  Lu4  1  0.01369500  0.48545200  0.50506100  1
  Lu  Lu5  1  0.01155600  0.48390100  0.75651800  1
  Lu  Lu6  1  0.01556300  0.48667100  0.00378500  1
  Lu  Lu7  1  0.48550100  0.01390100  0.25434500  1
  Lu  Lu8  1  0.48545200  0.01369500  0.50506100  1
  Lu  Lu9  1  0.48390100  0.01155600  0.75651800  1
  Lu  Lu10  1  0.48667100  0.01556300  0.00378500  1
  Lu  Lu11  1  0.01424300  0.01424300  0.25806200  1
  Lu  Lu12  1  0.01437500  0.01437500  0.50229100  1
  Lu  Lu13  1  0.01467000  0.01467000  0.74444800  1
  Lu  Lu14  1  0.01623200  0.01623200  0.01589700  1
  F  F15  1  0.17288300  0.17288300  0.03381500  1
  F  F16  1  0.17134900  0.17134900  0.27800600  1
  F  F17  1  0.17052800  0.17052800  0.52796200  1
  F  F18  1  0.15936800  0.15936800  0.79840600  1
  F  F19  1  0.06494100  0.72946800  0.00419100  1
  F  F20  1  0.06895100  0.72274400  0.25750800  1
  F  F21  1  0.06905600  0.72278000  0.50630100  1
  F  F22  1  0.06655500  0.72695500  0.75998400  1
  F  F23  1  0.72946800  0.06494100  0.00419100  1
  F  F24  1  0.72274400  0.06895100  0.25750800  1
  F  F25  1  0.72278000  0.06905600  0.50630100  1
  F  F26  1  0.72695500  0.06655500  0.75998400  1
  F  F27  1  0.84747300  0.32566600  0.99249900  1
  F  F28  1  0.83569500  0.33758900  0.24609300  1
  F  F29  1  0.83541700  0.33842100  0.49510800  1
  F  F30  1  0.84907200  0.32998600  0.73490100  1
  F  F31  1  0.32566600  0.84747300  0.99249900  1
  F  F32  1  0.33758900  0.83569500  0.24609300  1
  F  F33  1  0.33842100  0.83541700  0.49510800  1
  F  F34  1  0.32998600  0.84907200  0.73490100  1
  F  F35  1  0.72157300  0.72157300  0.25593800  1
  F  F36  1  0.72170200  0.72170200  0.50517200  1
  F  F37  1  0.72165100  0.72165100  0.75207200  1
  F  F38  1  0.72066800  0.72066800  0.01057000  1
  F  F39  1  0.33868400  0.33868400  0.99840800  1
  F  F40  1  0.33955100  0.33955100  0.24496700  1
  F  F41  1  0.33907700  0.33907700  0.49599600  1
  F  F42  1  0.32564100  0.32564100  0.73948600  1
  F  F43  1  0.01556300  0.49146000  0.12980300  1
  F  F44  1  0.01689500  0.48834800  0.37989800  1
  F  F45  1  0.01580800  0.49049500  0.63028000  1
  F  F46  1  0.01064100  0.49544700  0.88033200  1
  F  F47  1  0.49146000  0.01556300  0.12980300  1
  F  F48  1  0.48834800  0.01689500  0.37989800  1
  F  F49  1  0.49049500  0.01580800  0.63028000  1
  F  F50  1  0.49544700  0.01064100  0.88033200  1
  F  F51  1  0.01195400  0.01195400  0.13406000  1
  F  F52  1  0.01310200  0.01310200  0.38030900  1
  F  F53  1  0.01148700  0.01148700  0.62643500  1
