# generated using pymatgen
data_CuNi3(CO3)8
_symmetry_space_group_name_H-M   'P 1'
_cell_length_a   8.44153000
_cell_length_b   8.53598515
_cell_length_c   9.29482697
_cell_angle_alpha   96.86088805
_cell_angle_beta   90.24025911
_cell_angle_gamma   91.06665367
_symmetry_Int_Tables_number   1
_chemical_formula_structural   CuNi3(CO3)8
_chemical_formula_sum   'Cu1 Ni3 C8 O24'
_cell_volume   664.83009699
_cell_formula_units_Z   1
loop_
 _symmetry_equiv_pos_site_id
 _symmetry_equiv_pos_as_xyz
  1  'x, y, z'
loop_
 _atom_site_type_symbol
 _atom_site_label
 _atom_site_symmetry_multiplicity
 _atom_site_fract_x
 _atom_site_fract_y
 _atom_site_fract_z
 _atom_site_occupancy
  Cu  Cu0  1  0.50000000  0.00000000  0.50000000  1
  Ni  Ni1  1  0.00000000  0.00000000  0.00000000  1
  Ni  Ni2  1  0.00000000  0.50000000  0.50000000  1
  Ni  Ni3  1  0.50000000  0.50000000  0.00000000  1
  C  C4  1  0.68428600  0.89238600  0.19464200  1
  C  C5  1  0.18570400  0.10535100  0.30316800  1
  C  C6  1  0.31571400  0.10761400  0.80535800  1
  C  C7  1  0.81429600  0.89464900  0.69683200  1
  C  C8  1  0.15358300  0.66769100  0.04456300  1
  C  C9  1  0.65157800  0.32964900  0.45521200  1
  C  C10  1  0.84641700  0.33230900  0.95543700  1
  C  C11  1  0.34842200  0.67035100  0.54478800  1
  O  O12  1  0.14738900  0.78860400  0.99487300  1
  O  O13  1  0.64507700  0.20745900  0.50344300  1
  O  O14  1  0.85261100  0.21139600  0.00512700  1
  O  O15  1  0.35492300  0.79254100  0.49655700  1
  O  O16  1  0.00323300  0.69029500  0.45234000  1
  O  O17  1  0.50329900  0.30850200  0.04383300  1
  O  O18  1  0.99676700  0.30970500  0.54766000  1
  O  O19  1  0.49670100  0.69149800  0.95616700  1
  O  O20  1  0.15830300  0.54878100  0.09494500  1
  O  O21  1  0.65593700  0.44942000  0.40618300  1
  O  O22  1  0.84169700  0.45121900  0.90505500  1
  O  O23  1  0.34406300  0.55058000  0.59381700  1
  O  O24  1  0.59019900  0.91369500  0.28806000  1
  O  O25  1  0.09566600  0.08148900  0.20573000  1
  O  O26  1  0.40980100  0.08630500  0.71194000  1
  O  O27  1  0.90433400  0.91851100  0.79427000  1
  O  O28  1  0.59426100  0.60195700  0.14935000  1
  O  O29  1  0.08911000  0.39718200  0.35108100  1
  O  O30  1  0.40573900  0.39804300  0.85065000  1
  O  O31  1  0.91089000  0.60281800  0.64891900  1
  O  O32  1  0.78293600  0.88710700  0.10561400  1
  O  O33  1  0.27980600  0.11518700  0.39729400  1
  O  O34  1  0.21706400  0.11289300  0.89438600  1
  O  O35  1  0.72019400  0.88481300  0.60270600  1
