# generated using pymatgen
data_Cd2GaAgSe4
_symmetry_space_group_name_H-M   'P 1'
_cell_length_a   8.14345269
_cell_length_b   8.14345269
_cell_length_c   7.50982630
_cell_angle_alpha   64.28181078
_cell_angle_beta   64.28181078
_cell_angle_gamma   30.23734035
_symmetry_Int_Tables_number   1
_chemical_formula_structural   Cd2GaAgSe4
_chemical_formula_sum   'Cd2 Ga1 Ag1 Se4'
_cell_volume   224.02945081
_cell_formula_units_Z   1
loop_
 _symmetry_equiv_pos_site_id
 _symmetry_equiv_pos_as_xyz
  1  'x, y, z'
loop_
 _atom_site_type_symbol
 _atom_site_label
 _atom_site_symmetry_multiplicity
 _atom_site_fract_x
 _atom_site_fract_y
 _atom_site_fract_z
 _atom_site_occupancy
  Cd  Cd0  1  0.00069400  0.00069400  0.65249400  1
  Cd  Cd1  1  0.49666900  0.49666900  0.17412600  1
  Ga  Ga2  1  0.75128400  0.75128400  0.59557200  1
  Ag  Ag3  1  0.25250700  0.25250700  0.07540600  1
  Se  Se4  1  0.06454500  0.06454500  0.26644100  1
  Se  Se5  1  0.57295000  0.57295000  0.76534400  1
  Se  Se6  1  0.81148400  0.81148400  0.84140000  1
  Se  Se7  1  0.30102200  0.30102200  0.37921600  1
