# generated using pymatgen
data_CdIn2(SeS)2
_symmetry_space_group_name_H-M   'P 1'
_cell_length_a   8.00789520
_cell_length_b   8.00789520
_cell_length_c   8.00789520
_cell_angle_alpha   60.00000000
_cell_angle_beta   60.00000000
_cell_angle_gamma   60.00000000
_symmetry_Int_Tables_number   1
_chemical_formula_structural   CdIn2(SeS)2
_chemical_formula_sum   'Cd2 In4 Se4 S4'
_cell_volume   363.11161826
_cell_formula_units_Z   2
loop_
 _symmetry_equiv_pos_site_id
 _symmetry_equiv_pos_as_xyz
  1  'x, y, z'
loop_
 _atom_site_type_symbol
 _atom_site_label
 _atom_site_symmetry_multiplicity
 _atom_site_fract_x
 _atom_site_fract_y
 _atom_site_fract_z
 _atom_site_occupancy
  Cd  Cd0  1  0.00000000  0.00000000  0.00000000  1
  Cd  Cd1  1  0.25000000  0.25000000  0.25000000  1
  In  In2  1  0.11512000  0.62829300  0.62829300  1
  In  In3  1  0.62829300  0.11512000  0.62829300  1
  In  In4  1  0.62829300  0.62829300  0.11512000  1
  In  In5  1  0.62829300  0.62829300  0.62829300  1
  Se  Se6  1  0.84720600  0.38426500  0.38426500  1
  Se  Se7  1  0.38426500  0.84720600  0.38426500  1
  Se  Se8  1  0.38426500  0.38426500  0.84720600  1
  Se  Se9  1  0.38426500  0.38426500  0.38426500  1
  S  S10  1  0.40570300  0.86476600  0.86476600  1
  S  S11  1  0.86476600  0.40570300  0.86476600  1
  S  S12  1  0.86476600  0.86476600  0.40570300  1
  S  S13  1  0.86476600  0.86476600  0.86476600  1
