# generated using pymatgen
data_CaZnSi
_symmetry_space_group_name_H-M   'P 1'
_cell_length_a   4.15872347
_cell_length_b   4.15864650
_cell_length_c   4.34139500
_cell_angle_alpha   90.00000000
_cell_angle_beta   90.00000000
_cell_angle_gamma   119.99893391
_symmetry_Int_Tables_number   1
_chemical_formula_structural   CaZnSi
_chemical_formula_sum   'Ca1 Zn1 Si1'
_cell_volume   65.02444408
_cell_formula_units_Z   1
loop_
 _symmetry_equiv_pos_site_id
 _symmetry_equiv_pos_as_xyz
  1  'x, y, z'
loop_
 _atom_site_type_symbol
 _atom_site_label
 _atom_site_symmetry_multiplicity
 _atom_site_fract_x
 _atom_site_fract_y
 _atom_site_fract_z
 _atom_site_occupancy
  Ca  Ca0  1  0.99998200  0.99999800  0.00000000  1
  Zn  Zn1  1  0.33329700  0.66666400  0.50000000  1
  Si  Si2  1  0.66662100  0.33333800  0.50000000  1
