# generated using pymatgen
data_Cd2GaAgSe4
_symmetry_space_group_name_H-M   'P 1'
_cell_length_a   4.28445500
_cell_length_b   7.05435000
_cell_length_c   7.51958193
_cell_angle_alpha   89.65422303
_cell_angle_beta   90.00000000
_cell_angle_gamma   90.00000000
_symmetry_Int_Tables_number   1
_chemical_formula_structural   Cd2GaAgSe4
_chemical_formula_sum   'Cd2 Ga1 Ag1 Se4'
_cell_volume   227.26804503
_cell_formula_units_Z   1
loop_
 _symmetry_equiv_pos_site_id
 _symmetry_equiv_pos_as_xyz
  1  'x, y, z'
loop_
 _atom_site_type_symbol
 _atom_site_label
 _atom_site_symmetry_multiplicity
 _atom_site_fract_x
 _atom_site_fract_y
 _atom_site_fract_z
 _atom_site_occupancy
  Cd  Cd0  1  0.50000000  0.99757500  0.16817600  1
  Cd  Cd1  1  0.50000000  0.46662800  0.81826000  1
  Ga  Ga2  1  0.00000000  0.47456700  0.34122000  1
  Ag  Ag3  1  0.00000000  0.98989800  0.67232100  1
  Se  Se4  1  0.50000000  0.59994500  0.18064300  1
  Se  Se5  1  0.50000000  0.09785600  0.83691700  1
  Se  Se6  1  0.00000000  0.13030000  0.34314800  1
  Se  Se7  1  0.00000000  0.61203100  0.63931500  1
