# generated using pymatgen
data_CaSmAlO4
_symmetry_space_group_name_H-M   'P 1'
_cell_length_a   6.58423269
_cell_length_b   6.58423269
_cell_length_c   6.58423269
_cell_angle_alpha   147.37002393
_cell_angle_beta   147.37002393
_cell_angle_gamma   46.81621206
_symmetry_Int_Tables_number   1
_chemical_formula_structural   CaSmAlO4
_chemical_formula_sum   'Ca1 Sm1 Al1 O4'
_cell_volume   82.68637124
_cell_formula_units_Z   1
loop_
 _symmetry_equiv_pos_site_id
 _symmetry_equiv_pos_as_xyz
  1  'x, y, z'
loop_
 _atom_site_type_symbol
 _atom_site_label
 _atom_site_symmetry_multiplicity
 _atom_site_fract_x
 _atom_site_fract_y
 _atom_site_fract_z
 _atom_site_occupancy
  Ca  Ca0  1  0.64331500  0.64331500  0.00000000  1
  Sm  Sm1  1  0.35828400  0.35828400  0.00000000  1
  Al  Al2  1  0.00721800  0.00721800  0.00000000  1
  O  O3  1  0.83229800  0.83229800  0.00000000  1
  O  O4  1  0.16719000  0.16719000  0.00000000  1
  O  O5  1  0.99584800  0.49584800  0.50000000  1
  O  O6  1  0.49584800  0.99584800  0.50000000  1
