# generated using pymatgen
data_CsNaB10(H2O9)2
_symmetry_space_group_name_H-M   'P 1'
_cell_length_a   9.10244800
_cell_length_b   7.77058200
_cell_length_c   12.04672941
_cell_angle_alpha   64.39072874
_cell_angle_beta   90.00000000
_cell_angle_gamma   90.00000000
_symmetry_Int_Tables_number   1
_chemical_formula_structural   CsNaB10(H2O9)2
_chemical_formula_sum   'Cs2 Na2 B20 H8 O36'
_cell_volume   768.37482587
_cell_formula_units_Z   2
loop_
 _symmetry_equiv_pos_site_id
 _symmetry_equiv_pos_as_xyz
  1  'x, y, z'
loop_
 _atom_site_type_symbol
 _atom_site_label
 _atom_site_symmetry_multiplicity
 _atom_site_fract_x
 _atom_site_fract_y
 _atom_site_fract_z
 _atom_site_occupancy
  Cs  Cs0  1  0.32588400  0.50618500  0.74982400  1
  Cs  Cs1  1  0.67411600  0.50618500  0.24982400  1
  Na  Na2  1  0.91554000  0.05519000  0.25379300  1
  Na  Na3  1  0.08446000  0.05519000  0.75379300  1
  B  B4  1  0.04433400  0.69293500  0.03079400  1
  B  B5  1  0.04280500  0.30740700  0.46797100  1
  B  B6  1  0.95719500  0.30740700  0.96797100  1
  B  B7  1  0.95566600  0.69293500  0.53079400  1
  B  B8  1  0.23491300  0.45584400  0.08104100  1
  B  B9  1  0.23426700  0.54437000  0.41814300  1
  B  B10  1  0.76573300  0.54437000  0.91814300  1
  B  B11  1  0.76508700  0.45584400  0.58104100  1
  B  B12  1  0.58479800  0.00042400  0.24987500  1
  B  B13  1  0.41520200  0.00042400  0.74987500  1
  B  B14  1  0.64949100  0.08515900  0.03360700  1
  B  B15  1  0.64863000  0.91527100  0.46709800  1
  B  B16  1  0.35137000  0.91527100  0.96709800  1
  B  B17  1  0.35050900  0.08515900  0.53360700  1
  B  B18  1  0.10821200  0.49970600  0.24925400  1
  B  B19  1  0.89178800  0.49970600  0.74925400  1
  B  B20  1  0.45318900  0.25254500  0.07873100  1
  B  B21  1  0.45307800  0.74721400  0.42116400  1
  B  B22  1  0.54692200  0.74721400  0.92116400  1
  B  B23  1  0.54681100  0.25254500  0.57873100  1
  H  H24  1  0.71578000  0.14678000  0.86231900  1
  H  H25  1  0.71756500  0.85285000  0.63815100  1
  H  H26  1  0.28243500  0.85285000  0.13815100  1
  H  H27  1  0.28422000  0.14678000  0.36231900  1
  H  H28  1  0.88828500  0.89832100  0.95916300  1
  H  H29  1  0.88874300  0.09795600  0.54406000  1
  H  H30  1  0.11125700  0.09795600  0.04406000  1
  H  H31  1  0.11171500  0.89832100  0.45916300  1
  O  O32  1  0.15625700  0.60753000  0.99260700  1
  O  O33  1  0.15413200  0.39347000  0.50657300  1
  O  O34  1  0.84586800  0.39347000  0.00657300  1
  O  O35  1  0.84374300  0.60753000  0.49260700  1
  O  O36  1  0.96990600  0.83674800  0.93567000  1
  O  O37  1  0.96773700  0.16698400  0.56413200  1
  O  O38  1  0.03226300  0.16698400  0.06413200  1
  O  O39  1  0.03009400  0.83674800  0.43567000  1
  O  O40  1  0.01299300  0.63540600  0.15196300  1
  O  O41  1  0.01297300  0.36071200  0.34689500  1
  O  O42  1  0.98702700  0.36071200  0.84689500  1
  O  O43  1  0.98700700  0.63540600  0.65196300  1
  O  O44  1  0.48879900  0.16993400  0.19959100  1
  O  O45  1  0.48958000  0.82999500  0.30046000  1
  O  O46  1  0.51042000  0.82999500  0.80046000  1
  O  O47  1  0.51120100  0.16993400  0.69959100  1
  O  O48  1  0.20645200  0.39022900  0.20309700  1
  O  O49  1  0.20651900  0.60770900  0.29631700  1
  O  O50  1  0.79348100  0.60770900  0.79631700  1
  O  O51  1  0.79354800  0.39022900  0.70309700  1
  O  O52  1  0.34209100  0.38440400  0.03055400  1
  O  O53  1  0.34147200  0.61563400  0.46887500  1
  O  O54  1  0.65852800  0.61563400  0.96887500  1
  O  O55  1  0.65790900  0.38440400  0.53055400  1
  O  O56  1  0.73616800  0.05730000  0.94811500  1
  O  O57  1  0.73623500  0.94285200  0.55217700  1
  O  O58  1  0.26376500  0.94285200  0.05217700  1
  O  O59  1  0.26383200  0.05730000  0.44811500  1
  O  O60  1  0.53231500  0.21310000  0.99238400  1
  O  O61  1  0.53210100  0.78654500  0.50772100  1
  O  O62  1  0.46789900  0.78654500  0.00772100  1
  O  O63  1  0.46768500  0.21310000  0.49238400  1
  O  O64  1  0.68227500  0.98696400  0.15554500  1
  O  O65  1  0.68045300  0.01632800  0.34513700  1
  O  O66  1  0.31954700  0.01632800  0.84513700  1
  O  O67  1  0.31772500  0.98696400  0.65554500  1
