# generated using pymatgen
data_CdCu2Sn3S8
_symmetry_space_group_name_H-M   'P 1'
_cell_length_a   7.51231106
_cell_length_b   7.51231106
_cell_length_c   7.51231099
_cell_angle_alpha   59.93835661
_cell_angle_beta   59.93835661
_cell_angle_gamma   59.93835256
_symmetry_Int_Tables_number   1
_chemical_formula_structural   CdCu2Sn3S8
_chemical_formula_sum   'Cd1 Cu2 Sn3 S8'
_cell_volume   299.36294207
_cell_formula_units_Z   1
loop_
 _symmetry_equiv_pos_site_id
 _symmetry_equiv_pos_as_xyz
  1  'x, y, z'
loop_
 _atom_site_type_symbol
 _atom_site_label
 _atom_site_symmetry_multiplicity
 _atom_site_fract_x
 _atom_site_fract_y
 _atom_site_fract_z
 _atom_site_occupancy
  Cd  Cd0  1  0.50000000  0.50000000  0.50000000  1
  Cu  Cu1  1  0.88277900  0.88277900  0.88277900  1
  Cu  Cu2  1  0.11722100  0.11722100  0.11722100  1
  Sn  Sn3  1  0.50000000  0.00000000  0.50000000  1
  Sn  Sn4  1  0.50000000  0.50000000  0.00000000  1
  Sn  Sn5  1  0.00000000  0.50000000  0.50000000  1
  S  S6  1  0.24911500  0.24911500  0.73902800  1
  S  S7  1  0.73902800  0.24911500  0.24911500  1
  S  S8  1  0.75088500  0.26097200  0.75088500  1
  S  S9  1  0.75052200  0.75052200  0.75052200  1
  S  S10  1  0.75088500  0.75088500  0.26097200  1
  S  S11  1  0.26097200  0.75088500  0.75088500  1
  S  S12  1  0.24911500  0.73902800  0.24911500  1
  S  S13  1  0.24947800  0.24947800  0.24947800  1
