# generated using pymatgen
data_CaLaGaO4
_symmetry_space_group_name_H-M   'P 1'
_cell_length_a   6.75166515
_cell_length_b   6.75166515
_cell_length_c   6.75166515
_cell_angle_alpha   146.84503850
_cell_angle_beta   146.84503850
_cell_angle_gamma   47.59328291
_symmetry_Int_Tables_number   1
_chemical_formula_structural   CaLaGaO4
_chemical_formula_sum   'Ca1 La1 Ga1 O4'
_cell_volume   91.69485953
_cell_formula_units_Z   1
loop_
 _symmetry_equiv_pos_site_id
 _symmetry_equiv_pos_as_xyz
  1  'x, y, z'
loop_
 _atom_site_type_symbol
 _atom_site_label
 _atom_site_symmetry_multiplicity
 _atom_site_fract_x
 _atom_site_fract_y
 _atom_site_fract_z
 _atom_site_occupancy
  Ca  Ca0  1  0.64139300  0.64139300  0.00000000  1
  La  La1  1  0.35635200  0.35635200  0.00000000  1
  Ga  Ga2  1  0.00892800  0.00892800  0.00000000  1
  O  O3  1  0.99796100  0.49796100  0.50000000  1
  O  O4  1  0.49796100  0.99796100  0.50000000  1
  O  O5  1  0.82740000  0.82740000  0.00000000  1
  O  O6  1  0.17000300  0.17000300  0.00000000  1
