# generated using pymatgen
data_Ce4SnO10
_symmetry_space_group_name_H-M   'P 1'
_cell_length_a   15.78057664
_cell_length_b   15.78057664
_cell_length_c   15.78057690
_cell_angle_alpha   13.93847150
_cell_angle_beta   13.93847150
_cell_angle_gamma   13.93846995
_symmetry_Int_Tables_number   1
_chemical_formula_structural   Ce4SnO10
_chemical_formula_sum   'Ce4 Sn1 O10'
_cell_volume   198.44325833
_cell_formula_units_Z   1
loop_
 _symmetry_equiv_pos_site_id
 _symmetry_equiv_pos_as_xyz
  1  'x, y, z'
loop_
 _atom_site_type_symbol
 _atom_site_label
 _atom_site_symmetry_multiplicity
 _atom_site_fract_x
 _atom_site_fract_y
 _atom_site_fract_z
 _atom_site_occupancy
  Ce  Ce0  1  0.60254400  0.60254400  0.60254400  1
  Ce  Ce1  1  0.20072700  0.20072700  0.20072700  1
  Ce  Ce2  1  0.79927300  0.79927300  0.79927300  1
  Ce  Ce3  1  0.39745600  0.39745600  0.39745600  1
  Sn  Sn4  1  0.00000000  0.00000000  0.00000000  1
  O  O5  1  0.04615300  0.04615300  0.04615300  1
  O  O6  1  0.85021300  0.85021300  0.85021300  1
  O  O7  1  0.44887100  0.44887100  0.44887100  1
  O  O8  1  0.65283400  0.65283400  0.65283400  1
  O  O9  1  0.25226200  0.25226200  0.25226200  1
  O  O10  1  0.34716600  0.34716600  0.34716600  1
  O  O11  1  0.14978700  0.14978700  0.14978700  1
  O  O12  1  0.74773800  0.74773800  0.74773800  1
  O  O13  1  0.95384700  0.95384700  0.95384700  1
  O  O14  1  0.55112900  0.55112900  0.55112900  1
