# generated using pymatgen
data_CdGeO3
_symmetry_space_group_name_H-M   'P 1'
_cell_length_a   3.35939827
_cell_length_b   7.56149428
_cell_length_c   7.56149428
_cell_angle_alpha   130.88753067
_cell_angle_beta   82.46524285
_cell_angle_gamma   82.46524285
_symmetry_Int_Tables_number   1
_chemical_formula_structural   CdGeO3
_chemical_formula_sum   'Cd2 Ge2 O6'
_cell_volume   137.79220244
_cell_formula_units_Z   2
loop_
 _symmetry_equiv_pos_site_id
 _symmetry_equiv_pos_as_xyz
  1  'x, y, z'
loop_
 _atom_site_type_symbol
 _atom_site_label
 _atom_site_symmetry_multiplicity
 _atom_site_fract_x
 _atom_site_fract_y
 _atom_site_fract_z
 _atom_site_occupancy
  Cd  Cd0  1  0.14110300  0.32548500  0.97572100  1
  Cd  Cd1  1  0.64110300  0.97572100  0.32548500  1
  Ge  Ge2  1  0.32957100  0.58065900  0.73769300  1
  Ge  Ge3  1  0.82957100  0.73769300  0.58065900  1
  O  O4  1  0.14182400  0.34461500  0.30102900  1
  O  O5  1  0.64182400  0.30102900  0.34461500  1
  O  O6  1  0.27813600  0.78534500  0.05337100  1
  O  O7  1  0.77813600  0.05337100  0.78534500  1
  O  O8  1  0.17936600  0.33254900  0.68153200  1
  O  O9  1  0.67936600  0.68153200  0.33254900  1
