# generated using pymatgen
data_CePr3Fe34
_symmetry_space_group_name_H-M   'P 1'
_cell_length_a   6.47511240
_cell_length_b   6.47511240
_cell_length_c   12.94369674
_cell_angle_alpha   82.98841217
_cell_angle_beta   82.98841217
_cell_angle_gamma   83.00086738
_symmetry_Int_Tables_number   1
_chemical_formula_structural   CePr3Fe34
_chemical_formula_sum   'Ce1 Pr3 Fe34'
_cell_volume   531.44450253
_cell_formula_units_Z   1
loop_
 _symmetry_equiv_pos_site_id
 _symmetry_equiv_pos_as_xyz
  1  'x, y, z'
loop_
 _atom_site_type_symbol
 _atom_site_label
 _atom_site_symmetry_multiplicity
 _atom_site_fract_x
 _atom_site_fract_y
 _atom_site_fract_z
 _atom_site_occupancy
  Ce  Ce0  1  0.34294000  0.34294000  0.67142400  1
  Pr  Pr1  1  0.34202700  0.34202700  0.17113800  1
  Pr  Pr2  1  0.65712400  0.65712400  0.82832200  1
  Pr  Pr3  1  0.65794800  0.65794900  0.32911700  1
  Fe  Fe4  1  0.09732400  0.09732400  0.54890500  1
  Fe  Fe5  1  0.09638300  0.09638300  0.04797400  1
  Fe  Fe6  1  0.90365700  0.90365700  0.95139000  1
  Fe  Fe7  1  0.90382700  0.90382700  0.45235300  1
  Fe  Fe8  1  0.99960000  0.99960000  0.74980000  1
  Fe  Fe9  1  0.00006000  0.00006000  0.25004100  1
  Fe  Fe10  1  0.99941800  0.49996600  0.50003200  1
  Fe  Fe11  1  0.00029500  0.49985300  0.99978400  1
  Fe  Fe12  1  0.49985300  0.00029500  0.99978400  1
  Fe  Fe13  1  0.49996600  0.99941800  0.50003200  1
  Fe  Fe14  1  0.70947800  0.28927600  0.50091300  1
  Fe  Fe15  1  0.71253600  0.28795500  0.99952400  1
  Fe  Fe16  1  0.28873400  0.00147700  0.85473000  1
  Fe  Fe17  1  0.28801400  0.99949100  0.35638100  1
  Fe  Fe18  1  0.00076300  0.71049700  0.64436100  1
  Fe  Fe19  1  0.00004700  0.71187800  0.14408300  1
  Fe  Fe20  1  0.71049700  0.00076300  0.64436100  1
  Fe  Fe21  1  0.71187800  0.00004700  0.14408300  1
  Fe  Fe22  1  0.00147700  0.28873400  0.85473000  1
  Fe  Fe23  1  0.99949100  0.28801400  0.35638100  1
  Fe  Fe24  1  0.28795500  0.71253600  0.99952400  1
  Fe  Fe25  1  0.28927600  0.70947800  0.50091300  1
  Fe  Fe26  1  0.65734800  0.65734800  0.57755000  1
  Fe  Fe27  1  0.65901300  0.65901300  0.07666900  1
  Fe  Fe28  1  0.65748200  0.15501300  0.82838100  1
  Fe  Fe29  1  0.65889500  0.15318300  0.32975300  1
  Fe  Fe30  1  0.15501300  0.65748200  0.82838100  1
  Fe  Fe31  1  0.15318300  0.65889500  0.32975300  1
  Fe  Fe32  1  0.34182900  0.34182900  0.92231000  1
  Fe  Fe33  1  0.34088300  0.34088300  0.42433100  1
  Fe  Fe34  1  0.34178400  0.84637000  0.67081000  1
  Fe  Fe35  1  0.34102900  0.84660100  0.17058600  1
  Fe  Fe36  1  0.84637000  0.34178400  0.67081000  1
  Fe  Fe37  1  0.84660100  0.34102900  0.17058600  1
