# generated using pymatgen
data_Cd5TeS4
_symmetry_space_group_name_H-M   'P 1'
_cell_length_a   4.29902507
_cell_length_b   4.28907000
_cell_length_c   35.08261472
_cell_angle_alpha   90.00000000
_cell_angle_beta   90.03834728
_cell_angle_gamma   60.07657179
_symmetry_Int_Tables_number   1
_chemical_formula_structural   Cd5TeS4
_chemical_formula_sum   'Cd10 Te2 S8'
_cell_volume   560.64783257
_cell_formula_units_Z   2
loop_
 _symmetry_equiv_pos_site_id
 _symmetry_equiv_pos_as_xyz
  1  'x, y, z'
loop_
 _atom_site_type_symbol
 _atom_site_label
 _atom_site_symmetry_multiplicity
 _atom_site_fract_x
 _atom_site_fract_y
 _atom_site_fract_z
 _atom_site_occupancy
  Cd  Cd0  1  0.66680100  0.66659900  0.10937900  1
  Cd  Cd1  1  0.66684200  0.66657900  0.30112100  1
  Cd  Cd2  1  0.66688800  0.66655600  0.49541500  1
  Cd  Cd3  1  0.66718300  0.66640800  0.68512200  1
  Cd  Cd4  1  0.66886000  0.66557000  0.89705900  1
  Cd  Cd5  1  0.33279800  0.33360100  0.01481200  1
  Cd  Cd6  1  0.33291100  0.33354400  0.20461000  1
  Cd  Cd7  1  0.33284300  0.33357900  0.39877800  1
  Cd  Cd8  1  0.33278700  0.33360700  0.59087400  1
  Cd  Cd9  1  0.33275300  0.33362300  0.80215900  1
  Te  Te10  1  0.33231400  0.33384300  0.72080100  1
  Te  Te11  1  0.33251100  0.33374400  0.93290700  1
  S  S12  1  0.66704100  0.66648000  0.03587800  1
  S  S13  1  0.66735900  0.66632000  0.22703300  1
  S  S14  1  0.66721300  0.66639300  0.42177200  1
  S  S15  1  0.66720500  0.66639800  0.61267900  1
  S  S16  1  0.66701700  0.66649100  0.82436800  1
  S  S17  1  0.33280100  0.33360000  0.13089700  1
  S  S18  1  0.33292700  0.33353600  0.32455800  1
  S  S19  1  0.33294500  0.33352800  0.51777600  1
