# generated using pymatgen
data_Fe74W13
_symmetry_space_group_name_H-M   'P 1'
_cell_length_a   7.68446917
_cell_length_b   7.68446917
_cell_length_c   19.33822649
_cell_angle_alpha   82.38990844
_cell_angle_beta   82.38990844
_cell_angle_gamma   109.47928093
_symmetry_Int_Tables_number   1
_chemical_formula_structural   Fe74W13
_chemical_formula_sum   'Fe74 W13'
_cell_volume   1047.87053439
_cell_formula_units_Z   1
loop_
 _symmetry_equiv_pos_site_id
 _symmetry_equiv_pos_as_xyz
  1  'x, y, z'
loop_
 _atom_site_type_symbol
 _atom_site_label
 _atom_site_symmetry_multiplicity
 _atom_site_fract_x
 _atom_site_fract_y
 _atom_site_fract_z
 _atom_site_occupancy
  Fe  Fe0  1  0.70925400  0.52341100  0.33320000  1
  Fe  Fe1  1  0.04200600  0.85688500  0.66666700  1
  Fe  Fe2  1  0.37578900  0.18994500  0.00013300  1
  Fe  Fe3  1  0.64541600  0.26987300  0.27002800  1
  Fe  Fe4  1  0.97944800  0.60349000  0.60327800  1
  Fe  Fe5  1  0.31195800  0.93678800  0.93698200  1
  Fe  Fe6  1  0.24877800  0.87323500  0.06330500  1
  Fe  Fe7  1  0.58227300  0.20710300  0.39635100  1
  Fe  Fe8  1  0.91605800  0.54010100  0.73005600  1
  Fe  Fe9  1  0.52341100  0.70925400  0.33320000  1
  Fe  Fe10  1  0.85688500  0.04200600  0.66666700  1
  Fe  Fe11  1  0.18994500  0.37578900  0.00013300  1
  Fe  Fe12  1  0.87323500  0.24877800  0.06330500  1
  Fe  Fe13  1  0.20710300  0.58227300  0.39635100  1
  Fe  Fe14  1  0.54010100  0.91605800  0.73005600  1
  Fe  Fe15  1  0.26987300  0.64541600  0.27002800  1
  Fe  Fe16  1  0.60349000  0.97944800  0.60327800  1
  Fe  Fe17  1  0.93678800  0.31195800  0.93698200  1
  Fe  Fe18  1  0.68654400  0.68654400  0.06179900  1
  Fe  Fe19  1  0.01963100  0.01963100  0.39492500  1
  Fe  Fe20  1  0.35301100  0.35301100  0.72868300  1
  Fe  Fe21  1  0.74957300  0.93943500  0.12517200  1
  Fe  Fe22  1  0.08317500  0.27306900  0.45845600  1
  Fe  Fe23  1  0.41570600  0.60587000  0.79187900  1
  Fe  Fe24  1  0.93943500  0.74957300  0.12517200  1
  Fe  Fe25  1  0.27306900  0.08317500  0.45845600  1
  Fe  Fe26  1  0.60587000  0.41570600  0.79187900  1
  Fe  Fe27  1  0.08167700  0.08167700  0.27153400  1
  Fe  Fe28  1  0.41502600  0.41502600  0.60465000  1
  Fe  Fe29  1  0.74789000  0.74789000  0.93840900  1
  Fe  Fe30  1  0.39794100  0.20807900  0.20816100  1
  Fe  Fe31  1  0.73108200  0.54091700  0.54145400  1
  Fe  Fe32  1  0.06485900  0.87496400  0.87487800  1
  Fe  Fe33  1  0.20807900  0.39794100  0.20816100  1
  Fe  Fe34  1  0.54091700  0.73108200  0.54145400  1
  Fe  Fe35  1  0.87496400  0.06485900  0.87487800  1
  Fe  Fe36  1  0.99998400  0.99998400  0.00009400  1
  Fe  Fe37  1  0.33341100  0.33341100  0.33323900  1
  Fe  Fe38  1  0.73536700  0.01129400  0.33328400  1
  Fe  Fe39  1  0.06713000  0.34364800  0.66666700  1
  Fe  Fe40  1  0.40198400  0.67791200  0.00004900  1
  Fe  Fe41  1  0.50924400  0.10738200  0.10719400  1
  Fe  Fe42  1  0.84297100  0.44085800  0.44080100  1
  Fe  Fe43  1  0.17556100  0.77463300  0.77404200  1
  Fe  Fe44  1  0.94977100  0.54790900  0.22614000  1
  Fe  Fe45  1  0.28293800  0.88201000  0.55929100  1
  Fe  Fe46  1  0.61710500  0.21499200  0.89253200  1
  Fe  Fe47  1  0.01129400  0.73536700  0.33328400  1
  Fe  Fe48  1  0.34364800  0.06713000  0.66666700  1
  Fe  Fe49  1  0.67791200  0.40198400  0.00004900  1
  Fe  Fe50  1  0.54790900  0.94977100  0.22614000  1
  Fe  Fe51  1  0.88201000  0.28293800  0.55929100  1
  Fe  Fe52  1  0.21499200  0.61710500  0.89253200  1
  Fe  Fe53  1  0.10738200  0.50924400  0.10719400  1
  Fe  Fe54  1  0.44085800  0.84297100  0.44080100  1
  Fe  Fe55  1  0.77463300  0.17556100  0.77404200  1
  Fe  Fe56  1  0.83926100  0.83926100  0.24131800  1
  Fe  Fe57  1  0.17308000  0.17308000  0.57567700  1
  Fe  Fe58  1  0.50596000  0.50596000  0.90747000  1
  Fe  Fe59  1  0.73197500  0.41020300  0.13400200  1
  Fe  Fe60  1  0.06568000  0.74237800  0.46734600  1
  Fe  Fe61  1  0.39879700  0.07738700  0.80047200  1
  Fe  Fe62  1  0.41020300  0.73197500  0.13400200  1
  Fe  Fe63  1  0.74237800  0.06568000  0.46734600  1
  Fe  Fe64  1  0.07738700  0.39879700  0.80047200  1
  Fe  Fe65  1  0.41391300  0.41391300  0.09201500  1
  Fe  Fe66  1  0.74676300  0.74676300  0.42586300  1
  Fe  Fe67  1  0.08209000  0.08209000  0.75765700  1
  Fe  Fe68  1  0.87753700  0.19931000  0.19933200  1
  Fe  Fe69  1  0.21119300  0.53260400  0.53286100  1
  Fe  Fe70  1  0.54305700  0.86635900  0.86598700  1
  Fe  Fe71  1  0.19931000  0.87753700  0.19933200  1
  Fe  Fe72  1  0.53260400  0.21119300  0.53286100  1
  Fe  Fe73  1  0.86635900  0.54305700  0.86598700  1
  W  W74  1  0.96622700  0.33349700  0.33313400  1
  W  W75  1  0.29490200  0.66662600  0.66666700  1
  W  W76  1  0.63269500  0.99996500  0.00019900  1
  W  W77  1  0.99996500  0.63269500  0.00019900  1
  W  W78  1  0.33349700  0.96622700  0.33313400  1
  W  W79  1  0.66662600  0.29490200  0.66666700  1
  W  W80  1  0.57795600  0.57795600  0.21115500  1
  W  W81  1  0.91459600  0.91459600  0.54251000  1
  W  W82  1  0.24420100  0.24420100  0.87796300  1
  W  W83  1  0.12244500  0.12244500  0.12217800  1
  W  W84  1  0.45549700  0.45549700  0.45537000  1
  W  W85  1  0.79043800  0.79043800  0.79082400  1
  W  W86  1  0.66704900  0.66704900  0.66666700  1
