# generated using pymatgen
data_CaYMn2O6
_symmetry_space_group_name_H-M   'P 1'
_cell_length_a   5.35469010
_cell_length_b   5.55372011
_cell_length_c   7.57726300
_cell_angle_alpha   89.99978066
_cell_angle_beta   90.00004406
_cell_angle_gamma   89.97758240
_symmetry_Int_Tables_number   1
_chemical_formula_structural   CaYMn2O6
_chemical_formula_sum   'Ca2 Y2 Mn4 O12'
_cell_volume   225.33604026
_cell_formula_units_Z   2
loop_
 _symmetry_equiv_pos_site_id
 _symmetry_equiv_pos_as_xyz
  1  'x, y, z'
loop_
 _atom_site_type_symbol
 _atom_site_label
 _atom_site_symmetry_multiplicity
 _atom_site_fract_x
 _atom_site_fract_y
 _atom_site_fract_z
 _atom_site_occupancy
  Ca  Ca0  1  0.51126700  0.55306900  0.25000200  1
  Ca  Ca1  1  0.01129400  0.94698200  0.75000000  1
  Y  Y2  1  0.98371800  0.06349400  0.24999800  1
  Y  Y3  1  0.48372200  0.43645500  0.75000300  1
  Mn  Mn4  1  0.99944600  0.50378000  0.00013800  1
  Mn  Mn5  1  0.49946700  0.99621400  0.50008800  1
  Mn  Mn6  1  0.99944900  0.50379300  0.49985500  1
  Mn  Mn7  1  0.49946400  0.99622600  0.99991400  1
  O  O8  1  0.80275300  0.80215500  0.04978300  1
  O  O9  1  0.70792000  0.29102700  0.45337600  1
  O  O10  1  0.20777100  0.20902900  0.54664300  1
  O  O11  1  0.30263700  0.69780300  0.95024200  1
  O  O12  1  0.20779000  0.20900100  0.95336000  1
  O  O13  1  0.30263800  0.69781300  0.54976700  1
  O  O14  1  0.80277000  0.80212900  0.45021800  1
  O  O15  1  0.70791900  0.29103800  0.04661400  1
  O  O16  1  0.39928600  0.97371000  0.25001600  1
  O  O17  1  0.08567300  0.46838500  0.24999200  1
  O  O18  1  0.58567000  0.03162700  0.74998800  1
  O  O19  1  0.89934700  0.52627000  0.75000500  1
