# generated using pymatgen
data_Ca5TiSn4(BO3)10
_symmetry_space_group_name_H-M   'P 1'
_cell_length_a   4.89728400
_cell_length_b   6.13013823
_cell_length_c   19.14534833
_cell_angle_alpha   97.42730276
_cell_angle_beta   97.33877121
_cell_angle_gamma   90.01573028
_symmetry_Int_Tables_number   1
_chemical_formula_structural   Ca5TiSn4(BO3)10
_chemical_formula_sum   'Ca5 Ti1 Sn4 B10 O30'
_cell_volume   565.18941901
_cell_formula_units_Z   1
loop_
 _symmetry_equiv_pos_site_id
 _symmetry_equiv_pos_as_xyz
  1  'x, y, z'
loop_
 _atom_site_type_symbol
 _atom_site_label
 _atom_site_symmetry_multiplicity
 _atom_site_fract_x
 _atom_site_fract_y
 _atom_site_fract_z
 _atom_site_occupancy
  Ca  Ca0  1  0.40166000  0.60042900  0.80192100  1
  Ca  Ca1  1  0.19998800  0.79996300  0.39997900  1
  Ca  Ca2  1  0.80001200  0.20003700  0.60002100  1
  Ca  Ca3  1  0.00000000  0.00000000  0.00000000  1
  Ca  Ca4  1  0.59834000  0.39957100  0.19807900  1
  Ti  Ti5  1  0.50000000  0.50000000  0.00000000  1
  Sn  Sn6  1  0.10036700  0.89969000  0.19981600  1
  Sn  Sn7  1  0.69997500  0.30010000  0.39989900  1
  Sn  Sn8  1  0.30002500  0.69990000  0.60010100  1
  Sn  Sn9  1  0.89963300  0.10031000  0.80018400  1
  B  B10  1  0.95496200  0.52335600  0.90688700  1
  B  B11  1  0.75213200  0.72638500  0.50429400  1
  B  B12  1  0.35188400  0.12655400  0.70432700  1
  B  B13  1  0.55038100  0.92095700  0.10318700  1
  B  B14  1  0.15200600  0.32639500  0.30414700  1
  B  B15  1  0.04503800  0.47664400  0.09311300  1
  B  B16  1  0.84799400  0.67360500  0.69585300  1
  B  B17  1  0.44961900  0.07904300  0.89681300  1
  B  B18  1  0.64811600  0.87344600  0.29567300  1
  B  B19  1  0.24786800  0.27361500  0.49570600  1
  O  O20  1  0.24448600  0.21407800  0.24421800  1
  O  O21  1  0.84419700  0.61432500  0.44430900  1
  O  O22  1  0.44414200  0.01446700  0.64437900  1
  O  O23  1  0.03571800  0.41613100  0.84449100  1
  O  O24  1  0.63344000  0.80083900  0.04350000  1
  O  O25  1  0.27126800  0.94478700  0.10807300  1
  O  O26  1  0.87155600  0.34236100  0.30796400  1
  O  O27  1  0.47207400  0.74225300  0.50832000  1
  O  O28  1  0.07185800  0.14206800  0.70847000  1
  O  O29  1  0.67820800  0.54185800  0.91479500  1
  O  O30  1  0.73956500  0.03601100  0.15512700  1
  O  O31  1  0.33817500  0.43973800  0.35711300  1
  O  O32  1  0.93861800  0.83986300  0.55713200  1
  O  O33  1  0.53786700  0.24021800  0.75725400  1
  O  O34  1  0.15513200  0.62997600  0.95760100  1
  O  O35  1  0.96428200  0.58386900  0.15550900  1
  O  O36  1  0.55585800  0.98553300  0.35562100  1
  O  O37  1  0.15580300  0.38567500  0.55569100  1
  O  O38  1  0.75551400  0.78592200  0.75578200  1
  O  O39  1  0.36656000  0.19916100  0.95650000  1
  O  O40  1  0.92814200  0.85793200  0.29153000  1
  O  O41  1  0.52792600  0.25774700  0.49168000  1
  O  O42  1  0.12844400  0.65763900  0.69203600  1
  O  O43  1  0.72873200  0.05521300  0.89192700  1
  O  O44  1  0.32179200  0.45814200  0.08520500  1
  O  O45  1  0.46213300  0.75978200  0.24274600  1
  O  O46  1  0.06138200  0.16013700  0.44286800  1
  O  O47  1  0.66182500  0.56026200  0.64288700  1
  O  O48  1  0.26043500  0.96398900  0.84487300  1
  O  O49  1  0.84486800  0.37002400  0.04239900  1
