# generated using pymatgen
data_Ca4ZrTi3(GeO5)4
_symmetry_space_group_name_H-M   'P 1'
_cell_length_a   6.83270900
_cell_length_b   8.07183812
_cell_length_c   8.08078236
_cell_angle_alpha   68.05942867
_cell_angle_beta   86.76720096
_cell_angle_gamma   87.05296284
_symmetry_Int_Tables_number   1
_chemical_formula_structural   Ca4ZrTi3(GeO5)4
_chemical_formula_sum   'Ca4 Zr1 Ti3 Ge4 O20'
_cell_volume   412.51664905
_cell_formula_units_Z   1
loop_
 _symmetry_equiv_pos_site_id
 _symmetry_equiv_pos_as_xyz
  1  'x, y, z'
loop_
 _atom_site_type_symbol
 _atom_site_label
 _atom_site_symmetry_multiplicity
 _atom_site_fract_x
 _atom_site_fract_y
 _atom_site_fract_z
 _atom_site_occupancy
  Ca  Ca0  1  0.62707600  0.19959400  0.54427400  1
  Ca  Ca1  1  0.11918300  0.69554900  0.05274300  1
  Ca  Ca2  1  0.88081700  0.30445100  0.94725700  1
  Ca  Ca3  1  0.37292400  0.80040600  0.45572600  1
  Zr  Zr4  1  0.50000000  0.00000000  0.00000000  1
  Ti  Ti5  1  0.00000000  0.50000000  0.50000000  1
  Ti  Ti6  1  0.75183400  0.74935600  0.74601600  1
  Ti  Ti7  1  0.24816600  0.25064400  0.25398400  1
  Ge  Ge8  1  0.88298000  0.94375300  0.30838400  1
  Ge  Ge9  1  0.37416100  0.44904700  0.80398000  1
  Ge  Ge10  1  0.62583900  0.55095300  0.19602000  1
  Ge  Ge11  1  0.11702000  0.05624700  0.69161600  1
  O  O12  1  0.44708300  0.72605500  0.16373100  1
  O  O13  1  0.94676600  0.23887100  0.65506100  1
  O  O14  1  0.70317600  0.90413500  0.48460900  1
  O  O15  1  0.20192300  0.40750300  0.98794400  1
  O  O16  1  0.05323400  0.76112900  0.34493900  1
  O  O17  1  0.55291700  0.27394500  0.83626900  1
  O  O18  1  0.79807700  0.59249700  0.01205600  1
  O  O19  1  0.29682400  0.09586500  0.51539100  1
  O  O20  1  0.48294500  0.65591700  0.76242700  1
  O  O21  1  0.98227700  0.15520500  0.26828900  1
  O  O22  1  0.21850500  0.01255300  0.90105400  1
  O  O23  1  0.73552700  0.51269200  0.40125500  1
  O  O24  1  0.01772300  0.84479500  0.73171100  1
  O  O25  1  0.51705500  0.34408300  0.23757300  1
  O  O26  1  0.26447300  0.48730800  0.59874500  1
  O  O27  1  0.78149500  0.98744700  0.09894600  1
  O  O28  1  0.87598200  0.55900800  0.68894900  1
  O  O29  1  0.36615400  0.05725800  0.20639100  1
  O  O30  1  0.63384600  0.94274200  0.79360900  1
  O  O31  1  0.12401800  0.44099200  0.31105100  1
