# generated using pymatgen
data_Ca8(DySe4)3
_symmetry_space_group_name_H-M   'P 1'
_cell_length_a   5.87490700
_cell_length_b   5.87490700
_cell_length_c   17.75311500
_cell_angle_alpha   90.00000000
_cell_angle_beta   90.00000000
_cell_angle_gamma   90.00000000
_symmetry_Int_Tables_number   1
_chemical_formula_structural   Ca8(DySe4)3
_chemical_formula_sum   'Ca8 Dy3 Se12'
_cell_volume   612.74046036
_cell_formula_units_Z   1
loop_
 _symmetry_equiv_pos_site_id
 _symmetry_equiv_pos_as_xyz
  1  'x, y, z'
loop_
 _atom_site_type_symbol
 _atom_site_label
 _atom_site_symmetry_multiplicity
 _atom_site_fract_x
 _atom_site_fract_y
 _atom_site_fract_z
 _atom_site_occupancy
  Ca  Ca0  1  0.00000000  0.00000000  0.33221700  1
  Ca  Ca1  1  0.00000000  0.50000000  0.50022200  1
  Ca  Ca2  1  0.00000000  0.00000000  0.66778300  1
  Ca  Ca3  1  0.00000000  0.50000000  0.83929300  1
  Ca  Ca4  1  0.50000000  0.00000000  0.16070700  1
  Ca  Ca5  1  0.50000000  0.50000000  0.33377900  1
  Ca  Ca6  1  0.50000000  0.00000000  0.49977800  1
  Ca  Ca7  1  0.50000000  0.50000000  0.66622100  1
  Dy  Dy8  1  0.00000000  0.50000000  0.15928600  1
  Dy  Dy9  1  0.50000000  0.50000000  0.00000000  1
  Dy  Dy10  1  0.50000000  0.00000000  0.84071400  1
  Se  Se11  1  0.50000000  0.50000000  0.16366600  1
  Se  Se12  1  0.50000000  0.00000000  0.33238000  1
  Se  Se13  1  0.00000000  0.00000000  0.16868500  1
  Se  Se14  1  0.50000000  0.50000000  0.50000000  1
  Se  Se15  1  0.50000000  0.00000000  0.67200900  1
  Se  Se16  1  0.00000000  0.50000000  0.32799100  1
  Se  Se17  1  0.00000000  0.00000000  0.50000000  1
  Se  Se18  1  0.50000000  0.50000000  0.83633400  1
  Se  Se19  1  0.50000000  0.00000000  0.99693600  1
  Se  Se20  1  0.00000000  0.50000000  0.66762000  1
  Se  Se21  1  0.00000000  0.00000000  0.83131500  1
  Se  Se22  1  0.00000000  0.50000000  0.00306400  1
