# generated using pymatgen
data_CaYb2(GeO3)4
_symmetry_space_group_name_H-M   'P 1'
_cell_length_a   10.17348320
_cell_length_b   10.17348320
_cell_length_c   5.12572500
_cell_angle_alpha   90.00000000
_cell_angle_beta   90.00000000
_cell_angle_gamma   90.04108975
_symmetry_Int_Tables_number   1
_chemical_formula_structural   CaYb2(GeO3)4
_chemical_formula_sum   'Ca2 Yb4 Ge8 O24'
_cell_volume   530.51117357
_cell_formula_units_Z   2
loop_
 _symmetry_equiv_pos_site_id
 _symmetry_equiv_pos_as_xyz
  1  'x, y, z'
loop_
 _atom_site_type_symbol
 _atom_site_label
 _atom_site_symmetry_multiplicity
 _atom_site_fract_x
 _atom_site_fract_y
 _atom_site_fract_z
 _atom_site_occupancy
  Ca  Ca0  1  0.50000000  0.00000000  0.50000000  1
  Ca  Ca1  1  0.00000000  0.50000000  0.50000000  1
  Yb  Yb2  1  0.50000000  0.50000000  0.50000000  1
  Yb  Yb3  1  0.00000000  0.00000000  0.50000000  1
  Yb  Yb4  1  0.25000000  0.25000000  0.50000000  1
  Yb  Yb5  1  0.75000000  0.75000000  0.50000000  1
  Ge  Ge6  1  0.97618000  0.24939100  0.99997200  1
  Ge  Ge7  1  0.02382000  0.75060900  0.00002800  1
  Ge  Ge8  1  0.47618000  0.74939100  0.00002800  1
  Ge  Ge9  1  0.52382000  0.25060900  0.99997200  1
  Ge  Ge10  1  0.25060900  0.52382000  0.00002800  1
  Ge  Ge11  1  0.74939100  0.47618000  0.99997200  1
  Ge  Ge12  1  0.75060900  0.02382000  0.99997200  1
  Ge  Ge13  1  0.24939100  0.97618000  0.00002800  1
  O  O14  1  0.32322100  0.06353800  0.25360700  1
  O  O15  1  0.67546400  0.56227400  0.25559800  1
  O  O16  1  0.82453600  0.93772600  0.25559800  1
  O  O17  1  0.17677900  0.43646200  0.25360700  1
  O  O18  1  0.67677900  0.93646200  0.74639300  1
  O  O19  1  0.32453600  0.43772600  0.74440200  1
  O  O20  1  0.17546400  0.06227400  0.74440200  1
  O  O21  1  0.82322100  0.56353800  0.74639300  1
  O  O22  1  0.43646200  0.17677900  0.74639300  1
  O  O23  1  0.93772600  0.82453600  0.74440200  1
  O  O24  1  0.56227400  0.67546400  0.74440200  1
  O  O25  1  0.06353800  0.32322100  0.74639300  1
  O  O26  1  0.56353800  0.82322100  0.25360700  1
  O  O27  1  0.06227400  0.17546400  0.25559800  1
  O  O28  1  0.43772600  0.32453600  0.25559800  1
  O  O29  1  0.93646200  0.67677900  0.25360700  1
  O  O30  1  0.87265300  0.37265300  0.15642800  1
  O  O31  1  0.12588400  0.87411600  0.15976900  1
  O  O32  1  0.37411600  0.62588400  0.15976900  1
  O  O33  1  0.62734700  0.12734700  0.15642800  1
  O  O34  1  0.12734700  0.62734700  0.84357200  1
  O  O35  1  0.87411600  0.12588400  0.84023100  1
  O  O36  1  0.62588400  0.37411600  0.84023100  1
  O  O37  1  0.37265300  0.87265300  0.84357200  1
