# generated using pymatgen
data_CaNdGaO4
_symmetry_space_group_name_H-M   'P 1'
_cell_length_a   6.61321302
_cell_length_b   6.61321302
_cell_length_c   5.53565900
_cell_angle_alpha   90.00000000
_cell_angle_beta   90.00000000
_cell_angle_gamma   131.65927074
_symmetry_Int_Tables_number   1
_chemical_formula_structural   CaNdGaO4
_chemical_formula_sum   'Ca2 Nd2 Ga2 O8'
_cell_volume   180.87536249
_cell_formula_units_Z   2
loop_
 _symmetry_equiv_pos_site_id
 _symmetry_equiv_pos_as_xyz
  1  'x, y, z'
loop_
 _atom_site_type_symbol
 _atom_site_label
 _atom_site_symmetry_multiplicity
 _atom_site_fract_x
 _atom_site_fract_y
 _atom_site_fract_z
 _atom_site_occupancy
  Ca  Ca0  1  0.60431300  0.39568700  0.51526200  1
  Ca  Ca1  1  0.39568700  0.60431300  0.01526200  1
  Nd  Nd2  1  0.88941900  0.11058100  0.48244400  1
  Nd  Nd3  1  0.11058100  0.88941900  0.98244400  1
  Ga  Ga4  1  0.74593700  0.25406300  0.99797600  1
  Ga  Ga5  1  0.25406300  0.74593700  0.49797600  1
  O  O6  1  0.58045300  0.41954700  0.94746300  1
  O  O7  1  0.92297900  0.07702100  0.05396400  1
  O  O8  1  0.41954700  0.58045300  0.44746300  1
  O  O9  1  0.07702100  0.92297900  0.55396400  1
  O  O10  1  0.98231800  0.51497200  0.25144500  1
  O  O11  1  0.01768200  0.48502800  0.75144500  1
  O  O12  1  0.51497200  0.98231800  0.75144500  1
  O  O13  1  0.48502800  0.01768200  0.25144500  1
