# generated using pymatgen
data_Ca5BC4Cl3
_symmetry_space_group_name_H-M   'P 1'
_cell_length_a   7.28253028
_cell_length_b   7.28253028
_cell_length_c   18.75016094
_cell_angle_alpha   89.55858930
_cell_angle_beta   89.55858930
_cell_angle_gamma   149.10149792
_symmetry_Int_Tables_number   1
_chemical_formula_structural   Ca5BC4Cl3
_chemical_formula_sum   'Ca10 B2 C8 Cl6'
_cell_volume   510.43948835
_cell_formula_units_Z   2
loop_
 _symmetry_equiv_pos_site_id
 _symmetry_equiv_pos_as_xyz
  1  'x, y, z'
loop_
 _atom_site_type_symbol
 _atom_site_label
 _atom_site_symmetry_multiplicity
 _atom_site_fract_x
 _atom_site_fract_y
 _atom_site_fract_z
 _atom_site_occupancy
  Ca  Ca0  1  0.84415000  0.15585000  0.25000000  1
  Ca  Ca1  1  0.15585000  0.84415000  0.75000000  1
  Ca  Ca2  1  0.05602600  0.94851100  0.14106100  1
  Ca  Ca3  1  0.94397400  0.05148900  0.85893900  1
  Ca  Ca4  1  0.05148900  0.94397400  0.35893900  1
  Ca  Ca5  1  0.94851100  0.05602600  0.64106100  1
  Ca  Ca6  1  0.61365500  0.33981400  0.93670600  1
  Ca  Ca7  1  0.38634500  0.66018700  0.06329400  1
  Ca  Ca8  1  0.66018700  0.38634500  0.56329400  1
  Ca  Ca9  1  0.33981300  0.61365500  0.43670600  1
  B  B10  1  0.46549800  0.53450200  0.25000000  1
  B  B11  1  0.53450200  0.46549800  0.75000000  1
  C  C12  1  0.54971800  0.44949700  0.82651300  1
  C  C13  1  0.45028200  0.55050300  0.17348700  1
  C  C14  1  0.55050300  0.45028200  0.67348700  1
  C  C15  1  0.44949700  0.54971800  0.32651300  1
  C  C16  1  0.98976100  0.91217600  0.98712600  1
  C  C17  1  0.91217600  0.98976100  0.48712600  1
  C  C18  1  0.01023900  0.08782400  0.01287400  1
  C  C19  1  0.08782400  0.01023900  0.51287400  1
  Cl  Cl20  1  0.71712100  0.28554200  0.08504100  1
  Cl  Cl21  1  0.28287900  0.71445800  0.91495900  1
  Cl  Cl22  1  0.71445800  0.28287900  0.41495900  1
  Cl  Cl23  1  0.28554200  0.71712100  0.58504100  1
  Cl  Cl24  1  0.19328200  0.80671800  0.25000000  1
  Cl  Cl25  1  0.80671800  0.19328200  0.75000000  1
