# generated using pymatgen
data_Ca4ZrTi3(SiO5)4
_symmetry_space_group_name_H-M   'P 1'
_cell_length_a   6.69346400
_cell_length_b   7.20981600
_cell_length_c   8.85891541
_cell_angle_alpha   89.97199152
_cell_angle_beta   90.31770876
_cell_angle_gamma   113.81647459
_symmetry_Int_Tables_number   1
_chemical_formula_structural   Ca4ZrTi3(SiO5)4
_chemical_formula_sum   'Ca4 Zr1 Ti3 Si4 O20'
_cell_volume   391.10651365
_cell_formula_units_Z   1
loop_
 _symmetry_equiv_pos_site_id
 _symmetry_equiv_pos_as_xyz
  1  'x, y, z'
loop_
 _atom_site_type_symbol
 _atom_site_label
 _atom_site_symmetry_multiplicity
 _atom_site_fract_x
 _atom_site_fract_y
 _atom_site_fract_z
 _atom_site_occupancy
  Ca  Ca0  1  0.50000200  0.25493600  0.66571200  1
  Ca  Ca1  1  0.00838200  0.25491600  0.17335700  1
  Ca  Ca2  1  0.49999800  0.74506400  0.33428800  1
  Ca  Ca3  1  0.99161800  0.74508400  0.82664300  1
  Zr  Zr4  1  0.50000000  0.00000000  0.00000000  1
  Ti  Ti5  1  0.00000000  0.00000000  0.50000000  1
  Ti  Ti6  1  0.50000000  0.50000000  0.00000000  1
  Ti  Ti7  1  0.00000000  0.50000000  0.50000000  1
  Si  Si8  1  0.49909900  0.74889600  0.67782200  1
  Si  Si9  1  0.99194600  0.74647300  0.18338200  1
  Si  Si10  1  0.50090100  0.25110400  0.32217800  1
  Si  Si11  1  0.00805400  0.25352700  0.81661800  1
  O  O12  1  0.81110500  0.58643500  0.06633300  1
  O  O13  1  0.31520700  0.58892200  0.56193700  1
  O  O14  1  0.82969300  0.09503300  0.93347200  1
  O  O15  1  0.31394300  0.09423200  0.43627100  1
  O  O16  1  0.18889500  0.41356500  0.93366700  1
  O  O17  1  0.68479300  0.41107800  0.43806300  1
  O  O18  1  0.17030700  0.90496700  0.06652800  1
  O  O19  1  0.68605700  0.90576800  0.56372900  1
  O  O20  1  0.60793700  0.12236000  0.22135600  1
  O  O21  1  0.10373500  0.11998100  0.70925500  1
  O  O22  1  0.60210600  0.62396500  0.78791300  1
  O  O23  1  0.09681900  0.61655400  0.28902600  1
  O  O24  1  0.39206300  0.87764000  0.77864400  1
  O  O25  1  0.89626500  0.88001900  0.29074500  1
  O  O26  1  0.39789400  0.37603500  0.21208700  1
  O  O27  1  0.90318100  0.38344600  0.71097400  1
  O  O28  1  0.49904300  0.73740400  0.08164300  1
  O  O29  1  0.00054000  0.74993100  0.56778900  1
  O  O30  1  0.50095700  0.26259600  0.91835700  1
  O  O31  1  0.99946000  0.25006900  0.43221100  1
