# generated using pymatgen
data_CaLaNbCoO6
_symmetry_space_group_name_H-M   'P 1'
_cell_length_a   5.56787922
_cell_length_b   11.48977251
_cell_length_c   7.98259672
_cell_angle_alpha   89.99039209
_cell_angle_beta   90.32584700
_cell_angle_gamma   90.02671541
_symmetry_Int_Tables_number   1
_chemical_formula_structural   CaLaNbCoO6
_chemical_formula_sum   'Ca4 La4 Nb4 Co4 O24'
_cell_volume   510.66765233
_cell_formula_units_Z   4
loop_
 _symmetry_equiv_pos_site_id
 _symmetry_equiv_pos_as_xyz
  1  'x, y, z'
loop_
 _atom_site_type_symbol
 _atom_site_label
 _atom_site_symmetry_multiplicity
 _atom_site_fract_x
 _atom_site_fract_y
 _atom_site_fract_z
 _atom_site_occupancy
  Ca  Ca0  1  0.48544200  0.27733400  0.25252000  1
  Ca  Ca1  1  0.48554200  0.77732600  0.25252000  1
  Ca  Ca2  1  0.98532200  0.47271900  0.75263200  1
  Ca  Ca3  1  0.98539800  0.97275500  0.75266400  1
  La  La4  1  0.51184100  0.22393600  0.74748800  1
  La  La5  1  0.51229800  0.72380600  0.74738500  1
  La  La6  1  0.01189800  0.02607600  0.24747200  1
  La  La7  1  0.01189100  0.52601600  0.24751500  1
  Nb  Nb8  1  0.99981300  0.25257300  0.49854500  1
  Nb  Nb9  1  0.00034300  0.75264400  0.49849500  1
  Nb  Nb10  1  0.49975300  0.49738200  0.99843100  1
  Nb  Nb11  1  0.49974700  0.99743800  0.99853100  1
  Co  Co12  1  0.00060900  0.74958300  0.00024100  1
  Co  Co13  1  0.50080600  0.50041600  0.50011200  1
  Co  Co14  1  0.00054900  0.24955500  0.00019400  1
  Co  Co15  1  0.50103400  0.00050300  0.50020300  1
  O  O16  1  0.29294200  0.15343500  0.45288200  1
  O  O17  1  0.29337000  0.65342700  0.45267300  1
  O  O18  1  0.79345800  0.09647400  0.95263600  1
  O  O19  1  0.79322200  0.59623000  0.95254800  1
  O  O20  1  0.70910300  0.35079900  0.54701000  1
  O  O21  1  0.70971600  0.85084100  0.54709100  1
  O  O22  1  0.20841200  0.39938700  0.04701900  1
  O  O23  1  0.20881200  0.89948200  0.04721400  1
  O  O24  1  0.19696500  0.39475900  0.44674000  1
  O  O25  1  0.19735400  0.89471600  0.44671400  1
  O  O26  1  0.69608500  0.35494200  0.94716000  1
  O  O27  1  0.69624500  0.85508100  0.94700100  1
  O  O28  1  0.80844200  0.10723600  0.55473100  1
  O  O29  1  0.80872000  0.60711100  0.55446700  1
  O  O30  1  0.30901100  0.14306500  0.05452800  1
  O  O31  1  0.30882000  0.64288100  0.05434700  1
  O  O32  1  0.59336200  0.48209300  0.24324800  1
  O  O33  1  0.59378900  0.98208100  0.24310600  1
  O  O34  1  0.09337800  0.26804900  0.74331800  1
  O  O35  1  0.09368400  0.76789200  0.74332700  1
  O  O36  1  0.40051400  0.01527800  0.75691700  1
  O  O37  1  0.40073100  0.51506300  0.75672100  1
  O  O38  1  0.90068200  0.23484600  0.25684100  1
  O  O39  1  0.90089600  0.73477000  0.25681200  1
