# generated using pymatgen
data_CaLaAl3O7
_symmetry_space_group_name_H-M   'P 1'
_cell_length_a   7.85963000
_cell_length_b   7.85963000
_cell_length_c   5.19517100
_cell_angle_alpha   90.00000000
_cell_angle_beta   90.00000000
_cell_angle_gamma   91.27437748
_symmetry_Int_Tables_number   1
_chemical_formula_structural   CaLaAl3O7
_chemical_formula_sum   'Ca2 La2 Al6 O14'
_cell_volume   320.84599067
_cell_formula_units_Z   2
loop_
 _symmetry_equiv_pos_site_id
 _symmetry_equiv_pos_as_xyz
  1  'x, y, z'
loop_
 _atom_site_type_symbol
 _atom_site_label
 _atom_site_symmetry_multiplicity
 _atom_site_fract_x
 _atom_site_fract_y
 _atom_site_fract_z
 _atom_site_occupancy
  Ca  Ca0  1  0.65980400  0.65980400  0.48536700  1
  Ca  Ca1  1  0.34019600  0.34019600  0.48536700  1
  La  La2  1  0.83482100  0.16517900  0.50791000  1
  La  La3  1  0.16517900  0.83482100  0.50791000  1
  Al  Al4  1  0.85332300  0.85332300  0.04142200  1
  Al  Al5  1  0.63970900  0.36029100  0.95771200  1
  Al  Al6  1  0.14667700  0.14667700  0.04142200  1
  Al  Al7  1  0.36029100  0.63970900  0.95771200  1
  Al  Al8  1  0.50000000  0.00000000  0.00484700  1
  Al  Al9  1  0.00000000  0.50000000  0.00484700  1
  O  O10  1  0.86070500  0.86070500  0.70496200  1
  O  O11  1  0.64253900  0.35746100  0.29325700  1
  O  O12  1  0.13929500  0.13929500  0.70496200  1
  O  O13  1  0.35746100  0.64253900  0.29325700  1
  O  O14  1  0.66276700  0.91322100  0.19748600  1
  O  O15  1  0.83821900  0.41019700  0.80667900  1
  O  O16  1  0.33723300  0.08677900  0.19748600  1
  O  O17  1  0.16178100  0.58980300  0.80667900  1
  O  O18  1  0.41019700  0.83821900  0.80667900  1
  O  O19  1  0.08677900  0.33723300  0.19748600  1
  O  O20  1  0.58980300  0.16178100  0.80667900  1
  O  O21  1  0.91322100  0.66276700  0.19748600  1
  O  O22  1  0.50000000  0.50000000  0.80933800  1
  O  O23  1  0.00000000  0.00000000  0.18304700  1
