# generated using pymatgen
data_CaCdS2
_symmetry_space_group_name_H-M   'P 1'
_cell_length_a   6.77152081
_cell_length_b   6.77152081
_cell_length_c   6.77152121
_cell_angle_alpha   34.37894741
_cell_angle_beta   34.37894741
_cell_angle_gamma   34.37895162
_symmetry_Int_Tables_number   1
_chemical_formula_structural   CaCdS2
_chemical_formula_sum   'Ca1 Cd1 S2'
_cell_volume   88.30288021
_cell_formula_units_Z   1
loop_
 _symmetry_equiv_pos_site_id
 _symmetry_equiv_pos_as_xyz
  1  'x, y, z'
loop_
 _atom_site_type_symbol
 _atom_site_label
 _atom_site_symmetry_multiplicity
 _atom_site_fract_x
 _atom_site_fract_y
 _atom_site_fract_z
 _atom_site_occupancy
  Ca  Ca0  1  0.00000000  0.00000000  0.00000000  1
  Cd  Cd1  1  0.50000000  0.50000000  0.50000000  1
  S  S2  1  0.24693900  0.24693900  0.24693900  1
  S  S3  1  0.75306100  0.75306100  0.75306100  1
