# generated using pymatgen
data_CaYb3(InGe2)2
_symmetry_space_group_name_H-M   'P 1'
_cell_length_a   7.25763565
_cell_length_b   7.25763565
_cell_length_c   4.49861000
_cell_angle_alpha   90.00000000
_cell_angle_beta   90.00000000
_cell_angle_gamma   90.20083977
_symmetry_Int_Tables_number   1
_chemical_formula_structural   CaYb3(InGe2)2
_chemical_formula_sum   'Ca1 Yb3 In2 Ge4'
_cell_volume   236.95506678
_cell_formula_units_Z   1
loop_
 _symmetry_equiv_pos_site_id
 _symmetry_equiv_pos_as_xyz
  1  'x, y, z'
loop_
 _atom_site_type_symbol
 _atom_site_label
 _atom_site_symmetry_multiplicity
 _atom_site_fract_x
 _atom_site_fract_y
 _atom_site_fract_z
 _atom_site_occupancy
  Ca  Ca0  1  0.82595900  0.17404100  0.00000000  1
  Yb  Yb1  1  0.17333000  0.82667000  0.00000000  1
  Yb  Yb2  1  0.67244800  0.67272800  0.00000000  1
  Yb  Yb3  1  0.32727200  0.32755200  0.00000000  1
  In  In4  1  0.49949200  0.99967600  0.50000000  1
  In  In5  1  0.00032400  0.50050800  0.50000000  1
  Ge  Ge6  1  0.37575600  0.62424400  0.50000000  1
  Ge  Ge7  1  0.62267400  0.37732600  0.50000000  1
  Ge  Ge8  1  0.12530100  0.12255700  0.50000000  1
  Ge  Ge9  1  0.87744300  0.87469900  0.50000000  1
