# generated using pymatgen
data_Ca6Co3RhO12
_symmetry_space_group_name_H-M   'P 1'
_cell_length_a   6.38298214
_cell_length_b   6.38298214
_cell_length_c   6.38298216
_cell_angle_alpha   91.76102806
_cell_angle_beta   91.76102806
_cell_angle_gamma   91.76101848
_symmetry_Int_Tables_number   1
_chemical_formula_structural   Ca6Co3RhO12
_chemical_formula_sum   'Ca6 Co3 Rh1 O12'
_cell_volume   259.68218988
_cell_formula_units_Z   1
loop_
 _symmetry_equiv_pos_site_id
 _symmetry_equiv_pos_as_xyz
  1  'x, y, z'
loop_
 _atom_site_type_symbol
 _atom_site_label
 _atom_site_symmetry_multiplicity
 _atom_site_fract_x
 _atom_site_fract_y
 _atom_site_fract_z
 _atom_site_occupancy
  Ca  Ca0  1  0.88079000  0.61764100  0.25399800  1
  Ca  Ca1  1  0.25399800  0.88079000  0.61764100  1
  Ca  Ca2  1  0.61764100  0.25399800  0.88079000  1
  Ca  Ca3  1  0.74600200  0.11921000  0.38235900  1
  Ca  Ca4  1  0.38235900  0.74600200  0.11921000  1
  Ca  Ca5  1  0.11921000  0.38235900  0.74600200  1
  Co  Co6  1  0.25614400  0.25614400  0.25614400  1
  Co  Co7  1  0.74385600  0.74385600  0.74385600  1
  Co  Co8  1  0.50000000  0.50000000  0.50000000  1
  Rh  Rh9  1  0.00000000  0.00000000  0.00000000  1
  O  O10  1  0.21199600  0.54014800  0.40868400  1
  O  O11  1  0.40868400  0.21199600  0.54014800  1
  O  O12  1  0.54014800  0.40868400  0.21199600  1
  O  O13  1  0.89769400  0.03289100  0.69857500  1
  O  O14  1  0.69857500  0.89769400  0.03289100  1
  O  O15  1  0.03289100  0.69857500  0.89769400  1
  O  O16  1  0.78800400  0.45985200  0.59131600  1
  O  O17  1  0.59131600  0.78800400  0.45985200  1
  O  O18  1  0.45985200  0.59131600  0.78800400  1
  O  O19  1  0.10230600  0.96710900  0.30142500  1
  O  O20  1  0.30142500  0.10230600  0.96710900  1
  O  O21  1  0.96710900  0.30142500  0.10230600  1
