# generated using pymatgen
data_Ca4Si3(BO4)5
_symmetry_space_group_name_H-M   'P 1'
_cell_length_a   4.95511400
_cell_length_b   7.64003451
_cell_length_c   9.46812334
_cell_angle_alpha   90.02989486
_cell_angle_beta   91.91023066
_cell_angle_gamma   90.13594950
_symmetry_Int_Tables_number   1
_chemical_formula_structural   Ca4Si3(BO4)5
_chemical_formula_sum   'Ca4 Si3 B5 O20'
_cell_volume   358.23677207
_cell_formula_units_Z   1
loop_
 _symmetry_equiv_pos_site_id
 _symmetry_equiv_pos_as_xyz
  1  'x, y, z'
loop_
 _atom_site_type_symbol
 _atom_site_label
 _atom_site_symmetry_multiplicity
 _atom_site_fract_x
 _atom_site_fract_y
 _atom_site_fract_z
 _atom_site_occupancy
  Ca  Ca0  1  0.99750400  0.37872400  0.82416100  1
  Ca  Ca1  1  0.00269700  0.88491300  0.67353000  1
  Ca  Ca2  1  0.00388000  0.61050300  0.17404100  1
  Ca  Ca3  1  0.99525400  0.11884500  0.33260900  1
  Si  Si4  1  0.52485700  0.74337000  0.91073200  1
  Si  Si5  1  0.53025100  0.75586000  0.41395400  1
  Si  Si6  1  0.47134000  0.25648300  0.08584000  1
  B  B7  1  0.54805600  0.09990400  0.82060900  1
  B  B8  1  0.44225300  0.59062300  0.66785100  1
  B  B9  1  0.43300100  0.90657200  0.16965000  1
  B  B10  1  0.55958800  0.39896700  0.33757300  1
  B  B11  1  0.49442400  0.25205600  0.58718700  1
  O  O12  1  0.26975200  0.12799100  0.55867800  1
  O  O13  1  0.76576500  0.60661500  0.95029300  1
  O  O14  1  0.76142500  0.89839100  0.45450600  1
  O  O15  1  0.24301400  0.40174100  0.04717700  1
  O  O16  1  0.25524400  0.10019200  0.80001200  1
  O  O17  1  0.73542000  0.60228800  0.69534400  1
  O  O18  1  0.72819300  0.90124400  0.19646200  1
  O  O19  1  0.26718700  0.39454900  0.30951400  1
  O  O20  1  0.35840300  0.40668400  0.64943000  1
  O  O21  1  0.65770900  0.91985100  0.83940900  1
  O  O22  1  0.67165200  0.57821400  0.35278200  1
  O  O23  1  0.32184000  0.08193300  0.14907600  1
  O  O24  1  0.64223600  0.20636700  0.94503200  1
  O  O25  1  0.34857800  0.70422200  0.55080900  1
  O  O26  1  0.35228800  0.79233600  0.04989600  1
  O  O27  1  0.63812400  0.28800000  0.45809600  1
  O  O28  1  0.68132900  0.17557900  0.69515400  1
  O  O29  1  0.30089300  0.65787400  0.79495800  1
  O  O30  1  0.30129800  0.83253200  0.29766000  1
  O  O31  1  0.69654200  0.32657600  0.20797500  1
