# generated using pymatgen
data_CaLaFeO4
_symmetry_space_group_name_H-M   'P 1'
_cell_length_a   6.78647762
_cell_length_b   6.78647762
_cell_length_c   5.50738400
_cell_angle_alpha   90.00000000
_cell_angle_beta   90.00000000
_cell_angle_gamma   132.07167032
_symmetry_Int_Tables_number   1
_chemical_formula_structural   CaLaFeO4
_chemical_formula_sum   'Ca2 La2 Fe2 O8'
_cell_volume   188.28594274
_cell_formula_units_Z   2
loop_
 _symmetry_equiv_pos_site_id
 _symmetry_equiv_pos_as_xyz
  1  'x, y, z'
loop_
 _atom_site_type_symbol
 _atom_site_label
 _atom_site_symmetry_multiplicity
 _atom_site_fract_x
 _atom_site_fract_y
 _atom_site_fract_z
 _atom_site_occupancy
  Ca  Ca0  1  0.89540900  0.10459100  0.25000000  1
  Ca  Ca1  1  0.10459100  0.89540900  0.75000000  1
  La  La2  1  0.39175800  0.60824200  0.75000000  1
  La  La3  1  0.60824200  0.39175800  0.25000000  1
  Fe  Fe4  1  0.24582600  0.75417400  0.25000000  1
  Fe  Fe5  1  0.75417400  0.24582600  0.75000000  1
  O  O6  1  0.07960100  0.92039900  0.25000000  1
  O  O7  1  0.57765800  0.42234200  0.75000000  1
  O  O8  1  0.42234200  0.57765800  0.25000000  1
  O  O9  1  0.92039900  0.07960100  0.75000000  1
  O  O10  1  0.53571800  0.02921400  0.03260900  1
  O  O11  1  0.97078600  0.46428200  0.46739100  1
  O  O12  1  0.46428200  0.97078600  0.53260900  1
  O  O13  1  0.02921400  0.53571800  0.96739100  1
