# generated using pymatgen
data_CdFe3(SnS4)2
_symmetry_space_group_name_H-M   'P 1'
_cell_length_a   7.27210070
_cell_length_b   7.27210070
_cell_length_c   7.27210070
_cell_angle_alpha   121.25238300
_cell_angle_beta   118.75586454
_cell_angle_gamma   90.00645616
_symmetry_Int_Tables_number   1
_chemical_formula_structural   CdFe3(SnS4)2
_chemical_formula_sum   'Cd1 Fe3 Sn2 S8'
_cell_volume   271.75643906
_cell_formula_units_Z   1
loop_
 _symmetry_equiv_pos_site_id
 _symmetry_equiv_pos_as_xyz
  1  'x, y, z'
loop_
 _atom_site_type_symbol
 _atom_site_label
 _atom_site_symmetry_multiplicity
 _atom_site_fract_x
 _atom_site_fract_y
 _atom_site_fract_z
 _atom_site_occupancy
  Cd  Cd0  1  0.22455800  0.72455800  0.50000000  1
  Fe  Fe1  1  0.00394800  0.00394800  0.00000000  1
  Fe  Fe2  1  0.62812000  0.37825000  0.75012900  1
  Fe  Fe3  1  0.62812000  0.87799100  0.24987100  1
  Sn  Sn4  1  0.61950600  0.37356600  0.24594000  1
  Sn  Sn5  1  0.12762500  0.37356600  0.75406000  1
  S  S6  1  0.85547000  0.09755200  0.24208200  1
  S  S7  1  0.85547000  0.61338700  0.75791800  1
  S  S8  1  0.84104600  0.12541300  0.71563300  1
  S  S9  1  0.40978000  0.12541300  0.28436700  1
  S  S10  1  0.40629400  0.65900800  0.25271400  1
  S  S11  1  0.40629400  0.15358000  0.74728600  1
  S  S12  1  0.42827600  0.62188400  0.80639200  1
  S  S13  1  0.81549100  0.62188400  0.19360800  1
