# generated using pymatgen
data_Ce2Cu3Sb4
_symmetry_space_group_name_H-M   'P 1'
_cell_length_a   4.49351800
_cell_length_b   4.49351800
_cell_length_c   10.12344500
_cell_angle_alpha   90.00000000
_cell_angle_beta   90.00000000
_cell_angle_gamma   90.00000000
_symmetry_Int_Tables_number   1
_chemical_formula_structural   Ce2Cu3Sb4
_chemical_formula_sum   'Ce2 Cu3 Sb4'
_cell_volume   204.40960507
_cell_formula_units_Z   1
loop_
 _symmetry_equiv_pos_site_id
 _symmetry_equiv_pos_as_xyz
  1  'x, y, z'
loop_
 _atom_site_type_symbol
 _atom_site_label
 _atom_site_symmetry_multiplicity
 _atom_site_fract_x
 _atom_site_fract_y
 _atom_site_fract_z
 _atom_site_occupancy
  Ce  Ce0  1  0.50000000  0.50000000  0.23983400  1
  Ce  Ce1  1  0.00000000  0.00000000  0.74680200  1
  Cu  Cu2  1  0.50000000  0.00000000  0.00102400  1
  Cu  Cu3  1  0.00000000  0.50000000  0.00102400  1
  Cu  Cu4  1  0.50000000  0.50000000  0.62135400  1
  Sb  Sb5  1  0.50000000  0.00000000  0.48585200  1
  Sb  Sb6  1  0.00000000  0.50000000  0.48585200  1
  Sb  Sb7  1  0.50000000  0.50000000  0.86678100  1
  Sb  Sb8  1  0.00000000  0.00000000  0.15147900  1
