# generated using pymatgen
data_Ca5P3O12F
_symmetry_space_group_name_H-M   'P 1'
_cell_length_a   9.47533181
_cell_length_b   9.47533181
_cell_length_c   6.93964600
_cell_angle_alpha   90.00000000
_cell_angle_beta   90.00000000
_cell_angle_gamma   119.99999866
_symmetry_Int_Tables_number   1
_chemical_formula_structural   Ca5P3O12F
_chemical_formula_sum   'Ca10 P6 O24 F2'
_cell_volume   539.58119900
_cell_formula_units_Z   2
loop_
 _symmetry_equiv_pos_site_id
 _symmetry_equiv_pos_as_xyz
  1  'x, y, z'
loop_
 _atom_site_type_symbol
 _atom_site_label
 _atom_site_symmetry_multiplicity
 _atom_site_fract_x
 _atom_site_fract_y
 _atom_site_fract_z
 _atom_site_occupancy
  Ca  Ca0  1  0.66666700  0.33333300  0.50014000  1
  Ca  Ca1  1  0.33333300  0.66666700  0.00014000  1
  Ca  Ca2  1  0.33333300  0.66666700  0.49983600  1
  Ca  Ca3  1  0.66666700  0.33333300  0.99983600  1
  Ca  Ca4  1  0.99584600  0.24334900  0.75038800  1
  Ca  Ca5  1  0.75665100  0.75249800  0.75038800  1
  Ca  Ca6  1  0.24750200  0.00415400  0.75038800  1
  Ca  Ca7  1  0.00415400  0.75665100  0.25038800  1
  Ca  Ca8  1  0.24334900  0.24750200  0.25038800  1
  Ca  Ca9  1  0.75249800  0.99584600  0.25038800  1
  P  P10  1  0.36942300  0.39779000  0.75016600  1
  P  P11  1  0.60221000  0.97163300  0.75016600  1
  P  P12  1  0.02836700  0.63057700  0.75016600  1
  P  P13  1  0.63057700  0.60221000  0.25016600  1
  P  P14  1  0.39779000  0.02836700  0.25016600  1
  P  P15  1  0.97163300  0.36942300  0.25016600  1
  O  O16  1  0.48532600  0.32669400  0.75004300  1
  O  O17  1  0.67330600  0.15863100  0.75004300  1
  O  O18  1  0.84136900  0.51467400  0.75004300  1
  O  O19  1  0.51467400  0.67330600  0.25004300  1
  O  O20  1  0.32669400  0.84136900  0.25004300  1
  O  O21  1  0.15863100  0.48532600  0.25004300  1
  O  O22  1  0.25679800  0.34007000  0.57028100  1
  O  O23  1  0.65993000  0.91672800  0.57028100  1
  O  O24  1  0.08327200  0.74320200  0.57028100  1
  O  O25  1  0.74320200  0.65993000  0.07028100  1
  O  O26  1  0.34007000  0.08327200  0.07028100  1
  O  O27  1  0.91672800  0.25679800  0.07028100  1
  O  O28  1  0.74280900  0.65928100  0.43023900  1
  O  O29  1  0.34071900  0.08352700  0.43023900  1
  O  O30  1  0.91647300  0.25719100  0.43023900  1
  O  O31  1  0.25719100  0.34071900  0.93023900  1
  O  O32  1  0.65928100  0.91647300  0.93023900  1
  O  O33  1  0.08352700  0.74280900  0.93023900  1
  O  O34  1  0.46674300  0.58779900  0.74986300  1
  O  O35  1  0.41220100  0.87894400  0.74986300  1
  O  O36  1  0.12105600  0.53325700  0.74986300  1
  O  O37  1  0.53325700  0.41220100  0.24986300  1
  O  O38  1  0.58779900  0.12105600  0.24986300  1
  O  O39  1  0.87894400  0.46674300  0.24986300  1
  F  F40  1  0.00000000  0.00000000  0.76708400  1
  F  F41  1  0.00000000  0.00000000  0.26708400  1
