# generated using pymatgen
data_Ce2Fe17C
_symmetry_space_group_name_H-M   'P 1'
_cell_length_a   6.47467078
_cell_length_b   6.47467078
_cell_length_c   6.48733668
_cell_angle_alpha   83.32950826
_cell_angle_beta   83.32950826
_cell_angle_gamma   83.06727879
_symmetry_Int_Tables_number   1
_chemical_formula_structural   Ce2Fe17C
_chemical_formula_sum   'Ce2 Fe17 C1'
_cell_volume   266.69942020
_cell_formula_units_Z   1
loop_
 _symmetry_equiv_pos_site_id
 _symmetry_equiv_pos_as_xyz
  1  'x, y, z'
loop_
 _atom_site_type_symbol
 _atom_site_label
 _atom_site_symmetry_multiplicity
 _atom_site_fract_x
 _atom_site_fract_y
 _atom_site_fract_z
 _atom_site_occupancy
  Ce  Ce0  1  0.33516100  0.33516100  0.35515900  1
  Ce  Ce1  1  0.66483900  0.66483900  0.64484100  1
  Fe  Fe2  1  0.71579900  0.28420100  0.00000000  1
  Fe  Fe3  1  0.28754800  0.99950100  0.71352700  1
  Fe  Fe4  1  0.00049900  0.71245200  0.28647300  1
  Fe  Fe5  1  0.71245200  0.00049900  0.28647300  1
  Fe  Fe6  1  0.99950100  0.28754900  0.71352700  1
  Fe  Fe7  1  0.28420100  0.71579900  0.00000000  1
  Fe  Fe8  1  0.00000000  0.00000000  0.50000000  1
  Fe  Fe9  1  0.00000000  0.50000000  0.00000000  1
  Fe  Fe10  1  0.50000000  0.00000000  0.00000000  1
  Fe  Fe11  1  0.65602100  0.65602100  0.14737100  1
  Fe  Fe12  1  0.65731200  0.15223300  0.65663200  1
  Fe  Fe13  1  0.15223300  0.65731200  0.65663200  1
  Fe  Fe14  1  0.34397900  0.34397900  0.85262900  1
  Fe  Fe15  1  0.34268800  0.84776700  0.34336800  1
  Fe  Fe16  1  0.84776700  0.34268800  0.34336800  1
  Fe  Fe17  1  0.09604800  0.09604800  0.09688200  1
  Fe  Fe18  1  0.90395200  0.90395200  0.90311800  1
  C  C19  1  0.50000000  0.50000000  0.00000000  1
