# generated using pymatgen
data_Ca2MnO3
_symmetry_space_group_name_H-M   'P 1'
_cell_length_a   3.36131411
_cell_length_b   14.07542500
_cell_length_c   6.72262963
_cell_angle_alpha   90.00000000
_cell_angle_beta   90.00000000
_cell_angle_gamma   90.00000000
_symmetry_Int_Tables_number   1
_chemical_formula_structural   Ca2MnO3
_chemical_formula_sum   'Ca8 Mn4 O12'
_cell_volume   318.06054651
_cell_formula_units_Z   4
loop_
 _symmetry_equiv_pos_site_id
 _symmetry_equiv_pos_as_xyz
  1  'x, y, z'
loop_
 _atom_site_type_symbol
 _atom_site_label
 _atom_site_symmetry_multiplicity
 _atom_site_fract_x
 _atom_site_fract_y
 _atom_site_fract_z
 _atom_site_occupancy
  Ca  Ca0  1  0.50000100  0.16264900  0.25000000  1
  Ca  Ca1  1  0.50000100  0.16264900  0.75000000  1
  Ca  Ca2  1  0.00000100  0.66264900  0.50000000  1
  Ca  Ca3  1  0.00000100  0.66264900  0.00000000  1
  Ca  Ca4  1  0.00000000  0.33735100  0.00000000  1
  Ca  Ca5  1  0.00000000  0.33735100  0.50000000  1
  Ca  Ca6  1  0.50000000  0.83735100  0.25000000  1
  Ca  Ca7  1  0.50000000  0.83735100  0.75000000  1
  Mn  Mn8  1  0.00000000  0.00000000  0.50000000  1
  Mn  Mn9  1  0.50000000  0.50000000  0.25000000  1
  Mn  Mn10  1  0.00000000  0.00000000  0.00000000  1
  Mn  Mn11  1  0.50000000  0.50000000  0.75000000  1
  O  O12  1  0.50000000  0.00000000  0.25000000  1
  O  O13  1  0.50000000  0.00000000  0.75000000  1
  O  O14  1  0.00000000  0.50000000  0.50000000  1
  O  O15  1  0.00000000  0.50000000  0.00000000  1
  O  O16  1  0.00000100  0.16133200  0.00000000  1
  O  O17  1  0.00000100  0.16133200  0.50000000  1
  O  O18  1  0.50000100  0.66133200  0.25000000  1
  O  O19  1  0.50000100  0.66133200  0.75000000  1
  O  O20  1  0.50000000  0.33866800  0.25000000  1
  O  O21  1  0.50000000  0.33866800  0.75000000  1
  O  O22  1  0.00000000  0.83866800  0.50000000  1
  O  O23  1  0.00000000  0.83866800  0.00000000  1
