# generated using pymatgen
data_Eu2Ti2O5
_symmetry_space_group_name_H-M   'P 1'
_cell_length_a   8.74100926
_cell_length_b   8.74100926
_cell_length_c   8.74100926
_cell_angle_alpha   142.99235441
_cell_angle_beta   142.83870391
_cell_angle_gamma   53.45219041
_symmetry_Int_Tables_number   1
_chemical_formula_structural   Eu2Ti2O5
_chemical_formula_sum   'Eu4 Ti4 O10'
_cell_volume   241.29006600
_cell_formula_units_Z   2
loop_
 _symmetry_equiv_pos_site_id
 _symmetry_equiv_pos_as_xyz
  1  'x, y, z'
loop_
 _atom_site_type_symbol
 _atom_site_label
 _atom_site_symmetry_multiplicity
 _atom_site_fract_x
 _atom_site_fract_y
 _atom_site_fract_z
 _atom_site_occupancy
  Eu  Eu0  1  0.87451800  0.38135400  0.49456200  1
  Eu  Eu1  1  0.12548200  0.62004400  0.50683600  1
  Eu  Eu2  1  0.38679200  0.88135400  0.50683600  1
  Eu  Eu3  1  0.61320800  0.12004400  0.49456200  1
  Ti  Ti4  1  0.00000000  0.00245700  0.00245700  1
  Ti  Ti5  1  0.50000000  0.50245700  0.00245700  1
  Ti  Ti6  1  0.75881600  0.76599800  0.02481400  1
  Ti  Ti7  1  0.24118400  0.26599800  0.00718200  1
  O  O8  1  0.76067200  0.76388100  0.50392300  1
  O  O9  1  0.23932800  0.74325100  0.00320900  1
  O  O10  1  0.75995800  0.26388100  0.00320900  1
  O  O11  1  0.24004200  0.24325100  0.50392300  1
  O  O12  1  0.82725800  0.87980400  0.96282100  1
  O  O13  1  0.17274200  0.13556300  0.05254600  1
  O  O14  1  0.41698300  0.37980400  0.05254600  1
  O  O15  1  0.58301700  0.63556300  0.96282100  1
  O  O16  1  0.97349000  0.04364900  0.51713800  1
  O  O17  1  0.02651000  0.54364900  0.07015900  1
