# generated using pymatgen
data_Cd3Co2(CN)12
_symmetry_space_group_name_H-M   'P 1'
_cell_length_a   7.59768200
_cell_length_b   7.59768200
_cell_length_c   10.75716300
_cell_angle_alpha   90.00000000
_cell_angle_beta   90.00000000
_cell_angle_gamma   90.00000000
_symmetry_Int_Tables_number   1
_chemical_formula_structural   Cd3Co2(CN)12
_chemical_formula_sum   'Cd3 Co2 C12 N12'
_cell_volume   620.95477910
_cell_formula_units_Z   1
loop_
 _symmetry_equiv_pos_site_id
 _symmetry_equiv_pos_as_xyz
  1  'x, y, z'
loop_
 _atom_site_type_symbol
 _atom_site_label
 _atom_site_symmetry_multiplicity
 _atom_site_fract_x
 _atom_site_fract_y
 _atom_site_fract_z
 _atom_site_occupancy
  Cd  Cd0  1  0.50000000  0.00000000  0.25636000  1
  Cd  Cd1  1  0.00000000  0.50000000  0.74364000  1
  Cd  Cd2  1  0.50000000  0.50000000  0.00000000  1
  Co  Co3  1  0.50000000  0.00000000  0.74940000  1
  Co  Co4  1  0.00000000  0.50000000  0.25060000  1
  C  C5  1  0.50000000  0.00000000  0.92288400  1
  C  C6  1  0.00000000  0.50000000  0.42425500  1
  C  C7  1  0.17450400  0.32684700  0.24983100  1
  C  C8  1  0.67315300  0.82549600  0.75016900  1
  C  C9  1  0.82549600  0.32684700  0.24983100  1
  C  C10  1  0.32684700  0.82549600  0.75016900  1
  C  C11  1  0.50000000  0.00000000  0.57574500  1
  C  C12  1  0.00000000  0.50000000  0.07711600  1
  C  C13  1  0.82549600  0.67315300  0.24983100  1
  C  C14  1  0.32684700  0.17450400  0.75016900  1
  C  C15  1  0.17450400  0.67315300  0.24983100  1
  C  C16  1  0.67315300  0.17450400  0.75016900  1
  N  N17  1  0.50000000  0.00000000  0.03197100  1
  N  N18  1  0.00000000  0.50000000  0.53257000  1
  N  N19  1  0.28614700  0.22084000  0.24554900  1
  N  N20  1  0.77916000  0.71385300  0.75445100  1
  N  N21  1  0.71385300  0.22084000  0.24554900  1
  N  N22  1  0.22084000  0.71385300  0.75445100  1
  N  N23  1  0.50000000  0.00000000  0.46743000  1
  N  N24  1  0.00000000  0.50000000  0.96802900  1
  N  N25  1  0.71385300  0.77916000  0.24554900  1
  N  N26  1  0.22084000  0.28614700  0.75445100  1
  N  N27  1  0.28614700  0.77916000  0.24554900  1
  N  N28  1  0.77916000  0.28614700  0.75445100  1
