# generated using pymatgen
data_Ca2CuAg
_symmetry_space_group_name_H-M   'P 1'
_cell_length_a   5.95423824
_cell_length_b   5.95423824
_cell_length_c   4.53527800
_cell_angle_alpha   90.00000000
_cell_angle_beta   90.00000000
_cell_angle_gamma   139.69820624
_symmetry_Int_Tables_number   1
_chemical_formula_structural   Ca2CuAg
_chemical_formula_sum   'Ca2 Cu1 Ag1'
_cell_volume   104.00051970
_cell_formula_units_Z   1
loop_
 _symmetry_equiv_pos_site_id
 _symmetry_equiv_pos_as_xyz
  1  'x, y, z'
loop_
 _atom_site_type_symbol
 _atom_site_label
 _atom_site_symmetry_multiplicity
 _atom_site_fract_x
 _atom_site_fract_y
 _atom_site_fract_z
 _atom_site_occupancy
  Ca  Ca0  1  0.14132400  0.85867600  0.00000000  1
  Ca  Ca1  1  0.85818900  0.14181100  0.50000000  1
  Cu  Cu2  1  0.56876700  0.43123300  0.50000000  1
  Ag  Ag3  1  0.43172000  0.56828000  0.00000000  1
