# generated using pymatgen
data_Ce2NiSn2Pt
_symmetry_space_group_name_H-M   'P 1'
_cell_length_a   4.57704600
_cell_length_b   7.38146200
_cell_length_c   7.91619100
_cell_angle_alpha   90.00000000
_cell_angle_beta   90.00000000
_cell_angle_gamma   90.00000000
_symmetry_Int_Tables_number   1
_chemical_formula_structural   Ce2NiSn2Pt
_chemical_formula_sum   'Ce4 Ni2 Sn4 Pt2'
_cell_volume   267.45081751
_cell_formula_units_Z   2
loop_
 _symmetry_equiv_pos_site_id
 _symmetry_equiv_pos_as_xyz
  1  'x, y, z'
loop_
 _atom_site_type_symbol
 _atom_site_label
 _atom_site_symmetry_multiplicity
 _atom_site_fract_x
 _atom_site_fract_y
 _atom_site_fract_z
 _atom_site_occupancy
  Ce  Ce0  1  0.50000000  0.48406400  0.55337000  1
  Ce  Ce1  1  0.50000000  0.98406400  0.44663000  1
  Ce  Ce2  1  0.00000000  0.51264200  0.94527100  1
  Ce  Ce3  1  0.00000000  0.01264200  0.05472900  1
  Ni  Ni4  1  0.00000000  0.79310700  0.66236800  1
  Ni  Ni5  1  0.00000000  0.29310700  0.33763200  1
  Sn  Sn6  1  0.50000000  0.31674900  0.17488200  1
  Sn  Sn7  1  0.50000000  0.81674900  0.82511800  1
  Sn  Sn8  1  0.00000000  0.67557200  0.34572000  1
  Sn  Sn9  1  0.00000000  0.17557200  0.65428000  1
  Pt  Pt10  1  0.50000000  0.21786600  0.84027100  1
  Pt  Pt11  1  0.50000000  0.71786600  0.15972900  1
