# generated using pymatgen
data_BeAlSiN3
_symmetry_space_group_name_H-M   'P 1'
_cell_length_a   5.14681784
_cell_length_b   5.14681784
_cell_length_c   5.63305972
_cell_angle_alpha   62.94658872
_cell_angle_beta   62.94658872
_cell_angle_gamma   59.98851049
_symmetry_Int_Tables_number   1
_chemical_formula_structural   BeAlSiN3
_chemical_formula_sum   'Be2 Al2 Si2 N6'
_cell_volume   109.96039869
_cell_formula_units_Z   2
loop_
 _symmetry_equiv_pos_site_id
 _symmetry_equiv_pos_as_xyz
  1  'x, y, z'
loop_
 _atom_site_type_symbol
 _atom_site_label
 _atom_site_symmetry_multiplicity
 _atom_site_fract_x
 _atom_site_fract_y
 _atom_site_fract_z
 _atom_site_occupancy
  Be  Be0  1  0.83030100  0.66219600  0.50672800  1
  Be  Be1  1  0.66219600  0.83030100  0.00672800  1
  Al  Al2  1  0.50324700  0.33624100  0.49224600  1
  Al  Al3  1  0.33624100  0.50324700  0.99224600  1
  Si  Si4  1  0.17181300  0.00256000  0.49122400  1
  Si  Si5  1  0.00256000  0.17181300  0.99122400  1
  N  N6  1  0.72253300  0.53676400  0.88565400  1
  N  N7  1  0.02828600  0.89659000  0.86534100  1
  N  N8  1  0.37123700  0.18823900  0.88380700  1
  N  N9  1  0.89659000  0.02828600  0.36534100  1
  N  N10  1  0.18823900  0.37123700  0.38380700  1
  N  N11  1  0.53676400  0.72253300  0.38565400  1
