# generated using pymatgen
data_Ca(TiS2)2
_symmetry_space_group_name_H-M   'P 1'
_cell_length_a   3.56129300
_cell_length_b   5.96213100
_cell_length_c   6.94373545
_cell_angle_alpha   72.73114855
_cell_angle_beta   90.00000000
_cell_angle_gamma   90.00000000
_symmetry_Int_Tables_number   1
_chemical_formula_structural   Ca(TiS2)2
_chemical_formula_sum   'Ca1 Ti2 S4'
_cell_volume   140.78955402
_cell_formula_units_Z   1
loop_
 _symmetry_equiv_pos_site_id
 _symmetry_equiv_pos_as_xyz
  1  'x, y, z'
loop_
 _atom_site_type_symbol
 _atom_site_label
 _atom_site_symmetry_multiplicity
 _atom_site_fract_x
 _atom_site_fract_y
 _atom_site_fract_z
 _atom_site_occupancy
  Ca  Ca0  1  0.00000000  0.50000000  0.50000000  1
  Ti  Ti1  1  0.00000000  0.00000000  0.00000000  1
  Ti  Ti2  1  0.50000000  0.50000000  0.00000000  1
  S  S3  1  0.50000000  0.76415900  0.21932300  1
  S  S4  1  0.00000000  0.25884400  0.21355100  1
  S  S5  1  0.50000000  0.23584100  0.78067700  1
  S  S6  1  0.00000000  0.74115600  0.78644900  1
