# generated using pymatgen
data_Sr6Ca2Co7CuO20
_symmetry_space_group_name_H-M   'P 1'
_cell_length_a   10.84592572
_cell_length_b   11.14349647
_cell_length_c   17.58140754
_cell_angle_alpha   108.17756025
_cell_angle_beta   107.82503973
_cell_angle_gamma   90.58212153
_symmetry_Int_Tables_number   1
_chemical_formula_structural   Sr6Ca2Co7CuO20
_chemical_formula_sum   'Sr24 Ca8 Co28 Cu4 O80'
_cell_volume   1908.79832607
_cell_formula_units_Z   4
loop_
 _symmetry_equiv_pos_site_id
 _symmetry_equiv_pos_as_xyz
  1  'x, y, z'
loop_
 _atom_site_type_symbol
 _atom_site_label
 _atom_site_symmetry_multiplicity
 _atom_site_fract_x
 _atom_site_fract_y
 _atom_site_fract_z
 _atom_site_occupancy
  Sr  Sr0  1  0.30728900  0.06033600  0.61066200  1
  Sr  Sr1  1  0.31231900  0.55787100  0.61338000  1
  Sr  Sr2  1  0.80937400  0.06477800  0.61265400  1
  Sr  Sr3  1  0.80748900  0.56143700  0.61314800  1
  Sr  Sr4  1  0.19587100  0.43567700  0.38809400  1
  Sr  Sr5  1  0.19759700  0.44238300  0.88996600  1
  Sr  Sr6  1  0.19567900  0.93611400  0.38593600  1
  Sr  Sr7  1  0.69556000  0.44080700  0.38741500  1
  Sr  Sr8  1  0.69440300  0.44298000  0.88862400  1
  Sr  Sr9  1  0.69534900  0.93598700  0.38622500  1
  Sr  Sr10  1  0.69816200  0.93740100  0.89035600  1
  Sr  Sr11  1  0.05701300  0.29428400  0.11242400  1
  Sr  Sr12  1  0.05992300  0.30061200  0.61230300  1
  Sr  Sr13  1  0.06074400  0.80030000  0.61242700  1
  Sr  Sr14  1  0.55607700  0.30665300  0.61244200  1
  Sr  Sr15  1  0.55353800  0.80086700  0.11050000  1
  Sr  Sr16  1  0.55978200  0.79704900  0.60985600  1
  Sr  Sr17  1  0.44186200  0.20057800  0.38537000  1
  Sr  Sr18  1  0.44804500  0.20401400  0.89050500  1
  Sr  Sr19  1  0.44563600  0.69624200  0.38500100  1
  Sr  Sr20  1  0.44214900  0.69577900  0.88750000  1
  Sr  Sr21  1  0.94356900  0.20038900  0.38486800  1
  Sr  Sr22  1  0.94401800  0.20135200  0.89063000  1
  Sr  Sr23  1  0.94664000  0.69499400  0.38481200  1
  Ca  Ca24  1  0.30386500  0.06049500  0.10788200  1
  Ca  Ca25  1  0.30266100  0.56898200  0.10715600  1
  Ca  Ca26  1  0.80194000  0.06369500  0.10768000  1
  Ca  Ca27  1  0.79886900  0.56719100  0.10803000  1
  Ca  Ca28  1  0.19981500  0.93232300  0.89710700  1
  Ca  Ca29  1  0.05861900  0.79255800  0.10795800  1
  Ca  Ca30  1  0.55534100  0.29094200  0.10903400  1
  Ca  Ca31  1  0.95865700  0.70881600  0.89531500  1
  Co  Co32  1  0.00811000  0.00023800  0.00500000  1
  Co  Co33  1  0.00120500  0.99689600  0.49466400  1
  Co  Co34  1  0.00994100  0.50586400  0.00879700  1
  Co  Co35  1  0.00635100  0.50451400  0.50805900  1
  Co  Co36  1  0.50236600  0.99906700  0.99907900  1
  Co  Co37  1  0.50334300  0.00085600  0.49851200  1
  Co  Co38  1  0.50519300  0.50344400  0.00537300  1
  Co  Co39  1  0.50447400  0.50158600  0.50197800  1
  Co  Co40  1  0.25904300  0.25247500  0.00697000  1
  Co  Co41  1  0.25315200  0.25050200  0.50277500  1
  Co  Co42  1  0.25309200  0.75107300  0.00127800  1
  Co  Co43  1  0.25580400  0.75044000  0.50308700  1
  Co  Co44  1  0.75836600  0.25647400  0.01128500  1
  Co  Co45  1  0.74984200  0.24928300  0.49584400  1
  Co  Co46  1  0.75667900  0.74993300  0.99953800  1
  Co  Co47  1  0.75518800  0.75055800  0.50066000  1
  Co  Co48  1  0.10530300  0.08579000  0.24312100  1
  Co  Co49  1  0.11378800  0.08890400  0.75555900  1
  Co  Co50  1  0.10685400  0.59293700  0.24474900  1
  Co  Co51  1  0.60728600  0.09555000  0.24580400  1
  Co  Co52  1  0.60999900  0.09102300  0.74970400  1
  Co  Co53  1  0.60591200  0.58777800  0.24276000  1
  Co  Co54  1  0.35908400  0.40534600  0.24447600  1
  Co  Co55  1  0.35419400  0.90418200  0.24545600  1
  Co  Co56  1  0.85249000  0.40419200  0.24380400  1
  Co  Co57  1  0.86765300  0.41131500  0.75450400  1
  Co  Co58  1  0.86018400  0.90549900  0.24599700  1
  Co  Co59  1  0.86581600  0.90270900  0.75336800  1
  Cu  Cu60  1  0.10781700  0.59976300  0.75354300  1
  Cu  Cu61  1  0.62302200  0.60401100  0.75279600  1
  Cu  Cu62  1  0.36225400  0.40264800  0.75213100  1
  Cu  Cu63  1  0.35792600  0.90446100  0.75342300  1
  O  O64  1  0.11953700  0.11655700  0.49474500  1
  O  O65  1  0.13405800  0.12621600  0.99291900  1
  O  O66  1  0.12076300  0.61508100  0.49459700  1
  O  O67  1  0.12259900  0.62849000  0.99129500  1
  O  O68  1  0.61997300  0.12013900  0.49394000  1
  O  O69  1  0.63235800  0.13396400  0.99557100  1
  O  O70  1  0.62535000  0.62305700  0.49220900  1
  O  O71  1  0.63231600  0.63315800  0.99692500  1
  O  O72  1  0.12839000  0.38757400  0.01181100  1
  O  O73  1  0.13011200  0.36996000  0.50366300  1
  O  O74  1  0.13441400  0.88228100  0.01379900  1
  O  O75  1  0.13286100  0.87205400  0.50435300  1
  O  O76  1  0.63246500  0.38512600  0.01574900  1
  O  O77  1  0.63062700  0.37365700  0.50453900  1
  O  O78  1  0.63158700  0.89106300  0.01119500  1
  O  O79  1  0.63604000  0.87574500  0.50564700  1
  O  O80  1  0.36925500  0.12393100  0.49292900  1
  O  O81  1  0.38187400  0.11559900  0.99503700  1
  O  O82  1  0.37237100  0.62370000  0.49357400  1
  O  O83  1  0.37406900  0.61909900  0.99653200  1
  O  O84  1  0.87063800  0.12499400  0.49411500  1
  O  O85  1  0.87592600  0.11536200  0.99405000  1
  O  O86  1  0.87335600  0.62708600  0.49276200  1
  O  O87  1  0.88212500  0.61365400  0.99665100  1
  O  O88  1  0.37860000  0.37611700  0.01406700  1
  O  O89  1  0.37741400  0.37716600  0.50338900  1
  O  O90  1  0.37742600  0.88278600  0.01208200  1
  O  O91  1  0.38570300  0.88258000  0.50339700  1
  O  O92  1  0.87604100  0.37812900  0.01362400  1
  O  O93  1  0.88050400  0.38201300  0.50222700  1
  O  O94  1  0.88262700  0.87375700  0.01287300  1
  O  O95  1  0.88446200  0.88328500  0.50345000  1
  O  O96  1  0.09222500  0.09143900  0.13874200  1
  O  O97  1  0.08828500  0.09036900  0.64835200  1
  O  O98  1  0.09295000  0.60154300  0.13925500  1
  O  O99  1  0.06887800  0.58148600  0.63611400  1
  O  O100  1  0.59076000  0.10188100  0.14102000  1
  O  O101  1  0.58311000  0.09575500  0.64277500  1
  O  O102  1  0.58957000  0.59606000  0.13854400  1
  O  O103  1  0.57743300  0.58633100  0.63710400  1
  O  O104  1  0.43702200  0.41053700  0.35297000  1
  O  O105  1  0.43897400  0.41570600  0.86658100  1
  O  O106  1  0.43570600  0.91175900  0.35541100  1
  O  O107  1  0.44292700  0.90942400  0.86687100  1
  O  O108  1  0.93344800  0.40918500  0.35129100  1
  O  O109  1  0.93905700  0.40502800  0.85916800  1
  O  O110  1  0.93907100  0.91091100  0.35669200  1
  O  O111  1  0.94870600  0.89909000  0.86029200  1
  O  O112  1  0.33620700  0.28452800  0.14008700  1
  O  O113  1  0.32329400  0.30072900  0.63830500  1
  O  O114  1  0.33075000  0.78891000  0.14116500  1
  O  O115  1  0.32403400  0.79787500  0.64019100  1
  O  O116  1  0.83470800  0.28411300  0.14061600  1
  O  O117  1  0.83740000  0.30897800  0.64729700  1
  O  O118  1  0.84237800  0.78868800  0.14339500  1
  O  O119  1  0.83577000  0.80009600  0.64507700  1
  O  O120  1  0.18187900  0.19004000  0.35127200  1
  O  O121  1  0.19288900  0.20731800  0.85882900  1
  O  O122  1  0.18242000  0.69635300  0.35320400  1
  O  O123  1  0.18727200  0.71047300  0.86824200  1
  O  O124  1  0.68256500  0.19868600  0.35519800  1
  O  O125  1  0.68878500  0.20614800  0.85305000  1
  O  O126  1  0.68453300  0.69316200  0.35063900  1
  O  O127  1  0.70097400  0.70175900  0.86866700  1
  O  O128  1  0.42611700  0.05898300  0.23932300  1
  O  O129  1  0.43881500  0.06015300  0.75110900  1
  O  O130  1  0.42492200  0.56089400  0.23706600  1
  O  O131  1  0.45660500  0.55013800  0.75283400  1
  O  O132  1  0.92513900  0.06158100  0.23846600  1
  O  O133  1  0.93722100  0.06196400  0.75325800  1
  O  O134  1  0.92570700  0.55840400  0.23684700  1
  O  O135  1  0.93625100  0.57383500  0.76040700  1
  O  O136  1  0.18486500  0.43900800  0.24694100  1
  O  O137  1  0.19276200  0.44899800  0.75185800  1
  O  O138  1  0.17431800  0.92572400  0.24049900  1
  O  O139  1  0.18136300  0.93631300  0.76210000  1
  O  O140  1  0.67316300  0.42683200  0.23973800  1
  O  O141  1  0.70117500  0.44916800  0.75138400  1
  O  O142  1  0.68582100  0.94026700  0.24714300  1
  O  O143  1  0.68834400  0.93680200  0.75154200  1
