# generated using pymatgen
data_BaVSeS2
_symmetry_space_group_name_H-M   'P 1'
_cell_length_a   6.92561128
_cell_length_b   6.92561128
_cell_length_c   5.67369000
_cell_angle_alpha   90.00000000
_cell_angle_beta   90.00000000
_cell_angle_gamma   119.02401041
_symmetry_Int_Tables_number   1
_chemical_formula_structural   BaVSeS2
_chemical_formula_sum   'Ba2 V2 Se2 S4'
_cell_volume   237.95791406
_cell_formula_units_Z   2
loop_
 _symmetry_equiv_pos_site_id
 _symmetry_equiv_pos_as_xyz
  1  'x, y, z'
loop_
 _atom_site_type_symbol
 _atom_site_label
 _atom_site_symmetry_multiplicity
 _atom_site_fract_x
 _atom_site_fract_y
 _atom_site_fract_z
 _atom_site_occupancy
  Ba  Ba0  1  0.32984900  0.67015100  0.50000000  1
  Ba  Ba1  1  0.66724100  0.33275900  0.00000000  1
  V  V2  1  0.00515500  0.99484500  0.27686100  1
  V  V3  1  0.00515500  0.99484500  0.72313900  1
  Se  Se4  1  0.16387600  0.33884600  0.00000000  1
  Se  Se5  1  0.66115400  0.83612400  0.00000000  1
  S  S6  1  0.15492700  0.84507300  0.00000000  1
  S  S7  1  0.84057300  0.67001700  0.50000000  1
  S  S8  1  0.32998300  0.15942700  0.50000000  1
  S  S9  1  0.84063300  0.15936700  0.50000000  1
