# generated using pymatgen
data_CaFe3(SiO3)4
_symmetry_space_group_name_H-M   'P 1'
_cell_length_a   7.67751010
_cell_length_b   7.67574698
_cell_length_c   9.45332972
_cell_angle_alpha   109.93441899
_cell_angle_beta   76.07620032
_cell_angle_gamma   73.47709409
_symmetry_Int_Tables_number   1
_chemical_formula_structural   CaFe3(SiO3)4
_chemical_formula_sum   'Ca2 Fe6 Si8 O24'
_cell_volume   465.53107179
_cell_formula_units_Z   2
loop_
 _symmetry_equiv_pos_site_id
 _symmetry_equiv_pos_as_xyz
  1  'x, y, z'
loop_
 _atom_site_type_symbol
 _atom_site_label
 _atom_site_symmetry_multiplicity
 _atom_site_fract_x
 _atom_site_fract_y
 _atom_site_fract_z
 _atom_site_occupancy
  Ca  Ca0  1  0.67453400  0.70047500  0.62502300  1
  Ca  Ca1  1  0.17246100  0.70250200  0.12490800  1
  Fe  Fe2  1  0.78403300  0.09092600  0.12498500  1
  Fe  Fe3  1  0.86792500  0.25764900  0.87502100  1
  Fe  Fe4  1  0.36719700  0.25727100  0.37503500  1
  Fe  Fe5  1  0.22503400  0.89908800  0.87421700  1
  Fe  Fe6  1  0.72496100  0.90089900  0.37586800  1
  Fe  Fe7  1  0.28394100  0.09109700  0.62493900  1
  Si  Si8  1  0.53792800  0.80087400  0.08121000  1
  Si  Si9  1  0.03723300  0.80112500  0.57931000  1
  Si  Si10  1  0.52818200  0.38341000  0.67069500  1
  Si  Si11  1  0.03020600  0.38100800  0.16884300  1
  Si  Si12  1  0.96227900  0.20816600  0.41943200  1
  Si  Si13  1  0.46297700  0.20723200  0.91996700  1
  Si  Si14  1  0.96153300  0.61802700  0.83042200  1
  Si  Si15  1  0.46258700  0.61723700  0.33008900  1
  O  O16  1  0.71877400  0.68457800  0.89950000  1
  O  O17  1  0.21950400  0.68348200  0.39862400  1
  O  O18  1  0.96432800  0.38209400  0.35056600  1
  O  O19  1  0.46507200  0.38176600  0.85133000  1
  O  O20  1  0.76935800  0.33603000  0.59740000  1
  O  O21  1  0.27130100  0.33397200  0.09793300  1
  O  O22  1  0.01128400  0.63322800  0.65259100  1
  O  O23  1  0.51402100  0.63076000  0.15213400  1
  O  O24  1  0.59010600  0.96514400  0.20863900  1
  O  O25  1  0.08635400  0.96840600  0.70508300  1
  O  O26  1  0.48652700  0.20872400  0.54488400  1
  O  O27  1  0.99354100  0.20118000  0.04140700  1
  O  O28  1  0.92277600  0.03062700  0.29527600  1
  O  O29  1  0.42326100  0.02992200  0.79539200  1
  O  O30  1  0.01483800  0.78165900  0.95464200  1
  O  O31  1  0.51466600  0.78213000  0.45493100  1
  O  O32  1  0.33714300  0.88764700  0.05694800  1
  O  O33  1  0.83711100  0.88445700  0.55137800  1
  O  O34  1  0.41691000  0.61150900  0.69857100  1
  O  O35  1  0.91917700  0.60605000  0.19307500  1
  O  O36  1  0.16756800  0.14658100  0.44804100  1
  O  O37  1  0.66881600  0.14610700  0.94836900  1
  O  O38  1  0.05218000  0.38387400  0.80147300  1
  O  O39  1  0.55237700  0.38308700  0.30184900  1
