# generated using pymatgen
data_BaSrSi4
_symmetry_space_group_name_H-M   'P 1'
_cell_length_a   6.66257320
_cell_length_b   6.66257320
_cell_length_c   6.67071500
_cell_angle_alpha   90.00000000
_cell_angle_beta   90.00000000
_cell_angle_gamma   90.64956190
_symmetry_Int_Tables_number   1
_chemical_formula_structural   BaSrSi4
_chemical_formula_sum   'Ba2 Sr2 Si8'
_cell_volume   296.09322014
_cell_formula_units_Z   2
loop_
 _symmetry_equiv_pos_site_id
 _symmetry_equiv_pos_as_xyz
  1  'x, y, z'
loop_
 _atom_site_type_symbol
 _atom_site_label
 _atom_site_symmetry_multiplicity
 _atom_site_fract_x
 _atom_site_fract_y
 _atom_site_fract_z
 _atom_site_occupancy
  Ba  Ba0  1  0.12548900  0.87451100  0.75000000  1
  Ba  Ba1  1  0.87451100  0.12548900  0.25000000  1
  Sr  Sr2  1  0.37554900  0.37554900  0.00000000  1
  Sr  Sr3  1  0.62445100  0.62445100  0.50000000  1
  Si  Si4  1  0.42205100  0.17626500  0.45309900  1
  Si  Si5  1  0.57794900  0.82373500  0.95309900  1
  Si  Si6  1  0.08241200  0.66297800  0.29088500  1
  Si  Si7  1  0.91758800  0.33702200  0.79088500  1
  Si  Si8  1  0.82373500  0.57794900  0.04690100  1
  Si  Si9  1  0.66297800  0.08241200  0.70911500  1
  Si  Si10  1  0.17626500  0.42205100  0.54690100  1
  Si  Si11  1  0.33702200  0.91758800  0.20911500  1
