# generated using pymatgen
data_Ca2MgFe(SiO3)4
_symmetry_space_group_name_H-M   'P 1'
_cell_length_a   5.33109515
_cell_length_b   9.90704360
_cell_length_c   9.09451469
_cell_angle_alpha   89.83466432
_cell_angle_beta   89.95121372
_cell_angle_gamma   105.34943414
_symmetry_Int_Tables_number   1
_chemical_formula_structural   Ca2MgFe(SiO3)4
_chemical_formula_sum   'Ca4 Mg2 Fe2 Si8 O24'
_cell_volume   463.19410591
_cell_formula_units_Z   2
loop_
 _symmetry_equiv_pos_site_id
 _symmetry_equiv_pos_as_xyz
  1  'x, y, z'
loop_
 _atom_site_type_symbol
 _atom_site_label
 _atom_site_symmetry_multiplicity
 _atom_site_fract_x
 _atom_site_fract_y
 _atom_site_fract_z
 _atom_site_occupancy
  Ca  Ca0  1  0.25054500  0.49943300  0.79672900  1
  Ca  Ca1  1  0.74710000  0.00047900  0.29670400  1
  Ca  Ca2  1  0.74985000  0.49977600  0.19994000  1
  Ca  Ca3  1  0.25028700  0.00021500  0.70041200  1
  Mg  Mg4  1  0.24978200  0.50019000  0.40739800  1
  Mg  Mg5  1  0.75039800  0.99959300  0.90747100  1
  Fe  Fe6  1  0.24952700  0.99949900  0.09340500  1
  Fe  Fe7  1  0.75006200  0.50014700  0.59265000  1
  Si  Si8  1  0.44706500  0.71177800  0.09303200  1
  Si  Si9  1  0.94694200  0.21209600  0.59344900  1
  Si  Si10  1  0.05288500  0.28777300  0.09367500  1
  Si  Si11  1  0.55289300  0.78809600  0.59293800  1
  Si  Si12  1  0.55368900  0.28604400  0.90937600  1
  Si  Si13  1  0.05460300  0.78689600  0.40767600  1
  Si  Si14  1  0.94537700  0.71298600  0.90753500  1
  Si  Si15  1  0.44691400  0.21431800  0.40888200  1
  O  O16  1  0.45824400  0.63527600  0.24781900  1
  O  O17  1  0.95766400  0.13538100  0.74818700  1
  O  O18  1  0.04216100  0.36439000  0.24792000  1
  O  O19  1  0.54139800  0.86449400  0.74728500  1
  O  O20  1  0.53871000  0.36131300  0.75451300  1
  O  O21  1  0.04193700  0.86368900  0.25288600  1
  O  O22  1  0.95913900  0.63621200  0.75358300  1
  O  O23  1  0.46420900  0.14003800  0.25426300  1
  O  O24  1  0.53672600  0.88129800  0.08771700  1
  O  O25  1  0.03552900  0.38167500  0.58714700  1
  O  O26  1  0.96494100  0.11820900  0.08734900  1
  O  O27  1  0.46404400  0.61860100  0.58768600  1
  O  O28  1  0.47377000  0.11584900  0.91217500  1
  O  O29  1  0.97591600  0.61718300  0.40792000  1
  O  O30  1  0.02248100  0.88250300  0.90699900  1
  O  O31  1  0.52571600  0.38430600  0.41049000  1
  O  O32  1  0.14980400  0.65184600  0.01736300  1
  O  O33  1  0.64910100  0.15157400  0.51880500  1
  O  O34  1  0.35048500  0.34856600  0.01817200  1
  O  O35  1  0.85006300  0.84847600  0.51643000  1
  O  O36  1  0.85068200  0.35094800  0.98367200  1
  O  O37  1  0.35077400  0.85151300  0.48300400  1
  O  O38  1  0.64896700  0.64817700  0.98356000  1
  O  O39  1  0.14962000  0.14916200  0.48378100  1
