# generated using pymatgen
data_Be4NiGe
_symmetry_space_group_name_H-M   'P 1'
_cell_length_a   4.33584867
_cell_length_b   4.33584867
_cell_length_c   4.33584867
_cell_angle_alpha   60.00000000
_cell_angle_beta   60.00000000
_cell_angle_gamma   60.00000000
_symmetry_Int_Tables_number   1
_chemical_formula_structural   Be4NiGe
_chemical_formula_sum   'Be4 Ni1 Ge1'
_cell_volume   57.63779415
_cell_formula_units_Z   1
loop_
 _symmetry_equiv_pos_site_id
 _symmetry_equiv_pos_as_xyz
  1  'x, y, z'
loop_
 _atom_site_type_symbol
 _atom_site_label
 _atom_site_symmetry_multiplicity
 _atom_site_fract_x
 _atom_site_fract_y
 _atom_site_fract_z
 _atom_site_occupancy
  Be  Be0  1  0.62326400  0.62326400  0.13020800  1
  Be  Be1  1  0.62326400  0.13020800  0.62326400  1
  Be  Be2  1  0.13020800  0.62326400  0.62326400  1
  Be  Be3  1  0.62326400  0.62326400  0.62326400  1
  Ni  Ni4  1  0.25000000  0.25000000  0.25000000  1
  Ge  Ge5  1  0.00000000  0.00000000  0.00000000  1
