# generated using pymatgen
data_BaSrN
_symmetry_space_group_name_H-M   'P 1'
_cell_length_a   7.63351185
_cell_length_b   7.63351185
_cell_length_c   7.63351175
_cell_angle_alpha   30.06560348
_cell_angle_beta   30.06560348
_cell_angle_gamma   30.06560057
_symmetry_Int_Tables_number   1
_chemical_formula_structural   BaSrN
_chemical_formula_sum   'Ba1 Sr1 N1'
_cell_volume   98.90142464
_cell_formula_units_Z   1
loop_
 _symmetry_equiv_pos_site_id
 _symmetry_equiv_pos_as_xyz
  1  'x, y, z'
loop_
 _atom_site_type_symbol
 _atom_site_label
 _atom_site_symmetry_multiplicity
 _atom_site_fract_x
 _atom_site_fract_y
 _atom_site_fract_z
 _atom_site_occupancy
  Ba  Ba0  1  0.73404200  0.73404200  0.73404200  1
  Sr  Sr1  1  0.26823800  0.26823800  0.26823800  1
  N  N2  1  0.99772000  0.99772000  0.99772000  1
