# generated using pymatgen
data_CaNd2(CuO2)4
_symmetry_space_group_name_H-M   'P 1'
_cell_length_a   6.28992075
_cell_length_b   6.28992075
_cell_length_c   11.42109600
_cell_angle_alpha   90.00000000
_cell_angle_beta   90.00000000
_cell_angle_gamma   117.84183972
_symmetry_Int_Tables_number   1
_chemical_formula_structural   CaNd2(CuO2)4
_chemical_formula_sum   'Ca2 Nd4 Cu8 O16'
_cell_volume   399.54745306
_cell_formula_units_Z   2
loop_
 _symmetry_equiv_pos_site_id
 _symmetry_equiv_pos_as_xyz
  1  'x, y, z'
loop_
 _atom_site_type_symbol
 _atom_site_label
 _atom_site_symmetry_multiplicity
 _atom_site_fract_x
 _atom_site_fract_y
 _atom_site_fract_z
 _atom_site_occupancy
  Ca  Ca0  1  0.75000000  0.75000000  0.75000000  1
  Ca  Ca1  1  0.25000000  0.25000000  0.25000000  1
  Nd  Nd2  1  0.75000000  0.75000000  0.08526700  1
  Nd  Nd3  1  0.25000000  0.25000000  0.58526700  1
  Nd  Nd4  1  0.25000000  0.25000000  0.91473300  1
  Nd  Nd5  1  0.75000000  0.75000000  0.41473300  1
  Cu  Cu6  1  0.75000000  0.25000000  0.06799800  1
  Cu  Cu7  1  0.75000000  0.25000000  0.56799800  1
  Cu  Cu8  1  0.25000000  0.75000000  0.93200200  1
  Cu  Cu9  1  0.25000000  0.75000000  0.43200200  1
  Cu  Cu10  1  0.75000000  0.25000000  0.31805300  1
  Cu  Cu11  1  0.75000000  0.25000000  0.81805300  1
  Cu  Cu12  1  0.25000000  0.75000000  0.68194700  1
  Cu  Cu13  1  0.25000000  0.75000000  0.18194700  1
  O  O14  1  0.65069100  0.39799800  0.19412700  1
  O  O15  1  0.89799800  0.15069100  0.69412700  1
  O  O16  1  0.60200200  0.34930900  0.69412700  1
  O  O17  1  0.84930900  0.10200200  0.19412700  1
  O  O18  1  0.34930900  0.60200200  0.80587300  1
  O  O19  1  0.10200200  0.84930900  0.30587300  1
  O  O20  1  0.39799800  0.65069100  0.30587300  1
  O  O21  1  0.15069100  0.89799800  0.80587300  1
  O  O22  1  0.17891900  0.92861500  0.05762700  1
  O  O23  1  0.42861500  0.67891900  0.55762700  1
  O  O24  1  0.07138500  0.82108100  0.55762700  1
  O  O25  1  0.32108100  0.57138500  0.05762700  1
  O  O26  1  0.82108100  0.07138500  0.94237300  1
  O  O27  1  0.57138500  0.32108100  0.44237300  1
  O  O28  1  0.92861500  0.17891900  0.44237300  1
  O  O29  1  0.67891900  0.42861500  0.94237300  1
