# generated using pymatgen
data_La12Fe11S30
_symmetry_space_group_name_H-M   'P 1'
_cell_length_a   3.94897048
_cell_length_b   11.07738137
_cell_length_c   24.93934916
_cell_angle_alpha   91.99656424
_cell_angle_beta   85.45905589
_cell_angle_gamma   90.00000000
_symmetry_Int_Tables_number   1
_chemical_formula_structural   La12Fe11S30
_chemical_formula_sum   'La12 Fe11 S30'
_cell_volume   1086.86430072
_cell_formula_units_Z   1
loop_
 _symmetry_equiv_pos_site_id
 _symmetry_equiv_pos_as_xyz
  1  'x, y, z'
loop_
 _atom_site_type_symbol
 _atom_site_label
 _atom_site_symmetry_multiplicity
 _atom_site_fract_x
 _atom_site_fract_y
 _atom_site_fract_z
 _atom_site_occupancy
  La  La0  1  0.87510299  0.06642245  0.24979402  1
  La  La1  1  0.12398890  0.54585188  0.75202219  1
  La  La2  1  0.54156539  0.05768917  0.91686922  1
  La  La3  1  0.45833157  0.55859321  0.08333686  1
  La  La4  1  0.87296523  0.44777988  0.25406954  1
  La  La5  1  0.12713965  0.93650201  0.74572070  1
  La  La6  1  0.54103731  0.43943440  0.91792538  1
  La  La7  1  0.46041097  0.93577401  0.07917806  1
  La  La8  1  0.79407338  0.96252527  0.41185324  1
  La  La9  1  0.20439271  0.46936746  0.59121457  1
  La  La10  1  0.79166727  0.57747006  0.41666547  1
  La  La11  1  0.20420200  0.08950510  0.59159600  1
  Fe  Fe12  1  0.97303177  0.27910076  0.05393645  1
  Fe  Fe13  1  0.03133986  0.77040630  0.93732029  1
  Fe  Fe14  1  0.89728976  0.74615949  0.20542049  1
  Fe  Fe15  1  0.10583914  0.23399295  0.78832172  1
  Fe  Fe16  1  0.43597808  0.23935960  0.12804383  1
  Fe  Fe17  1  0.56559677  0.74943450  0.86880647  1
  Fe  Fe18  1  0.69898898  0.79941387  0.60202203  1
  Fe  Fe19  1  0.30028409  0.28920691  0.39943182  1
  Fe  Fe20  1  0.36202969  0.78337437  0.27594063  1
  Fe  Fe21  1  0.76732831  0.27082038  0.46534338  1
  Fe  Fe22  1  0.23178107  0.77554578  0.53643786  1
  S  S23  1  0.59955369  0.38838608  0.80089261  1
  S  S24  1  0.40019824  0.90040701  0.19960351  1
  S  S25  1  0.93415241  0.09352052  0.13169519  1
  S  S26  1  0.06346249  0.60701528  0.87307503  1
  S  S27  1  0.93333797  0.39665787  0.13332406  1
  S  S28  1  0.06711101  0.89505436  0.86577797  1
  S  S29  1  0.67076088  0.96540297  0.65847824  1
  S  S30  1  0.32759758  0.45533756  0.34480484  1
  S  S31  1  0.71773382  0.27366737  0.56453235  1
  S  S32  1  0.28162525  0.77073218  0.43674949  1
  S  S33  1  0.73103496  0.63247461  0.53793009  1
  S  S34  1  0.26913013  0.13023729  0.46173975  1
  S  S35  1  0.99696953  0.45976254  0.00606094  1
  S  S36  1  0.00482869  0.94451512  0.99034262  1
  S  S37  1  0.48610084  0.18604930  0.02779831  1
  S  S38  1  0.51304373  0.70166633  0.97391255  1
  S  S39  1  0.66412581  0.48654321  0.67174838  1
  S  S40  1  0.33695971  0.97174586  0.32608057  1
  S  S41  1  0.61502839  0.74311294  0.76994321  1
  S  S42  1  0.38523065  0.25417589  0.22953870  1
  S  S43  1  0.84592382  0.70004162  0.30815237  1
  S  S44  1  0.15006904  0.20045749  0.69986192  1
  S  S45  1  0.81825173  0.21484388  0.36349653  1
  S  S46  1  0.18161879  0.73179073  0.63676241  1
  S  S47  1  0.94769785  0.74634640  0.10460429  1
  S  S48  1  0.05165269  0.24592712  0.89669461  1
  S  S49  1  0.59965640  0.08685408  0.80068720  1
  S  S50  1  0.39844790  0.60036920  0.20310421  1
  S  S51  1  0.73407954  0.93227494  0.53184091  1
  S  S52  1  0.26455156  0.42530042  0.47089687  1
