# generated using pymatgen
data_Ca2Al2O5
_symmetry_space_group_name_H-M   'P 1'
_cell_length_a   5.38245050
_cell_length_b   5.41640924
_cell_length_c   8.23119301
_cell_angle_alpha   70.22850368
_cell_angle_beta   70.35050059
_cell_angle_gamma   88.37836026
_symmetry_Int_Tables_number   1
_chemical_formula_structural   Ca2Al2O5
_chemical_formula_sum   'Ca4 Al4 O10'
_cell_volume   211.68112705
_cell_formula_units_Z   2
loop_
 _symmetry_equiv_pos_site_id
 _symmetry_equiv_pos_as_xyz
  1  'x, y, z'
loop_
 _atom_site_type_symbol
 _atom_site_label
 _atom_site_symmetry_multiplicity
 _atom_site_fract_x
 _atom_site_fract_y
 _atom_site_fract_z
 _atom_site_occupancy
  Ca  Ca0  1  0.63194600  0.63216500  0.78653000  1
  Ca  Ca1  1  0.36805400  0.36783500  0.21347000  1
  Ca  Ca2  1  0.08152500  0.08130600  0.78653000  1
  Ca  Ca3  1  0.91847500  0.91869400  0.21347000  1
  Al  Al4  1  0.50000000  0.00000000  0.00000000  1
  Al  Al5  1  0.00000000  0.50000000  0.00000000  1
  Al  Al6  1  0.67258700  0.32047500  0.50000000  1
  Al  Al7  1  0.32741300  0.67952500  0.50000000  1
  O  O8  1  0.26181100  0.26181100  0.97637900  1
  O  O9  1  0.24715500  0.74715500  0.00569000  1
  O  O10  1  0.75284500  0.25284500  0.99431000  1
  O  O11  1  0.73818900  0.73818900  0.02362100  1
  O  O12  1  0.66804800  0.10165100  0.71586500  1
  O  O13  1  0.33195200  0.89834900  0.28413500  1
  O  O14  1  0.11608800  0.68248400  0.71586500  1
  O  O15  1  0.88391200  0.31751600  0.28413500  1
  O  O16  1  0.66886300  0.65801400  0.50000000  1
  O  O17  1  0.33113700  0.34198600  0.50000000  1
