# generated using pymatgen
data_Ca2SiO4
_symmetry_space_group_name_H-M   'P 1'
_cell_length_a   5.76252910
_cell_length_b   5.76252910
_cell_length_c   6.88255291
_cell_angle_alpha   86.61373715
_cell_angle_beta   86.61373715
_cell_angle_gamma   55.74737264
_symmetry_Int_Tables_number   1
_chemical_formula_structural   Ca2SiO4
_chemical_formula_sum   'Ca4 Si2 O8'
_cell_volume   188.48664303
_cell_formula_units_Z   2
loop_
 _symmetry_equiv_pos_site_id
 _symmetry_equiv_pos_as_xyz
  1  'x, y, z'
loop_
 _atom_site_type_symbol
 _atom_site_label
 _atom_site_symmetry_multiplicity
 _atom_site_fract_x
 _atom_site_fract_y
 _atom_site_fract_z
 _atom_site_occupancy
  Ca  Ca0  1  0.62953300  0.72408600  0.32087900  1
  Ca  Ca1  1  0.27591400  0.37046700  0.67912100  1
  Ca  Ca2  1  0.97347300  0.02652700  0.50000000  1
  Ca  Ca3  1  0.04873400  0.95126600  0.00000000  1
  Si  Si4  1  0.65694400  0.67486900  0.79389500  1
  Si  Si5  1  0.32513100  0.34305600  0.20610500  1
  O  O6  1  0.39226600  0.78528600  0.64840500  1
  O  O7  1  0.89260100  0.33817200  0.74871500  1
  O  O8  1  0.79859600  0.85009000  0.71801700  1
  O  O9  1  0.66182800  0.10739900  0.25128500  1
  O  O10  1  0.21471400  0.60773400  0.35159500  1
  O  O11  1  0.14991000  0.20140400  0.28198300  1
  O  O12  1  0.53763000  0.74277400  0.01643900  1
  O  O13  1  0.25722600  0.46237000  0.98356100  1
