# generated using pymatgen
data_Bi4(TeSe)3
_symmetry_space_group_name_H-M   'P 1'
_cell_length_a   10.64968550
_cell_length_b   10.64968550
_cell_length_c   7.47001572
_cell_angle_alpha   83.39232098
_cell_angle_beta   83.39232098
_cell_angle_gamma   23.36569618
_symmetry_Int_Tables_number   1
_chemical_formula_structural   Bi4(TeSe)3
_chemical_formula_sum   'Bi4 Te3 Se3'
_cell_volume   333.67745650
_cell_formula_units_Z   1
loop_
 _symmetry_equiv_pos_site_id
 _symmetry_equiv_pos_as_xyz
  1  'x, y, z'
loop_
 _atom_site_type_symbol
 _atom_site_label
 _atom_site_symmetry_multiplicity
 _atom_site_fract_x
 _atom_site_fract_y
 _atom_site_fract_z
 _atom_site_occupancy
  Bi  Bi0  1  0.09242200  0.09242200  0.29826000  1
  Bi  Bi1  1  0.59273100  0.59273100  0.80772000  1
  Bi  Bi2  1  0.41093900  0.41093900  0.19712100  1
  Bi  Bi3  1  0.90917900  0.90917900  0.69585800  1
  Te  Te4  1  0.17853800  0.17853800  0.60901700  1
  Te  Te5  1  0.82334200  0.82334200  0.38909100  1
  Te  Te6  1  0.32373900  0.32373900  0.89368400  1
  Se  Se7  1  0.00042800  0.00042800  0.99908600  1
  Se  Se8  1  0.50261500  0.50261500  0.49911900  1
  Se  Se9  1  0.66606800  0.66606800  0.11104500  1
