# generated using pymatgen
data_Ca2SmYMn4O12
_symmetry_space_group_name_H-M   'P 1'
_cell_length_a   7.61608000
_cell_length_b   5.40664600
_cell_length_c   5.54239274
_cell_angle_alpha   89.81547114
_cell_angle_beta   90.00000000
_cell_angle_gamma   90.00000000
_symmetry_Int_Tables_number   1
_chemical_formula_structural   Ca2SmYMn4O12
_chemical_formula_sum   'Ca2 Sm1 Y1 Mn4 O12'
_cell_volume   228.22040800
_cell_formula_units_Z   1
loop_
 _symmetry_equiv_pos_site_id
 _symmetry_equiv_pos_as_xyz
  1  'x, y, z'
loop_
 _atom_site_type_symbol
 _atom_site_label
 _atom_site_symmetry_multiplicity
 _atom_site_fract_x
 _atom_site_fract_y
 _atom_site_fract_z
 _atom_site_occupancy
  Ca  Ca0  1  0.50000000  0.01073300  0.04587300  1
  Ca  Ca1  1  0.00000000  0.51087000  0.45296000  1
  Sm  Sm2  1  0.50000000  0.48499500  0.55258200  1
  Y  Y3  1  0.00000000  0.98320500  0.94258500  1
  Mn  Mn4  1  0.24862100  0.99978300  0.49667000  1
  Mn  Mn5  1  0.75138700  0.49884600  0.00267700  1
  Mn  Mn6  1  0.75137900  0.99978300  0.49667000  1
  Mn  Mn7  1  0.24861300  0.49884600  0.00267700  1
  O  O8  1  0.50000000  0.90929200  0.47596300  1
  O  O9  1  0.50000000  0.58503900  0.97542700  1
  O  O10  1  0.00000000  0.08688600  0.53362700  1
  O  O11  1  0.00000000  0.39794900  0.02431600  1
  O  O12  1  0.19877800  0.79578700  0.20407900  1
  O  O13  1  0.79871600  0.71393200  0.71483500  1
  O  O14  1  0.70449000  0.21294900  0.78687500  1
  O  O15  1  0.29564600  0.29422000  0.29319700  1
  O  O16  1  0.29551000  0.21294900  0.78687500  1
  O  O17  1  0.70435400  0.29422000  0.29319700  1
  O  O18  1  0.80122200  0.79578700  0.20407900  1
  O  O19  1  0.20128400  0.71393200  0.71483500  1
