# generated using pymatgen
data_Fe2Cu13(GeS8)2
_symmetry_space_group_name_H-M   'P 1'
_cell_length_a   10.55017500
_cell_length_b   10.55017500
_cell_length_c   10.55017500
_cell_angle_alpha   90.00000000
_cell_angle_beta   90.00000000
_cell_angle_gamma   90.00000000
_symmetry_Int_Tables_number   1
_chemical_formula_structural   Fe2Cu13(GeS8)2
_chemical_formula_sum   'Fe4 Cu26 Ge4 S32'
_cell_volume   1174.29980978
_cell_formula_units_Z   2
loop_
 _symmetry_equiv_pos_site_id
 _symmetry_equiv_pos_as_xyz
  1  'x, y, z'
loop_
 _atom_site_type_symbol
 _atom_site_label
 _atom_site_symmetry_multiplicity
 _atom_site_fract_x
 _atom_site_fract_y
 _atom_site_fract_z
 _atom_site_occupancy
  Fe  Fe0  1  0.24918100  0.75081900  0.24918100  1
  Fe  Fe1  1  0.75081900  0.24918100  0.24918100  1
  Fe  Fe2  1  0.24918100  0.24918100  0.75081900  1
  Fe  Fe3  1  0.75081900  0.75081900  0.75081900  1
  Cu  Cu4  1  0.50000000  0.50000000  0.24662500  1
  Cu  Cu5  1  0.50000000  0.75337500  0.50000000  1
  Cu  Cu6  1  0.24662500  0.50000000  0.50000000  1
  Cu  Cu7  1  0.50000000  0.24662500  0.50000000  1
  Cu  Cu8  1  0.75337500  0.50000000  0.50000000  1
  Cu  Cu9  1  0.50000000  0.50000000  0.75337500  1
  Cu  Cu10  1  0.00000000  0.73979300  0.00000000  1
  Cu  Cu11  1  0.00000000  0.00000000  0.26020700  1
  Cu  Cu12  1  0.73979300  0.00000000  0.00000000  1
  Cu  Cu13  1  0.00000000  0.00000000  0.73979300  1
  Cu  Cu14  1  0.26020700  0.00000000  0.00000000  1
  Cu  Cu15  1  0.00000000  0.26020700  0.00000000  1
  Cu  Cu16  1  0.50000000  0.50000000  0.50000000  1
  Cu  Cu17  1  0.00000000  0.00000000  0.00000000  1
  Cu  Cu18  1  0.50000000  0.00000000  0.24462900  1
  Cu  Cu19  1  0.00000000  0.75537100  0.50000000  1
  Cu  Cu20  1  0.24462900  0.50000000  0.00000000  1
  Cu  Cu21  1  0.00000000  0.24462900  0.50000000  1
  Cu  Cu22  1  0.75537100  0.50000000  0.00000000  1
  Cu  Cu23  1  0.50000000  0.00000000  0.75537100  1
  Cu  Cu24  1  0.00000000  0.50000000  0.24462900  1
  Cu  Cu25  1  0.50000000  0.75537100  0.00000000  1
  Cu  Cu26  1  0.24462900  0.00000000  0.50000000  1
  Cu  Cu27  1  0.50000000  0.24462900  0.00000000  1
  Cu  Cu28  1  0.75537100  0.00000000  0.50000000  1
  Cu  Cu29  1  0.00000000  0.50000000  0.75537100  1
  Ge  Ge30  1  0.74674000  0.74674000  0.25326000  1
  Ge  Ge31  1  0.25326000  0.74674000  0.74674000  1
  Ge  Ge32  1  0.74674000  0.25326000  0.74674000  1
  Ge  Ge33  1  0.25326000  0.25326000  0.25326000  1
  S  S34  1  0.37238600  0.87038200  0.12961800  1
  S  S35  1  0.12961800  0.87038200  0.37238600  1
  S  S36  1  0.12961800  0.62761400  0.12961800  1
  S  S37  1  0.62761400  0.12961800  0.12961800  1
  S  S38  1  0.87038200  0.12961800  0.37238600  1
  S  S39  1  0.87038200  0.37238600  0.12961800  1
  S  S40  1  0.37238600  0.12961800  0.87038200  1
  S  S41  1  0.12961800  0.12961800  0.62761400  1
  S  S42  1  0.12961800  0.37238600  0.87038200  1
  S  S43  1  0.62761400  0.87038200  0.87038200  1
  S  S44  1  0.87038200  0.87038200  0.62761400  1
  S  S45  1  0.87038200  0.62761400  0.87038200  1
  S  S46  1  0.87690500  0.62573500  0.37426500  1
  S  S47  1  0.62573500  0.87690500  0.37426500  1
  S  S48  1  0.62573500  0.62573500  0.12309500  1
  S  S49  1  0.12309500  0.62573500  0.62573500  1
  S  S50  1  0.37426500  0.87690500  0.62573500  1
  S  S51  1  0.37426500  0.62573500  0.87690500  1
  S  S52  1  0.87690500  0.37426500  0.62573500  1
  S  S53  1  0.62573500  0.12309500  0.62573500  1
  S  S54  1  0.62573500  0.37426500  0.87690500  1
  S  S55  1  0.12309500  0.37426500  0.37426500  1
  S  S56  1  0.37426500  0.12309500  0.37426500  1
  S  S57  1  0.37426500  0.37426500  0.12309500  1
  S  S58  1  0.37122700  0.62877300  0.37122700  1
  S  S59  1  0.62877300  0.37122700  0.37122700  1
  S  S60  1  0.37122700  0.37122700  0.62877300  1
  S  S61  1  0.62877300  0.62877300  0.62877300  1
  S  S62  1  0.87264400  0.87264400  0.12735600  1
  S  S63  1  0.12735600  0.87264400  0.87264400  1
  S  S64  1  0.87264400  0.12735600  0.87264400  1
  S  S65  1  0.12735600  0.12735600  0.12735600  1
