# generated using pymatgen
data_BiSbWO6
_symmetry_space_group_name_H-M   'P 1'
_cell_length_a   8.99978630
_cell_length_b   8.99978630
_cell_length_c   5.43845446
_cell_angle_alpha   89.23087825
_cell_angle_beta   89.23087825
_cell_angle_gamma   35.58892184
_symmetry_Int_Tables_number   1
_chemical_formula_structural   BiSbWO6
_chemical_formula_sum   'Bi2 Sb2 W2 O12'
_cell_volume   256.32688097
_cell_formula_units_Z   2
loop_
 _symmetry_equiv_pos_site_id
 _symmetry_equiv_pos_as_xyz
  1  'x, y, z'
loop_
 _atom_site_type_symbol
 _atom_site_label
 _atom_site_symmetry_multiplicity
 _atom_site_fract_x
 _atom_site_fract_y
 _atom_site_fract_z
 _atom_site_occupancy
  Bi  Bi0  1  0.28587700  0.37177800  0.02769200  1
  Bi  Bi1  1  0.62822200  0.71412300  0.97230800  1
  Sb  Sb2  1  0.77784800  0.86727900  0.45620300  1
  Sb  Sb3  1  0.13272100  0.22215200  0.54379700  1
  W  W4  1  0.52671300  0.47328700  0.50000000  1
  W  W5  1  0.02559100  0.97440900  0.00000000  1
  O  O6  1  0.51262600  0.00209600  0.21898400  1
  O  O7  1  0.99790400  0.48737400  0.78101600  1
  O  O8  1  0.99907600  0.50838900  0.28907600  1
  O  O9  1  0.49161100  0.00092400  0.71092400  1
  O  O10  1  0.32542900  0.72048900  0.24801200  1
  O  O11  1  0.27951100  0.67457100  0.75198800  1
  O  O12  1  0.82122500  0.22266400  0.24654900  1
  O  O13  1  0.77733600  0.17877500  0.75345100  1
  O  O14  1  0.46704400  0.31929900  0.40973000  1
  O  O15  1  0.68070100  0.53295600  0.59027000  1
  O  O16  1  0.95946300  0.82529900  0.09838700  1
  O  O17  1  0.17470100  0.04053700  0.90161300  1
