# generated using pymatgen
data_BaSrSm4O8
_symmetry_space_group_name_H-M   'P 1'
_cell_length_a   3.55582100
_cell_length_b   10.45936900
_cell_length_c   12.36493200
_cell_angle_alpha   90.00000000
_cell_angle_beta   90.00000000
_cell_angle_gamma   90.00000000
_symmetry_Int_Tables_number   1
_chemical_formula_structural   BaSrSm4O8
_chemical_formula_sum   'Ba2 Sr2 Sm8 O16'
_cell_volume   459.87214825
_cell_formula_units_Z   2
loop_
 _symmetry_equiv_pos_site_id
 _symmetry_equiv_pos_as_xyz
  1  'x, y, z'
loop_
 _atom_site_type_symbol
 _atom_site_label
 _atom_site_symmetry_multiplicity
 _atom_site_fract_x
 _atom_site_fract_y
 _atom_site_fract_z
 _atom_site_occupancy
  Ba  Ba0  1  0.75000000  0.74989900  0.14720800  1
  Ba  Ba1  1  0.75000000  0.24989900  0.35279200  1
  Sr  Sr2  1  0.25000000  0.25117300  0.85339500  1
  Sr  Sr3  1  0.25000000  0.75117300  0.64660500  1
  Sm  Sm4  1  0.75000000  0.08305900  0.10843100  1
  Sm  Sm5  1  0.75000000  0.58305900  0.39156900  1
  Sm  Sm6  1  0.25000000  0.91978800  0.88657400  1
  Sm  Sm7  1  0.25000000  0.41978800  0.61342600  1
  Sm  Sm8  1  0.75000000  0.07299100  0.61533800  1
  Sm  Sm9  1  0.75000000  0.57299100  0.88466200  1
  Sm  Sm10  1  0.25000000  0.92458000  0.38930300  1
  Sm  Sm11  1  0.25000000  0.42458000  0.11069700  1
  O  O12  1  0.75000000  0.98793600  0.28374900  1
  O  O13  1  0.75000000  0.48793600  0.21625100  1
  O  O14  1  0.25000000  0.00895300  0.71683400  1
  O  O15  1  0.25000000  0.50895300  0.78316600  1
  O  O16  1  0.75000000  0.37095900  0.97871700  1
  O  O17  1  0.75000000  0.87095900  0.52128300  1
  O  O18  1  0.25000000  0.62220400  0.01497600  1
  O  O19  1  0.25000000  0.12220400  0.48502400  1
  O  O20  1  0.75000000  0.28637700  0.67756900  1
  O  O21  1  0.75000000  0.78637700  0.82243100  1
  O  O22  1  0.25000000  0.71350300  0.32910200  1
  O  O23  1  0.25000000  0.21350300  0.17089800  1
  O  O24  1  0.75000000  0.07569500  0.91947400  1
  O  O25  1  0.75000000  0.57569500  0.58052600  1
  O  O26  1  0.25000000  0.93288400  0.07487600  1
  O  O27  1  0.25000000  0.43288400  0.42512400  1
