# generated using pymatgen
data_BaSrSmCu3O7
_symmetry_space_group_name_H-M   'P 1'
_cell_length_a   3.79360800
_cell_length_b   3.92789100
_cell_length_c   11.72654300
_cell_angle_alpha   90.00000000
_cell_angle_beta   90.00000000
_cell_angle_gamma   90.00000000
_symmetry_Int_Tables_number   1
_chemical_formula_structural   BaSrSmCu3O7
_chemical_formula_sum   'Ba1 Sr1 Sm1 Cu3 O7'
_cell_volume   174.73579506
_cell_formula_units_Z   1
loop_
 _symmetry_equiv_pos_site_id
 _symmetry_equiv_pos_as_xyz
  1  'x, y, z'
loop_
 _atom_site_type_symbol
 _atom_site_label
 _atom_site_symmetry_multiplicity
 _atom_site_fract_x
 _atom_site_fract_y
 _atom_site_fract_z
 _atom_site_occupancy
  Ba  Ba0  1  0.50000000  0.50000000  0.17703100  1
  Sr  Sr1  1  0.50000000  0.50000000  0.82059200  1
  Sm  Sm2  1  0.50000000  0.50000000  0.50366200  1
  Cu  Cu3  1  0.00000000  0.00000000  0.34904900  1
  Cu  Cu4  1  0.00000000  0.00000000  0.65843600  1
  Cu  Cu5  1  0.00000000  0.00000000  0.99553700  1
  O  O6  1  0.00000000  0.50000000  0.37419300  1
  O  O7  1  0.50000000  0.00000000  0.37786000  1
  O  O8  1  0.00000000  0.50000000  0.63535800  1
  O  O9  1  0.50000000  0.00000000  0.62937200  1
  O  O10  1  0.00000000  0.00000000  0.15504200  1
  O  O11  1  0.00000000  0.00000000  0.83729100  1
  O  O12  1  0.00000000  0.50000000  0.98657700  1
