# generated using pymatgen
data_Ca3Tl4O9
_symmetry_space_group_name_H-M   'P 1'
_cell_length_a   5.89411913
_cell_length_b   5.89411913
_cell_length_c   12.45024753
_cell_angle_alpha   77.77813453
_cell_angle_beta   77.77813453
_cell_angle_gamma   33.45035935
_symmetry_Int_Tables_number   1
_chemical_formula_structural   Ca3Tl4O9
_chemical_formula_sum   'Ca3 Tl4 O9'
_cell_volume   232.51870663
_cell_formula_units_Z   1
loop_
 _symmetry_equiv_pos_site_id
 _symmetry_equiv_pos_as_xyz
  1  'x, y, z'
loop_
 _atom_site_type_symbol
 _atom_site_label
 _atom_site_symmetry_multiplicity
 _atom_site_fract_x
 _atom_site_fract_y
 _atom_site_fract_z
 _atom_site_occupancy
  Ca  Ca0  1  0.45161100  0.45161100  0.28996500  1
  Ca  Ca1  1  0.54907900  0.54907900  0.71015400  1
  Ca  Ca2  1  0.75982400  0.75982400  0.87149300  1
  Tl  Tl3  1  0.84994800  0.84994800  0.56417300  1
  Tl  Tl4  1  0.15096600  0.15096600  0.43838400  1
  Tl  Tl5  1  0.99872700  0.99872700  0.99678700  1
  Tl  Tl6  1  0.23750900  0.23750900  0.12669100  1
  O  O7  1  0.80957200  0.80957200  0.39793400  1
  O  O8  1  0.19332700  0.19332700  0.60330900  1
  O  O9  1  0.90752100  0.90752100  0.71576400  1
  O  O10  1  0.09734200  0.09734200  0.27984400  1
  O  O11  1  0.87498800  0.87498800  0.16116500  1
  O  O12  1  0.12302000  0.12302000  0.83852300  1
  O  O13  1  0.62788100  0.62788100  0.05880200  1
  O  O14  1  0.36543400  0.36543400  0.95375600  1
  O  O15  1  0.50325000  0.50325000  0.49325600  1
