# generated using pymatgen
data_CaLa3Mn4O10
_symmetry_space_group_name_H-M   'P 1'
_cell_length_a   5.62135700
_cell_length_b   5.77306600
_cell_length_c   17.02001640
_cell_angle_alpha   70.88791560
_cell_angle_beta   90.00000000
_cell_angle_gamma   90.00000000
_symmetry_Int_Tables_number   1
_chemical_formula_structural   CaLa3Mn4O10
_chemical_formula_sum   'Ca2 La6 Mn8 O20'
_cell_volume   521.89635529
_cell_formula_units_Z   2
loop_
 _symmetry_equiv_pos_site_id
 _symmetry_equiv_pos_as_xyz
  1  'x, y, z'
loop_
 _atom_site_type_symbol
 _atom_site_label
 _atom_site_symmetry_multiplicity
 _atom_site_fract_x
 _atom_site_fract_y
 _atom_site_fract_z
 _atom_site_occupancy
  Ca  Ca0  1  0.21254900  0.36178500  0.11442600  1
  Ca  Ca1  1  0.78745100  0.36178500  0.61442600  1
  La  La2  1  0.72230800  0.62831700  0.39206900  1
  La  La3  1  0.28199500  0.90517000  0.61502200  1
  La  La4  1  0.78030400  0.09878000  0.88381500  1
  La  La5  1  0.27769200  0.62831700  0.89206900  1
  La  La6  1  0.21969600  0.09878000  0.38381500  1
  La  La7  1  0.71800500  0.90517000  0.11502200  1
  Mn  Mn8  1  0.20213200  0.69882900  0.24641300  1
  Mn  Mn9  1  0.69684100  0.30150500  0.24865000  1
  Mn  Mn10  1  0.30315900  0.30150500  0.74865000  1
  Mn  Mn11  1  0.79786800  0.69882900  0.74641300  1
  Mn  Mn12  1  0.75090300  0.49655100  0.00354800  1
  Mn  Mn13  1  0.24909700  0.49655100  0.50354800  1
  Mn  Mn14  1  0.75060000  0.99885400  0.50417500  1
  Mn  Mn15  1  0.24940000  0.99885400  0.00417500  1
  O  O16  1  0.02291500  0.30854500  0.98028800  1
  O  O17  1  0.52472100  0.68863600  0.51990700  1
  O  O18  1  0.46092200  0.25052800  0.47841800  1
  O  O19  1  0.96203000  0.75616500  0.01635200  1
  O  O20  1  0.47527900  0.68863600  0.01990700  1
  O  O21  1  0.97708500  0.30854500  0.48028800  1
  O  O22  1  0.03797000  0.75616500  0.51635200  1
  O  O23  1  0.53907800  0.25052800  0.97841800  1
  O  O24  1  0.32217400  0.35291600  0.24812700  1
  O  O25  1  0.82269000  0.64635000  0.25128100  1
  O  O26  1  0.17731000  0.64635000  0.75128100  1
  O  O27  1  0.67782600  0.35291600  0.74812700  1
  O  O28  1  0.79996900  0.27029000  0.13861800  1
  O  O29  1  0.29123000  0.72893200  0.35933000  1
  O  O30  1  0.70313900  0.95087800  0.63566800  1
  O  O31  1  0.21516800  0.05697000  0.86389300  1
  O  O32  1  0.70877000  0.72893200  0.85933000  1
  O  O33  1  0.20003100  0.27029000  0.63861800  1
  O  O34  1  0.78483200  0.05697000  0.36389300  1
  O  O35  1  0.29686100  0.95087800  0.13566800  1
