# generated using pymatgen
data_BaVSe2S
_symmetry_space_group_name_H-M   'P 1'
_cell_length_a   6.97391048
_cell_length_b   6.97391048
_cell_length_c   5.96143300
_cell_angle_alpha   90.00000000
_cell_angle_beta   90.00000000
_cell_angle_gamma   120.55257836
_symmetry_Int_Tables_number   1
_chemical_formula_structural   BaVSe2S
_chemical_formula_sum   'Ba2 V2 Se4 S2'
_cell_volume   249.68289449
_cell_formula_units_Z   2
loop_
 _symmetry_equiv_pos_site_id
 _symmetry_equiv_pos_as_xyz
  1  'x, y, z'
loop_
 _atom_site_type_symbol
 _atom_site_label
 _atom_site_symmetry_multiplicity
 _atom_site_fract_x
 _atom_site_fract_y
 _atom_site_fract_z
 _atom_site_occupancy
  Ba  Ba0  1  0.33524500  0.66475500  0.00000000  1
  Ba  Ba1  1  0.66580900  0.33419100  0.50000000  1
  V  V2  1  0.99293200  0.00706800  0.25469000  1
  V  V3  1  0.99293200  0.00706800  0.74531000  1
  Se  Se4  1  0.17055000  0.82945000  0.50000000  1
  Se  Se5  1  0.33445600  0.16995800  0.00000000  1
  Se  Se6  1  0.83004200  0.66554400  0.00000000  1
  Se  Se7  1  0.83077400  0.16922600  0.00000000  1
  S  S8  1  0.68634800  0.83817300  0.50000000  1
  S  S9  1  0.16182700  0.31365200  0.50000000  1
