# generated using pymatgen
data_CCl3
_symmetry_space_group_name_H-M   'P 1'
_cell_length_a   7.81785358
_cell_length_b   6.99329409
_cell_length_c   6.79619679
_cell_angle_alpha   69.05762180
_cell_angle_beta   56.66130853
_cell_angle_gamma   54.28106967
_symmetry_Int_Tables_number   1
_chemical_formula_structural   CCl3
_chemical_formula_sum   'C2 Cl6'
_cell_volume   251.65984594
_cell_formula_units_Z   2
loop_
 _symmetry_equiv_pos_site_id
 _symmetry_equiv_pos_as_xyz
  1  'x, y, z'
loop_
 _atom_site_type_symbol
 _atom_site_label
 _atom_site_symmetry_multiplicity
 _atom_site_fract_x
 _atom_site_fract_y
 _atom_site_fract_z
 _atom_site_occupancy
  C  C0  1  0.91321400  0.96600900  0.08678600  1
  C  C1  1  0.03399100  0.08678600  0.96600900  1
  Cl  Cl2  1  0.70197100  0.01652500  0.03009900  1
  Cl  Cl3  1  0.96990100  0.74859500  0.29802900  1
  Cl  Cl4  1  0.61636400  0.38363600  0.38363600  1
  Cl  Cl5  1  0.25140500  0.03009900  0.01652500  1
  Cl  Cl6  1  0.98347500  0.29802900  0.74859500  1
  Cl  Cl7  1  0.37167900  0.62832100  0.62832100  1
