# generated using pymatgen
data_Ca10P6O25
_symmetry_space_group_name_H-M   'P 1'
_cell_length_a   9.59226597
_cell_length_b   9.59226597
_cell_length_c   6.89958500
_cell_angle_alpha   90.00000000
_cell_angle_beta   90.00000000
_cell_angle_gamma   119.99999979
_symmetry_Int_Tables_number   1
_chemical_formula_structural   Ca10P6O25
_chemical_formula_sum   'Ca10 P6 O25'
_cell_volume   549.78897451
_cell_formula_units_Z   1
loop_
 _symmetry_equiv_pos_site_id
 _symmetry_equiv_pos_as_xyz
  1  'x, y, z'
loop_
 _atom_site_type_symbol
 _atom_site_label
 _atom_site_symmetry_multiplicity
 _atom_site_fract_x
 _atom_site_fract_y
 _atom_site_fract_z
 _atom_site_occupancy
  Ca  Ca0  1  0.33333300  0.66666700  0.50453400  1
  Ca  Ca1  1  0.00000000  0.00000000  0.99826100  1
  Ca  Ca2  1  0.00000000  0.00000000  0.50601800  1
  Ca  Ca3  1  0.33333300  0.66666700  0.99047500  1
  Ca  Ca4  1  0.67034500  0.56181400  0.74731100  1
  Ca  Ca5  1  0.43818600  0.10853100  0.74731100  1
  Ca  Ca6  1  0.89146900  0.32965500  0.74731100  1
  Ca  Ca7  1  0.66854500  0.05676200  0.24959000  1
  Ca  Ca8  1  0.94323800  0.61178300  0.24959000  1
  Ca  Ca9  1  0.38821700  0.33145500  0.24959000  1
  P  P10  1  0.04325500  0.74004400  0.75045700  1
  P  P11  1  0.25995600  0.30321100  0.75045700  1
  P  P12  1  0.69678900  0.95674500  0.75045700  1
  P  P13  1  0.30992700  0.94661300  0.24812700  1
  P  P14  1  0.05338700  0.36331400  0.24812700  1
  P  P15  1  0.63668600  0.69007300  0.24812700  1
  O  O16  1  0.93650400  0.69018600  0.56526700  1
  O  O17  1  0.30981400  0.24631700  0.56526700  1
  O  O18  1  0.75368300  0.06349600  0.56526700  1
  O  O19  1  0.42409100  0.00976100  0.07082200  1
  O  O20  1  0.99023900  0.41433000  0.07082200  1
  O  O21  1  0.58567000  0.57590900  0.07082200  1
  O  O22  1  0.42096700  0.00280600  0.42824700  1
  O  O23  1  0.99719400  0.41816100  0.42824700  1
  O  O24  1  0.58183900  0.57903300  0.42824700  1
  O  O25  1  0.93173300  0.68058200  0.93104600  1
  O  O26  1  0.31941800  0.25115100  0.93104600  1
  O  O27  1  0.74884900  0.06826700  0.93104600  1
  O  O28  1  0.13796300  0.92781600  0.75626500  1
  O  O29  1  0.07218400  0.21014700  0.75626500  1
  O  O30  1  0.78985300  0.86203700  0.75626500  1
  O  O31  1  0.21836800  0.75715500  0.24429200  1
  O  O32  1  0.24284500  0.46121300  0.24429200  1
  O  O33  1  0.53878700  0.78163200  0.24429200  1
  O  O34  1  0.15776500  0.66945100  0.74826000  1
  O  O35  1  0.33054900  0.48831400  0.74826000  1
  O  O36  1  0.51168600  0.84223500  0.74826000  1
  O  O37  1  0.18455300  0.00464100  0.24972600  1
  O  O38  1  0.99535900  0.17991200  0.24972600  1
  O  O39  1  0.82008800  0.81544700  0.24972600  1
  O  O40  1  0.66666700  0.33333300  0.73048700  1
