# generated using pymatgen
data_CaZrSi3H4O11
_symmetry_space_group_name_H-M   'P 1'
_cell_length_a   7.41641400
_cell_length_b   10.31299400
_cell_length_c   12.91969800
_cell_angle_alpha   90.00000000
_cell_angle_beta   90.00000000
_cell_angle_gamma   90.00000000
_symmetry_Int_Tables_number   1
_chemical_formula_structural   CaZrSi3H4O11
_chemical_formula_sum   'Ca4 Zr4 Si12 H16 O44'
_cell_volume   988.16869684
_cell_formula_units_Z   4
loop_
 _symmetry_equiv_pos_site_id
 _symmetry_equiv_pos_as_xyz
  1  'x, y, z'
loop_
 _atom_site_type_symbol
 _atom_site_label
 _atom_site_symmetry_multiplicity
 _atom_site_fract_x
 _atom_site_fract_y
 _atom_site_fract_z
 _atom_site_occupancy
  Ca  Ca0  1  0.00000000  0.50000000  0.00000000  1
  Ca  Ca1  1  0.00000000  0.50000000  0.50000000  1
  Ca  Ca2  1  0.50000000  0.00000000  0.00000000  1
  Ca  Ca3  1  0.50000000  0.00000000  0.50000000  1
  Zr  Zr4  1  0.75751500  0.50000000  0.75000000  1
  Zr  Zr5  1  0.74248500  0.00000000  0.75000000  1
  Zr  Zr6  1  0.24248500  0.50000000  0.25000000  1
  Zr  Zr7  1  0.25751500  0.00000000  0.25000000  1
  Si  Si8  1  0.04625200  0.24764800  0.84807100  1
  Si  Si9  1  0.04625200  0.75235200  0.65192900  1
  Si  Si10  1  0.45374800  0.25235200  0.84807100  1
  Si  Si11  1  0.45374800  0.74764800  0.65192900  1
  Si  Si12  1  0.95374800  0.75235200  0.15192900  1
  Si  Si13  1  0.95374800  0.24764800  0.34807100  1
  Si  Si14  1  0.54625200  0.74764800  0.15192900  1
  Si  Si15  1  0.54625200  0.25235200  0.34807100  1
  Si  Si16  1  0.25000000  0.25000000  0.05445100  1
  Si  Si17  1  0.25000000  0.75000000  0.44554900  1
  Si  Si18  1  0.75000000  0.75000000  0.94554900  1
  Si  Si19  1  0.75000000  0.25000000  0.55445100  1
  H  H20  1  0.62983900  0.37802800  0.04234100  1
  H  H21  1  0.62983900  0.62197200  0.45765900  1
  H  H22  1  0.87016100  0.12197200  0.04234100  1
  H  H23  1  0.87016100  0.87802800  0.45765900  1
  H  H24  1  0.37016100  0.62197200  0.95765900  1
  H  H25  1  0.37016100  0.37802800  0.54234100  1
  H  H26  1  0.12984000  0.87802800  0.95765900  1
  H  H27  1  0.12984000  0.12197200  0.54234100  1
  H  H28  1  0.64186700  0.48223100  0.12937800  1
  H  H29  1  0.64186700  0.51776900  0.37062200  1
  H  H30  1  0.85813300  0.01776900  0.12937800  1
  H  H31  1  0.85813300  0.98223100  0.37062200  1
  H  H32  1  0.35813300  0.51776900  0.87062200  1
  H  H33  1  0.35813300  0.48223100  0.62937800  1
  H  H34  1  0.14186700  0.98223100  0.87062200  1
  H  H35  1  0.14186700  0.01776900  0.62937800  1
  O  O36  1  0.94236600  0.12046700  0.80755200  1
  O  O37  1  0.94236600  0.87953300  0.69244800  1
  O  O38  1  0.55763400  0.37953300  0.80755200  1
  O  O39  1  0.55763400  0.62046700  0.69244800  1
  O  O40  1  0.05763400  0.87953300  0.19244800  1
  O  O41  1  0.05763400  0.12046700  0.30755200  1
  O  O42  1  0.44236600  0.62046700  0.19244800  1
  O  O43  1  0.44236600  0.37953300  0.30755200  1
  O  O44  1  0.94941100  0.38768400  0.83454300  1
  O  O45  1  0.94941100  0.61231600  0.66545700  1
  O  O46  1  0.55058900  0.11231600  0.83454300  1
  O  O47  1  0.55058900  0.88768400  0.66545700  1
  O  O48  1  0.05058900  0.61231600  0.16545700  1
  O  O49  1  0.05058900  0.38768400  0.33454300  1
  O  O50  1  0.44941100  0.88768400  0.16545700  1
  O  O51  1  0.44941100  0.11231600  0.33454300  1
  O  O52  1  0.21135600  0.38185400  0.11774800  1
  O  O53  1  0.21135600  0.61814600  0.38225200  1
  O  O54  1  0.28864400  0.11814600  0.11774800  1
  O  O55  1  0.28864400  0.88185400  0.38225200  1
  O  O56  1  0.78864400  0.61814600  0.88225200  1
  O  O57  1  0.78864400  0.38185400  0.61774800  1
  O  O58  1  0.71135600  0.88185400  0.88225200  1
  O  O59  1  0.71135600  0.11814600  0.61774800  1
  O  O60  1  0.06981500  0.23627100  0.97783000  1
  O  O61  1  0.06981500  0.76372900  0.52217000  1
  O  O62  1  0.43018500  0.26372900  0.97783000  1
  O  O63  1  0.43018500  0.73627100  0.52217000  1
  O  O64  1  0.93018500  0.76372900  0.02217000  1
  O  O65  1  0.93018500  0.23627100  0.47783000  1
  O  O66  1  0.56981500  0.73627100  0.02217000  1
  O  O67  1  0.56981500  0.26372900  0.47783000  1
  O  O68  1  0.71447000  0.43693900  0.07732100  1
  O  O69  1  0.71447000  0.56306100  0.42267900  1
  O  O70  1  0.78553000  0.06306100  0.07732100  1
  O  O71  1  0.78553000  0.93693900  0.42267900  1
  O  O72  1  0.28553000  0.56306100  0.92267900  1
  O  O73  1  0.28553000  0.43693900  0.57732100  1
  O  O74  1  0.21447000  0.93693900  0.92267900  1
  O  O75  1  0.21447000  0.06306100  0.57732100  1
  O  O76  1  0.25000000  0.25000000  0.79900800  1
  O  O77  1  0.25000000  0.75000000  0.70099200  1
  O  O78  1  0.75000000  0.75000000  0.20099200  1
  O  O79  1  0.75000000  0.25000000  0.29900800  1
