# generated using pymatgen
data_Ca8Al9Fe3Si12(HO13)4
_symmetry_space_group_name_H-M   'P 1'
_cell_length_a   5.69885600
_cell_length_b   10.34584000
_cell_length_c   16.30143957
_cell_angle_alpha   81.63744438
_cell_angle_beta   90.00000000
_cell_angle_gamma   90.00000000
_symmetry_Int_Tables_number   1
_chemical_formula_structural   Ca8Al9Fe3Si12(HO13)4
_chemical_formula_sum   'Ca8 Al9 Fe3 Si12 H4 O52'
_cell_volume   950.90488694
_cell_formula_units_Z   1
loop_
 _symmetry_equiv_pos_site_id
 _symmetry_equiv_pos_as_xyz
  1  'x, y, z'
loop_
 _atom_site_type_symbol
 _atom_site_label
 _atom_site_symmetry_multiplicity
 _atom_site_fract_x
 _atom_site_fract_y
 _atom_site_fract_z
 _atom_site_occupancy
  Ca  Ca0  1  0.00000000  0.51470400  0.90791800  1
  Ca  Ca1  1  0.00000000  0.01493400  0.40840900  1
  Ca  Ca2  1  0.50000000  0.48511100  0.09172200  1
  Ca  Ca3  1  0.50000000  0.98514800  0.59176000  1
  Ca  Ca4  1  0.00000000  0.45477600  0.69817500  1
  Ca  Ca5  1  0.00000000  0.95496400  0.19781100  1
  Ca  Ca6  1  0.50000000  0.54512200  0.30221800  1
  Ca  Ca7  1  0.50000000  0.04589400  0.80229300  1
  Al  Al8  1  0.75005500  0.25004200  0.24985300  1
  Al  Al9  1  0.74964000  0.74958300  0.75016800  1
  Al  Al10  1  0.25036000  0.74958300  0.75016800  1
  Al  Al11  1  0.24994500  0.25004200  0.24985300  1
  Al  Al12  1  0.75000800  0.49990400  0.50006000  1
  Al  Al13  1  0.74935700  0.00213000  0.99956000  1
  Al  Al14  1  0.25064300  0.00213000  0.99956000  1
  Al  Al15  1  0.24999200  0.49990400  0.50006000  1
  Al  Al16  1  0.50000000  0.25953400  0.96777000  1
  Fe  Fe17  1  0.50000000  0.75785500  0.46500500  1
  Fe  Fe18  1  0.00000000  0.74267400  0.03477000  1
  Fe  Fe19  1  0.00000000  0.24213200  0.53517600  1
  Si  Si20  1  0.00000000  0.25092700  0.06601400  1
  Si  Si21  1  0.00000000  0.75080900  0.56757500  1
  Si  Si22  1  0.50000000  0.74953300  0.93251600  1
  Si  Si23  1  0.50000000  0.24911400  0.43246600  1
  Si  Si24  1  0.50000000  0.47671500  0.79725700  1
  Si  Si25  1  0.50000000  0.98032600  0.29471800  1
  Si  Si26  1  0.00000000  0.51973000  0.20528700  1
  Si  Si27  1  0.00000000  0.01975200  0.70547100  1
  Si  Si28  1  0.00000000  0.19376700  0.85481400  1
  Si  Si29  1  0.00000000  0.69320700  0.35441600  1
  Si  Si30  1  0.50000000  0.80685200  0.14561300  1
  Si  Si31  1  0.50000000  0.30687400  0.64580300  1
  H  H32  1  0.50000000  0.18998000  0.13541000  1
  H  H33  1  0.50000000  0.68962000  0.63565000  1
  H  H34  1  0.00000000  0.81029500  0.86436000  1
  H  H35  1  0.00000000  0.31018300  0.36434400  1
  O  O36  1  0.75421500  0.13941800  0.90389400  1
  O  O37  1  0.75610700  0.63633000  0.40351200  1
  O  O38  1  0.25722600  0.86472300  0.09626800  1
  O  O39  1  0.25618700  0.36366500  0.59642800  1
  O  O40  1  0.74277400  0.86472300  0.09626800  1
  O  O41  1  0.74381300  0.36366500  0.59642800  1
  O  O42  1  0.24578500  0.13941800  0.90389400  1
  O  O43  1  0.24389300  0.63633000  0.40351200  1
  O  O44  1  0.50000000  0.25586800  0.17344100  1
  O  O45  1  0.50000000  0.75569700  0.67350100  1
  O  O46  1  0.00000000  0.74400100  0.82655400  1
  O  O47  1  0.00000000  0.24416200  0.32638500  1
  O  O48  1  0.00000000  0.23760200  0.16914900  1
  O  O49  1  0.00000000  0.73572800  0.67057500  1
  O  O50  1  0.50000000  0.76390600  0.82975800  1
  O  O51  1  0.50000000  0.26373900  0.32956100  1
  O  O52  1  0.50000000  0.40746300  0.89265200  1
  O  O53  1  0.50000000  0.91800100  0.39088500  1
  O  O54  1  0.00000000  0.58186400  0.10897000  1
  O  O55  1  0.00000000  0.08199800  0.60916500  1
  O  O56  1  0.50000000  0.36381200  0.73537900  1
  O  O57  1  0.50000000  0.86392000  0.23536700  1
  O  O58  1  0.00000000  0.63614300  0.26461200  1
  O  O59  1  0.00000000  0.13575600  0.76515800  1
  O  O60  1  0.00000000  0.34837200  0.83239300  1
  O  O61  1  0.00000000  0.84786900  0.33270400  1
  O  O62  1  0.50000000  0.65210900  0.16718400  1
  O  O63  1  0.50000000  0.15216700  0.66717600  1
  O  O64  1  0.50000000  0.09719300  0.03477900  1
  O  O65  1  0.50000000  0.58913600  0.53863000  1
  O  O66  1  0.00000000  0.91159500  0.96129400  1
  O  O67  1  0.00000000  0.41092800  0.46126000  1
  O  O68  1  0.76331300  0.32600600  0.02448700  1
  O  O69  1  0.76896300  0.83023100  0.52649800  1
  O  O70  1  0.26907200  0.66965300  0.97354300  1
  O  O71  1  0.26884400  0.16974400  0.47346400  1
  O  O72  1  0.73092800  0.66965300  0.97354300  1
  O  O73  1  0.73115600  0.16974400  0.47346400  1
  O  O74  1  0.23668700  0.32600600  0.02448700  1
  O  O75  1  0.23103700  0.83023100  0.52649800  1
  O  O76  1  0.73486200  0.56653300  0.77379300  1
  O  O77  1  0.73704100  0.06778400  0.27210200  1
  O  O78  1  0.23701600  0.43233700  0.22776600  1
  O  O79  1  0.23695000  0.93215400  0.72780100  1
  O  O80  1  0.76298400  0.43233700  0.22776600  1
  O  O81  1  0.76305000  0.93215400  0.72780100  1
  O  O82  1  0.26513800  0.56653300  0.77379300  1
  O  O83  1  0.26295900  0.06778400  0.27210200  1
  O  O84  1  0.00000000  0.09290900  0.05219000  1
  O  O85  1  0.00000000  0.59340200  0.55209600  1
  O  O86  1  0.50000000  0.90700200  0.94822900  1
  O  O87  1  0.50000000  0.40665100  0.44782000  1
