# generated using pymatgen
data_Ca2TbMn3O9
_symmetry_space_group_name_H-M   'P 1'
_cell_length_a   5.36205300
_cell_length_b   7.64914300
_cell_length_c   16.35589900
_cell_angle_alpha   90.00000000
_cell_angle_beta   90.00000000
_cell_angle_gamma   90.00000000
_symmetry_Int_Tables_number   1
_chemical_formula_structural   Ca2TbMn3O9
_chemical_formula_sum   'Ca8 Tb4 Mn12 O36'
_cell_volume   670.83899942
_cell_formula_units_Z   4
loop_
 _symmetry_equiv_pos_site_id
 _symmetry_equiv_pos_as_xyz
  1  'x, y, z'
loop_
 _atom_site_type_symbol
 _atom_site_label
 _atom_site_symmetry_multiplicity
 _atom_site_fract_x
 _atom_site_fract_y
 _atom_site_fract_z
 _atom_site_occupancy
  Ca  Ca0  1  0.50906200  0.75000000  0.48466900  1
  Ca  Ca1  1  0.50907100  0.75000000  0.81854700  1
  Ca  Ca2  1  0.99092900  0.75000000  0.31854700  1
  Ca  Ca3  1  0.99093800  0.75000000  0.98466900  1
  Ca  Ca4  1  0.49092900  0.25000000  0.18145300  1
  Ca  Ca5  1  0.49093800  0.25000000  0.51533100  1
  Ca  Ca6  1  0.00906200  0.25000000  0.01533100  1
  Ca  Ca7  1  0.00907100  0.25000000  0.68145300  1
  Tb  Tb8  1  0.51044400  0.75000000  0.14990400  1
  Tb  Tb9  1  0.98955600  0.75000000  0.64990400  1
  Tb  Tb10  1  0.48955600  0.25000000  0.85009600  1
  Tb  Tb11  1  0.01044400  0.25000000  0.35009600  1
  Mn  Mn12  1  0.00079100  0.00144900  0.16672600  1
  Mn  Mn13  1  0.00000000  0.00000000  0.50000000  1
  Mn  Mn14  1  0.99920900  0.99855100  0.83327400  1
  Mn  Mn15  1  0.50000000  0.50000000  0.00000000  1
  Mn  Mn16  1  0.50079100  0.50144900  0.33327400  1
  Mn  Mn17  1  0.49920900  0.49855100  0.66672600  1
  Mn  Mn18  1  0.00079100  0.49855100  0.16672600  1
  Mn  Mn19  1  0.00000000  0.50000000  0.50000000  1
  Mn  Mn20  1  0.99920900  0.50144900  0.83327400  1
  Mn  Mn21  1  0.50000000  0.00000000  0.00000000  1
  Mn  Mn22  1  0.50079100  0.99855100  0.33327400  1
  Mn  Mn23  1  0.49920900  0.00144900  0.66672600  1
  O  O24  1  0.78788700  0.95198000  0.07143000  1
  O  O25  1  0.79669600  0.96337800  0.40128900  1
  O  O26  1  0.79670600  0.95448800  0.73462700  1
  O  O27  1  0.70329400  0.54551200  0.23462700  1
  O  O28  1  0.71211300  0.54802000  0.57143000  1
  O  O29  1  0.70330400  0.53662200  0.90128900  1
  O  O30  1  0.20329400  0.45448800  0.26537300  1
  O  O31  1  0.20330400  0.46337800  0.59871100  1
  O  O32  1  0.21211300  0.45198000  0.92857000  1
  O  O33  1  0.29669600  0.03662200  0.09871100  1
  O  O34  1  0.28788700  0.04802000  0.42857000  1
  O  O35  1  0.29670600  0.04551200  0.76537300  1
  O  O36  1  0.20329400  0.04551200  0.26537300  1
  O  O37  1  0.20330400  0.03662200  0.59871100  1
  O  O38  1  0.21211300  0.04802000  0.92857000  1
  O  O39  1  0.29669600  0.46337800  0.09871100  1
  O  O40  1  0.28788700  0.45198000  0.42857000  1
  O  O41  1  0.29670600  0.45448800  0.76537300  1
  O  O42  1  0.78788700  0.54802000  0.07143000  1
  O  O43  1  0.79669600  0.53662200  0.40128900  1
  O  O44  1  0.79670600  0.54551200  0.73462700  1
  O  O45  1  0.70329400  0.95448800  0.23462700  1
  O  O46  1  0.71211300  0.95198000  0.57143000  1
  O  O47  1  0.70330400  0.96337800  0.90128900  1
  O  O48  1  0.42083800  0.75000000  0.00857800  1
  O  O49  1  0.42150500  0.75000000  0.33870300  1
  O  O50  1  0.41223600  0.75000000  0.67303000  1
  O  O51  1  0.08776400  0.75000000  0.17303000  1
  O  O52  1  0.07916200  0.75000000  0.50857800  1
  O  O53  1  0.07849500  0.75000000  0.83870300  1
  O  O54  1  0.58776400  0.25000000  0.32697000  1
  O  O55  1  0.57849500  0.25000000  0.66129700  1
  O  O56  1  0.57916200  0.25000000  0.99142200  1
  O  O57  1  0.92150500  0.25000000  0.16129700  1
  O  O58  1  0.92083800  0.25000000  0.49142200  1
  O  O59  1  0.91223600  0.25000000  0.82697000  1
