data_image0
_chemical_formula_structural       C3Gd2Mo2
_chemical_formula_sum              "C3 Gd2 Mo2"
_cell_length_a       3.37044
_cell_length_b       5.77054
_cell_length_c       6.1783
_cell_angle_alpha    112.269
_cell_angle_beta     105.829
_cell_angle_gamma    90

_space_group_name_H-M_alt    "P 1"
_space_group_IT_number       1

loop_
  _space_group_symop_operation_xyz
  'x, y, z'

loop_
  _atom_site_type_symbol
  _atom_site_label
  _atom_site_symmetry_multiplicity
  _atom_site_fract_x
  _atom_site_fract_y
  _atom_site_fract_z
  _atom_site_occupancy
  C   C1        1.0  0.00000  0.00000  0.00000  1.0000
  C   C2        1.0  0.25000  0.73200  0.49900  1.0000
  C   C3        1.0  0.75000  0.26800  0.50100  1.0000
  Gd  Gd1       1.0  0.60900  0.82100  0.21900  1.0000
  Gd  Gd2       1.0  0.39100  0.17900  0.78100  1.0000
  Mo  Mo1       1.0  0.15800  0.32500  0.31600  1.0000
  Mo  Mo2       1.0  0.84200  0.67500  0.68400  1.0000
