# generated using pymatgen
data_Ca2HoMn4BiO12
_symmetry_space_group_name_H-M   'P 1'
_cell_length_a   7.63653500
_cell_length_b   5.39354500
_cell_length_c   5.56305115
_cell_angle_alpha   89.66313740
_cell_angle_beta   90.00000000
_cell_angle_gamma   90.00000000
_symmetry_Int_Tables_number   1
_chemical_formula_structural   Ca2HoMn4BiO12
_chemical_formula_sum   'Ca2 Ho1 Mn4 Bi1 O12'
_cell_volume   229.12696365
_cell_formula_units_Z   1
loop_
 _symmetry_equiv_pos_site_id
 _symmetry_equiv_pos_as_xyz
  1  'x, y, z'
loop_
 _atom_site_type_symbol
 _atom_site_label
 _atom_site_symmetry_multiplicity
 _atom_site_fract_x
 _atom_site_fract_y
 _atom_site_fract_z
 _atom_site_occupancy
  Ca  Ca0  1  0.50000000  0.98794300  0.04622400  1
  Ca  Ca1  1  0.00000000  0.48970900  0.44894000  1
  Ho  Ho2  1  0.00000000  0.01609500  0.93780300  1
  Mn  Mn3  1  0.24668300  0.49974300  0.00286400  1
  Mn  Mn4  1  0.75292000  0.00099000  0.49561400  1
  Mn  Mn5  1  0.75331700  0.49974300  0.00286400  1
  Mn  Mn6  1  0.24708000  0.00099000  0.49561400  1
  Bi  Bi7  1  0.50000000  0.51292400  0.55491000  1
  O  O8  1  0.50000000  0.08943700  0.46984900  1
  O  O9  1  0.50000000  0.41710700  0.97787100  1
  O  O10  1  0.00000000  0.91489200  0.53469300  1
  O  O11  1  0.00000000  0.60240800  0.02451800  1
  O  O12  1  0.29171700  0.70117500  0.29660100  1
  O  O13  1  0.80363900  0.19803700  0.19932000  1
  O  O14  1  0.80069200  0.28774700  0.71346700  1
  O  O15  1  0.29036200  0.79705200  0.79472900  1
  O  O16  1  0.19930800  0.28774700  0.71346700  1
  O  O17  1  0.70963800  0.79705200  0.79472900  1
  O  O18  1  0.70828300  0.70117500  0.29660100  1
  O  O19  1  0.19636100  0.19803700  0.19932000  1
