# generated using pymatgen
data_BaSr2Tm6O12
_symmetry_space_group_name_H-M   'P 1'
_cell_length_a   3.40787700
_cell_length_b   10.28239857
_cell_length_c   10.28238787
_cell_angle_alpha   120.00011723
_cell_angle_beta   90.00000000
_cell_angle_gamma   90.00000000
_symmetry_Int_Tables_number   1
_chemical_formula_structural   BaSr2Tm6O12
_chemical_formula_sum   'Ba1 Sr2 Tm6 O12'
_cell_volume   312.03437940
_cell_formula_units_Z   1
loop_
 _symmetry_equiv_pos_site_id
 _symmetry_equiv_pos_as_xyz
  1  'x, y, z'
loop_
 _atom_site_type_symbol
 _atom_site_label
 _atom_site_symmetry_multiplicity
 _atom_site_fract_x
 _atom_site_fract_y
 _atom_site_fract_z
 _atom_site_occupancy
  Ba  Ba0  1  0.75000000  0.00000300  0.00000400  1
  Sr  Sr1  1  0.75000000  0.66667100  0.33333700  1
  Sr  Sr2  1  0.25000000  0.33333700  0.66667100  1
  Tm  Tm3  1  0.25000000  0.34716500  0.00088800  1
  Tm  Tm4  1  0.25000000  0.99911000  0.34627500  1
  Tm  Tm5  1  0.25000000  0.65372200  0.65283600  1
  Tm  Tm6  1  0.75000000  0.65081800  0.99985800  1
  Tm  Tm7  1  0.75000000  0.00014400  0.65096300  1
  Tm  Tm8  1  0.75000000  0.34904000  0.34917900  1
  O  O9  1  0.75000000  0.30772300  0.11424700  1
  O  O10  1  0.75000000  0.88575100  0.19347300  1
  O  O11  1  0.75000000  0.80652600  0.69228000  1
  O  O12  1  0.25000000  0.70992800  0.89461100  1
  O  O13  1  0.25000000  0.10538800  0.81532400  1
  O  O14  1  0.25000000  0.18467400  0.29005500  1
  O  O15  1  0.75000000  0.39599600  0.87514100  1
  O  O16  1  0.75000000  0.12485900  0.52085700  1
  O  O17  1  0.75000000  0.47914300  0.60400100  1
  O  O18  1  0.25000000  0.60167500  0.12194100  1
  O  O19  1  0.25000000  0.87806200  0.47973600  1
  O  O20  1  0.25000000  0.52026400  0.39832400  1
