# generated using pymatgen
data_La6NbGa11O28
_symmetry_space_group_name_H-M   'P 1'
_cell_length_a   8.48186767
_cell_length_b   9.69833668
_cell_length_c   9.71315345
_cell_angle_alpha   64.77335026
_cell_angle_beta   65.34076208
_cell_angle_gamma   64.23367332
_symmetry_Int_Tables_number   1
_chemical_formula_structural   La6NbGa11O28
_chemical_formula_sum   'La6 Nb1 Ga11 O28'
_cell_volume   623.99692274
_cell_formula_units_Z   1
loop_
 _symmetry_equiv_pos_site_id
 _symmetry_equiv_pos_as_xyz
  1  'x, y, z'
loop_
 _atom_site_type_symbol
 _atom_site_label
 _atom_site_symmetry_multiplicity
 _atom_site_fract_x
 _atom_site_fract_y
 _atom_site_fract_z
 _atom_site_occupancy
  La  La0  1  0.43526800  0.01404200  0.99509300  1
  La  La1  1  0.41008800  0.50743000  0.51588900  1
  La  La2  1  0.57033200  0.71628300  0.72918300  1
  La  La3  1  0.54070900  0.20724900  0.23852400  1
  La  La4  1  0.00030800  0.28307300  0.29092500  1
  La  La5  1  0.00371100  0.80167700  0.79071800  1
  Nb  Nb6  1  0.99343500  0.01792900  0.01439900  1
  Ga  Ga7  1  0.75189800  0.27967600  0.75100300  1
  Ga  Ga8  1  0.74789200  0.74313500  0.23424200  1
  Ga  Ga9  1  0.27330000  0.09820200  0.61886800  1
  Ga  Ga10  1  0.24486800  0.62748300  0.15598200  1
  Ga  Ga11  1  0.39513400  0.90731000  0.41575600  1
  Ga  Ga12  1  0.32164700  0.44816900  0.91371000  1
  Ga  Ga13  1  0.65111500  0.07778900  0.60839700  1
  Ga  Ga14  1  0.63769200  0.60653500  0.11398400  1
  Ga  Ga15  1  0.92900800  0.83179800  0.40234600  1
  Ga  Ga16  1  0.06144700  0.36942700  0.79827400  1
  Ga  Ga17  1  0.00448200  0.48447000  0.48821900  1
  O  O18  1  0.20922100  0.32105200  0.59738000  1
  O  O19  1  0.21364600  0.85424100  0.09040200  1
  O  O20  1  0.79828400  0.69861100  0.42379100  1
  O  O21  1  0.76985000  0.20242500  0.96675700  1
  O  O22  1  0.87112800  0.02330500  0.24301200  1
  O  O23  1  0.85963200  0.48707000  0.72268200  1
  O  O24  1  0.13883500  0.65269100  0.41060000  1
  O  O25  1  0.10907100  0.18650800  0.96497700  1
  O  O26  1  0.55892900  0.96178600  0.21209300  1
  O  O27  1  0.53267500  0.44952600  0.74053600  1
  O  O28  1  0.43567300  0.02397200  0.75115500  1
  O  O29  1  0.48825300  0.49240900  0.16634700  1
  O  O30  1  0.20767800  0.10193500  0.43544700  1
  O  O31  1  0.15673900  0.51153200  0.79426000  1
  O  O32  1  0.85055400  0.88707500  0.58571300  1
  O  O33  1  0.85203000  0.54519600  0.16331600  1
  O  O34  1  0.87910300  0.33806000  0.53402900  1
  O  O35  1  0.90612900  0.84272000  0.04873700  1
  O  O36  1  0.08861300  0.01686400  0.78626300  1
  O  O37  1  0.14267800  0.45953100  0.27971100  1
  O  O38  1  0.51081400  0.97536800  0.50155200  1
  O  O39  1  0.28319300  0.64045600  0.93967400  1
  O  O40  1  0.69723900  0.09750600  0.77456800  1
  O  O41  1  0.51728100  0.69942800  0.28805600  1
  O  O42  1  0.63612500  0.25759800  0.43340400  1
  O  O43  1  0.66485600  0.75300200  0.91702200  1
  O  O44  1  0.32077400  0.75246600  0.59352100  1
  O  O45  1  0.32866400  0.25969100  0.07318200  1
