# generated using pymatgen
data_BaSr3Zr2Ti2O12
_symmetry_space_group_name_H-M   'P 1'
_cell_length_a   10.03140278
_cell_length_b   10.03140278
_cell_length_c   10.03140280
_cell_angle_alpha   33.46883168
_cell_angle_beta   33.46883168
_cell_angle_gamma   33.46883151
_symmetry_Int_Tables_number   1
_chemical_formula_structural   BaSr3Zr2Ti2O12
_chemical_formula_sum   'Ba1 Sr3 Zr2 Ti2 O12'
_cell_volume   273.41952180
_cell_formula_units_Z   1
loop_
 _symmetry_equiv_pos_site_id
 _symmetry_equiv_pos_as_xyz
  1  'x, y, z'
loop_
 _atom_site_type_symbol
 _atom_site_label
 _atom_site_symmetry_multiplicity
 _atom_site_fract_x
 _atom_site_fract_y
 _atom_site_fract_z
 _atom_site_occupancy
  Ba  Ba0  1  0.37776000  0.37776000  0.37776000  1
  Sr  Sr1  1  0.12509800  0.12509800  0.12509800  1
  Sr  Sr2  1  0.87121500  0.87121500  0.87121500  1
  Sr  Sr3  1  0.62437200  0.62437200  0.62437200  1
  Zr  Zr4  1  0.24734900  0.24734900  0.24734900  1
  Zr  Zr5  1  0.00178200  0.00178200  0.00178200  1
  Ti  Ti6  1  0.75252900  0.75252900  0.75252900  1
  Ti  Ti7  1  0.49869000  0.49869000  0.49869000  1
  O  O8  1  0.39001000  0.87239100  0.87239100  1
  O  O9  1  0.12247000  0.62763800  0.62763800  1
  O  O10  1  0.85904500  0.37765100  0.37765100  1
  O  O11  1  0.62643800  0.12239100  0.12239100  1
  O  O12  1  0.62763800  0.62763800  0.12247000  1
  O  O13  1  0.37765100  0.37765100  0.85904500  1
  O  O14  1  0.12239100  0.12239100  0.62643800  1
  O  O15  1  0.87239100  0.87239100  0.39001000  1
  O  O16  1  0.62763800  0.12247000  0.62763800  1
  O  O17  1  0.37765100  0.85904500  0.37765100  1
  O  O18  1  0.12239100  0.62643800  0.12239100  1
  O  O19  1  0.87239100  0.39001000  0.87239100  1
