# generated using pymatgen
data_Ca3Nb4(O6F)2
_symmetry_space_group_name_H-M   'P 1'
_cell_length_a   7.43925344
_cell_length_b   7.43925344
_cell_length_c   7.43925290
_cell_angle_alpha   60.88562484
_cell_angle_beta   60.88562484
_cell_angle_gamma   60.88562731
_symmetry_Int_Tables_number   1
_chemical_formula_structural   Ca3Nb4(O6F)2
_chemical_formula_sum   'Ca3 Nb4 O12 F2'
_cell_volume   296.93259578
_cell_formula_units_Z   1
loop_
 _symmetry_equiv_pos_site_id
 _symmetry_equiv_pos_as_xyz
  1  'x, y, z'
loop_
 _atom_site_type_symbol
 _atom_site_label
 _atom_site_symmetry_multiplicity
 _atom_site_fract_x
 _atom_site_fract_y
 _atom_site_fract_z
 _atom_site_occupancy
  Ca  Ca0  1  0.00000000  0.50000000  0.50000000  1
  Ca  Ca1  1  0.50000000  0.50000000  0.00000000  1
  Ca  Ca2  1  0.50000000  0.00000000  0.50000000  1
  Nb  Nb3  1  0.00000000  0.00000000  0.00000000  1
  Nb  Nb4  1  0.50000000  0.00000000  0.00000000  1
  Nb  Nb5  1  0.00000000  0.00000000  0.50000000  1
  Nb  Nb6  1  0.00000000  0.50000000  0.00000000  1
  O  O7  1  0.94404900  0.31491800  0.31491800  1
  O  O8  1  0.31894300  0.92830300  0.92830300  1
  O  O9  1  0.31491800  0.31491800  0.94404900  1
  O  O10  1  0.92830300  0.92830300  0.31894300  1
  O  O11  1  0.92830300  0.31894300  0.92830300  1
  O  O12  1  0.31491800  0.94404900  0.31491800  1
  O  O13  1  0.05595100  0.68508200  0.68508200  1
  O  O14  1  0.68105700  0.07169700  0.07169700  1
  O  O15  1  0.68508200  0.68508200  0.05595100  1
  O  O16  1  0.07169700  0.07169700  0.68105700  1
  O  O17  1  0.07169700  0.68105700  0.07169700  1
  O  O18  1  0.68508200  0.05595100  0.68508200  1
  F  F19  1  0.35927100  0.35927100  0.35927100  1
  F  F20  1  0.64072900  0.64072900  0.64072900  1
