# generated using pymatgen
data_Ca3Si2GeO9
_symmetry_space_group_name_H-M   'P 1'
_cell_length_a   7.20305775
_cell_length_b   7.49154276
_cell_length_c   8.09251673
_cell_angle_alpha   103.21513404
_cell_angle_beta   95.43905800
_cell_angle_gamma   90.67809887
_symmetry_Int_Tables_number   1
_chemical_formula_structural   Ca3Si2GeO9
_chemical_formula_sum   'Ca6 Si4 Ge2 O18'
_cell_volume   422.95730407
_cell_formula_units_Z   2
loop_
 _symmetry_equiv_pos_site_id
 _symmetry_equiv_pos_as_xyz
  1  'x, y, z'
loop_
 _atom_site_type_symbol
 _atom_site_label
 _atom_site_symmetry_multiplicity
 _atom_site_fract_x
 _atom_site_fract_y
 _atom_site_fract_z
 _atom_site_occupancy
  Ca  Ca0  1  0.76154500  0.42042500  0.20093600  1
  Ca  Ca1  1  0.23845500  0.57957500  0.79906400  1
  Ca  Ca2  1  0.76298500  0.93079100  0.20724400  1
  Ca  Ca3  1  0.23701500  0.06920900  0.79275600  1
  Ca  Ca4  1  0.47111400  0.24646700  0.49632300  1
  Ca  Ca5  1  0.52888600  0.75353300  0.50367700  1
  Si  Si6  1  0.26892700  0.95258900  0.18555800  1
  Si  Si7  1  0.73107300  0.04741100  0.81444200  1
  Si  Si8  1  0.05351100  0.72545400  0.39761500  1
  Si  Si9  1  0.94648900  0.27454600  0.60238500  1
  Ge  Ge10  1  0.27110200  0.38987100  0.18357600  1
  Ge  Ge11  1  0.72889800  0.61012900  0.81642400  1
  O  O12  1  0.80041900  0.23086500  0.43147200  1
  O  O13  1  0.19958100  0.76913500  0.56852800  1
  O  O14  1  0.08037100  0.51464400  0.27556300  1
  O  O15  1  0.91962900  0.48535600  0.72443700  1
  O  O16  1  0.73789500  0.12955800  0.01852300  1
  O  O17  1  0.26210500  0.87044200  0.98147700  1
  O  O18  1  0.46471000  0.93610800  0.30014200  1
  O  O19  1  0.53529000  0.06389200  0.69985800  1
  O  O20  1  0.82834800  0.72942500  0.40099800  1
  O  O21  1  0.17165200  0.27057500  0.59900200  1
  O  O22  1  0.09381200  0.86676000  0.26892100  1
  O  O23  1  0.90618800  0.13324000  0.73107900  1
  O  O24  1  0.73137200  0.63150600  0.03261200  1
  O  O25  1  0.26862800  0.36849400  0.96738800  1
  O  O26  1  0.22112600  0.17281900  0.22921900  1
  O  O27  1  0.77887400  0.82718100  0.77078100  1
  O  O28  1  0.47783400  0.46580700  0.31282500  1
  O  O29  1  0.52216600  0.53419300  0.68717500  1
