# generated using pymatgen
data_Ca3HoMn4O12
_symmetry_space_group_name_H-M   'P 1'
_cell_length_a   7.57885700
_cell_length_b   5.34741400
_cell_length_c   5.46762928
_cell_angle_alpha   89.98174542
_cell_angle_beta   90.00000000
_cell_angle_gamma   90.00000000
_symmetry_Int_Tables_number   1
_chemical_formula_structural   Ca3HoMn4O12
_chemical_formula_sum   'Ca3 Ho1 Mn4 O12'
_cell_volume   221.58816437
_cell_formula_units_Z   1
loop_
 _symmetry_equiv_pos_site_id
 _symmetry_equiv_pos_as_xyz
  1  'x, y, z'
loop_
 _atom_site_type_symbol
 _atom_site_label
 _atom_site_symmetry_multiplicity
 _atom_site_fract_x
 _atom_site_fract_y
 _atom_site_fract_z
 _atom_site_occupancy
  Ca  Ca0  1  0.50000000  0.00885900  0.04920800  1
  Ca  Ca1  1  0.00000000  0.50892000  0.45508400  1
  Ca  Ca2  1  0.00000000  0.98995300  0.95256500  1
  Ho  Ho3  1  0.50000000  0.48705700  0.56076900  1
  Mn  Mn4  1  0.24911800  0.99796000  0.49914400  1
  Mn  Mn5  1  0.75110900  0.50178200  0.00385700  1
  Mn  Mn6  1  0.75088200  0.99796000  0.49914400  1
  Mn  Mn7  1  0.24889100  0.50178200  0.00385700  1
  O  O8  1  0.50000000  0.58079300  0.97283200  1
  O  O9  1  0.50000000  0.90579500  0.47970000  1
  O  O10  1  0.00000000  0.41778100  0.02341100  1
  O  O11  1  0.00000000  0.07894300  0.52457100  1
  O  O12  1  0.30032500  0.21361300  0.78467500  1
  O  O13  1  0.70104100  0.29959000  0.29793500  1
  O  O14  1  0.79036100  0.79878800  0.20369900  1
  O  O15  1  0.21556600  0.69921700  0.70161900  1
  O  O16  1  0.20963900  0.79878800  0.20369900  1
  O  O17  1  0.78443400  0.69921700  0.70161900  1
  O  O18  1  0.69967500  0.21361300  0.78467500  1
  O  O19  1  0.29895900  0.29959000  0.29793500  1
