# generated using pymatgen
data_BaSr2In2O6
_symmetry_space_group_name_H-M   'P 1'
_cell_length_a   10.91872600
_cell_length_b   10.91872600
_cell_length_c   10.91872600
_cell_angle_alpha   157.86914574
_cell_angle_beta   157.86914574
_cell_angle_gamma   31.49872479
_symmetry_Int_Tables_number   1
_chemical_formula_structural   BaSr2In2O6
_chemical_formula_sum   'Ba1 Sr2 In2 O6'
_cell_volume   184.60466070
_cell_formula_units_Z   1
loop_
 _symmetry_equiv_pos_site_id
 _symmetry_equiv_pos_as_xyz
  1  'x, y, z'
loop_
 _atom_site_type_symbol
 _atom_site_label
 _atom_site_symmetry_multiplicity
 _atom_site_fract_x
 _atom_site_fract_y
 _atom_site_fract_z
 _atom_site_occupancy
  Ba  Ba0  1  0.31722400  0.31722400  0.00000000  1
  Sr  Sr1  1  0.50086600  0.50086600  0.00000000  1
  Sr  Sr2  1  0.68191800  0.68191800  0.00000000  1
  In  In3  1  0.90112700  0.90112700  0.00000000  1
  In  In4  1  0.09807800  0.09807800  0.00000000  1
  O  O5  1  0.92267400  0.42267400  0.50000000  1
  O  O6  1  0.42267400  0.92267400  0.50000000  1
  O  O7  1  0.07931400  0.57931400  0.50000000  1
  O  O8  1  0.57931400  0.07931400  0.50000000  1
  O  O9  1  0.79935800  0.79935800  0.00000000  1
  O  O10  1  0.19745300  0.19745300  0.00000000  1
