# generated using pymatgen
data_Ca2LaMn3O9
_symmetry_space_group_name_H-M   'P 1'
_cell_length_a   5.43580100
_cell_length_b   7.73036300
_cell_length_c   16.36513900
_cell_angle_alpha   90.00000000
_cell_angle_beta   90.00000000
_cell_angle_gamma   90.00000000
_symmetry_Int_Tables_number   1
_chemical_formula_structural   Ca2LaMn3O9
_chemical_formula_sum   'Ca8 La4 Mn12 O36'
_cell_volume   687.67484064
_cell_formula_units_Z   4
loop_
 _symmetry_equiv_pos_site_id
 _symmetry_equiv_pos_as_xyz
  1  'x, y, z'
loop_
 _atom_site_type_symbol
 _atom_site_label
 _atom_site_symmetry_multiplicity
 _atom_site_fract_x
 _atom_site_fract_y
 _atom_site_fract_z
 _atom_site_occupancy
  Ca  Ca0  1  0.51082900  0.75000000  0.51350700  1
  Ca  Ca1  1  0.50503700  0.75000000  0.17789200  1
  Ca  Ca2  1  0.99496300  0.75000000  0.67789200  1
  Ca  Ca3  1  0.98917100  0.75000000  0.01350700  1
  Ca  Ca4  1  0.49496300  0.25000000  0.82210800  1
  Ca  Ca5  1  0.48917100  0.25000000  0.48649300  1
  Ca  Ca6  1  0.01082900  0.25000000  0.98649300  1
  Ca  Ca7  1  0.00503700  0.25000000  0.32210800  1
  La  La8  1  0.50425700  0.75000000  0.84071900  1
  La  La9  1  0.99574300  0.75000000  0.34071900  1
  La  La10  1  0.49574300  0.25000000  0.15928100  1
  La  La11  1  0.00425700  0.25000000  0.65928100  1
  Mn  Mn12  1  0.00076500  0.00118800  0.83519500  1
  Mn  Mn13  1  0.00000000  0.00000000  0.50000000  1
  Mn  Mn14  1  0.99923500  0.99881200  0.16480500  1
  Mn  Mn15  1  0.50000000  0.50000000  0.00000000  1
  Mn  Mn16  1  0.50076500  0.50118800  0.66480500  1
  Mn  Mn17  1  0.49923500  0.49881200  0.33519500  1
  Mn  Mn18  1  0.00076500  0.49881200  0.83519500  1
  Mn  Mn19  1  0.00000000  0.50000000  0.50000000  1
  Mn  Mn20  1  0.99923500  0.50118800  0.16480500  1
  Mn  Mn21  1  0.50000000  0.00000000  0.00000000  1
  Mn  Mn22  1  0.50076500  0.99881200  0.66480500  1
  Mn  Mn23  1  0.49923500  0.00118800  0.33519500  1
  O  O24  1  0.41798800  0.75000000  0.99363500  1
  O  O25  1  0.42713100  0.75000000  0.66356200  1
  O  O26  1  0.43775400  0.75000000  0.32827600  1
  O  O27  1  0.06224600  0.75000000  0.82827600  1
  O  O28  1  0.08201200  0.75000000  0.49363500  1
  O  O29  1  0.07286900  0.75000000  0.16356200  1
  O  O30  1  0.56224600  0.25000000  0.67172400  1
  O  O31  1  0.57286900  0.25000000  0.33643800  1
  O  O32  1  0.58201200  0.25000000  0.00636500  1
  O  O33  1  0.92713100  0.25000000  0.83643800  1
  O  O34  1  0.91798800  0.25000000  0.50636500  1
  O  O35  1  0.93775400  0.25000000  0.17172400  1
  O  O36  1  0.78471200  0.95621900  0.92857500  1
  O  O37  1  0.79175000  0.96050600  0.59592600  1
  O  O38  1  0.77704800  0.96738900  0.25988200  1
  O  O39  1  0.72295200  0.53261100  0.75988200  1
  O  O40  1  0.71528800  0.54378100  0.42857500  1
  O  O41  1  0.70825000  0.53949400  0.09592600  1
  O  O42  1  0.22295200  0.46738900  0.74011800  1
  O  O43  1  0.20825000  0.46050600  0.40407400  1
  O  O44  1  0.21528800  0.45621900  0.07142500  1
  O  O45  1  0.29175000  0.03949400  0.90407400  1
  O  O46  1  0.28471200  0.04378100  0.57142500  1
  O  O47  1  0.27704800  0.03261100  0.24011800  1
  O  O48  1  0.22295200  0.03261100  0.74011800  1
  O  O49  1  0.20825000  0.03949400  0.40407400  1
  O  O50  1  0.21528800  0.04378100  0.07142500  1
  O  O51  1  0.29175000  0.46050600  0.90407400  1
  O  O52  1  0.28471200  0.45621900  0.57142500  1
  O  O53  1  0.27704800  0.46738900  0.24011800  1
  O  O54  1  0.78471200  0.54378100  0.92857500  1
  O  O55  1  0.79175000  0.53949400  0.59592600  1
  O  O56  1  0.77704800  0.53261100  0.25988200  1
  O  O57  1  0.72295200  0.96738900  0.75988200  1
  O  O58  1  0.71528800  0.95621900  0.42857500  1
  O  O59  1  0.70825000  0.96050600  0.09592600  1
