# generated using pymatgen
data_Ca6Mn3Al(SiO6)4
_symmetry_space_group_name_H-M   'P 1'
_cell_length_a   10.60334599
_cell_length_b   10.57571726
_cell_length_c   10.60334599
_cell_angle_alpha   69.91912476
_cell_angle_beta   70.76447601
_cell_angle_gamma   109.20526731
_symmetry_Int_Tables_number   1
_chemical_formula_structural   Ca6Mn3Al(SiO6)4
_chemical_formula_sum   'Ca12 Mn6 Al2 Si8 O48'
_cell_volume   914.04802336
_cell_formula_units_Z   2
loop_
 _symmetry_equiv_pos_site_id
 _symmetry_equiv_pos_as_xyz
  1  'x, y, z'
loop_
 _atom_site_type_symbol
 _atom_site_label
 _atom_site_symmetry_multiplicity
 _atom_site_fract_x
 _atom_site_fract_y
 _atom_site_fract_z
 _atom_site_occupancy
  Ca  Ca0  1  0.13217700  0.38053300  0.24836200  1
  Ca  Ca1  1  0.62889500  0.88053300  0.25164400  1
  Ca  Ca2  1  0.86935800  0.25000000  0.88064200  1
  Ca  Ca3  1  0.13064200  0.75000000  0.11935800  1
  Ca  Ca4  1  0.86782300  0.61946700  0.75163800  1
  Ca  Ca5  1  0.37110500  0.11946700  0.74835600  1
  Ca  Ca6  1  0.36823000  0.25000000  0.38177000  1
  Ca  Ca7  1  0.63177000  0.75000000  0.61823000  1
  Ca  Ca8  1  0.74818600  0.87420200  0.87390500  1
  Ca  Ca9  1  0.74810700  0.37420200  0.37398400  1
  Ca  Ca10  1  0.25181400  0.12579800  0.12609500  1
  Ca  Ca11  1  0.25189300  0.62579800  0.62601600  1
  Mn  Mn12  1  0.50000000  0.00000000  0.00000000  1
  Mn  Mn13  1  0.00000000  0.50000000  0.00000000  1
  Mn  Mn14  1  0.50000000  0.50000000  0.00000000  1
  Mn  Mn15  1  0.50000000  0.00000000  0.50000000  1
  Mn  Mn16  1  0.50000000  0.50000000  0.50000000  1
  Mn  Mn17  1  0.00000000  0.00000000  0.50000000  1
  Al  Al18  1  0.00000000  0.50000000  0.50000000  1
  Al  Al19  1  0.00000000  0.00000000  0.00000000  1
  Si  Si20  1  0.37919000  0.63019300  0.24907200  1
  Si  Si21  1  0.87926600  0.13019300  0.24899700  1
  Si  Si22  1  0.61961900  0.25000000  0.13038100  1
  Si  Si23  1  0.38038100  0.75000000  0.86961900  1
  Si  Si24  1  0.62081000  0.36980700  0.75092800  1
  Si  Si25  1  0.12073400  0.86980700  0.75100300  1
  Si  Si26  1  0.11594100  0.25000000  0.63405900  1
  Si  Si27  1  0.88405900  0.75000000  0.36594100  1
  O  O28  1  0.89699500  0.80147900  0.49546300  1
  O  O29  1  0.29694200  0.30147900  0.59551600  1
  O  O30  1  0.10549900  0.90640700  0.89278200  1
  O  O31  1  0.79918900  0.40640700  0.69909200  1
  O  O32  1  0.10300500  0.19852100  0.50453700  1
  O  O33  1  0.70305800  0.69852100  0.40448400  1
  O  O34  1  0.89450100  0.09359300  0.10721800  1
  O  O35  1  0.20081100  0.59359300  0.30090800  1
  O  O36  1  0.20019600  0.60703900  0.99743000  1
  O  O37  1  0.60446900  0.10703900  0.09315700  1
  O  O38  1  0.69964900  0.00196900  0.39405700  1
  O  O39  1  0.39602600  0.50196900  0.19768000  1
  O  O40  1  0.79980400  0.39296100  0.00257000  1
  O  O41  1  0.39553100  0.89296100  0.90684300  1
  O  O42  1  0.30035100  0.99803100  0.60594300  1
  O  O43  1  0.60397400  0.49803100  0.80232000  1
  O  O44  1  0.92803500  0.61169300  0.38297900  1
  O  O45  1  0.99467100  0.11169300  0.81634200  1
  O  O46  1  0.07652800  0.68696000  0.80587200  1
  O  O47  1  0.49283300  0.18696000  0.88956700  1
  O  O48  1  0.07196500  0.38830700  0.61702100  1
  O  O49  1  0.00532900  0.88830700  0.18365800  1
  O  O50  1  0.92347200  0.31304000  0.19412800  1
  O  O51  1  0.50716700  0.81304000  0.11043300  1
  O  O52  1  0.50631900  0.69436800  0.88248500  1
  O  O53  1  0.57685300  0.19436800  0.31195200  1
  O  O54  1  0.00502100  0.11723100  0.30607700  1
  O  O55  1  0.42330900  0.61723100  0.38779000  1
  O  O56  1  0.49368100  0.30563200  0.11751500  1
  O  O57  1  0.42314700  0.80563200  0.68804800  1
  O  O58  1  0.99497900  0.88276900  0.69392300  1
  O  O59  1  0.57669100  0.38276900  0.61221000  1
  O  O60  1  0.42630800  0.54724800  0.64509100  1
  O  O61  1  0.19233900  0.04724800  0.37906000  1
  O  O62  1  0.57566200  0.12096300  0.57102900  1
  O  O63  1  0.69199200  0.62096300  0.95469900  1
  O  O64  1  0.57369200  0.45275200  0.35490900  1
  O  O65  1  0.80766100  0.95275200  0.62094000  1
  O  O66  1  0.42433800  0.87903700  0.42897100  1
  O  O67  1  0.30800800  0.37903700  0.04530100  1
  O  O68  1  0.30849100  0.92841900  0.14743000  1
  O  O69  1  0.07584900  0.42841900  0.88007200  1
  O  O70  1  0.80390800  0.85396100  0.07030700  1
  O  O71  1  0.92426800  0.35396100  0.44994700  1
  O  O72  1  0.69150900  0.07158100  0.85257000  1
  O  O73  1  0.92415100  0.57158100  0.11992800  1
  O  O74  1  0.19609200  0.14603900  0.92969300  1
  O  O75  1  0.07573200  0.64603900  0.55005300  1
