# generated using pymatgen
data_Ca10P6SO24
_symmetry_space_group_name_H-M   'P 1'
_cell_length_a   9.68032443
_cell_length_b   9.68032443
_cell_length_c   6.78165600
_cell_angle_alpha   90.00000000
_cell_angle_beta   90.00000000
_cell_angle_gamma   120.00000295
_symmetry_Int_Tables_number   1
_chemical_formula_structural   Ca10P6SO24
_chemical_formula_sum   'Ca10 P6 S1 O24'
_cell_volume   550.35916195
_cell_formula_units_Z   1
loop_
 _symmetry_equiv_pos_site_id
 _symmetry_equiv_pos_as_xyz
  1  'x, y, z'
loop_
 _atom_site_type_symbol
 _atom_site_label
 _atom_site_symmetry_multiplicity
 _atom_site_fract_x
 _atom_site_fract_y
 _atom_site_fract_z
 _atom_site_occupancy
  Ca  Ca0  1  0.33333300  0.66666700  0.52527100  1
  Ca  Ca1  1  0.66666700  0.33333300  0.98183300  1
  Ca  Ca2  1  0.66666700  0.33333300  0.47472900  1
  Ca  Ca3  1  0.33333300  0.66666700  0.01816700  1
  Ca  Ca4  1  0.99246500  0.24900200  0.76276800  1
  Ca  Ca5  1  0.25653600  0.00753500  0.76276800  1
  Ca  Ca6  1  0.75099800  0.74346400  0.76276800  1
  Ca  Ca7  1  0.00753500  0.75099800  0.23723200  1
  Ca  Ca8  1  0.74346400  0.99246500  0.23723200  1
  Ca  Ca9  1  0.24900200  0.25653600  0.23723200  1
  P  P10  1  0.62517400  0.03057400  0.74661900  1
  P  P11  1  0.40539900  0.37482600  0.74661900  1
  P  P12  1  0.96942600  0.59460100  0.74661900  1
  P  P13  1  0.37482600  0.96942600  0.25338100  1
  P  P14  1  0.59460100  0.62517400  0.25338100  1
  P  P15  1  0.03057400  0.40539900  0.25338100  1
  S  S16  1  0.00000000  0.00000000  0.00000000  1
  O  O17  1  0.24350900  0.92946000  0.42124700  1
  O  O18  1  0.68595100  0.75649100  0.42124700  1
  O  O19  1  0.07054000  0.31404900  0.42124700  1
  O  O20  1  0.71686000  0.10231900  0.94260200  1
  O  O21  1  0.38546000  0.28314000  0.94260200  1
  O  O22  1  0.89768100  0.61454000  0.94260200  1
  O  O23  1  0.75649100  0.07054000  0.57875300  1
  O  O24  1  0.31404900  0.24350900  0.57875300  1
  O  O25  1  0.92946000  0.68595100  0.57875300  1
  O  O26  1  0.28314000  0.89768100  0.05739800  1
  O  O27  1  0.61454000  0.71686000  0.05739800  1
  O  O28  1  0.10231900  0.38546000  0.05739800  1
  O  O29  1  0.53446600  0.12363200  0.70485600  1
  O  O30  1  0.58916600  0.46553400  0.70485600  1
  O  O31  1  0.87636800  0.41083400  0.70485600  1
  O  O32  1  0.46553400  0.87636800  0.29514400  1
  O  O33  1  0.41083400  0.53446600  0.29514400  1
  O  O34  1  0.12363200  0.58916600  0.29514400  1
  O  O35  1  0.50689800  0.84938100  0.76159500  1
  O  O36  1  0.34248300  0.49310200  0.76159500  1
  O  O37  1  0.15061900  0.65751700  0.76159500  1
  O  O38  1  0.49310200  0.15061900  0.23840500  1
  O  O39  1  0.65751700  0.50689800  0.23840500  1
  O  O40  1  0.84938100  0.34248300  0.23840500  1
