# generated using pymatgen
data_Ce4AlCo25
_symmetry_space_group_name_H-M   'P 1'
_cell_length_a   21.01448567
_cell_length_b   21.01448567
_cell_length_c   4.02926600
_cell_angle_alpha   90.00000000
_cell_angle_beta   90.00000000
_cell_angle_gamma   166.85678086
_symmetry_Int_Tables_number   1
_chemical_formula_structural   Ce4AlCo25
_chemical_formula_sum   'Ce4 Al1 Co25'
_cell_volume   404.60109636
_cell_formula_units_Z   1
loop_
 _symmetry_equiv_pos_site_id
 _symmetry_equiv_pos_as_xyz
  1  'x, y, z'
loop_
 _atom_site_type_symbol
 _atom_site_label
 _atom_site_symmetry_multiplicity
 _atom_site_fract_x
 _atom_site_fract_y
 _atom_site_fract_z
 _atom_site_occupancy
  Ce  Ce0  1  0.40167900  0.59832100  0.00000000  1
  Ce  Ce1  1  0.80023100  0.19976900  0.00000000  1
  Ce  Ce2  1  0.19976900  0.80023100  0.00000000  1
  Ce  Ce3  1  0.59832100  0.40167900  0.00000000  1
  Al  Al4  1  0.00000000  0.00000000  0.00000000  1
  Co  Co5  1  0.93936500  0.06063500  0.00000000  1
  Co  Co6  1  0.33357000  0.66643100  0.00000000  1
  Co  Co7  1  0.73338700  0.26661300  0.00000000  1
  Co  Co8  1  0.13279100  0.86720900  0.00000000  1
  Co  Co9  1  0.52997900  0.47002100  0.00000000  1
  Co  Co10  1  0.47002100  0.52997900  0.00000000  1
  Co  Co11  1  0.86720900  0.13279100  0.00000000  1
  Co  Co12  1  0.26661300  0.73338700  0.00000000  1
  Co  Co13  1  0.66643000  0.33356900  0.00000000  1
  Co  Co14  1  0.06063500  0.93936500  0.00000000  1
  Co  Co15  1  0.90113900  0.09886100  0.50000000  1
  Co  Co16  1  0.30012400  0.69987600  0.50000000  1
  Co  Co17  1  0.69987600  0.30012400  0.50000000  1
  Co  Co18  1  0.09886100  0.90113900  0.50000000  1
  Co  Co19  1  0.50000000  0.50000000  0.50000000  1
  Co  Co20  1  0.71079300  0.80541800  0.50000000  1
  Co  Co21  1  0.10028300  0.39927300  0.50000000  1
  Co  Co22  1  0.50000000  0.00000000  0.50000000  1
  Co  Co23  1  0.89971700  0.60072700  0.50000000  1
  Co  Co24  1  0.28920700  0.19458200  0.50000000  1
  Co  Co25  1  0.19458200  0.28920700  0.50000000  1
  Co  Co26  1  0.60072700  0.89971700  0.50000000  1
  Co  Co27  1  0.00000000  0.50000000  0.50000000  1
  Co  Co28  1  0.39927300  0.10028300  0.50000000  1
  Co  Co29  1  0.80541800  0.71079300  0.50000000  1
