# generated using pymatgen
data_Ce2Fe20Si2C
_symmetry_space_group_name_H-M   'P 1'
_cell_length_a   6.36789500
_cell_length_b   7.76240281
_cell_length_c   7.77591961
_cell_angle_alpha   81.50249500
_cell_angle_beta   113.96969729
_cell_angle_gamma   114.20190408
_symmetry_Int_Tables_number   1
_chemical_formula_structural   Ce2Fe20Si2C
_chemical_formula_sum   'Ce2 Fe20 Si2 C1'
_cell_volume   320.26646669
_cell_formula_units_Z   1
loop_
 _symmetry_equiv_pos_site_id
 _symmetry_equiv_pos_as_xyz
  1  'x, y, z'
loop_
 _atom_site_type_symbol
 _atom_site_label
 _atom_site_symmetry_multiplicity
 _atom_site_fract_x
 _atom_site_fract_y
 _atom_site_fract_z
 _atom_site_occupancy
  Ce  Ce0  1  0.87568600  0.74633400  0.24910300  1
  Ce  Ce1  1  0.12431400  0.25366600  0.75089700  1
  Fe  Fe2  1  0.62984500  0.25072200  0.75303500  1
  Fe  Fe3  1  0.37015500  0.74927800  0.24696500  1
  Fe  Fe4  1  0.63691700  0.57597700  0.83396000  1
  Fe  Fe5  1  0.63973200  0.32989000  0.07815300  1
  Fe  Fe6  1  0.30447800  0.08039100  0.16441800  1
  Fe  Fe7  1  0.30215500  0.66457600  0.57888900  1
  Fe  Fe8  1  0.23959000  0.17556000  0.41612400  1
  Fe  Fe9  1  0.24341900  0.91986400  0.67667800  1
  Fe  Fe10  1  0.06366600  0.82486300  0.92361000  1
  Fe  Fe11  1  0.06648100  0.42488800  0.32234600  1
  Fe  Fe12  1  0.36308300  0.42402300  0.16604000  1
  Fe  Fe13  1  0.36026800  0.67011000  0.92184700  1
  Fe  Fe14  1  0.69552200  0.91960900  0.83558200  1
  Fe  Fe15  1  0.69784500  0.33542400  0.42111100  1
  Fe  Fe16  1  0.76041000  0.82444000  0.58387600  1
  Fe  Fe17  1  0.75658100  0.08013600  0.32332200  1
  Fe  Fe18  1  0.93633400  0.17513700  0.07639000  1
  Fe  Fe19  1  0.93351900  0.57511200  0.67765400  1
  Fe  Fe20  1  0.50000000  0.00000000  0.50000000  1
  Fe  Fe21  1  0.50000000  0.50000000  0.50000000  1
  Si  Si22  1  0.50000000  0.00000000  0.00000000  1
  Si  Si23  1  0.00000000  0.50000000  0.00000000  1
  C  C24  1  0.00000000  0.00000000  0.50000000  1
