# generated using pymatgen
data_Ca9Si4O17F
_symmetry_space_group_name_H-M   'P 1'
_cell_length_a   5.11797200
_cell_length_b   11.47362100
_cell_length_c   15.51805508
_cell_angle_alpha   79.29062768
_cell_angle_beta   90.00000000
_cell_angle_gamma   90.00000000
_symmetry_Int_Tables_number   1
_chemical_formula_structural   Ca9Si4O17F
_chemical_formula_sum   'Ca18 Si8 O34 F2'
_cell_volume   895.37441623
_cell_formula_units_Z   2
loop_
 _symmetry_equiv_pos_site_id
 _symmetry_equiv_pos_as_xyz
  1  'x, y, z'
loop_
 _atom_site_type_symbol
 _atom_site_label
 _atom_site_symmetry_multiplicity
 _atom_site_fract_x
 _atom_site_fract_y
 _atom_site_fract_z
 _atom_site_occupancy
  Ca  Ca0  1  0.00706300  0.87683700  0.04147700  1
  Ca  Ca1  1  0.98984600  0.62068100  0.95417400  1
  Ca  Ca2  1  0.50706300  0.12316300  0.95852300  1
  Ca  Ca3  1  0.48984600  0.37931900  0.04582600  1
  Ca  Ca4  1  0.00731500  0.80399300  0.27274200  1
  Ca  Ca5  1  0.99724900  0.69656700  0.72561300  1
  Ca  Ca6  1  0.50731500  0.19600700  0.72725800  1
  Ca  Ca7  1  0.49724900  0.30343300  0.27438700  1
  Ca  Ca8  1  0.99458700  0.49636200  0.38923000  1
  Ca  Ca9  1  0.00617600  0.00381600  0.61125500  1
  Ca  Ca10  1  0.49458700  0.50363800  0.61077000  1
  Ca  Ca11  1  0.50617600  0.99618400  0.38874500  1
  Ca  Ca12  1  0.99965600  0.75013700  0.49977700  1
  Ca  Ca13  1  0.49965600  0.24986300  0.50022300  1
  Ca  Ca14  1  0.50187200  0.61492000  0.17322000  1
  Ca  Ca15  1  0.50357400  0.88528700  0.82907500  1
  Ca  Ca16  1  0.00187200  0.38508000  0.82678000  1
  Ca  Ca17  1  0.00357400  0.11471300  0.17092500  1
  Si  Si18  1  0.42823300  0.68213300  0.38949300  1
  Si  Si19  1  0.57193300  0.81821300  0.61066800  1
  Si  Si20  1  0.92823300  0.31786700  0.61050700  1
  Si  Si21  1  0.07193300  0.18178700  0.38933200  1
  Si  Si22  1  0.42892800  0.57024200  0.83262800  1
  Si  Si23  1  0.57739700  0.92954400  0.16503200  1
  Si  Si24  1  0.92892800  0.42975800  0.16737200  1
  Si  Si25  1  0.07739700  0.07045600  0.83496800  1
  O  O26  1  0.29707700  0.63719200  0.30325900  1
  O  O27  1  0.70209500  0.86286300  0.69722900  1
  O  O28  1  0.79707700  0.36280800  0.69674100  1
  O  O29  1  0.20209500  0.13713700  0.30277100  1
  O  O30  1  0.29722200  0.59558100  0.47642700  1
  O  O31  1  0.70293300  0.90472200  0.52375300  1
  O  O32  1  0.79722200  0.40441900  0.52357300  1
  O  O33  1  0.20293300  0.09527800  0.47624700  1
  O  O34  1  0.80238700  0.52207000  0.08198100  1
  O  O35  1  0.21262300  0.98160800  0.92004900  1
  O  O36  1  0.30238700  0.47793000  0.91801900  1
  O  O37  1  0.71262300  0.01839200  0.07995100  1
  O  O38  1  0.79719800  0.46925200  0.25534600  1
  O  O39  1  0.20583500  0.03010700  0.74648300  1
  O  O40  1  0.29719800  0.53074800  0.74465400  1
  O  O41  1  0.70583500  0.96989300  0.25351700  1
  O  O42  1  0.24929100  0.42863100  0.16618400  1
  O  O43  1  0.75650700  0.06947100  0.83771600  1
  O  O44  1  0.74929100  0.57136900  0.83381600  1
  O  O45  1  0.25650700  0.93052900  0.16228400  1
  O  O46  1  0.70597600  0.79699100  0.16155000  1
  O  O47  1  0.29681000  0.70119000  0.83854100  1
  O  O48  1  0.20597600  0.20300900  0.83845000  1
  O  O49  1  0.79681000  0.29881000  0.16145900  1
  O  O50  1  0.20224800  0.31582700  0.38806300  1
  O  O51  1  0.79788500  0.18385800  0.61210800  1
  O  O52  1  0.70224800  0.68417300  0.61193700  1
  O  O53  1  0.29788500  0.81614200  0.38789200  1
  O  O54  1  0.74928100  0.68410700  0.38788900  1
  O  O55  1  0.25089400  0.81628800  0.61181300  1
  O  O56  1  0.24928100  0.31589300  0.61211100  1
  O  O57  1  0.75089400  0.18371200  0.38818700  1
  O  O58  1  0.22247600  0.69475600  0.05941600  1
  O  O59  1  0.72247600  0.30524400  0.94058400  1
  F  F60  1  0.77083400  0.79676400  0.94002300  1
  F  F61  1  0.27083400  0.20323600  0.05997700  1
