# generated using pymatgen
data_BaTi2Fe4O11
_symmetry_space_group_name_H-M   'P 1'
_cell_length_a   5.97889581
_cell_length_b   5.97889581
_cell_length_c   13.33402491
_cell_angle_alpha   89.87212558
_cell_angle_beta   89.87212558
_cell_angle_gamma   120.01945014
_symmetry_Int_Tables_number   1
_chemical_formula_structural   BaTi2Fe4O11
_chemical_formula_sum   'Ba2 Ti4 Fe8 O22'
_cell_volume   412.70942257
_cell_formula_units_Z   2
loop_
 _symmetry_equiv_pos_site_id
 _symmetry_equiv_pos_as_xyz
  1  'x, y, z'
loop_
 _atom_site_type_symbol
 _atom_site_label
 _atom_site_symmetry_multiplicity
 _atom_site_fract_x
 _atom_site_fract_y
 _atom_site_fract_z
 _atom_site_occupancy
  Ba  Ba0  1  0.66621700  0.33378300  0.75000000  1
  Ba  Ba1  1  0.33378300  0.66621700  0.25000000  1
  Ti  Ti2  1  0.00000000  0.50000000  0.00000000  1
  Ti  Ti3  1  0.50000000  0.00000000  0.50000000  1
  Ti  Ti4  1  0.66712100  0.33287900  0.25000000  1
  Ti  Ti5  1  0.33287900  0.66712100  0.75000000  1
  Fe  Fe6  1  0.00336900  0.00173200  0.85916300  1
  Fe  Fe7  1  0.99663100  0.99826800  0.14083700  1
  Fe  Fe8  1  0.00173200  0.00336900  0.35916300  1
  Fe  Fe9  1  0.99826800  0.99663100  0.64083700  1
  Fe  Fe10  1  0.50000000  0.00000000  0.00000000  1
  Fe  Fe11  1  0.50000000  0.50000000  0.00000000  1
  Fe  Fe12  1  0.00000000  0.50000000  0.50000000  1
  Fe  Fe13  1  0.50000000  0.50000000  0.50000000  1
  O  O14  1  0.66187000  0.32381000  0.41173600  1
  O  O15  1  0.33813000  0.67619000  0.58826400  1
  O  O16  1  0.32381000  0.66187000  0.91173600  1
  O  O17  1  0.67619000  0.33813000  0.08826400  1
  O  O18  1  0.34834300  0.17440900  0.91996000  1
  O  O19  1  0.83411800  0.65132800  0.92009200  1
  O  O20  1  0.83442200  0.18302000  0.92005200  1
  O  O21  1  0.65165700  0.82559100  0.08004000  1
  O  O22  1  0.16588200  0.34867200  0.07990800  1
  O  O23  1  0.16557800  0.81698000  0.07994800  1
  O  O24  1  0.65132800  0.83411800  0.42009200  1
  O  O25  1  0.17440900  0.34834300  0.41996000  1
  O  O26  1  0.18302000  0.83442200  0.42005200  1
  O  O27  1  0.34867200  0.16588200  0.57990800  1
  O  O28  1  0.82559100  0.65165700  0.58004000  1
  O  O29  1  0.81698000  0.16557800  0.57994800  1
  O  O30  1  0.68938500  0.84501700  0.75163300  1
  O  O31  1  0.15498300  0.31061500  0.74836700  1
  O  O32  1  0.15453300  0.84546700  0.75000000  1
  O  O33  1  0.31061500  0.15498300  0.24836700  1
  O  O34  1  0.84501700  0.68938500  0.25163300  1
  O  O35  1  0.84546700  0.15453300  0.25000000  1
