# generated using pymatgen
data_BaSr2Y2Cu2PtO10
_symmetry_space_group_name_H-M   'P 1'
_cell_length_a   6.83996470
_cell_length_b   6.83996470
_cell_length_c   7.46295072
_cell_angle_alpha   75.97744759
_cell_angle_beta   75.97744759
_cell_angle_gamma   49.58537586
_symmetry_Int_Tables_number   1
_chemical_formula_structural   BaSr2Y2Cu2PtO10
_chemical_formula_sum   'Ba1 Sr2 Y2 Cu2 Pt1 O10'
_cell_volume   256.19340922
_cell_formula_units_Z   1
loop_
 _symmetry_equiv_pos_site_id
 _symmetry_equiv_pos_as_xyz
  1  'x, y, z'
loop_
 _atom_site_type_symbol
 _atom_site_label
 _atom_site_symmetry_multiplicity
 _atom_site_fract_x
 _atom_site_fract_y
 _atom_site_fract_z
 _atom_site_occupancy
  Ba  Ba0  1  0.64916100  0.64916100  0.97257700  1
  Sr  Sr1  1  0.49952300  0.49952300  0.50039700  1
  Sr  Sr2  1  0.34987100  0.34987100  0.02497800  1
  Y  Y3  1  0.81169500  0.81169500  0.37310800  1
  Y  Y4  1  0.18900500  0.18900500  0.62700300  1
  Cu  Cu5  1  0.08686200  0.08686200  0.30215800  1
  Cu  Cu6  1  0.91347800  0.91347800  0.69726200  1
  Pt  Pt7  1  0.00101700  0.00101700  0.00051800  1
  O  O8  1  0.74896700  0.20956900  0.21831500  1
  O  O9  1  0.20956900  0.74896700  0.21831500  1
  O  O10  1  0.24769200  0.78661500  0.78346600  1
  O  O11  1  0.78661500  0.24769200  0.78346600  1
  O  O12  1  0.83351600  0.83351600  0.04761000  1
  O  O13  1  0.17257500  0.17257500  0.95275700  1
  O  O14  1  0.41236200  0.93943700  0.38065400  1
  O  O15  1  0.93943700  0.41236200  0.38065400  1
  O  O16  1  0.58722100  0.06143300  0.61838100  1
  O  O17  1  0.06143300  0.58722100  0.61838100  1
