# generated using pymatgen
data_BaSr2(SnO3)3
_symmetry_space_group_name_H-M   'P 1'
_cell_length_a   5.84010082
_cell_length_b   5.84010082
_cell_length_c   14.28502372
_cell_angle_alpha   89.80154170
_cell_angle_beta   89.80154170
_cell_angle_gamma   60.39683968
_symmetry_Int_Tables_number   1
_chemical_formula_structural   BaSr2(SnO3)3
_chemical_formula_sum   'Ba2 Sr4 Sn6 O18'
_cell_volume   423.61527572
_cell_formula_units_Z   2
loop_
 _symmetry_equiv_pos_site_id
 _symmetry_equiv_pos_as_xyz
  1  'x, y, z'
loop_
 _atom_site_type_symbol
 _atom_site_label
 _atom_site_symmetry_multiplicity
 _atom_site_fract_x
 _atom_site_fract_y
 _atom_site_fract_z
 _atom_site_occupancy
  Ba  Ba0  1  0.66563200  0.66819900  0.66703900  1
  Ba  Ba1  1  0.33180100  0.33436800  0.33296100  1
  Sr  Sr2  1  0.99330500  0.00669500  0.00000000  1
  Sr  Sr3  1  0.00975000  0.99025000  0.50000000  1
  Sr  Sr4  1  0.67729100  0.65556700  0.16475500  1
  Sr  Sr5  1  0.34443300  0.32270900  0.83524500  1
  Sn  Sn6  1  0.33366100  0.33314200  0.58425400  1
  Sn  Sn7  1  0.00164300  0.99919300  0.24744000  1
  Sn  Sn8  1  0.66700800  0.66578400  0.91831900  1
  Sn  Sn9  1  0.00080700  0.99835700  0.75256000  1
  Sn  Sn10  1  0.66685800  0.66633900  0.41574600  1
  Sn  Sn11  1  0.33421600  0.33299200  0.08168100  1
  O  O12  1  0.46812000  0.98494200  0.50806600  1
  O  O13  1  0.13074200  0.64868200  0.17333500  1
  O  O14  1  0.80168600  0.30796000  0.84773400  1
  O  O15  1  0.01505800  0.53188000  0.49193400  1
  O  O16  1  0.69204000  0.19831400  0.15226600  1
  O  O17  1  0.35131800  0.86925800  0.82666500  1
  O  O18  1  0.63825400  0.16149600  0.68239800  1
  O  O19  1  0.30445500  0.82735500  0.34613500  1
  O  O20  1  0.97277700  0.46416500  0.01362500  1
  O  O21  1  0.17264500  0.69554500  0.65386500  1
  O  O22  1  0.83850400  0.36174600  0.31760200  1
  O  O23  1  0.53583500  0.02722300  0.98637500  1
  O  O24  1  0.56892800  0.43107200  0.50000000  1
  O  O25  1  0.24280500  0.08951500  0.16366000  1
  O  O26  1  0.91048500  0.75719500  0.83634000  1
  O  O27  1  0.11937200  0.21319400  0.66827700  1
  O  O28  1  0.78680600  0.88062800  0.33172300  1
  O  O29  1  0.42376400  0.57623600  0.00000000  1
