# generated using pymatgen
data_Ca10Si3S3(ClO12)2
_symmetry_space_group_name_H-M   'P 1'
_cell_length_a   9.84054032
_cell_length_b   9.84054032
_cell_length_c   6.82185300
_cell_angle_alpha   90.00000000
_cell_angle_beta   90.00000000
_cell_angle_gamma   120.00000217
_symmetry_Int_Tables_number   1
_chemical_formula_structural   Ca10Si3S3(ClO12)2
_chemical_formula_sum   'Ca10 Si3 S3 Cl2 O24'
_cell_volume   572.09857966
_cell_formula_units_Z   1
loop_
 _symmetry_equiv_pos_site_id
 _symmetry_equiv_pos_as_xyz
  1  'x, y, z'
loop_
 _atom_site_type_symbol
 _atom_site_label
 _atom_site_symmetry_multiplicity
 _atom_site_fract_x
 _atom_site_fract_y
 _atom_site_fract_z
 _atom_site_occupancy
  Ca  Ca0  1  0.66666700  0.33333300  0.22383400  1
  Ca  Ca1  1  0.33333300  0.66666700  0.76934600  1
  Ca  Ca2  1  0.33333300  0.66666700  0.23065400  1
  Ca  Ca3  1  0.66666700  0.33333300  0.77616600  1
  Ca  Ca4  1  0.73034200  0.97210500  0.00000000  1
  Ca  Ca5  1  0.24176300  0.26965800  0.00000000  1
  Ca  Ca6  1  0.02789500  0.75823700  0.00000000  1
  Ca  Ca7  1  0.24741100  0.99384300  0.50000000  1
  Ca  Ca8  1  0.74643200  0.75258900  0.50000000  1
  Ca  Ca9  1  0.00615700  0.25356800  0.50000000  1
  Si  Si10  1  0.59709600  0.62651100  0.00000000  1
  Si  Si11  1  0.02941500  0.40290400  0.00000000  1
  Si  Si12  1  0.37348900  0.97058500  0.00000000  1
  S  S13  1  0.41145200  0.37801600  0.50000000  1
  S  S14  1  0.96656300  0.58854800  0.50000000  1
  S  S15  1  0.62198400  0.03343700  0.50000000  1
  Cl  Cl16  1  0.00000000  0.00000000  0.25453000  1
  Cl  Cl17  1  0.00000000  0.00000000  0.74547000  1
  O  O18  1  0.40275800  0.53092500  0.00000000  1
  O  O19  1  0.12816700  0.59724200  0.00000000  1
  O  O20  1  0.46907500  0.87183300  0.00000000  1
  O  O21  1  0.58841900  0.46503500  0.50000000  1
  O  O22  1  0.87661600  0.41158100  0.50000000  1
  O  O23  1  0.53496500  0.12338400  0.50000000  1
  O  O24  1  0.64937800  0.74181600  0.19486100  1
  O  O25  1  0.09243800  0.35062200  0.19486100  1
  O  O26  1  0.25818400  0.90756200  0.19486100  1
  O  O27  1  0.35705100  0.27371500  0.67512700  1
  O  O28  1  0.91666400  0.64294900  0.67512700  1
  O  O29  1  0.72628500  0.08333600  0.67512700  1
  O  O30  1  0.35705100  0.27371500  0.32487300  1
  O  O31  1  0.91666400  0.64294900  0.32487300  1
  O  O32  1  0.72628500  0.08333600  0.32487300  1
  O  O33  1  0.64937800  0.74181600  0.80513900  1
  O  O34  1  0.09243800  0.35062200  0.80513900  1
  O  O35  1  0.25818400  0.90756200  0.80513900  1
  O  O36  1  0.67287600  0.51136900  0.00000000  1
  O  O37  1  0.83849300  0.32712400  0.00000000  1
  O  O38  1  0.48863100  0.16150700  0.00000000  1
  O  O39  1  0.35250800  0.49036200  0.50000000  1
  O  O40  1  0.13785400  0.64749200  0.50000000  1
  O  O41  1  0.50963800  0.86214600  0.50000000  1
