# generated using pymatgen
data_Ca3SmMn4O12
_symmetry_space_group_name_H-M   'P 1'
_cell_length_a   7.66679200
_cell_length_b   5.36089900
_cell_length_c   5.45726299
_cell_angle_alpha   89.86128714
_cell_angle_beta   90.00000000
_cell_angle_gamma   90.00000000
_symmetry_Int_Tables_number   1
_chemical_formula_structural   Ca3SmMn4O12
_chemical_formula_sum   'Ca3 Sm1 Mn4 O12'
_cell_volume   224.29774994
_cell_formula_units_Z   1
loop_
 _symmetry_equiv_pos_site_id
 _symmetry_equiv_pos_as_xyz
  1  'x, y, z'
loop_
 _atom_site_type_symbol
 _atom_site_label
 _atom_site_symmetry_multiplicity
 _atom_site_fract_x
 _atom_site_fract_y
 _atom_site_fract_z
 _atom_site_occupancy
  Ca  Ca0  1  0.50000000  0.00718000  0.04615600  1
  Ca  Ca1  1  0.00000000  0.50575700  0.45593000  1
  Ca  Ca2  1  0.00000000  0.99409300  0.95726900  1
  Sm  Sm3  1  0.50000000  0.48786100  0.54982700  1
  Mn  Mn4  1  0.24717400  0.50172400  0.00235600  1
  Mn  Mn5  1  0.75291300  0.99802900  0.49973700  1
  Mn  Mn6  1  0.75282600  0.50172400  0.00235600  1
  Mn  Mn7  1  0.24708700  0.99802900  0.49973700  1
  O  O8  1  0.29581700  0.21138700  0.78770500  1
  O  O9  1  0.71138900  0.29596700  0.29485700  1
  O  O10  1  0.78911700  0.79798200  0.20385900  1
  O  O11  1  0.21633800  0.69927000  0.70076800  1
  O  O12  1  0.21088300  0.79798200  0.20385900  1
  O  O13  1  0.78366200  0.69927000  0.70076800  1
  O  O14  1  0.70418300  0.21138700  0.78770500  1
  O  O15  1  0.28861100  0.29596700  0.29485700  1
  O  O16  1  0.50000000  0.57408000  0.98576900  1
  O  O17  1  0.50000000  0.92377200  0.48143500  1
  O  O18  1  0.00000000  0.42477700  0.01929200  1
  O  O19  1  0.00000000  0.07376100  0.52576300  1
