# generated using pymatgen
data_Bi10Te2Br4O17
_symmetry_space_group_name_H-M   'P 1'
_cell_length_a   19.37275060
_cell_length_b   19.37275060
_cell_length_c   19.37275060
_cell_angle_alpha   163.36836942
_cell_angle_beta   163.36836942
_cell_angle_gamma   23.60476606
_symmetry_Int_Tables_number   1
_chemical_formula_structural   Bi10Te2Br4O17
_chemical_formula_sum   'Bi10 Te2 Br4 O17'
_cell_volume   595.47935223
_cell_formula_units_Z   1
loop_
 _symmetry_equiv_pos_site_id
 _symmetry_equiv_pos_as_xyz
  1  'x, y, z'
loop_
 _atom_site_type_symbol
 _atom_site_label
 _atom_site_symmetry_multiplicity
 _atom_site_fract_x
 _atom_site_fract_y
 _atom_site_fract_z
 _atom_site_occupancy
  Bi  Bi0  1  0.25223600  0.75223600  0.50000000  1
  Bi  Bi1  1  0.75223600  0.25223600  0.50000000  1
  Bi  Bi2  1  0.56809900  0.56809900  0.00000000  1
  Bi  Bi3  1  0.06819000  0.06819000  0.00000000  1
  Bi  Bi4  1  0.68357400  0.68357400  0.00000000  1
  Bi  Bi5  1  0.18807800  0.18807800  0.00000000  1
  Bi  Bi6  1  0.99870900  0.49870900  0.50000000  1
  Bi  Bi7  1  0.49870900  0.99870900  0.50000000  1
  Bi  Bi8  1  0.93122100  0.93122100  0.00000000  1
  Bi  Bi9  1  0.43087000  0.43087000  0.00000000  1
  Te  Te10  1  0.82495400  0.82495400  0.00000000  1
  Te  Te11  1  0.31252600  0.31252600  0.00000000  1
  Br  Br12  1  0.13264900  0.63264900  0.50000000  1
  Br  Br13  1  0.63264900  0.13264900  0.50000000  1
  Br  Br14  1  0.38061600  0.88061600  0.50000000  1
  Br  Br15  1  0.88061600  0.38061600  0.50000000  1
  O  O16  1  0.79023900  0.29019600  0.00000000  1
  O  O17  1  0.29019600  0.79023900  0.00000000  1
  O  O18  1  0.95784900  0.47319100  0.00000000  1
  O  O19  1  0.47319100  0.95784900  0.00000000  1
  O  O20  1  0.57073400  0.57073400  0.54054100  1
  O  O21  1  0.03019300  0.03019300  0.45945900  1
  O  O22  1  0.47319100  0.47319100  0.51534200  1
  O  O23  1  0.95784900  0.95784900  0.48465800  1
  O  O24  1  0.71093700  0.71093700  0.49981300  1
  O  O25  1  0.21112400  0.21112400  0.50018700  1
  O  O26  1  0.29019600  0.29019600  0.49995700  1
  O  O27  1  0.79023900  0.79023900  0.50004300  1
  O  O28  1  0.03019300  0.57073400  0.00000000  1
  O  O29  1  0.57073400  0.03019300  0.00000000  1
  O  O30  1  0.26305500  0.26305500  0.00000000  1
  O  O31  1  0.71093700  0.21112400  0.00000000  1
  O  O32  1  0.21112400  0.71093700  0.00000000  1
