# generated using pymatgen
data_BaSr3Lu2(BiO6)2
_symmetry_space_group_name_H-M   'P 1'
_cell_length_a   6.01238430
_cell_length_b   5.97353162
_cell_length_c   8.46232478
_cell_angle_alpha   89.92438017
_cell_angle_beta   89.97272981
_cell_angle_gamma   90.04222933
_symmetry_Int_Tables_number   1
_chemical_formula_structural   BaSr3Lu2(BiO6)2
_chemical_formula_sum   'Ba1 Sr3 Lu2 Bi2 O12'
_cell_volume   303.92543170
_cell_formula_units_Z   1
loop_
 _symmetry_equiv_pos_site_id
 _symmetry_equiv_pos_as_xyz
  1  'x, y, z'
loop_
 _atom_site_type_symbol
 _atom_site_label
 _atom_site_symmetry_multiplicity
 _atom_site_fract_x
 _atom_site_fract_y
 _atom_site_fract_z
 _atom_site_occupancy
  Ba  Ba0  1  0.52219700  0.00654400  0.75024700  1
  Sr  Sr1  1  0.03403100  0.49100300  0.74969100  1
  Sr  Sr2  1  0.46436900  0.99320000  0.24978600  1
  Sr  Sr3  1  0.96932400  0.50448600  0.25067500  1
  Lu  Lu4  1  0.50030300  0.49950700  0.00277600  1
  Lu  Lu5  1  0.99833400  0.00028900  0.49778300  1
  Bi  Bi6  1  0.50055400  0.49975800  0.49687200  1
  Bi  Bi7  1  0.99867000  0.00034000  0.00274200  1
  O  O8  1  0.71094700  0.78310400  0.45350900  1
  O  O9  1  0.79258000  0.28664000  0.96000700  1
  O  O10  1  0.27989200  0.22458500  0.53122800  1
  O  O11  1  0.21399900  0.72051200  0.04426500  1
  O  O12  1  0.21857300  0.71210800  0.45542200  1
  O  O13  1  0.27664300  0.21712700  0.96724100  1
  O  O14  1  0.78861800  0.29682900  0.53978600  1
  O  O15  1  0.71545900  0.79182300  0.04701800  1
  O  O16  1  0.47551300  0.55792600  0.74639600  1
  O  O17  1  0.02157400  0.08107500  0.24749100  1
  O  O18  1  0.52623200  0.41524000  0.25275700  1
  O  O19  1  0.99218800  0.91790000  0.75431000  1
