# generated using pymatgen
data_BaSr2UO6
_symmetry_space_group_name_H-M   'P 1'
_cell_length_a   6.31874100
_cell_length_b   6.18981146
_cell_length_c   8.84791714
_cell_angle_alpha   89.78031648
_cell_angle_beta   90.00000000
_cell_angle_gamma   90.00000000
_symmetry_Int_Tables_number   1
_chemical_formula_structural   BaSr2UO6
_chemical_formula_sum   'Ba2 Sr4 U2 O12'
_cell_volume   346.05555854
_cell_formula_units_Z   2
loop_
 _symmetry_equiv_pos_site_id
 _symmetry_equiv_pos_as_xyz
  1  'x, y, z'
loop_
 _atom_site_type_symbol
 _atom_site_label
 _atom_site_symmetry_multiplicity
 _atom_site_fract_x
 _atom_site_fract_y
 _atom_site_fract_z
 _atom_site_occupancy
  Ba  Ba0  1  0.53850400  0.50679400  0.24926100  1
  Ba  Ba1  1  0.96149600  0.00679400  0.74926100  1
  Sr  Sr2  1  0.50801300  0.00074400  0.49995300  1
  Sr  Sr3  1  0.99198700  0.50074400  0.99995300  1
  Sr  Sr4  1  0.45091300  0.49613400  0.74777300  1
  Sr  Sr5  1  0.04908700  0.99613400  0.24777300  1
  U  U6  1  0.49499400  0.99958700  0.99919000  1
  U  U7  1  0.00500600  0.49958700  0.49919000  1
  O  O8  1  0.28417000  0.67378400  0.45439600  1
  O  O9  1  0.21583000  0.17378400  0.95439600  1
  O  O10  1  0.72218900  0.33577600  0.55828500  1
  O  O11  1  0.77781100  0.83577600  0.05828500  1
  O  O12  1  0.18676000  0.22420900  0.54244000  1
  O  O13  1  0.31324000  0.72420900  0.04244000  1
  O  O14  1  0.83795100  0.78497200  0.44836200  1
  O  O15  1  0.66204900  0.28497200  0.94836200  1
  O  O16  1  0.04813400  0.58396600  0.72767700  1
  O  O17  1  0.45186600  0.08396600  0.22767700  1
  O  O18  1  0.97100200  0.39403500  0.27266400  1
  O  O19  1  0.52899800  0.89403500  0.77266400  1
