# generated using pymatgen
data_Ca4Co3Si8NiO24
_symmetry_space_group_name_H-M   'P 1'
_cell_length_a   5.30496200
_cell_length_b   6.71388239
_cell_length_c   13.38606942
_cell_angle_alpha   90.61883679
_cell_angle_beta   101.20488913
_cell_angle_gamma   101.61658341
_symmetry_Int_Tables_number   1
_chemical_formula_structural   Ca4Co3Si8NiO24
_chemical_formula_sum   'Ca4 Co3 Si8 Ni1 O24'
_cell_volume   457.48382784
_cell_formula_units_Z   1
loop_
 _symmetry_equiv_pos_site_id
 _symmetry_equiv_pos_as_xyz
  1  'x, y, z'
loop_
 _atom_site_type_symbol
 _atom_site_label
 _atom_site_symmetry_multiplicity
 _atom_site_fract_x
 _atom_site_fract_y
 _atom_site_fract_z
 _atom_site_occupancy
  Ca  Ca0  1  0.10173400  0.70312900  0.85144000  1
  Ca  Ca1  1  0.60081400  0.70305600  0.35144200  1
  Ca  Ca2  1  0.39876200  0.29718700  0.64862000  1
  Ca  Ca3  1  0.89929600  0.29622400  0.14821700  1
  Co  Co4  1  0.29726400  0.09354000  0.04691600  1
  Co  Co5  1  0.70344700  0.90723100  0.95360200  1
  Co  Co6  1  0.20346700  0.90734400  0.45363600  1
  Si  Si7  1  0.86836200  0.62016300  0.59715800  1
  Si  Si8  1  0.36816300  0.62073200  0.09700100  1
  Si  Si9  1  0.03871900  0.19407300  0.80992200  1
  Si  Si10  1  0.53942300  0.19457300  0.31066000  1
  Si  Si11  1  0.63159800  0.37942200  0.90270900  1
  Si  Si12  1  0.13073300  0.37882300  0.40281100  1
  Si  Si13  1  0.46148400  0.80571600  0.68945400  1
  Si  Si14  1  0.96050100  0.80521400  0.18964500  1
  Ni  Ni15  1  0.79646500  0.09183000  0.54620300  1
  O  O16  1  0.86708500  0.79561100  0.51476800  1
  O  O17  1  0.36729300  0.79459800  0.01418500  1
  O  O18  1  0.04439500  0.02864500  0.89705500  1
  O  O19  1  0.54582400  0.02925700  0.39805400  1
  O  O20  1  0.63269500  0.20572700  0.98595700  1
  O  O21  1  0.12885600  0.20463800  0.48611600  1
  O  O22  1  0.45996700  0.97257500  0.60253400  1
  O  O23  1  0.95569600  0.97212400  0.10285600  1
  O  O24  1  0.73749000  0.38945700  0.55720900  1
  O  O25  1  0.23664100  0.39047400  0.05723400  1
  O  O26  1  0.01469300  0.11477100  0.69436300  1
  O  O27  1  0.51496400  0.11405500  0.19517000  1
  O  O28  1  0.76248200  0.61003100  0.94269800  1
  O  O29  1  0.26226200  0.60926600  0.44271500  1
  O  O30  1  0.48492900  0.88558600  0.80490100  1
  O  O31  1  0.98488100  0.88549600  0.30496900  1
  O  O32  1  0.17260200  0.63262900  0.66556800  1
  O  O33  1  0.67196500  0.63200400  0.16578600  1
  O  O34  1  0.80967600  0.33153200  0.81595400  1
  O  O35  1  0.30938600  0.33096100  0.31625900  1
  O  O36  1  0.32780000  0.36751500  0.83411000  1
  O  O37  1  0.82772200  0.36808400  0.33400000  1
  O  O38  1  0.69019100  0.66797200  0.68405800  1
  O  O39  1  0.19027300  0.66873300  0.18404400  1
