# generated using pymatgen
data_BaSrGa4
_symmetry_space_group_name_H-M   'P 1'
_cell_length_a   4.41022845
_cell_length_b   4.41022845
_cell_length_c   9.92244500
_cell_angle_alpha   90.00000000
_cell_angle_beta   90.00000000
_cell_angle_gamma   120.00000670
_symmetry_Int_Tables_number   1
_chemical_formula_structural   BaSrGa4
_chemical_formula_sum   'Ba1 Sr1 Ga4'
_cell_volume   167.13656606
_cell_formula_units_Z   1
loop_
 _symmetry_equiv_pos_site_id
 _symmetry_equiv_pos_as_xyz
  1  'x, y, z'
loop_
 _atom_site_type_symbol
 _atom_site_label
 _atom_site_symmetry_multiplicity
 _atom_site_fract_x
 _atom_site_fract_y
 _atom_site_fract_z
 _atom_site_occupancy
  Ba  Ba0  1  0.00000000  0.00000000  0.50000000  1
  Sr  Sr1  1  0.00000000  0.00000000  0.00000000  1
  Ga  Ga2  1  0.66666700  0.33333300  0.75433000  1
  Ga  Ga3  1  0.66666700  0.33333300  0.24567000  1
  Ga  Ga4  1  0.33333300  0.66666700  0.75433000  1
  Ga  Ga5  1  0.33333300  0.66666700  0.24567000  1
