# generated using pymatgen
data_Ca7MgTiMn7O20
_symmetry_space_group_name_H-M   'P 1'
_cell_length_a   10.91484567
_cell_length_b   11.15531058
_cell_length_c   16.94018262
_cell_angle_alpha   108.99653588
_cell_angle_beta   109.27553329
_cell_angle_gamma   90.25763175
_symmetry_Int_Tables_number   1
_chemical_formula_structural   Ca7MgTiMn7O20
_chemical_formula_sum   'Ca28 Mg4 Ti4 Mn28 O80'
_cell_volume   1826.40987006
_cell_formula_units_Z   4
loop_
 _symmetry_equiv_pos_site_id
 _symmetry_equiv_pos_as_xyz
  1  'x, y, z'
loop_
 _atom_site_type_symbol
 _atom_site_label
 _atom_site_symmetry_multiplicity
 _atom_site_fract_x
 _atom_site_fract_y
 _atom_site_fract_z
 _atom_site_occupancy
  Ca  Ca0  1  0.30614700  0.06484000  0.60584400  1
  Ca  Ca1  1  0.30906400  0.56516300  0.60813900  1
  Ca  Ca2  1  0.80771900  0.06211200  0.60511900  1
  Ca  Ca3  1  0.80209200  0.56047200  0.10967500  1
  Ca  Ca4  1  0.80683900  0.56476100  0.60883800  1
  Ca  Ca5  1  0.19572400  0.43220600  0.39005000  1
  Ca  Ca6  1  0.20332100  0.43551200  0.89573600  1
  Ca  Ca7  1  0.19411600  0.93638600  0.38817700  1
  Ca  Ca8  1  0.19014700  0.94162200  0.89316300  1
  Ca  Ca9  1  0.69450100  0.43320100  0.39160200  1
  Ca  Ca10  1  0.68642200  0.43035700  0.88963700  1
  Ca  Ca11  1  0.69017200  0.93411600  0.38956800  1
  Ca  Ca12  1  0.69237800  0.94076800  0.88979600  1
  Ca  Ca13  1  0.05579900  0.29358400  0.11172600  1
  Ca  Ca14  1  0.05150300  0.29018100  0.60596800  1
  Ca  Ca15  1  0.05662300  0.79514400  0.60892100  1
  Ca  Ca16  1  0.55553500  0.29966600  0.11120000  1
  Ca  Ca17  1  0.55714700  0.29351100  0.60682300  1
  Ca  Ca18  1  0.54755400  0.78110900  0.11295200  1
  Ca  Ca19  1  0.55707700  0.79247300  0.60757300  1
  Ca  Ca20  1  0.44116700  0.20329200  0.38661800  1
  Ca  Ca21  1  0.44473300  0.21001900  0.89241000  1
  Ca  Ca22  1  0.44471800  0.70706700  0.38806000  1
  Ca  Ca23  1  0.43275900  0.70119500  0.88570100  1
  Ca  Ca24  1  0.93912800  0.20344200  0.38699700  1
  Ca  Ca25  1  0.94548700  0.19903400  0.89076900  1
  Ca  Ca26  1  0.95313800  0.70739500  0.39130600  1
  Ca  Ca27  1  0.94751300  0.70492500  0.89008700  1
  Mg  Mg28  1  0.28281900  0.08488600  0.12381900  1
  Mg  Mg29  1  0.27629300  0.58458500  0.11975400  1
  Mg  Mg30  1  0.77803100  0.08955300  0.12182600  1
  Mg  Mg31  1  0.03211800  0.78530800  0.12408400  1
  Ti  Ti32  1  0.01369900  0.99671800  0.00835700  1
  Ti  Ti33  1  0.00516500  0.50010700  0.99664400  1
  Ti  Ti34  1  0.50449700  0.00213800  0.00238900  1
  Ti  Ti35  1  0.75827300  0.75776500  0.00347800  1
  Mn  Mn36  1  0.00482500  0.99619400  0.49638100  1
  Mn  Mn37  1  0.00826000  0.50015700  0.49979300  1
  Mn  Mn38  1  0.50379900  0.99771400  0.49748300  1
  Mn  Mn39  1  0.50508200  0.49958100  0.00067600  1
  Mn  Mn40  1  0.50757200  0.49918600  0.49883900  1
  Mn  Mn41  1  0.26048900  0.25169200  0.00565700  1
  Mn  Mn42  1  0.25435300  0.25092700  0.49863700  1
  Mn  Mn43  1  0.26165300  0.75196400  0.00197500  1
  Mn  Mn44  1  0.25928500  0.75017300  0.50051400  1
  Mn  Mn45  1  0.75862100  0.24508600  0.00093400  1
  Mn  Mn46  1  0.75552600  0.24848600  0.49826200  1
  Mn  Mn47  1  0.75547100  0.74668500  0.49779600  1
  Mn  Mn48  1  0.09188600  0.08813400  0.24520700  1
  Mn  Mn49  1  0.10754100  0.10139300  0.75092100  1
  Mn  Mn50  1  0.10841200  0.59991200  0.25025600  1
  Mn  Mn51  1  0.10579300  0.59036700  0.75035200  1
  Mn  Mn52  1  0.59463700  0.08893100  0.24578100  1
  Mn  Mn53  1  0.61044600  0.09973800  0.74896300  1
  Mn  Mn54  1  0.59814000  0.59550500  0.24717900  1
  Mn  Mn55  1  0.61559700  0.59292700  0.75216400  1
  Mn  Mn56  1  0.35539400  0.40710400  0.24623300  1
  Mn  Mn57  1  0.35578300  0.40115500  0.74823700  1
  Mn  Mn58  1  0.33956100  0.90074700  0.24086600  1
  Mn  Mn59  1  0.36416700  0.91122400  0.75126200  1
  Mn  Mn60  1  0.85877300  0.40610500  0.25133100  1
  Mn  Mn61  1  0.85840500  0.39939200  0.75047200  1
  Mn  Mn62  1  0.85066700  0.90737800  0.24580800  1
  Mn  Mn63  1  0.86420300  0.90500100  0.75061900  1
  O  O64  1  0.12253100  0.12130500  0.48875200  1
  O  O65  1  0.11726200  0.12957700  0.98466400  1
  O  O66  1  0.12479100  0.61833400  0.48283200  1
  O  O67  1  0.12199700  0.62512200  0.98049800  1
  O  O68  1  0.61962000  0.11767800  0.48331500  1
  O  O69  1  0.61991200  0.12330800  0.97958000  1
  O  O70  1  0.62341000  0.61723100  0.48343400  1
  O  O71  1  0.62420700  0.63614600  0.98801900  1
  O  O72  1  0.16479400  0.40002200  0.03418500  1
  O  O73  1  0.14038300  0.38335100  0.51822400  1
  O  O74  1  0.17900200  0.91173700  0.02622400  1
  O  O75  1  0.13999800  0.88132200  0.51742700  1
  O  O76  1  0.64334100  0.37748400  0.00959100  1
  O  O77  1  0.63982900  0.38101900  0.51693100  1
  O  O78  1  0.67837900  0.90793400  0.02845600  1
  O  O79  1  0.63659200  0.87906600  0.51282200  1
  O  O80  1  0.37195800  0.11763200  0.48776300  1
  O  O81  1  0.37154900  0.10878400  0.98172100  1
  O  O82  1  0.37370700  0.61537800  0.48145900  1
  O  O83  1  0.36815700  0.61480400  0.97979300  1
  O  O84  1  0.86965800  0.11145800  0.48081700  1
  O  O85  1  0.87360400  0.10177200  0.98933900  1
  O  O86  1  0.87217300  0.61333000  0.47893000  1
  O  O87  1  0.86816100  0.59861700  0.97980200  1
  O  O88  1  0.39286700  0.37094700  0.01173300  1
  O  O89  1  0.38767400  0.38386700  0.51356700  1
  O  O90  1  0.41250200  0.87279100  0.01658900  1
  O  O91  1  0.38998800  0.88556000  0.51753400  1
  O  O92  1  0.89834300  0.37652800  0.01717300  1
  O  O93  1  0.88832900  0.38368200  0.51463000  1
  O  O94  1  0.93338500  0.86087500  0.02625500  1
  O  O95  1  0.88415400  0.87805200  0.50726300  1
  O  O96  1  0.10104700  0.10666900  0.13314900  1
  O  O97  1  0.07372800  0.09217400  0.63212200  1
  O  O98  1  0.09014800  0.61277200  0.12986000  1
  O  O99  1  0.08152000  0.59974900  0.62943800  1
  O  O100  1  0.59431800  0.10553000  0.12869800  1
  O  O101  1  0.58126700  0.09474000  0.63186600  1
  O  O102  1  0.59317300  0.58744300  0.13309500  1
  O  O103  1  0.58203000  0.59789900  0.62915000  1
  O  O104  1  0.45221300  0.40148000  0.36846500  1
  O  O105  1  0.44724800  0.40639000  0.86601600  1
  O  O106  1  0.43895700  0.90617300  0.36785400  1
  O  O107  1  0.46578600  0.90056100  0.87395500  1
  O  O108  1  0.95417500  0.39965500  0.37057500  1
  O  O109  1  0.96917500  0.39667300  0.87554600  1
  O  O110  1  0.95573600  0.90471500  0.36833200  1
  O  O111  1  0.96091800  0.90409500  0.87600400  1
  O  O112  1  0.34006800  0.26417000  0.13043300  1
  O  O113  1  0.32961300  0.28785100  0.63217300  1
  O  O114  1  0.33817500  0.76173400  0.12753100  1
  O  O115  1  0.33658000  0.78176800  0.63051000  1
  O  O116  1  0.82571700  0.27262200  0.12937700  1
  O  O117  1  0.83245600  0.27733500  0.62721700  1
  O  O118  1  0.84871000  0.77052400  0.13069400  1
  O  O119  1  0.83594800  0.78299400  0.62770600  1
  O  O120  1  0.19411900  0.21146200  0.36917900  1
  O  O121  1  0.19707700  0.21469800  0.86989500  1
  O  O122  1  0.20013700  0.72120900  0.37124500  1
  O  O123  1  0.20330400  0.72654700  0.87168300  1
  O  O124  1  0.69496000  0.21643700  0.36850800  1
  O  O125  1  0.70794500  0.21021000  0.86790600  1
  O  O126  1  0.67916600  0.71116700  0.36499800  1
  O  O127  1  0.71482900  0.72826700  0.87665600  1
  O  O128  1  0.40009700  0.07497500  0.23866400  1
  O  O129  1  0.42863900  0.08760000  0.75090800  1
  O  O130  1  0.40682600  0.58165900  0.23652500  1
  O  O131  1  0.42392300  0.56559500  0.74984300  1
  O  O132  1  0.89744000  0.08237100  0.23742900  1
  O  O133  1  0.92567300  0.08146000  0.74979400  1
  O  O134  1  0.92159600  0.57589000  0.24906500  1
  O  O135  1  0.91703700  0.57526000  0.75046200  1
  O  O136  1  0.16901400  0.42780100  0.24961500  1
  O  O137  1  0.17465100  0.41546800  0.75063500  1
  O  O138  1  0.14743200  0.90890100  0.23967800  1
  O  O139  1  0.17673500  0.93964900  0.75185700  1
  O  O140  1  0.66927400  0.43703400  0.25122700  1
  O  O141  1  0.66909900  0.41543300  0.75211900  1
  O  O142  1  0.66228100  0.91649800  0.24812300  1
  O  O143  1  0.67602400  0.93651500  0.74949500  1
