# generated using pymatgen
data_Bi19(S9I)3
_symmetry_space_group_name_H-M   'P 1'
_cell_length_a   16.27389772
_cell_length_b   16.27389772
_cell_length_c   16.27389777
_cell_angle_alpha   114.00550813
_cell_angle_beta   114.00550813
_cell_angle_gamma   114.00550724
_symmetry_Int_Tables_number   1
_chemical_formula_structural   Bi19(S9I)3
_chemical_formula_sum   'Bi38 S54 I6'
_cell_volume   2617.46338507
_cell_formula_units_Z   2
loop_
 _symmetry_equiv_pos_site_id
 _symmetry_equiv_pos_as_xyz
  1  'x, y, z'
loop_
 _atom_site_type_symbol
 _atom_site_label
 _atom_site_symmetry_multiplicity
 _atom_site_fract_x
 _atom_site_fract_y
 _atom_site_fract_z
 _atom_site_occupancy
  Bi  Bi0  1  0.96425000  0.01526200  0.25914600  1
  Bi  Bi1  1  0.29836200  0.35732500  0.58961100  1
  Bi  Bi2  1  0.63983600  0.69322400  0.93401000  1
  Bi  Bi3  1  0.69322400  0.93401000  0.63983600  1
  Bi  Bi4  1  0.01526200  0.25914600  0.96425000  1
  Bi  Bi5  1  0.35732500  0.58961100  0.29836200  1
  Bi  Bi6  1  0.58961100  0.29836200  0.35732500  1
  Bi  Bi7  1  0.93401000  0.63983600  0.69322400  1
  Bi  Bi8  1  0.25914600  0.96425000  0.01526200  1
  Bi  Bi9  1  0.37117600  0.31837800  0.07693000  1
  Bi  Bi10  1  0.69512200  0.64420800  0.40162900  1
  Bi  Bi11  1  0.03161500  0.97274800  0.74079400  1
  Bi  Bi12  1  0.64420800  0.40162900  0.69512200  1
  Bi  Bi13  1  0.97274800  0.74079400  0.03161500  1
  Bi  Bi14  1  0.31837800  0.07693000  0.37117600  1
  Bi  Bi15  1  0.74079400  0.03161500  0.97274800  1
  Bi  Bi16  1  0.07693000  0.37117600  0.31837800  1
  Bi  Bi17  1  0.40162900  0.69512200  0.64420800  1
  Bi  Bi18  1  0.15579100  0.15579100  0.15579100  1
  Bi  Bi19  1  0.65150600  0.65150600  0.65150600  1
  Bi  Bi20  1  0.16191900  0.04168200  0.55385600  1
  Bi  Bi21  1  0.82807600  0.70707600  0.21968000  1
  Bi  Bi22  1  0.49158800  0.37161200  0.88203300  1
  Bi  Bi23  1  0.37161200  0.88203300  0.49158800  1
  Bi  Bi24  1  0.04168200  0.55385600  0.16191900  1
  Bi  Bi25  1  0.70707600  0.21968000  0.82807600  1
  Bi  Bi26  1  0.21968000  0.82807600  0.70707600  1
  Bi  Bi27  1  0.88203300  0.49158800  0.37161200  1
  Bi  Bi28  1  0.55385600  0.16191900  0.04168200  1
  Bi  Bi29  1  0.50575500  0.62698600  0.11446200  1
  Bi  Bi30  1  0.17376400  0.29347700  0.78248300  1
  Bi  Bi31  1  0.84308800  0.96378900  0.45291200  1
  Bi  Bi32  1  0.29347700  0.78248300  0.17376400  1
  Bi  Bi33  1  0.96378900  0.45291200  0.84308800  1
  Bi  Bi34  1  0.62698600  0.11446200  0.50575500  1
  Bi  Bi35  1  0.45291200  0.84308800  0.96378900  1
  Bi  Bi36  1  0.11446200  0.50575500  0.62698600  1
  Bi  Bi37  1  0.78248300  0.17376400  0.29347700  1
  S  S38  1  0.53680900  0.51638300  0.70241000  1
  S  S39  1  0.86970000  0.85187800  0.03437300  1
  S  S40  1  0.20023000  0.18105400  0.36196900  1
  S  S41  1  0.85187800  0.03437300  0.86970000  1
  S  S42  1  0.18105400  0.36196900  0.20023000  1
  S  S43  1  0.51638300  0.70241000  0.53680900  1
  S  S44  1  0.36196900  0.20023000  0.18105400  1
  S  S45  1  0.70241000  0.53680900  0.51638300  1
  S  S46  1  0.03437300  0.86970000  0.85187800  1
  S  S47  1  0.79393300  0.81361800  0.63398700  1
  S  S48  1  0.13285400  0.15308200  0.96760000  1
  S  S49  1  0.46684900  0.48493200  0.30268000  1
  S  S50  1  0.48493200  0.30268000  0.46684900  1
  S  S51  1  0.81361800  0.63398700  0.79393300  1
  S  S52  1  0.15308200  0.96760000  0.13285400  1
  S  S53  1  0.96760000  0.13285400  0.15308200  1
  S  S54  1  0.30268000  0.46684900  0.48493200  1
  S  S55  1  0.63398700  0.79393300  0.81361800  1
  S  S56  1  0.07799600  0.14647900  0.53290000  1
  S  S57  1  0.40613900  0.47531600  0.86253200  1
  S  S58  1  0.74327200  0.81098000  0.19808000  1
  S  S59  1  0.81098000  0.19808000  0.74327200  1
  S  S60  1  0.14647900  0.53290000  0.07799600  1
  S  S61  1  0.47531600  0.86253200  0.40613900  1
  S  S62  1  0.86253200  0.40613900  0.47531600  1
  S  S63  1  0.19808000  0.74327200  0.81098000  1
  S  S64  1  0.53290000  0.07799600  0.14647900  1
  S  S65  1  0.25667700  0.18788700  0.80266300  1
  S  S66  1  0.59005100  0.52239500  0.13529800  1
  S  S67  1  0.92675300  0.85846800  0.47128500  1
  S  S68  1  0.52239500  0.13529800  0.59005100  1
  S  S69  1  0.85846800  0.47128500  0.92675300  1
  S  S70  1  0.18788700  0.80266300  0.25667700  1
  S  S71  1  0.47128500  0.92675300  0.85846800  1
  S  S72  1  0.80266300  0.25667700  0.18788700  1
  S  S73  1  0.13529800  0.59005100  0.52239500  1
  S  S74  1  0.37151500  0.24224200  0.63492900  1
  S  S75  1  0.70574200  0.57494700  0.97156200  1
  S  S76  1  0.04025600  0.90775800  0.30516600  1
  S  S77  1  0.57494700  0.97156200  0.70574200  1
  S  S78  1  0.90775800  0.30516600  0.04025600  1
  S  S79  1  0.24224200  0.63492900  0.37151500  1
  S  S80  1  0.30516600  0.04025600  0.90775800  1
  S  S81  1  0.63492900  0.37151500  0.24224200  1
  S  S82  1  0.97156200  0.70574200  0.57494700  1
  S  S83  1  0.95956100  0.08891700  0.69681600  1
  S  S84  1  0.29524700  0.42682100  0.03075800  1
  S  S85  1  0.62843800  0.76071400  0.36333800  1
  S  S86  1  0.76071400  0.36333800  0.62843800  1
  S  S87  1  0.08891700  0.69681600  0.95956100  1
  S  S88  1  0.42682100  0.03075800  0.29524700  1
  S  S89  1  0.03075800  0.29524700  0.42682100  1
  S  S90  1  0.36333800  0.62843800  0.76071400  1
  S  S91  1  0.69681600  0.95956100  0.08891700  1
  I  I92  1  0.91791400  0.25104200  0.58432200  1
  I  I93  1  0.25104200  0.58432200  0.91791400  1
  I  I94  1  0.58432200  0.91791400  0.25104200  1
  I  I95  1  0.41915400  0.08597300  0.75269300  1
  I  I96  1  0.75269300  0.41915400  0.08597300  1
  I  I97  1  0.08597300  0.75269300  0.41915400  1
