# generated using pymatgen
data_BaBi2(IO)2
_symmetry_space_group_name_H-M   'P 1'
_cell_length_a   14.40676481
_cell_length_b   14.40676481
_cell_length_c   14.40676481
_cell_angle_alpha   164.86708791
_cell_angle_beta   164.86708791
_cell_angle_gamma   21.46431330
_symmetry_Int_Tables_number   1
_chemical_formula_structural   BaBi2(IO)2
_chemical_formula_sum   'Ba1 Bi2 I2 O2'
_cell_volume   203.75548724
_cell_formula_units_Z   1
loop_
 _symmetry_equiv_pos_site_id
 _symmetry_equiv_pos_as_xyz
  1  'x, y, z'
loop_
 _atom_site_type_symbol
 _atom_site_label
 _atom_site_symmetry_multiplicity
 _atom_site_fract_x
 _atom_site_fract_y
 _atom_site_fract_z
 _atom_site_occupancy
  Ba  Ba0  1  0.50000000  0.50000000  0.00000000  1
  Bi  Bi1  1  0.61884800  0.61884800  0.00000000  1
  Bi  Bi2  1  0.38115200  0.38115200  0.00000000  1
  I  I3  1  0.80835500  0.80835500  0.00000000  1
  I  I4  1  0.19164500  0.19164500  0.00000000  1
  O  O5  1  0.93675000  0.43675000  0.50000000  1
  O  O6  1  0.56325000  0.06325000  0.50000000  1
