# generated using pymatgen
data_Ca8Al11Fe(Si3O13)4
_symmetry_space_group_name_H-M   'P 1'
_cell_length_a   5.66940200
_cell_length_b   8.93667200
_cell_length_c   18.62735728
_cell_angle_alpha   89.33535819
_cell_angle_beta   90.00000000
_cell_angle_gamma   90.00000000
_symmetry_Int_Tables_number   1
_chemical_formula_structural   Ca8Al11Fe(Si3O13)4
_chemical_formula_sum   'Ca8 Al11 Fe1 Si12 O52'
_cell_volume   943.70247611
_cell_formula_units_Z   1
loop_
 _symmetry_equiv_pos_site_id
 _symmetry_equiv_pos_as_xyz
  1  'x, y, z'
loop_
 _atom_site_type_symbol
 _atom_site_label
 _atom_site_symmetry_multiplicity
 _atom_site_fract_x
 _atom_site_fract_y
 _atom_site_fract_z
 _atom_site_occupancy
  Ca  Ca0  1  0.50000000  0.88671100  0.28925900  1
  Ca  Ca1  1  0.50000000  0.38780100  0.79054100  1
  Ca  Ca2  1  0.00000000  0.61325200  0.21016700  1
  Ca  Ca3  1  0.00000000  0.11090900  0.71035200  1
  Ca  Ca4  1  0.50000000  0.18641100  0.42446500  1
  Ca  Ca5  1  0.50000000  0.68705900  0.92401800  1
  Ca  Ca6  1  0.00000000  0.31331900  0.07610700  1
  Ca  Ca7  1  0.00000000  0.81051200  0.57807200  1
  Al  Al8  1  0.75000400  0.00011100  0.99998400  1
  Al  Al9  1  0.74943200  0.49690600  0.50100600  1
  Al  Al10  1  0.24999600  0.00011100  0.99998400  1
  Al  Al11  1  0.25056800  0.49690600  0.50100600  1
  Al  Al12  1  0.74919600  0.25119400  0.24926700  1
  Al  Al13  1  0.75002800  0.75033100  0.75053800  1
  Al  Al14  1  0.25080400  0.25119400  0.24926700  1
  Al  Al15  1  0.24997200  0.75033100  0.75053800  1
  Al  Al16  1  0.00000000  0.17101800  0.88393300  1
  Al  Al17  1  0.50000000  0.82949700  0.11601700  1
  Al  Al18  1  0.50000000  0.32784200  0.61702600  1
  Fe  Fe19  1  0.00000000  0.67556400  0.38675200  1
  Si  Si20  1  0.50000000  0.81435300  0.47678500  1
  Si  Si21  1  0.50000000  0.31450700  0.97618800  1
  Si  Si22  1  0.00000000  0.68566900  0.02352600  1
  Si  Si23  1  0.00000000  0.18334900  0.52406900  1
  Si  Si24  1  0.50000000  0.52493100  0.34049300  1
  Si  Si25  1  0.50000000  0.02653100  0.84200200  1
  Si  Si26  1  0.00000000  0.97373200  0.15808600  1
  Si  Si27  1  0.00000000  0.47297200  0.65903000  1
  Si  Si28  1  0.00000000  0.04818200  0.36358300  1
  Si  Si29  1  0.00000000  0.54018000  0.86451000  1
  Si  Si30  1  0.50000000  0.46006900  0.13493700  1
  Si  Si31  1  0.50000000  0.95926500  0.63578600  1
  O  O32  1  0.00000000  0.87320900  0.34557000  1
  O  O33  1  0.00000000  0.36318100  0.85250100  1
  O  O34  1  0.50000000  0.63731700  0.14659300  1
  O  O35  1  0.50000000  0.13593000  0.64846300  1
  O  O36  1  0.00000000  0.48691600  0.43811300  1
  O  O37  1  0.00000000  0.99685500  0.93577200  1
  O  O38  1  0.50000000  0.00342300  0.06398700  1
  O  O39  1  0.50000000  0.50137100  0.56454700  1
  O  O40  1  0.74354900  0.71160900  0.48085900  1
  O  O41  1  0.74440700  0.21318500  0.97918600  1
  O  O42  1  0.24411500  0.78707300  0.02018800  1
  O  O43  1  0.24519600  0.28425200  0.52173800  1
  O  O44  1  0.75588500  0.78707300  0.02018800  1
  O  O45  1  0.75480400  0.28425200  0.52173800  1
  O  O46  1  0.25645100  0.71160900  0.48085900  1
  O  O47  1  0.25559300  0.21318500  0.97918600  1
  O  O48  1  0.76404900  0.12971800  0.33078500  1
  O  O49  1  0.76526300  0.62165000  0.82969300  1
  O  O50  1  0.26568000  0.37818600  0.16954700  1
  O  O51  1  0.26597300  0.87725700  0.67057100  1
  O  O52  1  0.73432000  0.37818600  0.16954700  1
  O  O53  1  0.73402700  0.87725700  0.67057100  1
  O  O54  1  0.23595100  0.12971800  0.33078500  1
  O  O55  1  0.23473700  0.62165000  0.82969300  1
  O  O56  1  0.50000000  0.36610800  0.29673900  1
  O  O57  1  0.50000000  0.86600000  0.79844000  1
  O  O58  1  0.00000000  0.13349500  0.20215100  1
  O  O59  1  0.00000000  0.63421600  0.70201900  1
  O  O60  1  0.50000000  0.92731600  0.40994400  1
  O  O61  1  0.50000000  0.42964000  0.91012200  1
  O  O62  1  0.00000000  0.57074700  0.08958000  1
  O  O63  1  0.00000000  0.06802500  0.59010600  1
  O  O64  1  0.50000000  0.46969900  0.42709400  1
  O  O65  1  0.50000000  0.96956000  0.92786600  1
  O  O66  1  0.00000000  0.03091700  0.07208700  1
  O  O67  1  0.00000000  0.52913100  0.57298500  1
  O  O68  1  0.00000000  0.08014100  0.45030100  1
  O  O69  1  0.00000000  0.58187800  0.95010800  1
  O  O70  1  0.50000000  0.41856200  0.04935500  1
  O  O71  1  0.50000000  0.91879600  0.54982000  1
  O  O72  1  0.00000000  0.36943400  0.27774300  1
  O  O73  1  0.00000000  0.86852600  0.77931500  1
  O  O74  1  0.50000000  0.13058100  0.22137000  1
  O  O75  1  0.50000000  0.63223400  0.72118500  1
  O  O76  1  0.72917700  0.63069000  0.32020000  1
  O  O77  1  0.73446800  0.13026200  0.82380500  1
  O  O78  1  0.23465000  0.86980600  0.17575400  1
  O  O79  1  0.23465000  0.36934700  0.67708900  1
  O  O80  1  0.76535000  0.86980600  0.17575400  1
  O  O81  1  0.76535000  0.36934700  0.67708900  1
  O  O82  1  0.27082300  0.63069000  0.32020000  1
  O  O83  1  0.26553200  0.13026200  0.82380500  1
