# generated using pymatgen
data_Cs2W3(S2O)4
_symmetry_space_group_name_H-M   'P 1'
_cell_length_a   19.98442400
_cell_length_b   7.31439100
_cell_length_c   7.69404801
_cell_angle_alpha   78.44092012
_cell_angle_beta   90.00000000
_cell_angle_gamma   90.00000000
_symmetry_Int_Tables_number   1
_chemical_formula_structural   Cs2W3(S2O)4
_chemical_formula_sum   'Cs4 W6 S16 O8'
_cell_volume   1101.85908305
_cell_formula_units_Z   2
loop_
 _symmetry_equiv_pos_site_id
 _symmetry_equiv_pos_as_xyz
  1  'x, y, z'
loop_
 _atom_site_type_symbol
 _atom_site_label
 _atom_site_symmetry_multiplicity
 _atom_site_fract_x
 _atom_site_fract_y
 _atom_site_fract_z
 _atom_site_occupancy
  Cs  Cs0  1  0.86583800  0.55203500  0.36930700  1
  Cs  Cs1  1  0.64977000  0.01765200  0.88474500  1
  Cs  Cs2  1  0.14977000  0.98234800  0.11525500  1
  Cs  Cs3  1  0.36583800  0.44796500  0.63069300  1
  W  W4  1  0.85887300  0.85425600  0.77847400  1
  W  W5  1  0.64702800  0.36512500  0.32737300  1
  W  W6  1  0.14702800  0.63487500  0.67262700  1
  W  W7  1  0.35887300  0.14574400  0.22152600  1
  W  W8  1  0.00575600  0.75861100  0.79275100  1
  W  W9  1  0.50575600  0.24138900  0.20724900  1
  S  S10  1  0.77538900  0.86903400  0.59042000  1
  S  S11  1  0.71873200  0.40833400  0.10864200  1
  S  S12  1  0.21873200  0.59166600  0.89135800  1
  S  S13  1  0.27538900  0.13096600  0.40958000  1
  S  S14  1  0.94138400  0.08797500  0.74311200  1
  S  S15  1  0.55364700  0.54331900  0.24470000  1
  S  S16  1  0.05364700  0.45668100  0.75530000  1
  S  S17  1  0.44138400  0.91202500  0.25688800  1
  S  S18  1  0.81803000  0.93954100  0.01845200  1
  S  S19  1  0.69321100  0.43361200  0.56331600  1
  S  S20  1  0.19321100  0.56638800  0.43668400  1
  S  S21  1  0.31803000  0.06045900  0.98154800  1
  S  S22  1  0.90213700  0.56112600  0.90226200  1
  S  S23  1  0.60214100  0.07102000  0.38004600  1
  S  S24  1  0.10214100  0.92898000  0.61995400  1
  S  S25  1  0.40213700  0.43887400  0.09773800  1
  O  O26  1  0.98349400  0.17797000  0.24728300  1
  O  O27  1  0.52004400  0.68927800  0.73893300  1
  O  O28  1  0.02004400  0.31072200  0.26106700  1
  O  O29  1  0.48349400  0.82203000  0.75271700  1
  O  O30  1  0.03148800  0.78349200  0.00728700  1
  O  O31  1  0.43753700  0.18367600  0.40324500  1
  O  O32  1  0.93753700  0.81632400  0.59675500  1
  O  O33  1  0.53148800  0.21650800  0.99271300  1
