# generated using pymatgen
data_BaLa2TiCr2O9
_symmetry_space_group_name_H-M   'P 1'
_cell_length_a   5.64101364
_cell_length_b   8.82028785
_cell_length_c   7.91752400
_cell_angle_alpha   89.99995791
_cell_angle_beta   90.00000512
_cell_angle_gamma   71.35186282
_symmetry_Int_Tables_number   1
_chemical_formula_structural   BaLa2TiCr2O9
_chemical_formula_sum   'Ba2 La4 Ti2 Cr4 O18'
_cell_volume   373.25751646
_cell_formula_units_Z   2
loop_
 _symmetry_equiv_pos_site_id
 _symmetry_equiv_pos_as_xyz
  1  'x, y, z'
loop_
 _atom_site_type_symbol
 _atom_site_label
 _atom_site_symmetry_multiplicity
 _atom_site_fract_x
 _atom_site_fract_y
 _atom_site_fract_z
 _atom_site_occupancy
  Ba  Ba0  1  0.00000100  0.00000100  0.00000200  1
  Ba  Ba1  1  0.00000100  0.00000200  0.49999800  1
  La  La2  1  0.32848600  0.34299000  0.00000100  1
  La  La3  1  0.32849700  0.34298900  0.49999100  1
  La  La4  1  0.67150300  0.65701500  0.00000200  1
  La  La5  1  0.67148600  0.65701900  0.50001200  1
  Ti  Ti6  1  0.50000100  0.00000600  0.24999900  1
  Ti  Ti7  1  0.50000100  0.99999800  0.74999900  1
  Cr  Cr8  1  0.83297200  0.33402300  0.74999900  1
  Cr  Cr9  1  0.16703000  0.66597200  0.25000300  1
  Cr  Cr10  1  0.83297800  0.33405100  0.25000600  1
  Cr  Cr11  1  0.16701700  0.66595800  0.74999800  1
  O  O12  1  0.50000300  0.99999700  0.00000000  1
  O  O13  1  0.50000100  0.99999700  0.50000000  1
  O  O14  1  0.00001100  0.50000600  0.25000000  1
  O  O15  1  0.99999000  0.49999500  0.74999700  1
  O  O16  1  0.49999400  0.50000400  0.24999800  1
  O  O17  1  0.50000100  0.49999500  0.74999600  1
  O  O18  1  0.17480400  0.65042400  0.00000000  1
  O  O19  1  0.17481200  0.65042500  0.49999800  1
  O  O20  1  0.82519100  0.34957600  0.00000100  1
  O  O21  1  0.82519500  0.34957200  0.50000100  1
  O  O22  1  0.35020600  0.82716700  0.25000000  1
  O  O23  1  0.35020500  0.82716300  0.75000000  1
  O  O24  1  0.64980300  0.17283300  0.25000000  1
  O  O25  1  0.64979900  0.17282500  0.74999800  1
  O  O26  1  0.82260400  0.82714900  0.25000200  1
  O  O27  1  0.82260600  0.82715000  0.74999900  1
  O  O28  1  0.17739700  0.17285200  0.25000000  1
  O  O29  1  0.17740300  0.17284800  0.75000100  1
