# generated using pymatgen
data_Bi19(S9Br)3
_symmetry_space_group_name_H-M   'P 1'
_cell_length_a   16.12647634
_cell_length_b   16.12647634
_cell_length_c   16.12647607
_cell_angle_alpha   113.93674120
_cell_angle_beta   113.93674120
_cell_angle_gamma   113.93673584
_symmetry_Int_Tables_number   1
_chemical_formula_structural   Bi19(S9Br)3
_chemical_formula_sum   'Bi38 S54 Br6'
_cell_volume   2559.92125725
_cell_formula_units_Z   2
loop_
 _symmetry_equiv_pos_site_id
 _symmetry_equiv_pos_as_xyz
  1  'x, y, z'
loop_
 _atom_site_type_symbol
 _atom_site_label
 _atom_site_symmetry_multiplicity
 _atom_site_fract_x
 _atom_site_fract_y
 _atom_site_fract_z
 _atom_site_occupancy
  Bi  Bi0  1  0.36941900  0.88414600  0.49429200  1
  Bi  Bi1  1  0.70443400  0.22154500  0.83071600  1
  Bi  Bi2  1  0.03955400  0.55634600  0.16486500  1
  Bi  Bi3  1  0.22154500  0.83071600  0.70443400  1
  Bi  Bi4  1  0.55634600  0.16486500  0.03955400  1
  Bi  Bi5  1  0.88414600  0.49429200  0.36941900  1
  Bi  Bi6  1  0.16486500  0.03955400  0.55634600  1
  Bi  Bi7  1  0.49429200  0.36941900  0.88414600  1
  Bi  Bi8  1  0.83071600  0.70443400  0.22154500  1
  Bi  Bi9  1  0.96813500  0.45249700  0.84226100  1
  Bi  Bi10  1  0.29765200  0.78182600  0.17318200  1
  Bi  Bi11  1  0.63138600  0.11374600  0.50505300  1
  Bi  Bi12  1  0.11374600  0.50505300  0.63138600  1
  Bi  Bi13  1  0.45249700  0.84226100  0.96813500  1
  Bi  Bi14  1  0.78182600  0.17318200  0.29765200  1
  Bi  Bi15  1  0.17318200  0.29765200  0.78182600  1
  Bi  Bi16  1  0.50505300  0.63138600  0.11374600  1
  Bi  Bi17  1  0.84226100  0.96813500  0.45249700  1
  Bi  Bi18  1  0.15452300  0.15452300  0.15452300  1
  Bi  Bi19  1  0.64939300  0.64939300  0.64939300  1
  Bi  Bi20  1  0.69403800  0.93747300  0.64252900  1
  Bi  Bi21  1  0.35688500  0.59139600  0.30048400  1
  Bi  Bi22  1  0.01539700  0.26171400  0.96678900  1
  Bi  Bi23  1  0.59139600  0.30048400  0.35688500  1
  Bi  Bi24  1  0.26171400  0.96678900  0.01539700  1
  Bi  Bi25  1  0.93747300  0.64252900  0.69403800  1
  Bi  Bi26  1  0.96678900  0.01539700  0.26171400  1
  Bi  Bi27  1  0.64252900  0.69403800  0.93747300  1
  Bi  Bi28  1  0.30048400  0.35688500  0.59139600  1
  Bi  Bi29  1  0.97396400  0.73962300  0.03054300  1
  Bi  Bi30  1  0.64662100  0.40102800  0.69552800  1
  Bi  Bi31  1  0.32080500  0.07664900  0.37140900  1
  Bi  Bi32  1  0.07664900  0.37140900  0.32080500  1
  Bi  Bi33  1  0.73962300  0.03054300  0.97396400  1
  Bi  Bi34  1  0.40102800  0.69552800  0.64662100  1
  Bi  Bi35  1  0.69552800  0.64662100  0.40102800  1
  Bi  Bi36  1  0.37140900  0.32080500  0.07664900  1
  Bi  Bi37  1  0.03054300  0.97396400  0.73962300  1
  S  S38  1  0.23936500  0.63622900  0.37424600  1
  S  S39  1  0.57249100  0.97317200  0.70861000  1
  S  S40  1  0.90567000  0.30741700  0.04351200  1
  S  S41  1  0.97317200  0.70861000  0.57249100  1
  S  S42  1  0.30741700  0.04351200  0.90567000  1
  S  S43  1  0.63622900  0.37424600  0.23936500  1
  S  S44  1  0.04351200  0.90567000  0.30741700  1
  S  S45  1  0.37424600  0.23936500  0.63622900  1
  S  S46  1  0.70861000  0.57249100  0.97317200  1
  S  S47  1  0.09389100  0.69700700  0.95918800  1
  S  S48  1  0.43125000  0.03045500  0.29451600  1
  S  S49  1  0.76542600  0.36343100  0.62781500  1
  S  S50  1  0.36343100  0.62781500  0.76542600  1
  S  S51  1  0.69700700  0.95918800  0.09389100  1
  S  S52  1  0.03045500  0.29451600  0.43125000  1
  S  S53  1  0.29451600  0.43125000  0.03045500  1
  S  S54  1  0.62781500  0.76542600  0.36343100  1
  S  S55  1  0.95918800  0.09389100  0.69700700  1
  S  S56  1  0.14580100  0.53330900  0.08087100  1
  S  S57  1  0.47631500  0.86399900  0.41047100  1
  S  S58  1  0.81057200  0.19875000  0.74618800  1
  S  S59  1  0.19875000  0.74618800  0.81057200  1
  S  S60  1  0.53330900  0.08087100  0.14580100  1
  S  S61  1  0.86399900  0.41047100  0.47631500  1
  S  S62  1  0.41047100  0.47631500  0.86399900  1
  S  S63  1  0.74618800  0.81057200  0.19875000  1
  S  S64  1  0.08087100  0.14580100  0.53330900  1
  S  S65  1  0.19103700  0.80448500  0.25651300  1
  S  S66  1  0.52514500  0.13641000  0.58964100  1
  S  S67  1  0.85992600  0.47130700  0.92478600  1
  S  S68  1  0.13641000  0.58964100  0.52514500  1
  S  S69  1  0.47130700  0.92478600  0.85992600  1
  S  S70  1  0.80448500  0.25651300  0.19103700  1
  S  S71  1  0.92478600  0.85992600  0.47130700  1
  S  S72  1  0.25651300  0.19103700  0.80448500  1
  S  S73  1  0.58964100  0.52514500  0.13641000  1
  S  S74  1  0.51610600  0.70481000  0.53944200  1
  S  S75  1  0.85148400  0.03577700  0.87212000  1
  S  S76  1  0.18090200  0.36137100  0.20194300  1
  S  S77  1  0.03577700  0.87212000  0.85148400  1
  S  S78  1  0.36137100  0.20194300  0.18090200  1
  S  S79  1  0.70481000  0.53944200  0.51610600  1
  S  S80  1  0.20194300  0.18090200  0.36137100  1
  S  S81  1  0.53944200  0.51610600  0.70481000  1
  S  S82  1  0.87212000  0.85148400  0.03577700  1
  S  S83  1  0.81498000  0.63411200  0.79307000  1
  S  S84  1  0.15554600  0.96839000  0.13322900  1
  S  S85  1  0.48805400  0.30364400  0.46717600  1
  S  S86  1  0.30364400  0.46717600  0.48805400  1
  S  S87  1  0.63411200  0.79307000  0.81498000  1
  S  S88  1  0.96839000  0.13322900  0.15554600  1
  S  S89  1  0.13322900  0.15554600  0.96839000  1
  S  S90  1  0.46717600  0.48805400  0.30364400  1
  S  S91  1  0.79307000  0.81498000  0.63411200  1
  Br  Br92  1  0.25213600  0.58499500  0.91876600  1
  Br  Br93  1  0.58499500  0.91876600  0.25213600  1
  Br  Br94  1  0.91876600  0.25213600  0.58499500  1
  Br  Br95  1  0.08681300  0.75336300  0.42021900  1
  Br  Br96  1  0.42021900  0.08681300  0.75336300  1
  Br  Br97  1  0.75336300  0.42021900  0.08681300  1
