# generated using pymatgen
data_Ca3Mn2SbO9
_symmetry_space_group_name_H-M   'P 1'
_cell_length_a   5.57902000
_cell_length_b   7.68342109
_cell_length_c   16.46183837
_cell_angle_alpha   89.80237401
_cell_angle_beta   88.20867368
_cell_angle_gamma   89.68776364
_symmetry_Int_Tables_number   1
_chemical_formula_structural   Ca3Mn2SbO9
_chemical_formula_sum   'Ca12 Mn8 Sb4 O36'
_cell_volume   705.29338627
_cell_formula_units_Z   4
loop_
 _symmetry_equiv_pos_site_id
 _symmetry_equiv_pos_as_xyz
  1  'x, y, z'
loop_
 _atom_site_type_symbol
 _atom_site_label
 _atom_site_symmetry_multiplicity
 _atom_site_fract_x
 _atom_site_fract_y
 _atom_site_fract_z
 _atom_site_occupancy
  Ca  Ca0  1  0.55449700  0.74551800  0.82151700  1
  Ca  Ca1  1  0.55431800  0.73179100  0.49485200  1
  Ca  Ca2  1  0.55277600  0.74417200  0.16828300  1
  Ca  Ca3  1  0.44722400  0.25582800  0.83171700  1
  Ca  Ca4  1  0.44568200  0.26820900  0.50514800  1
  Ca  Ca5  1  0.44550300  0.25448200  0.17848300  1
  Ca  Ca6  1  0.03835600  0.73450000  0.66686800  1
  Ca  Ca7  1  0.04774800  0.73461300  0.33515000  1
  Ca  Ca8  1  0.03819500  0.74909800  0.99832300  1
  Ca  Ca9  1  0.96180500  0.25090200  0.00167700  1
  Ca  Ca10  1  0.95225200  0.26538700  0.66485000  1
  Ca  Ca11  1  0.96164400  0.26550000  0.33313200  1
  Mn  Mn12  1  0.99976700  0.49983000  0.82993200  1
  Mn  Mn13  1  0.00000000  0.50000000  0.50000000  1
  Mn  Mn14  1  0.00023300  0.50017000  0.17006800  1
  Mn  Mn15  1  0.99702500  0.00183900  0.83127600  1
  Mn  Mn16  1  0.00000000  0.00000000  0.50000000  1
  Mn  Mn17  1  0.00297500  0.99816100  0.16872400  1
  Mn  Mn18  1  0.49681300  0.50095500  0.66451100  1
  Mn  Mn19  1  0.50318700  0.49904500  0.33548900  1
  Sb  Sb20  1  0.50000000  0.50000000  0.00000000  1
  Sb  Sb21  1  0.50000000  0.00000000  0.00000000  1
  Sb  Sb22  1  0.49411800  0.99778700  0.66180400  1
  Sb  Sb23  1  0.50588200  0.00221300  0.33819600  1
  O  O24  1  0.78235400  0.53606600  0.73492100  1
  O  O25  1  0.79685600  0.53996800  0.40549500  1
  O  O26  1  0.78550500  0.54984900  0.06528100  1
  O  O27  1  0.21361900  0.05112500  0.93795800  1
  O  O28  1  0.19242600  0.04585800  0.59889600  1
  O  O29  1  0.21936300  0.05092100  0.27466100  1
  O  O30  1  0.21449500  0.45015100  0.93471900  1
  O  O31  1  0.20314400  0.46003200  0.59450500  1
  O  O32  1  0.21764600  0.46393400  0.26507900  1
  O  O33  1  0.78063700  0.94907900  0.72533900  1
  O  O34  1  0.80757400  0.95414200  0.40110400  1
  O  O35  1  0.78638100  0.94887500  0.06204200  1
  O  O36  1  0.46481200  0.74947000  0.96266400  1
  O  O37  1  0.46134500  0.74539200  0.63342900  1
  O  O38  1  0.48002000  0.74837000  0.30971000  1
  O  O39  1  0.51998000  0.25163000  0.69029000  1
  O  O40  1  0.53865500  0.25460800  0.36657100  1
  O  O41  1  0.53518800  0.25053000  0.03733600  1
  O  O42  1  0.96731900  0.74909300  0.85836200  1
  O  O43  1  0.96950400  0.75250100  0.52751500  1
  O  O44  1  0.96991600  0.74909600  0.19660600  1
  O  O45  1  0.03008400  0.25090400  0.80339400  1
  O  O46  1  0.03049600  0.24749900  0.47248500  1
  O  O47  1  0.03268100  0.25090700  0.14163800  1
  O  O48  1  0.29026900  0.54257800  0.76272700  1
  O  O49  1  0.28972900  0.54002200  0.43107100  1
  O  O50  1  0.29148400  0.55213300  0.09804700  1
  O  O51  1  0.70098900  0.05124500  0.89893000  1
  O  O52  1  0.69629900  0.04602800  0.56005400  1
  O  O53  1  0.70709500  0.04393100  0.23683400  1
  O  O54  1  0.70851600  0.44786700  0.90195300  1
  O  O55  1  0.71027100  0.45997800  0.56892900  1
  O  O56  1  0.70973100  0.45742200  0.23727300  1
  O  O57  1  0.29290500  0.95606900  0.76316600  1
  O  O58  1  0.30370100  0.95397200  0.43994600  1
  O  O59  1  0.29901100  0.94875500  0.10107000  1
