# generated using pymatgen
data_Ca3Zr2AlFeSiO12
_symmetry_space_group_name_H-M   'P 1'
_cell_length_a   10.98632841
_cell_length_b   10.98632841
_cell_length_c   10.98632841
_cell_angle_alpha   109.13181106
_cell_angle_beta   109.13181106
_cell_angle_gamma   110.15219343
_symmetry_Int_Tables_number   1
_chemical_formula_structural   Ca3Zr2AlFeSiO12
_chemical_formula_sum   'Ca12 Zr8 Al4 Fe4 Si4 O48'
_cell_volume   1020.68037409
_cell_formula_units_Z   4
loop_
 _symmetry_equiv_pos_site_id
 _symmetry_equiv_pos_as_xyz
  1  'x, y, z'
loop_
 _atom_site_type_symbol
 _atom_site_label
 _atom_site_symmetry_multiplicity
 _atom_site_fract_x
 _atom_site_fract_y
 _atom_site_fract_z
 _atom_site_occupancy
  Ca  Ca0  1  0.49985600  0.37500000  0.62485600  1
  Ca  Ca1  1  0.75014400  0.87500000  0.37514400  1
  Ca  Ca2  1  0.62500000  0.75100800  0.62600800  1
  Ca  Ca3  1  0.12500000  0.99899200  0.37399200  1
  Ca  Ca4  1  0.49892900  0.99892900  0.50000000  1
  Ca  Ca5  1  0.75107100  0.75107100  0.00000000  1
  Ca  Ca6  1  0.24899200  0.87500000  0.87399200  1
  Ca  Ca7  1  0.00100800  0.37500000  0.12600800  1
  Ca  Ca8  1  0.12500000  0.50014400  0.87514400  1
  Ca  Ca9  1  0.62500000  0.24985600  0.12485600  1
  Ca  Ca10  1  0.24892900  0.24892900  0.00000000  1
  Ca  Ca11  1  0.00107100  0.50107100  0.50000000  1
  Zr  Zr12  1  0.87700100  0.62729000  0.75173300  1
  Zr  Zr13  1  0.37444300  0.12271000  0.74971100  1
  Zr  Zr14  1  0.37299900  0.62473200  0.25028900  1
  Zr  Zr15  1  0.87555700  0.12526800  0.24826700  1
  Zr  Zr16  1  0.37526800  0.62555700  0.74826700  1
  Zr  Zr17  1  0.87473200  0.12299900  0.75028900  1
  Zr  Zr18  1  0.37271000  0.12444300  0.24971100  1
  Zr  Zr19  1  0.87729000  0.62700100  0.25173300  1
  Al  Al20  1  0.99954500  0.87500000  0.62454500  1
  Al  Al21  1  0.25045500  0.37500000  0.37545500  1
  Al  Al22  1  0.12500000  0.74954500  0.12454500  1
  Al  Al23  1  0.62500000  0.00045500  0.87545500  1
  Fe  Fe24  1  0.75079100  0.37500000  0.87579100  1
  Fe  Fe25  1  0.49920900  0.87500000  0.12420900  1
  Fe  Fe26  1  0.62500000  0.50079100  0.37579100  1
  Fe  Fe27  1  0.12500000  0.24920900  0.62420900  1
  Si  Si28  1  0.50000000  0.50000000  0.00000000  1
  Si  Si29  1  0.75000000  0.25000000  0.50000000  1
  Si  Si30  1  0.25000000  0.75000000  0.50000000  1
  Si  Si31  1  0.00000000  0.00000000  0.00000000  1
  O  O32  1  0.74915300  0.53129700  0.83677600  1
  O  O33  1  0.55547900  0.21870300  0.71785600  1
  O  O34  1  0.50084700  0.83762400  0.28214400  1
  O  O35  1  0.69452100  0.91237600  0.16322400  1
  O  O36  1  0.58130500  0.65388600  0.37740300  1
  O  O37  1  0.66869500  0.54609800  0.57258100  1
  O  O38  1  0.27648300  0.20390200  0.62259700  1
  O  O39  1  0.97351700  0.09611400  0.42741900  1
  O  O40  1  0.28490200  0.92224500  0.54484400  1
  O  O41  1  0.37740100  0.74005800  0.45515600  1
  O  O42  1  0.87259900  0.82775500  0.86265700  1
  O  O43  1  0.96509800  0.00994200  0.13734300  1
  O  O44  1  0.99661700  0.72750500  0.66343700  1
  O  O45  1  0.18593200  0.02249500  0.76911300  1
  O  O46  1  0.25338300  0.41682000  0.23088700  1
  O  O47  1  0.06406800  0.33318000  0.33656300  1
  O  O48  1  0.17097900  0.60886200  0.12876200  1
  O  O49  1  0.07902100  0.70778300  0.93788400  1
  O  O50  1  0.48010100  0.04221700  0.87123800  1
  O  O51  1  0.76989900  0.14113800  0.06211600  1
  O  O52  1  0.46342000  0.32606700  0.95187900  1
  O  O53  1  0.37418800  0.51154200  0.04812100  1
  O  O54  1  0.87581200  0.42393300  0.63735400  1
  O  O55  1  0.78658000  0.23845800  0.36264600  1
  O  O56  1  0.16237600  0.44452100  0.66322400  1
  O  O57  1  0.08762400  0.25084700  0.78214400  1
  O  O58  1  0.46870300  0.30547900  0.21785600  1
  O  O59  1  0.78129700  0.49915300  0.33677600  1
  O  O60  1  0.45390200  0.02648300  0.12259700  1
  O  O61  1  0.34611400  0.72351700  0.92741900  1
  O  O62  1  0.90388600  0.33130500  0.87740300  1
  O  O63  1  0.79609800  0.41869500  0.07258100  1
  O  O64  1  0.99005800  0.12740100  0.95515600  1
  O  O65  1  0.17224500  0.03490200  0.04484400  1
  O  O66  1  0.25994200  0.71509800  0.63734300  1
  O  O67  1  0.07775500  0.62259900  0.36265700  1
  O  O68  1  0.58318000  0.81406800  0.83656300  1
  O  O69  1  0.66682000  0.00338300  0.73088700  1
  O  O70  1  0.27249500  0.93593200  0.26911300  1
  O  O71  1  0.97750500  0.74661700  0.16343700  1
  O  O72  1  0.29221700  0.23010100  0.37123800  1
  O  O73  1  0.39113800  0.51989900  0.56211600  1
  O  O74  1  0.85886200  0.92097900  0.62876200  1
  O  O75  1  0.95778300  0.82902100  0.43788400  1
  O  O76  1  0.76154200  0.12418800  0.54812100  1
  O  O77  1  0.57606700  0.21342000  0.45187900  1
  O  O78  1  0.48845800  0.53658000  0.86264600  1
  O  O79  1  0.67393300  0.62581200  0.13735400  1
