# generated using pymatgen
data_CaTi2PbO6
_symmetry_space_group_name_H-M   'P 1'
_cell_length_a   3.81841900
_cell_length_b   5.85141609
_cell_length_c   5.85141609
_cell_angle_alpha   81.82928243
_cell_angle_beta   90.00000000
_cell_angle_gamma   90.00000000
_symmetry_Int_Tables_number   1
_chemical_formula_structural   CaTi2PbO6
_chemical_formula_sum   'Ca1 Ti2 Pb1 O6'
_cell_volume   129.41198299
_cell_formula_units_Z   1
loop_
 _symmetry_equiv_pos_site_id
 _symmetry_equiv_pos_as_xyz
  1  'x, y, z'
loop_
 _atom_site_type_symbol
 _atom_site_label
 _atom_site_symmetry_multiplicity
 _atom_site_fract_x
 _atom_site_fract_y
 _atom_site_fract_z
 _atom_site_occupancy
  Ca  Ca0  1  0.00000000  0.94636400  0.94636400  1
  Ti  Ti1  1  0.50000000  0.47996000  0.98616400  1
  Ti  Ti2  1  0.50000000  0.98616400  0.47996000  1
  Pb  Pb3  1  0.00000000  0.46948700  0.46948700  1
  O  O4  1  0.50000000  0.24943000  0.82110300  1
  O  O5  1  0.50000000  0.82110300  0.24943000  1
  O  O6  1  0.00000000  0.53445500  0.03740300  1
  O  O7  1  0.00000000  0.03740300  0.53445500  1
  O  O8  1  0.50000000  0.30228500  0.30228500  1
  O  O9  1  0.50000000  0.76534900  0.76534900  1
