# generated using pymatgen
data_BaLa3Mn4O12
_symmetry_space_group_name_H-M   'P 1'
_cell_length_a   6.83837856
_cell_length_b   6.83836355
_cell_length_c   6.83847959
_cell_angle_alpha   70.50300373
_cell_angle_beta   109.49553592
_cell_angle_gamma   70.57829165
_symmetry_Int_Tables_number   1
_chemical_formula_structural   BaLa3Mn4O12
_chemical_formula_sum   'Ba1 La3 Mn4 O12'
_cell_volume   246.17259487
_cell_formula_units_Z   1
loop_
 _symmetry_equiv_pos_site_id
 _symmetry_equiv_pos_as_xyz
  1  'x, y, z'
loop_
 _atom_site_type_symbol
 _atom_site_label
 _atom_site_symmetry_multiplicity
 _atom_site_fract_x
 _atom_site_fract_y
 _atom_site_fract_z
 _atom_site_occupancy
  Ba  Ba0  1  0.99999800  0.00000000  0.00000000  1
  La  La1  1  0.50000200  0.00000200  0.50000000  1
  La  La2  1  0.00000300  0.50000400  0.50000300  1
  La  La3  1  0.50000200  0.49999900  0.99999700  1
  Mn  Mn4  1  0.50000200  0.49999700  0.50000200  1
  Mn  Mn5  1  0.50000000  0.00000000  0.00000300  1
  Mn  Mn6  1  0.99999900  0.00000200  0.49999900  1
  Mn  Mn7  1  0.00000100  0.49999500  0.00000200  1
  O  O8  1  0.25723600  0.74276400  0.51450500  1
  O  O9  1  0.25725300  0.25726000  0.99999800  1
  O  O10  1  0.74276000  0.25723600  0.48549200  1
  O  O11  1  0.74274500  0.74274000  0.00000100  1
  O  O12  1  0.25728000  0.48552800  0.25723800  1
  O  O13  1  0.25721900  0.99996400  0.74274500  1
  O  O14  1  0.74278100  0.00003700  0.25725200  1
  O  O15  1  0.74271900  0.51447200  0.74276200  1
  O  O16  1  0.48552900  0.25728800  0.74275400  1
  O  O17  1  0.51446800  0.74271500  0.25724500  1
  O  O18  1  0.00003700  0.74278400  0.74274700  1
  O  O19  1  0.99996500  0.25721400  0.25725500  1
