# generated using pymatgen
data_BaLaTiFeO6
_symmetry_space_group_name_H-M   'P 1'
_cell_length_a   5.65273465
_cell_length_b   5.65273465
_cell_length_c   9.79082279
_cell_angle_alpha   73.22134800
_cell_angle_beta   73.22134800
_cell_angle_gamma   60.00000000
_symmetry_Int_Tables_number   1
_chemical_formula_structural   BaLaTiFeO6
_chemical_formula_sum   'Ba2 La2 Ti2 Fe2 O12'
_cell_volume   255.44109523
_cell_formula_units_Z   2
loop_
 _symmetry_equiv_pos_site_id
 _symmetry_equiv_pos_as_xyz
  1  'x, y, z'
loop_
 _atom_site_type_symbol
 _atom_site_label
 _atom_site_symmetry_multiplicity
 _atom_site_fract_x
 _atom_site_fract_y
 _atom_site_fract_z
 _atom_site_occupancy
  Ba  Ba0  1  0.87500000  0.87500000  0.37500000  1
  Ba  Ba1  1  0.37500000  0.37500000  0.87500000  1
  La  La2  1  0.62500000  0.62500000  0.12500000  1
  La  La3  1  0.12500000  0.12500000  0.62500000  1
  Ti  Ti4  1  0.25000000  0.25000000  0.25000000  1
  Ti  Ti5  1  0.75000000  0.75000000  0.75000000  1
  Fe  Fe6  1  0.50000000  0.50000000  0.50000000  1
  Fe  Fe7  1  0.00000000  0.00000000  0.00000000  1
  O  O8  1  0.37333400  0.37333400  0.37333400  1
  O  O9  1  0.87333400  0.87333400  0.87333400  1
  O  O10  1  0.12666600  0.12666600  0.12666600  1
  O  O11  1  0.62666600  0.62666600  0.62666600  1
  O  O12  1  0.12666600  0.62000300  0.12666600  1
  O  O13  1  0.62666600  0.12000300  0.62666600  1
  O  O14  1  0.37333400  0.87999700  0.37333400  1
  O  O15  1  0.87333400  0.37999700  0.87333400  1
  O  O16  1  0.62000300  0.12666600  0.12666600  1
  O  O17  1  0.12000300  0.62666600  0.62666600  1
  O  O18  1  0.87999700  0.37333400  0.37333400  1
  O  O19  1  0.37999700  0.87333400  0.87333400  1
