# generated using pymatgen
data_Ce2Cu11Au
_symmetry_space_group_name_H-M   'P 1'
_cell_length_a   5.04370300
_cell_length_b   8.14380900
_cell_length_c   10.27222500
_cell_angle_alpha   90.00000000
_cell_angle_beta   90.00000000
_cell_angle_gamma   90.00000000
_symmetry_Int_Tables_number   1
_chemical_formula_structural   Ce2Cu11Au
_chemical_formula_sum   'Ce4 Cu22 Au2'
_cell_volume   421.93116817
_cell_formula_units_Z   2
loop_
 _symmetry_equiv_pos_site_id
 _symmetry_equiv_pos_as_xyz
  1  'x, y, z'
loop_
 _atom_site_type_symbol
 _atom_site_label
 _atom_site_symmetry_multiplicity
 _atom_site_fract_x
 _atom_site_fract_y
 _atom_site_fract_z
 _atom_site_occupancy
  Ce  Ce0  1  0.50000000  0.24000600  0.81286900  1
  Ce  Ce1  1  0.50000000  0.74000600  0.18713100  1
  Ce  Ce2  1  0.00000000  0.75990500  0.68300900  1
  Ce  Ce3  1  0.00000000  0.25990500  0.31699100  1
  Cu  Cu4  1  0.50000000  0.68425200  0.49893400  1
  Cu  Cu5  1  0.50000000  0.18425200  0.50106600  1
  Cu  Cu6  1  0.00000000  0.31482600  0.99829500  1
  Cu  Cu7  1  0.00000000  0.81482600  0.00170500  1
  Cu  Cu8  1  0.50000000  0.94512700  0.64405000  1
  Cu  Cu9  1  0.50000000  0.44512700  0.35595000  1
  Cu  Cu10  1  0.00000000  0.05974000  0.84801500  1
  Cu  Cu11  1  0.00000000  0.55974000  0.15198500  1
  Cu  Cu12  1  0.74959900  0.06468300  0.06280200  1
  Cu  Cu13  1  0.25040100  0.56468300  0.93719800  1
  Cu  Cu14  1  0.24274900  0.93426200  0.44001300  1
  Cu  Cu15  1  0.75725100  0.43426200  0.55998700  1
  Cu  Cu16  1  0.75725100  0.93426200  0.44001300  1
  Cu  Cu17  1  0.24274900  0.43426200  0.55998700  1
  Cu  Cu18  1  0.25040100  0.06468300  0.06280200  1
  Cu  Cu19  1  0.74959900  0.56468300  0.93719800  1
  Cu  Cu20  1  0.50000000  0.59006600  0.73242800  1
  Cu  Cu21  1  0.50000000  0.09006600  0.26757200  1
  Cu  Cu22  1  0.00000000  0.40409300  0.76399800  1
  Cu  Cu23  1  0.00000000  0.90409300  0.23600200  1
  Cu  Cu24  1  0.00000000  0.64417500  0.38970700  1
  Cu  Cu25  1  0.00000000  0.14417500  0.61029300  1
  Au  Au26  1  0.50000000  0.35991900  0.11083800  1
  Au  Au27  1  0.50000000  0.85991900  0.88916200  1
