# generated using pymatgen
data_Ca2MnAl2Si3O13
_symmetry_space_group_name_H-M   'P 1'
_cell_length_a   5.75791400
_cell_length_b   8.91672600
_cell_length_c   10.35933270
_cell_angle_alpha   66.27812486
_cell_angle_beta   90.00000000
_cell_angle_gamma   90.00000000
_symmetry_Int_Tables_number   1
_chemical_formula_structural   Ca2MnAl2Si3O13
_chemical_formula_sum   'Ca4 Mn2 Al4 Si6 O26'
_cell_volume   486.92831063
_cell_formula_units_Z   2
loop_
 _symmetry_equiv_pos_site_id
 _symmetry_equiv_pos_as_xyz
  1  'x, y, z'
loop_
 _atom_site_type_symbol
 _atom_site_label
 _atom_site_symmetry_multiplicity
 _atom_site_fract_x
 _atom_site_fract_y
 _atom_site_fract_z
 _atom_site_occupancy
  Ca  Ca0  1  0.75000000  0.60710800  0.15653200  1
  Ca  Ca1  1  0.25000000  0.39289200  0.84346800  1
  Ca  Ca2  1  0.75000000  0.20600800  0.41771200  1
  Ca  Ca3  1  0.25000000  0.79399200  0.58228800  1
  Mn  Mn4  1  0.50000000  0.00000000  0.00000000  1
  Mn  Mn5  1  0.00000000  0.00000000  0.00000000  1
  Al  Al6  1  0.50000000  0.50000000  0.50000000  1
  Al  Al7  1  0.00000000  0.50000000  0.50000000  1
  Al  Al8  1  0.25000000  0.04873900  0.25050300  1
  Al  Al9  1  0.75000000  0.95126100  0.74949700  1
  Si  Si10  1  0.75000000  0.86903300  0.32238500  1
  Si  Si11  1  0.25000000  0.13096700  0.67761500  1
  Si  Si12  1  0.25000000  0.41201900  0.26684900  1
  Si  Si13  1  0.75000000  0.58798100  0.73315100  1
  Si  Si14  1  0.75000000  0.29861300  0.04327000  1
  Si  Si15  1  0.25000000  0.70138700  0.95673000  1
  O  O16  1  0.50995000  0.20028900  0.03340100  1
  O  O17  1  0.00995000  0.79971100  0.96659900  1
  O  O18  1  0.49005000  0.79971100  0.96659900  1
  O  O19  1  0.99005000  0.20028900  0.03340100  1
  O  O20  1  0.75000000  0.33833700  0.17961300  1
  O  O21  1  0.25000000  0.66166300  0.82038700  1
  O  O22  1  0.25000000  0.93841000  0.13265400  1
  O  O23  1  0.75000000  0.06159000  0.86734600  1
  O  O24  1  0.51511200  0.95620800  0.35250300  1
  O  O25  1  0.01511200  0.04379200  0.64749700  1
  O  O26  1  0.48488800  0.04379200  0.64749700  1
  O  O27  1  0.98488800  0.95620800  0.35250300  1
  O  O28  1  0.48225700  0.46049000  0.33264400  1
  O  O29  1  0.98225700  0.53951000  0.66735600  1
  O  O30  1  0.51774300  0.53951000  0.66735600  1
  O  O31  1  0.01774300  0.46049000  0.33264400  1
  O  O32  1  0.25000000  0.22007300  0.29490500  1
  O  O33  1  0.75000000  0.77992700  0.70509500  1
  O  O34  1  0.75000000  0.66979700  0.40801300  1
  O  O35  1  0.25000000  0.33020300  0.59198700  1
  O  O36  1  0.25000000  0.52321300  0.09443200  1
  O  O37  1  0.75000000  0.47678700  0.90556800  1
  O  O38  1  0.75000000  0.89575300  0.14977900  1
  O  O39  1  0.25000000  0.10424700  0.85022100  1
  O  O40  1  0.25000000  0.63999500  0.44976700  1
  O  O41  1  0.75000000  0.36000500  0.55023300  1
