# generated using pymatgen
data_Ca6Mg2Co(AsO5)6
_symmetry_space_group_name_H-M   'P 1'
_cell_length_a   6.31572500
_cell_length_b   8.77386370
_cell_length_c   11.42397095
_cell_angle_alpha   89.53736237
_cell_angle_beta   89.32896933
_cell_angle_gamma   88.07904585
_symmetry_Int_Tables_number   1
_chemical_formula_structural   Ca6Mg2Co(AsO5)6
_chemical_formula_sum   'Ca6 Mg2 Co1 As6 O30'
_cell_volume   632.62221340
_cell_formula_units_Z   1
loop_
 _symmetry_equiv_pos_site_id
 _symmetry_equiv_pos_as_xyz
  1  'x, y, z'
loop_
 _atom_site_type_symbol
 _atom_site_label
 _atom_site_symmetry_multiplicity
 _atom_site_fract_x
 _atom_site_fract_y
 _atom_site_fract_z
 _atom_site_occupancy
  Ca  Ca0  1  0.84151500  0.60155400  0.88030300  1
  Ca  Ca1  1  0.53780700  0.90106400  0.19742100  1
  Ca  Ca2  1  0.20298600  0.24317500  0.52527900  1
  Ca  Ca3  1  0.46219300  0.09893600  0.80257900  1
  Ca  Ca4  1  0.15848500  0.39844600  0.11969700  1
  Ca  Ca5  1  0.79701400  0.75682500  0.47472100  1
  Mg  Mg6  1  0.67810600  0.33409800  0.33540900  1
  Mg  Mg7  1  0.32189400  0.66590200  0.66459100  1
  Co  Co8  1  0.00000000  0.00000000  0.00000000  1
  As  As9  1  0.65162800  0.27455000  0.04980600  1
  As  As10  1  0.29974000  0.60113100  0.38105900  1
  As  As11  1  0.96710000  0.94629800  0.72236800  1
  As  As12  1  0.70026000  0.39886900  0.61894100  1
  As  As13  1  0.34837200  0.72545000  0.95019400  1
  As  As14  1  0.03290000  0.05370200  0.27763200  1
  O  O15  1  0.74059600  0.08356500  0.07300700  1
  O  O16  1  0.39313500  0.41741400  0.40643800  1
  O  O17  1  0.04214800  0.75735500  0.74023500  1
  O  O18  1  0.60686500  0.58258600  0.59356200  1
  O  O19  1  0.25940400  0.91643500  0.92699300  1
  O  O20  1  0.95785200  0.24264500  0.25976500  1
  O  O21  1  0.47314500  0.87607600  0.68544100  1
  O  O22  1  0.09408900  0.17571900  0.97820100  1
  O  O23  1  0.82839400  0.54194100  0.34890300  1
  O  O24  1  0.90591100  0.82428100  0.02179900  1
  O  O25  1  0.52685500  0.12392400  0.31455900  1
  O  O26  1  0.17160600  0.45805900  0.65109700  1
  O  O27  1  0.51374100  0.32503100  0.17687500  1
  O  O28  1  0.16258500  0.67047000  0.50327300  1
  O  O29  1  0.83866700  0.01253700  0.84988500  1
  O  O30  1  0.83741500  0.32953000  0.49672700  1
  O  O31  1  0.48625900  0.67496900  0.82312500  1
  O  O32  1  0.16133300  0.98746300  0.15011500  1
  O  O33  1  0.47129600  0.28428700  0.94071300  1
  O  O34  1  0.13351400  0.59875600  0.26133200  1
  O  O35  1  0.78150900  0.96037100  0.61229000  1
  O  O36  1  0.86648600  0.40124400  0.73866800  1
  O  O37  1  0.52870400  0.71571300  0.05928700  1
  O  O38  1  0.21849100  0.03962900  0.38771000  1
  O  O39  1  0.83919200  0.40649300  0.02487800  1
  O  O40  1  0.50060000  0.72338800  0.34981700  1
  O  O41  1  0.16728200  0.06350600  0.68194100  1
  O  O42  1  0.49940000  0.27661200  0.65018300  1
  O  O43  1  0.16080800  0.59350700  0.97512200  1
  O  O44  1  0.83271800  0.93649400  0.31805900  1
