# generated using pymatgen
data_AlV2
_symmetry_space_group_name_H-M   'P 1'
_cell_length_a   6.67368110
_cell_length_b   6.52520259
_cell_length_c   2.63841703
_cell_angle_alpha   81.64793070
_cell_angle_beta   75.32576956
_cell_angle_gamma   23.02629974
_symmetry_Int_Tables_number   1
_chemical_formula_structural   AlV2
_chemical_formula_sum   'Al1 V2'
_cell_volume   42.28700689
_cell_formula_units_Z   1
loop_
 _symmetry_equiv_pos_site_id
 _symmetry_equiv_pos_as_xyz
  1  'x, y, z'
loop_
 _atom_site_type_symbol
 _atom_site_label
 _atom_site_symmetry_multiplicity
 _atom_site_fract_x
 _atom_site_fract_y
 _atom_site_fract_z
 _atom_site_occupancy
  Al  Al0  1  0.00000000  0.00000000  0.00000000  1
  V  V1  1  0.32910500  0.32910500  0.67089500  1
  V  V2  1  0.67089500  0.67089500  0.32910500  1
