# generated using pymatgen
data_BaCd3Ga
_symmetry_space_group_name_H-M   'P 1'
_cell_length_a   6.74587644
_cell_length_b   6.74587644
_cell_length_c   6.74587644
_cell_angle_alpha   137.29612879
_cell_angle_beta   137.29612879
_cell_angle_gamma   61.98273853
_symmetry_Int_Tables_number   1
_chemical_formula_structural   BaCd3Ga
_chemical_formula_sum   'Ba1 Cd3 Ga1'
_cell_volume   139.54392071
_cell_formula_units_Z   1
loop_
 _symmetry_equiv_pos_site_id
 _symmetry_equiv_pos_as_xyz
  1  'x, y, z'
loop_
 _atom_site_type_symbol
 _atom_site_label
 _atom_site_symmetry_multiplicity
 _atom_site_fract_x
 _atom_site_fract_y
 _atom_site_fract_z
 _atom_site_occupancy
  Ba  Ba0  1  0.00445000  0.00445000  0.00000000  1
  Cd  Cd1  1  0.74271000  0.24271000  0.50000000  1
  Cd  Cd2  1  0.24271000  0.74271000  0.50000000  1
  Cd  Cd3  1  0.38775000  0.38775000  0.00000000  1
  Ga  Ga4  1  0.62237900  0.62237900  0.00000000  1
