# generated using pymatgen
data_Ca20Si3Ge9O44
_symmetry_space_group_name_H-M   'P 1'
_cell_length_a   7.01949952
_cell_length_b   13.62135502
_cell_length_c   12.53445101
_cell_angle_alpha   64.77673551
_cell_angle_beta   92.28420985
_cell_angle_gamma   79.31438136
_symmetry_Int_Tables_number   1
_chemical_formula_structural   Ca20Si3Ge9O44
_chemical_formula_sum   'Ca20 Si3 Ge9 O44'
_cell_volume   1055.84309980
_cell_formula_units_Z   1
loop_
 _symmetry_equiv_pos_site_id
 _symmetry_equiv_pos_as_xyz
  1  'x, y, z'
loop_
 _atom_site_type_symbol
 _atom_site_label
 _atom_site_symmetry_multiplicity
 _atom_site_fract_x
 _atom_site_fract_y
 _atom_site_fract_z
 _atom_site_occupancy
  Ca  Ca0  1  0.01799400  0.13218900  0.11423900  1
  Ca  Ca1  1  0.01579500  0.63231400  0.61645000  1
  Ca  Ca2  1  0.98413500  0.86763500  0.88359000  1
  Ca  Ca3  1  0.98515200  0.36895500  0.38373800  1
  Ca  Ca4  1  0.29564900  0.85206900  0.14782100  1
  Ca  Ca5  1  0.29547100  0.35241000  0.64786800  1
  Ca  Ca6  1  0.70428600  0.64786500  0.35212500  1
  Ca  Ca7  1  0.70450700  0.14778300  0.85239800  1
  Ca  Ca8  1  0.68180600  0.41136500  0.08820000  1
  Ca  Ca9  1  0.68198900  0.90760800  0.59224100  1
  Ca  Ca10  1  0.31682500  0.59160900  0.90855000  1
  Ca  Ca11  1  0.32157000  0.08996200  0.40922800  1
  Ca  Ca12  1  0.91785400  0.39204200  0.84992500  1
  Ca  Ca13  1  0.91775700  0.89156200  0.34951900  1
  Ca  Ca14  1  0.54186100  0.57999600  0.66205100  1
  Ca  Ca15  1  0.54230700  0.07936200  0.16166500  1
  Ca  Ca16  1  0.08193400  0.60817700  0.14965500  1
  Ca  Ca17  1  0.08331300  0.10794100  0.65171600  1
  Ca  Ca18  1  0.45655600  0.42165200  0.33793000  1
  Ca  Ca19  1  0.45818300  0.91969200  0.83819300  1
  Si  Si20  1  0.18955000  0.32592100  0.13657500  1
  Si  Si21  1  0.18927800  0.82593400  0.63647700  1
  Si  Si22  1  0.81062500  0.67409500  0.86358800  1
  Ge  Ge23  1  0.81129900  0.17362500  0.36218500  1
  Ge  Ge24  1  0.43625900  0.35243700  0.91595100  1
  Ge  Ge25  1  0.43648500  0.85228300  0.41598800  1
  Ge  Ge26  1  0.56339700  0.64767400  0.08410500  1
  Ge  Ge27  1  0.56010300  0.14690600  0.58701100  1
  Ge  Ge28  1  0.20803700  0.11246700  0.90453600  1
  Ge  Ge29  1  0.20773300  0.61269500  0.40485300  1
  Ge  Ge30  1  0.79221000  0.88724700  0.09499900  1
  Ge  Ge31  1  0.79217500  0.38749000  0.59536700  1
  O  O32  1  0.34481500  0.38493700  0.03983900  1
  O  O33  1  0.34499100  0.88478300  0.54007000  1
  O  O34  1  0.65506200  0.61517100  0.95993300  1
  O  O35  1  0.64543100  0.10997300  0.46495200  1
  O  O36  1  0.63297900  0.33155400  0.69864600  1
  O  O37  1  0.63299200  0.83158700  0.19848700  1
  O  O38  1  0.36696800  0.66831000  0.30152000  1
  O  O39  1  0.36703600  0.16847100  0.80128500  1
  O  O40  1  0.28185000  0.68990900  0.70681800  1
  O  O41  1  0.28231300  0.18986800  0.20705800  1
  O  O42  1  0.98304500  0.33910300  0.05761800  1
  O  O43  1  0.98287400  0.83972800  0.55718100  1
  O  O44  1  0.71470300  0.31931300  0.28875700  1
  O  O45  1  0.71805800  0.80995200  0.79342200  1
  O  O46  1  0.01696000  0.66058100  0.94259600  1
  O  O47  1  0.03006700  0.16159900  0.44673700  1
  O  O48  1  0.23217200  0.39850800  0.80994600  1
  O  O49  1  0.23252300  0.89834000  0.30993500  1
  O  O50  1  0.58827500  0.22046200  0.98782400  1
  O  O51  1  0.58856900  0.72032500  0.48813000  1
  O  O52  1  0.76762200  0.60184800  0.18991100  1
  O  O53  1  0.76760300  0.10181200  0.69036100  1
  O  O54  1  0.41151500  0.77964600  0.01199600  1
  O  O55  1  0.41198700  0.27985600  0.51241300  1
  O  O56  1  0.83650900  0.61310300  0.77662700  1
  O  O57  1  0.83690800  0.10712000  0.27022100  1
  O  O58  1  0.16349900  0.38707100  0.22327800  1
  O  O59  1  0.16328000  0.88664600  0.72361800  1
  O  O60  1  0.14433300  0.50987600  0.36463600  1
  O  O61  1  0.14484000  0.00919900  0.86518200  1
  O  O62  1  0.85519200  0.49059500  0.63552300  1
  O  O63  1  0.85561500  0.99019200  0.13452600  1
  O  O64  1  0.57893600  0.45523400  0.87587800  1
  O  O65  1  0.57926600  0.95478800  0.37597400  1
  O  O66  1  0.41997800  0.54551300  0.12331900  1
  O  O67  1  0.41863900  0.04386600  0.62736500  1
  O  O68  1  0.29909800  0.54699000  0.55965100  1
  O  O69  1  0.29941400  0.04686000  0.05931600  1
  O  O70  1  0.98758200  0.20294200  0.90332700  1
  O  O71  1  0.98725800  0.70268700  0.40388900  1
  O  O72  1  0.70085700  0.45332000  0.44063500  1
  O  O73  1  0.70079500  0.95296800  0.94019800  1
  O  O74  1  0.01276800  0.79697200  0.09615400  1
  O  O75  1  0.01272600  0.29745800  0.59651000  1
