# generated using pymatgen
data_BaLa2Fe2O5F4
_symmetry_space_group_name_H-M   'P 1'
_cell_length_a   11.55354664
_cell_length_b   11.55354664
_cell_length_c   11.55354664
_cell_angle_alpha   159.94988646
_cell_angle_beta   159.92609576
_cell_angle_gamma   28.52080490
_symmetry_Int_Tables_number   1
_chemical_formula_structural   BaLa2Fe2O5F4
_chemical_formula_sum   'Ba1 La2 Fe2 O5 F4'
_cell_volume   181.39064645
_cell_formula_units_Z   1
loop_
 _symmetry_equiv_pos_site_id
 _symmetry_equiv_pos_as_xyz
  1  'x, y, z'
loop_
 _atom_site_type_symbol
 _atom_site_label
 _atom_site_symmetry_multiplicity
 _atom_site_fract_x
 _atom_site_fract_y
 _atom_site_fract_z
 _atom_site_occupancy
  Ba  Ba0  1  0.50817900  0.50000000  0.00817900  1
  La  La1  1  0.67204700  0.67669900  0.99534800  1
  La  La2  1  0.31865000  0.32330100  0.99534800  1
  Fe  Fe3  1  0.91979000  0.91188800  0.00790100  1
  Fe  Fe4  1  0.09601300  0.08811200  0.00790100  1
  O  O5  1  0.90797400  0.39874400  0.50923000  1
  O  O6  1  0.41137600  0.89929100  0.51208500  1
  O  O7  1  0.11048500  0.60125600  0.50923000  1
  O  O8  1  0.61279400  0.10070900  0.51208500  1
  O  O9  1  0.01061300  0.00000000  0.01061300  1
  F  F10  1  0.26899200  0.74995700  0.51903500  1
  F  F11  1  0.76907800  0.25004300  0.51903500  1
  F  F12  1  0.20912300  0.17911800  0.03000400  1
  F  F13  1  0.85088600  0.82088200  0.03000400  1
