# generated using pymatgen
data_BaBiBrO2
_symmetry_space_group_name_H-M   'P 1'
_cell_length_a   7.58739764
_cell_length_b   7.58739764
_cell_length_c   7.58739764
_cell_angle_alpha   148.51005264
_cell_angle_beta   148.51005264
_cell_angle_gamma   45.13298627
_symmetry_Int_Tables_number   1
_chemical_formula_structural   BaBiBrO2
_chemical_formula_sum   'Ba1 Bi1 Br1 O2'
_cell_volume   118.80197846
_cell_formula_units_Z   1
loop_
 _symmetry_equiv_pos_site_id
 _symmetry_equiv_pos_as_xyz
  1  'x, y, z'
loop_
 _atom_site_type_symbol
 _atom_site_label
 _atom_site_symmetry_multiplicity
 _atom_site_fract_x
 _atom_site_fract_y
 _atom_site_fract_z
 _atom_site_occupancy
  Ba  Ba0  1  0.85550000  0.85550000  0.00000000  1
  Bi  Bi1  1  0.17235000  0.17235000  0.00000000  1
  Br  Br2  1  0.49134500  0.49134500  0.00000000  1
  O  O3  1  0.74040300  0.24040300  0.50000000  1
  O  O4  1  0.24040300  0.74040300  0.50000000  1
