# generated using pymatgen
data_CaZr4(PbO4)3
_symmetry_space_group_name_H-M   'P 1'
_cell_length_a   8.35541542
_cell_length_b   8.35178654
_cell_length_c   8.37983340
_cell_angle_alpha   90.73189043
_cell_angle_beta   89.25369219
_cell_angle_gamma   90.78793756
_symmetry_Int_Tables_number   1
_chemical_formula_structural   CaZr4(PbO4)3
_chemical_formula_sum   'Ca2 Zr8 Pb6 O24'
_cell_volume   584.61566389
_cell_formula_units_Z   2
loop_
 _symmetry_equiv_pos_site_id
 _symmetry_equiv_pos_as_xyz
  1  'x, y, z'
loop_
 _atom_site_type_symbol
 _atom_site_label
 _atom_site_symmetry_multiplicity
 _atom_site_fract_x
 _atom_site_fract_y
 _atom_site_fract_z
 _atom_site_occupancy
  Ca  Ca0  1  0.53011100  0.47211500  0.02387500  1
  Ca  Ca1  1  0.02915600  0.47183700  0.52580500  1
  Zr  Zr2  1  0.75153900  0.25228800  0.75041500  1
  Zr  Zr3  1  0.24913800  0.74731200  0.24746000  1
  Zr  Zr4  1  0.74474100  0.74860300  0.24699800  1
  Zr  Zr5  1  0.25027800  0.25493900  0.25143300  1
  Zr  Zr6  1  0.24624800  0.74963800  0.74795200  1
  Zr  Zr7  1  0.74942900  0.25273900  0.25303600  1
  Zr  Zr8  1  0.25009000  0.25372100  0.75456800  1
  Zr  Zr9  1  0.75070500  0.74721900  0.74680800  1
  Pb  Pb10  1  0.51311600  0.98282800  0.52513400  1
  Pb  Pb11  1  0.51844400  0.98508500  0.01793200  1
  Pb  Pb12  1  0.01312900  0.48539100  0.01888900  1
  Pb  Pb13  1  0.02210500  0.98272800  0.51359000  1
  Pb  Pb14  1  0.51604300  0.48328600  0.52082900  1
  Pb  Pb15  1  0.01362100  0.98154200  0.02304000  1
  O  O16  1  0.70333900  0.73366800  0.48954900  1
  O  O17  1  0.49368400  0.30355400  0.26293100  1
  O  O18  1  0.26417000  0.50781500  0.69905100  1
  O  O19  1  0.99267300  0.23672300  0.20030700  1
  O  O20  1  0.20115200  0.00863500  0.76078100  1
  O  O21  1  0.76460700  0.79655600  0.98870600  1
  O  O22  1  0.20193400  0.24002800  0.49388200  1
  O  O23  1  0.49074600  0.79794800  0.75683200  1
  O  O24  1  0.76246900  0.50660500  0.19573000  1
  O  O25  1  0.99100600  0.71768200  0.68937000  1
  O  O26  1  0.69693700  0.00735800  0.25820300  1
  O  O27  1  0.27902400  0.31470100  0.99435700  1
  O  O28  1  0.76539800  0.00793600  0.70284200  1
  O  O29  1  0.70122500  0.23781500  0.99235000  1
  O  O30  1  0.99423700  0.30382800  0.76394200  1
  O  O31  1  0.18527100  0.50948200  0.27975600  1
  O  O32  1  0.26165300  0.79959000  0.48962900  1
  O  O33  1  0.48894500  0.71776700  0.18797900  1
  O  O34  1  0.26401900  0.00951900  0.20571400  1
  O  O35  1  0.19941300  0.73798600  0.99071500  1
  O  O36  1  0.98913500  0.79895200  0.25769500  1
  O  O37  1  0.68742800  0.50791500  0.77776300  1
  O  O38  1  0.77810800  0.31320200  0.49325200  1
  O  O39  1  0.49353300  0.23546700  0.69890000  1
