# generated using pymatgen
data_La7SmCo6(AgO12)2
_symmetry_space_group_name_H-M   'P 1'
_cell_length_a   7.78697814
_cell_length_b   7.78697814
_cell_length_c   7.88537400
_cell_angle_alpha   90.00000000
_cell_angle_beta   90.00000000
_cell_angle_gamma   90.07069590
_symmetry_Int_Tables_number   1
_chemical_formula_structural   La7SmCo6(AgO12)2
_chemical_formula_sum   'La7 Sm1 Co6 Ag2 O24'
_cell_volume   478.14528443
_cell_formula_units_Z   1
loop_
 _symmetry_equiv_pos_site_id
 _symmetry_equiv_pos_as_xyz
  1  'x, y, z'
loop_
 _atom_site_type_symbol
 _atom_site_label
 _atom_site_symmetry_multiplicity
 _atom_site_fract_x
 _atom_site_fract_y
 _atom_site_fract_z
 _atom_site_occupancy
  La  La0  1  0.00000000  0.50000000  0.75590500  1
  La  La1  1  0.50000000  0.50000000  0.75737500  1
  La  La2  1  0.00000000  0.50000000  0.24266100  1
  La  La3  1  0.50000000  0.50000000  0.24350100  1
  La  La4  1  0.50000000  0.00000000  0.75590500  1
  La  La5  1  0.00000000  0.00000000  0.24242500  1
  La  La6  1  0.50000000  0.00000000  0.24266100  1
  Sm  Sm7  1  0.00000000  0.00000000  0.76072100  1
  Co  Co8  1  0.75037900  0.75037900  0.99905400  1
  Co  Co9  1  0.24999100  0.75000900  0.99926900  1
  Co  Co10  1  0.75063400  0.75063400  0.50035500  1
  Co  Co11  1  0.75000900  0.24999100  0.99926900  1
  Co  Co12  1  0.24962100  0.24962100  0.99905400  1
  Co  Co13  1  0.24936600  0.24936600  0.50035500  1
  Ag  Ag14  1  0.25012900  0.74987100  0.49979900  1
  Ag  Ag15  1  0.74987100  0.25012900  0.49979900  1
  O  O16  1  0.75041000  0.49720000  0.99942600  1
  O  O17  1  0.24959000  0.50280000  0.99942600  1
  O  O18  1  0.75015800  0.51360800  0.50057000  1
  O  O19  1  0.24984200  0.48639200  0.50057000  1
  O  O20  1  0.75170200  0.00258200  0.99775800  1
  O  O21  1  0.24829800  0.99741800  0.99775800  1
  O  O22  1  0.75181600  0.98669800  0.50316100  1
  O  O23  1  0.24818400  0.01330200  0.50316100  1
  O  O24  1  0.75228000  0.75228000  0.74535600  1
  O  O25  1  0.24518500  0.75481500  0.76254100  1
  O  O26  1  0.74997600  0.74997600  0.25451800  1
  O  O27  1  0.24884700  0.75115300  0.23666900  1
  O  O28  1  0.75481500  0.24518500  0.76254100  1
  O  O29  1  0.24772000  0.24772000  0.74535600  1
  O  O30  1  0.75115300  0.24884700  0.23666900  1
  O  O31  1  0.25002400  0.25002400  0.25451800  1
  O  O32  1  0.00258200  0.75170200  0.99775800  1
  O  O33  1  0.49720000  0.75041000  0.99942600  1
  O  O34  1  0.98669800  0.75181600  0.50316100  1
  O  O35  1  0.51360800  0.75015800  0.50057000  1
  O  O36  1  0.99741800  0.24829800  0.99775800  1
  O  O37  1  0.50280000  0.24959000  0.99942600  1
  O  O38  1  0.01330200  0.24818400  0.50316100  1
  O  O39  1  0.48639200  0.24984200  0.50057000  1
