# generated using pymatgen
data_BaAlF5
_symmetry_space_group_name_H-M   'P 1'
_cell_length_a   5.29487500
_cell_length_b   7.50576356
_cell_length_c   15.15086871
_cell_angle_alpha   79.41647963
_cell_angle_beta   88.48177167
_cell_angle_gamma   88.12946573
_symmetry_Int_Tables_number   1
_chemical_formula_structural   BaAlF5
_chemical_formula_sum   'Ba6 Al6 F30'
_cell_volume   591.43959325
_cell_formula_units_Z   6
loop_
 _symmetry_equiv_pos_site_id
 _symmetry_equiv_pos_as_xyz
  1  'x, y, z'
loop_
 _atom_site_type_symbol
 _atom_site_label
 _atom_site_symmetry_multiplicity
 _atom_site_fract_x
 _atom_site_fract_y
 _atom_site_fract_z
 _atom_site_occupancy
  Ba  Ba0  1  0.73892100  0.59728200  0.12845400  1
  Ba  Ba1  1  0.25662000  0.40183700  0.87107900  1
  Ba  Ba2  1  0.24114100  0.07098900  0.19710500  1
  Ba  Ba3  1  0.75617500  0.92924300  0.80277000  1
  Ba  Ba4  1  0.71063800  0.75434700  0.44436500  1
  Ba  Ba5  1  0.28958500  0.24572600  0.55561500  1
  Al  Al6  1  0.77050500  0.20365100  0.35804700  1
  Al  Al7  1  0.22960500  0.79651000  0.64181700  1
  Al  Al8  1  0.73316200  0.15484400  0.02681200  1
  Al  Al9  1  0.24228700  0.84567000  0.97317500  1
  Al  Al10  1  0.25353100  0.53088100  0.32165900  1
  Al  Al11  1  0.74610100  0.46940100  0.67835300  1
  F  F12  1  0.97581500  0.65829900  0.28183400  1
  F  F13  1  0.02375400  0.34181800  0.71839700  1
  F  F14  1  0.73733700  0.25095600  0.90874300  1
  F  F15  1  0.23830100  0.75128800  0.09135600  1
  F  F16  1  0.99048200  0.28666500  0.04908100  1
  F  F17  1  0.03259800  0.68014200  0.94593300  1
  F  F18  1  0.45586700  0.71754700  0.27802000  1
  F  F19  1  0.54429200  0.28227000  0.72172800  1
  F  F20  1  0.50947600  0.31973700  0.05628800  1
  F  F21  1  0.51098700  0.71271000  0.94944900  1
  F  F22  1  0.55108200  0.39769500  0.37298000  1
  F  F23  1  0.44910100  0.60231900  0.62690100  1
  F  F24  1  0.73786500  0.11802800  0.47611400  1
  F  F25  1  0.26222100  0.88194300  0.52382100  1
  F  F26  1  0.97857700  0.01210600  0.34657000  1
  F  F27  1  0.02145200  0.98790200  0.65330600  1
  F  F28  1  0.30286900  0.42977400  0.22462000  1
  F  F29  1  0.69623800  0.57062500  0.77552100  1
  F  F30  1  0.05466400  0.33388600  0.37880500  1
  F  F31  1  0.94524100  0.66602800  0.62123900  1
  F  F32  1  0.50693600  0.06993300  0.34000600  1
  F  F33  1  0.49330100  0.93027300  0.65993100  1
  F  F34  1  0.22981800  0.59565800  0.43155000  1
  F  F35  1  0.77039600  0.40437000  0.56846700  1
  F  F36  1  0.73333600  0.01178000  0.13695300  1
  F  F37  1  0.24624600  0.98816800  0.86289600  1
  F  F38  1  0.81171700  0.29211500  0.24033200  1
  F  F39  1  0.18934500  0.70790100  0.75922300  1
  F  F40  1  0.45308100  0.02358900  0.00415700  1
  F  F41  1  0.95283800  0.97719300  0.99492700  1
