# generated using pymatgen
data_Ba7Ti2Nb4O21
_symmetry_space_group_name_H-M   'P 1'
_cell_length_a   17.04923693
_cell_length_b   17.04923693
_cell_length_c   17.04923698
_cell_angle_alpha   19.79547863
_cell_angle_beta   19.79547863
_cell_angle_gamma   19.79547672
_symmetry_Int_Tables_number   1
_chemical_formula_structural   Ba7Ti2Nb4O21
_chemical_formula_sum   'Ba7 Ti2 Nb4 O21'
_cell_volume   497.14176358
_cell_formula_units_Z   1
loop_
 _symmetry_equiv_pos_site_id
 _symmetry_equiv_pos_as_xyz
  1  'x, y, z'
loop_
 _atom_site_type_symbol
 _atom_site_label
 _atom_site_symmetry_multiplicity
 _atom_site_fract_x
 _atom_site_fract_y
 _atom_site_fract_z
 _atom_site_occupancy
  Ba  Ba0  1  0.76461600  0.76461600  0.76461600  1
  Ba  Ba1  1  0.23538400  0.23538400  0.23538400  1
  Ba  Ba2  1  0.85120900  0.85120900  0.85120900  1
  Ba  Ba3  1  0.14879100  0.14879100  0.14879100  1
  Ba  Ba4  1  0.61771600  0.61771600  0.61771600  1
  Ba  Ba5  1  0.38228400  0.38228400  0.38228400  1
  Ba  Ba6  1  0.00000000  0.00000000  0.00000000  1
  Ti  Ti7  1  0.92449400  0.92449400  0.92449400  1
  Ti  Ti8  1  0.07550600  0.07550600  0.07550600  1
  Nb  Nb9  1  0.54330400  0.54330400  0.54330400  1
  Nb  Nb10  1  0.45669600  0.45669600  0.45669600  1
  Nb  Nb11  1  0.69239200  0.69239200  0.69239200  1
  Nb  Nb12  1  0.30760800  0.30760800  0.30760800  1
  O  O13  1  0.74521600  0.22945400  0.74521600  1
  O  O14  1  0.74521600  0.74521600  0.22945400  1
  O  O15  1  0.22945400  0.74521600  0.74521600  1
  O  O16  1  0.25478400  0.77054600  0.25478400  1
  O  O17  1  0.25478400  0.25478400  0.77054600  1
  O  O18  1  0.77054600  0.25478400  0.25478400  1
  O  O19  1  0.87750500  0.38527700  0.87750500  1
  O  O20  1  0.87750500  0.87750500  0.38527700  1
  O  O21  1  0.38527700  0.87750500  0.87750500  1
  O  O22  1  0.12249500  0.61472300  0.12249500  1
  O  O23  1  0.12249500  0.12249500  0.61472300  1
  O  O24  1  0.61472300  0.12249500  0.12249500  1
  O  O25  1  0.63750300  0.14578900  0.63750300  1
  O  O26  1  0.63750300  0.63750300  0.14578900  1
  O  O27  1  0.14578900  0.63750300  0.63750300  1
  O  O28  1  0.36249700  0.85421100  0.36249700  1
  O  O29  1  0.36249700  0.36249700  0.85421100  1
  O  O30  1  0.85421100  0.36249700  0.36249700  1
  O  O31  1  0.50000000  0.50000000  0.00000000  1
  O  O32  1  0.00000000  0.50000000  0.50000000  1
  O  O33  1  0.50000000  0.00000000  0.50000000  1
