# generated using pymatgen
data_Ba4YbPr(Cu3O7)2
_symmetry_space_group_name_H-M   'P 1'
_cell_length_a   5.49722438
_cell_length_b   5.49722438
_cell_length_c   11.89122200
_cell_angle_alpha   90.00000000
_cell_angle_beta   90.00000000
_cell_angle_gamma   91.25371139
_symmetry_Int_Tables_number   1
_chemical_formula_structural   Ba4YbPr(Cu3O7)2
_chemical_formula_sum   'Ba4 Yb1 Pr1 Cu6 O14'
_cell_volume   359.26047374
_cell_formula_units_Z   1
loop_
 _symmetry_equiv_pos_site_id
 _symmetry_equiv_pos_as_xyz
  1  'x, y, z'
loop_
 _atom_site_type_symbol
 _atom_site_label
 _atom_site_symmetry_multiplicity
 _atom_site_fract_x
 _atom_site_fract_y
 _atom_site_fract_z
 _atom_site_occupancy
  Ba  Ba0  1  0.00000000  0.00000000  0.18249800  1
  Ba  Ba1  1  0.50000000  0.50000000  0.18656800  1
  Ba  Ba2  1  0.00000000  0.00000000  0.81750200  1
  Ba  Ba3  1  0.50000000  0.50000000  0.81343200  1
  Yb  Yb4  1  0.50000000  0.50000000  0.50000000  1
  Pr  Pr5  1  0.00000000  0.00000000  0.50000000  1
  Cu  Cu6  1  0.00000000  0.50000000  0.35260000  1
  Cu  Cu7  1  0.50000000  0.00000000  0.35260000  1
  Cu  Cu8  1  0.00000000  0.50000000  0.64740000  1
  Cu  Cu9  1  0.50000000  0.00000000  0.64740000  1
  Cu  Cu10  1  0.00000000  0.50000000  0.00000000  1
  Cu  Cu11  1  0.50000000  0.00000000  0.00000000  1
  O  O12  1  0.74866100  0.74866100  0.36934300  1
  O  O13  1  0.25133900  0.25133900  0.36934300  1
  O  O14  1  0.74866100  0.74866100  0.63065700  1
  O  O15  1  0.25133900  0.25133900  0.63065700  1
  O  O16  1  0.75076500  0.75076500  0.00000000  1
  O  O17  1  0.24923500  0.24923500  0.00000000  1
  O  O18  1  0.00000000  0.50000000  0.15663800  1
  O  O19  1  0.50000000  0.00000000  0.15663800  1
  O  O20  1  0.00000000  0.50000000  0.84336200  1
  O  O21  1  0.50000000  0.00000000  0.84336200  1
  O  O22  1  0.25306200  0.74693800  0.37430100  1
  O  O23  1  0.74693800  0.25306200  0.37430100  1
  O  O24  1  0.25306200  0.74693800  0.62569900  1
  O  O25  1  0.74693800  0.25306200  0.62569900  1
