# generated using pymatgen
data_Ba3TiZnWO9
_symmetry_space_group_name_H-M   'P 1'
_cell_length_a   5.88165196
_cell_length_b   5.88165196
_cell_length_c   14.44801200
_cell_angle_alpha   90.00000000
_cell_angle_beta   90.00000000
_cell_angle_gamma   119.99999953
_symmetry_Int_Tables_number   1
_chemical_formula_structural   Ba3TiZnWO9
_chemical_formula_sum   'Ba6 Ti2 Zn2 W2 O18'
_cell_volume   432.84994959
_cell_formula_units_Z   2
loop_
 _symmetry_equiv_pos_site_id
 _symmetry_equiv_pos_as_xyz
  1  'x, y, z'
loop_
 _atom_site_type_symbol
 _atom_site_label
 _atom_site_symmetry_multiplicity
 _atom_site_fract_x
 _atom_site_fract_y
 _atom_site_fract_z
 _atom_site_occupancy
  Ba  Ba0  1  0.66666700  0.33333300  0.59277400  1
  Ba  Ba1  1  0.33333300  0.66666700  0.40299200  1
  Ba  Ba2  1  0.33333300  0.66666700  0.09277400  1
  Ba  Ba3  1  0.66666700  0.33333300  0.90299200  1
  Ba  Ba4  1  0.00000000  0.00000000  0.75359200  1
  Ba  Ba5  1  0.00000000  0.00000000  0.25359200  1
  Ti  Ti6  1  0.66666700  0.33333300  0.35687600  1
  Ti  Ti7  1  0.33333300  0.66666700  0.85687600  1
  Zn  Zn8  1  0.00000000  0.00000000  0.49600400  1
  Zn  Zn9  1  0.00000000  0.00000000  0.99600400  1
  W  W10  1  0.33333300  0.66666700  0.65744700  1
  W  W11  1  0.66666700  0.33333300  0.15744700  1
  O  O12  1  0.17323700  0.34647400  0.58637500  1
  O  O13  1  0.17323700  0.82676300  0.58637500  1
  O  O14  1  0.65352600  0.82676300  0.58637500  1
  O  O15  1  0.82833900  0.65667800  0.41429600  1
  O  O16  1  0.82833900  0.17166100  0.41429600  1
  O  O17  1  0.34332200  0.17166100  0.41429600  1
  O  O18  1  0.82676300  0.65352600  0.08637500  1
  O  O19  1  0.82676300  0.17323700  0.08637500  1
  O  O20  1  0.34647400  0.17323700  0.08637500  1
  O  O21  1  0.17166100  0.34332200  0.91429600  1
  O  O22  1  0.17166100  0.82833900  0.91429600  1
  O  O23  1  0.65667800  0.82833900  0.91429600  1
  O  O24  1  0.48327800  0.96655600  0.74610000  1
  O  O25  1  0.48327800  0.51672200  0.74610000  1
  O  O26  1  0.03344400  0.51672200  0.74610000  1
  O  O27  1  0.51672200  0.03344400  0.24610000  1
  O  O28  1  0.51672200  0.48327800  0.24610000  1
  O  O29  1  0.96655600  0.48327800  0.24610000  1
