# generated using pymatgen
data_Ca4Be3AlSi9(HO14)2
_symmetry_space_group_name_H-M   'P 1'
_cell_length_a   5.02585415
_cell_length_b   12.00457168
_cell_length_c   19.65536286
_cell_angle_alpha   89.86070432
_cell_angle_beta   89.33454110
_cell_angle_gamma   77.91686181
_symmetry_Int_Tables_number   1
_chemical_formula_structural   Ca4Be3AlSi9(HO14)2
_chemical_formula_sum   'Ca8 Be6 Al2 Si18 H4 O56'
_cell_volume   1159.52012535
_cell_formula_units_Z   2
loop_
 _symmetry_equiv_pos_site_id
 _symmetry_equiv_pos_as_xyz
  1  'x, y, z'
loop_
 _atom_site_type_symbol
 _atom_site_label
 _atom_site_symmetry_multiplicity
 _atom_site_fract_x
 _atom_site_fract_y
 _atom_site_fract_z
 _atom_site_occupancy
  Ca  Ca0  1  0.67248900  0.16711800  0.65248300  1
  Ca  Ca1  1  0.16039300  0.16711800  0.34751700  1
  Ca  Ca2  1  0.65516500  0.16400800  0.84550900  1
  Ca  Ca3  1  0.18082800  0.16400800  0.15449100  1
  Ca  Ca4  1  0.32751100  0.83288200  0.34751700  1
  Ca  Ca5  1  0.83960700  0.83288200  0.65248300  1
  Ca  Ca6  1  0.34483500  0.83599200  0.15449100  1
  Ca  Ca7  1  0.81917200  0.83599200  0.84550900  1
  Be  Be8  1  0.05283400  0.24770100  0.75017100  1
  Be  Be9  1  0.69946600  0.24770100  0.24982900  1
  Be  Be10  1  0.94716600  0.75229900  0.24982900  1
  Be  Be11  1  0.30053400  0.75229900  0.75017100  1
  Be  Be12  1  0.30146300  0.00000000  0.89990700  1
  Be  Be13  1  0.69853700  0.00000000  0.10009300  1
  Al  Al14  1  0.40487400  0.19025100  0.50000000  1
  Al  Al15  1  0.59512600  0.80974900  0.50000000  1
  Si  Si16  1  0.82972100  0.34055700  0.50000000  1
  Si  Si17  1  0.83140000  0.33719900  0.00000000  1
  Si  Si18  1  0.17027900  0.65944300  0.50000000  1
  Si  Si19  1  0.16860000  0.66280100  0.00000000  1
  Si  Si20  1  0.22321700  0.00000000  0.75403600  1
  Si  Si21  1  0.77678300  0.00000000  0.24596400  1
  Si  Si22  1  0.92341600  0.42753500  0.64351200  1
  Si  Si23  1  0.64904800  0.42753500  0.35648800  1
  Si  Si24  1  0.92129400  0.42688500  0.85572400  1
  Si  Si25  1  0.65182100  0.42688500  0.14427600  1
  Si  Si26  1  0.07658400  0.57246500  0.35648800  1
  Si  Si27  1  0.35095200  0.57246500  0.64351200  1
  Si  Si28  1  0.07870600  0.57311500  0.14427600  1
  Si  Si29  1  0.34817900  0.57311500  0.85572400  1
  Si  Si30  1  0.40931400  0.18137200  0.00000000  1
  Si  Si31  1  0.59068600  0.81862800  0.00000000  1
  Si  Si32  1  0.27585500  0.00000000  0.60626500  1
  Si  Si33  1  0.72414500  0.00000000  0.39373500  1
  H  H34  1  0.39752900  0.32277500  0.74940000  1
  H  H35  1  0.27969500  0.32277500  0.25060000  1
  H  H36  1  0.60247100  0.67722500  0.25060000  1
  H  H37  1  0.72030500  0.67722500  0.74940000  1
  O  O38  1  0.92383000  0.41689000  0.56020200  1
  O  O39  1  0.65928000  0.41689000  0.43979800  1
  O  O40  1  0.91210800  0.41405900  0.93871800  1
  O  O41  1  0.67383200  0.41405900  0.06128200  1
  O  O42  1  0.07617000  0.58311000  0.43979800  1
  O  O43  1  0.34072000  0.58311000  0.56020200  1
  O  O44  1  0.08789200  0.58594100  0.06128200  1
  O  O45  1  0.32616800  0.58594100  0.93871800  1
  O  O46  1  0.38220100  0.24306300  0.74995500  1
  O  O47  1  0.37473700  0.24306300  0.25004500  1
  O  O48  1  0.61779900  0.75693700  0.25004500  1
  O  O49  1  0.62526300  0.75693700  0.74995500  1
  O  O50  1  0.95883200  0.00000000  0.61370800  1
  O  O51  1  0.04116800  0.00000000  0.38629200  1
  O  O52  1  0.98542900  0.00000000  0.88231000  1
  O  O53  1  0.01457100  0.00000000  0.11769000  1
  O  O54  1  0.42163000  0.00000000  0.68427300  1
  O  O55  1  0.57837000  0.00000000  0.31572700  1
  O  O56  1  0.42498300  0.00000000  0.81917600  1
  O  O57  1  0.57501700  0.00000000  0.18082400  1
  O  O58  1  0.34357400  0.11526800  0.57287100  1
  O  O59  1  0.54115800  0.11526800  0.42712900  1
  O  O60  1  0.35557100  0.11490700  0.93258100  1
  O  O61  1  0.52952200  0.11490700  0.06741900  1
  O  O62  1  0.65642600  0.88473200  0.42712900  1
  O  O63  1  0.45884200  0.88473200  0.57287100  1
  O  O64  1  0.64442900  0.88509300  0.06741900  1
  O  O65  1  0.47047800  0.88509300  0.93258100  1
  O  O66  1  0.90906100  0.30861900  0.68069100  1
  O  O67  1  0.78232100  0.30861900  0.31930900  1
  O  O68  1  0.90488400  0.30799200  0.81992100  1
  O  O69  1  0.78712400  0.30799200  0.18007900  1
  O  O70  1  0.09093900  0.69138100  0.31930900  1
  O  O71  1  0.21767900  0.69138100  0.68069100  1
  O  O72  1  0.09511600  0.69200800  0.18007900  1
  O  O73  1  0.21287600  0.69200800  0.81992100  1
  O  O74  1  0.20374800  0.46710400  0.66567000  1
  O  O75  1  0.32914800  0.46710400  0.33433000  1
  O  O76  1  0.20557200  0.46621200  0.83526300  1
  O  O77  1  0.32821600  0.46621200  0.16473700  1
  O  O78  1  0.79625200  0.53289600  0.33433000  1
  O  O79  1  0.67085200  0.53289600  0.66567000  1
  O  O80  1  0.79442800  0.53378800  0.16473700  1
  O  O81  1  0.67178400  0.53378800  0.83526300  1
  O  O82  1  0.98392700  0.11651900  0.75105600  1
  O  O83  1  0.89955400  0.11651900  0.24894400  1
  O  O84  1  0.01607300  0.88348100  0.24894400  1
  O  O85  1  0.10044600  0.88348100  0.75105600  1
  O  O86  1  0.63788200  0.26276900  0.53712500  1
  O  O87  1  0.09934900  0.26276900  0.46287500  1
  O  O88  1  0.62431100  0.25971800  0.96939800  1
  O  O89  1  0.11597100  0.25971800  0.03060200  1
  O  O90  1  0.36211800  0.73723100  0.46287500  1
  O  O91  1  0.90065100  0.73723100  0.53712500  1
  O  O92  1  0.37568900  0.74028200  0.03060200  1
  O  O93  1  0.88402900  0.74028200  0.96939800  1
