# generated using pymatgen
data_K5NaRu(IO11)2
_symmetry_space_group_name_H-M   'P 1'
_cell_length_a   14.11590376
_cell_length_b   14.11590376
_cell_length_c   11.83425640
_cell_angle_alpha   82.15855813
_cell_angle_beta   82.15855813
_cell_angle_gamma   30.19326024
_symmetry_Int_Tables_number   1
_chemical_formula_structural   K5NaRu(IO11)2
_chemical_formula_sum   'K10 Na2 Ru2 I4 O44'
_cell_volume   1174.02095349
_cell_formula_units_Z   2
loop_
 _symmetry_equiv_pos_site_id
 _symmetry_equiv_pos_as_xyz
  1  'x, y, z'
loop_
 _atom_site_type_symbol
 _atom_site_label
 _atom_site_symmetry_multiplicity
 _atom_site_fract_x
 _atom_site_fract_y
 _atom_site_fract_z
 _atom_site_occupancy
  K  K0  1  0.50914900  0.18684500  0.75935900  1
  K  K1  1  0.79356000  0.52465900  0.76186200  1
  K  K2  1  0.52465900  0.79356000  0.26186200  1
  K  K3  1  0.18684500  0.50914900  0.25935900  1
  K  K4  1  0.61583700  0.05614300  0.44132400  1
  K  K5  1  0.96616700  0.38153800  0.07383000  1
  K  K6  1  0.38153800  0.96616700  0.57383000  1
  K  K7  1  0.05614300  0.61583700  0.94132400  1
  K  K8  1  0.26849100  0.68881300  0.58479300  1
  K  K9  1  0.68881300  0.26849100  0.08479300  1
  Na  Na10  1  0.25458700  0.83149700  0.21712200  1
  Na  Na11  1  0.83149700  0.25458700  0.71712200  1
  Ru  Ru12  1  0.99435400  0.49945400  0.50991100  1
  Ru  Ru13  1  0.49945400  0.99435400  0.00991100  1
  I  I14  1  0.07366700  0.62712500  0.59468700  1
  I  I15  1  0.33066000  0.96438200  0.90755600  1
  I  I16  1  0.96438200  0.33066000  0.40755600  1
  I  I17  1  0.62712500  0.07366700  0.09468700  1
  O  O18  1  0.97230200  0.65131300  0.45945900  1
  O  O19  1  0.32990300  0.00852900  0.05816500  1
  O  O20  1  0.00852900  0.32990300  0.55816500  1
  O  O21  1  0.65131300  0.97230200  0.95945900  1
  O  O22  1  0.98810700  0.81867800  0.52269500  1
  O  O23  1  0.17129300  0.96390600  0.00610900  1
  O  O24  1  0.96390600  0.17129300  0.50610900  1
  O  O25  1  0.81867800  0.98810700  0.02269500  1
  O  O26  1  0.16960700  0.57718500  0.72534000  1
  O  O27  1  0.40326600  0.83653100  0.78883100  1
  O  O28  1  0.83653100  0.40326600  0.28883100  1
  O  O29  1  0.57718500  0.16960700  0.22534000  1
  O  O30  1  0.81584400  0.10911100  0.68270200  1
  O  O31  1  0.77457700  0.32896900  0.90108500  1
  O  O32  1  0.32896900  0.77457700  0.40108500  1
  O  O33  1  0.10911100  0.81584400  0.18270200  1
  O  O34  1  0.81513400  0.85442400  0.64750700  1
  O  O35  1  0.10808400  0.20667900  0.86168500  1
  O  O36  1  0.20667900  0.10808400  0.36168500  1
  O  O37  1  0.85442400  0.81513400  0.14750700  1
  O  O38  1  0.30610800  0.43170900  0.51802400  1
  O  O39  1  0.57406100  0.61779600  0.00164600  1
  O  O40  1  0.61779600  0.57406100  0.50164600  1
  O  O41  1  0.43170900  0.30610800  0.01802400  1
  O  O42  1  0.28351200  0.65547300  0.34004300  1
  O  O43  1  0.55372400  0.60450600  0.10822100  1
  O  O44  1  0.60450600  0.55372400  0.60822100  1
  O  O45  1  0.65547300  0.28351200  0.84004300  1
  O  O46  1  0.08337800  0.47331100  0.64521800  1
  O  O47  1  0.51324400  0.90703300  0.86332800  1
  O  O48  1  0.90703300  0.51324400  0.36332800  1
  O  O49  1  0.47331100  0.08337800  0.14521800  1
  O  O50  1  0.46667600  0.04334300  0.69119800  1
  O  O51  1  0.94976700  0.55687200  0.81366600  1
  O  O52  1  0.55687200  0.94976700  0.31366600  1
  O  O53  1  0.04334300  0.46667600  0.19119800  1
  O  O54  1  0.12441800  0.76729500  0.29372900  1
  O  O55  1  0.02975100  0.10754300  0.06992800  1
  O  O56  1  0.10754300  0.02975100  0.56992800  1
  O  O57  1  0.76729600  0.12441800  0.79372900  1
  O  O58  1  0.75977100  0.67911400  0.55976400  1
  O  O59  1  0.28373100  0.22409400  0.95701300  1
  O  O60  1  0.22409400  0.28373100  0.45701300  1
  O  O61  1  0.67911400  0.75977100  0.05976400  1
