# generated using pymatgen
data_Ca4Ga3FeO10
_symmetry_space_group_name_H-M   'P 1'
_cell_length_a   5.44405800
_cell_length_b   5.66796600
_cell_length_c   15.85442232
_cell_angle_alpha   69.05597473
_cell_angle_beta   90.00000000
_cell_angle_gamma   90.00000000
_symmetry_Int_Tables_number   1
_chemical_formula_structural   Ca4Ga3FeO10
_chemical_formula_sum   'Ca8 Ga6 Fe2 O20'
_cell_volume   456.89327789
_cell_formula_units_Z   2
loop_
 _symmetry_equiv_pos_site_id
 _symmetry_equiv_pos_as_xyz
  1  'x, y, z'
loop_
 _atom_site_type_symbol
 _atom_site_label
 _atom_site_symmetry_multiplicity
 _atom_site_fract_x
 _atom_site_fract_y
 _atom_site_fract_z
 _atom_site_occupancy
  Ca  Ca0  1  0.02096000  0.63516800  0.89159800  1
  Ca  Ca1  1  0.52096000  0.36483200  0.60840200  1
  Ca  Ca2  1  0.97980000  0.08137400  0.39146800  1
  Ca  Ca3  1  0.47980000  0.91862600  0.10853200  1
  Ca  Ca4  1  0.97904000  0.36483200  0.10840200  1
  Ca  Ca5  1  0.47904000  0.63516800  0.39159800  1
  Ca  Ca6  1  0.02020000  0.91862600  0.60853200  1
  Ca  Ca7  1  0.52020000  0.08137400  0.89146800  1
  Ga  Ga8  1  0.55208200  0.68044400  0.75019100  1
  Ga  Ga9  1  0.05208200  0.31955600  0.74980900  1
  Ga  Ga10  1  0.44791800  0.31955600  0.24980900  1
  Ga  Ga11  1  0.94791800  0.68044400  0.25019100  1
  Ga  Ga12  1  0.50000000  0.50000000  0.00000000  1
  Ga  Ga13  1  0.00000000  0.50000000  0.50000000  1
  Fe  Fe14  1  0.50000000  0.00000000  0.50000000  1
  Fe  Fe15  1  0.00000000  0.00000000  0.00000000  1
  O  O16  1  0.23356300  0.71343800  0.01570700  1
  O  O17  1  0.73356300  0.28656200  0.48429300  1
  O  O18  1  0.76961400  0.75077200  0.51561800  1
  O  O19  1  0.26961400  0.24922800  0.98438200  1
  O  O20  1  0.76643700  0.28656200  0.98429300  1
  O  O21  1  0.26643700  0.71343800  0.51570700  1
  O  O22  1  0.23038600  0.24922800  0.48438200  1
  O  O23  1  0.73038600  0.75077200  0.01561800  1
  O  O24  1  0.90054500  0.62452200  0.75004300  1
  O  O25  1  0.40054500  0.37547800  0.74995700  1
  O  O26  1  0.09945500  0.37547800  0.24995700  1
  O  O27  1  0.59945500  0.62452200  0.25004300  1
  O  O28  1  0.47212200  0.71720300  0.85773300  1
  O  O29  1  0.97212200  0.28279700  0.64226700  1
  O  O30  1  0.52710800  0.06839300  0.35807500  1
  O  O31  1  0.02710800  0.93160700  0.14192500  1
  O  O32  1  0.52787800  0.28279700  0.14226700  1
  O  O33  1  0.02787800  0.71720300  0.35773300  1
  O  O34  1  0.47289200  0.93160700  0.64192500  1
  O  O35  1  0.97289200  0.06839300  0.85807500  1
