# generated using pymatgen
data_BaFe4Sn2O11
_symmetry_space_group_name_H-M   'P 1'
_cell_length_a   6.07359566
_cell_length_b   6.07359566
_cell_length_c   13.68346300
_cell_angle_alpha   90.00000000
_cell_angle_beta   90.00000000
_cell_angle_gamma   119.97271849
_symmetry_Int_Tables_number   1
_chemical_formula_structural   BaFe4Sn2O11
_chemical_formula_sum   'Ba2 Fe8 Sn4 O22'
_cell_volume   437.25796731
_cell_formula_units_Z   2
loop_
 _symmetry_equiv_pos_site_id
 _symmetry_equiv_pos_as_xyz
  1  'x, y, z'
loop_
 _atom_site_type_symbol
 _atom_site_label
 _atom_site_symmetry_multiplicity
 _atom_site_fract_x
 _atom_site_fract_y
 _atom_site_fract_z
 _atom_site_occupancy
  Ba  Ba0  1  0.66310000  0.33690000  0.75000000  1
  Ba  Ba1  1  0.33690000  0.66310000  0.25000000  1
  Fe  Fe2  1  0.67013300  0.32986700  0.25000000  1
  Fe  Fe3  1  0.32986700  0.67013300  0.75000000  1
  Fe  Fe4  1  0.50000000  0.50000000  0.00000000  1
  Fe  Fe5  1  0.50000000  0.50000000  0.50000000  1
  Fe  Fe6  1  0.50000000  0.00000000  0.00000000  1
  Fe  Fe7  1  0.00000000  0.50000000  0.00000000  1
  Fe  Fe8  1  0.50000000  0.00000000  0.50000000  1
  Fe  Fe9  1  0.00000000  0.50000000  0.50000000  1
  Sn  Sn10  1  0.99756800  0.00243200  0.86084900  1
  Sn  Sn11  1  0.00243200  0.99756800  0.13915100  1
  Sn  Sn12  1  0.99756800  0.00243200  0.63915100  1
  Sn  Sn13  1  0.00243200  0.99756800  0.36084900  1
  O  O14  1  0.82113800  0.17886200  0.92060500  1
  O  O15  1  0.17886200  0.82113800  0.07939500  1
  O  O16  1  0.82113800  0.17886200  0.57939500  1
  O  O17  1  0.17886200  0.82113800  0.42060500  1
  O  O18  1  0.14573600  0.85426400  0.75000000  1
  O  O19  1  0.85426400  0.14573600  0.25000000  1
  O  O20  1  0.69675000  0.85571000  0.75000000  1
  O  O21  1  0.85571000  0.69675000  0.25000000  1
  O  O22  1  0.30325000  0.14429000  0.25000000  1
  O  O23  1  0.14429000  0.30325000  0.75000000  1
  O  O24  1  0.82280600  0.64774200  0.92016600  1
  O  O25  1  0.64774200  0.82280600  0.07983400  1
  O  O26  1  0.82280600  0.64774200  0.57983400  1
  O  O27  1  0.64774200  0.82280600  0.42016600  1
  O  O28  1  0.17719400  0.35225800  0.07983400  1
  O  O29  1  0.35225800  0.17719400  0.92016600  1
  O  O30  1  0.17719400  0.35225800  0.42016600  1
  O  O31  1  0.35225800  0.17719400  0.57983400  1
  O  O32  1  0.66720100  0.33279900  0.41479300  1
  O  O33  1  0.33279900  0.66720100  0.58520700  1
  O  O34  1  0.66720100  0.33279900  0.08520700  1
  O  O35  1  0.33279900  0.66720100  0.91479300  1
