# generated using pymatgen
data_Ba4Sr2Lu3(BiO6)3
_symmetry_space_group_name_H-M   'P 1'
_cell_length_a   6.04412292
_cell_length_b   6.04412292
_cell_length_c   14.81995433
_cell_angle_alpha   89.56544324
_cell_angle_beta   89.56544324
_cell_angle_gamma   59.99935507
_symmetry_Int_Tables_number   1
_chemical_formula_structural   Ba4Sr2Lu3(BiO6)3
_chemical_formula_sum   'Ba4 Sr2 Lu3 Bi3 O18'
_cell_volume   468.83993331
_cell_formula_units_Z   1
loop_
 _symmetry_equiv_pos_site_id
 _symmetry_equiv_pos_as_xyz
  1  'x, y, z'
loop_
 _atom_site_type_symbol
 _atom_site_label
 _atom_site_symmetry_multiplicity
 _atom_site_fract_x
 _atom_site_fract_y
 _atom_site_fract_z
 _atom_site_occupancy
  Ba  Ba0  1  0.00019100  0.00019100  0.75166700  1
  Ba  Ba1  1  0.99841500  0.99841500  0.24881900  1
  Ba  Ba2  1  0.33139600  0.33139600  0.58072100  1
  Ba  Ba3  1  0.66534800  0.66534800  0.91678400  1
  Sr  Sr4  1  0.33669000  0.33669000  0.08699700  1
  Sr  Sr5  1  0.67023200  0.67023200  0.42162500  1
  Lu  Lu6  1  0.66662700  0.66662700  0.16746800  1
  Lu  Lu7  1  0.99958400  0.99958400  0.49808800  1
  Lu  Lu8  1  0.33353800  0.33353800  0.83487400  1
  Bi  Bi9  1  0.99976100  0.99976100  0.00171600  1
  Bi  Bi10  1  0.33388700  0.33388700  0.33259300  1
  Bi  Bi11  1  0.66676300  0.66676300  0.66562300  1
  O  O12  1  0.52550700  0.52550700  0.27919200  1
  O  O13  1  0.85206300  0.85206300  0.60430700  1
  O  O14  1  0.18976200  0.18976200  0.94487900  1
  O  O15  1  0.81502900  0.81502900  0.06288400  1
  O  O16  1  0.14918100  0.14918100  0.39510800  1
  O  O17  1  0.48286700  0.48286700  0.72927500  1
  O  O18  1  0.79945600  0.30890600  0.09332300  1
  O  O19  1  0.13289400  0.64103700  0.42496400  1
  O  O20  1  0.47799500  0.97680300  0.75885400  1
  O  O21  1  0.03537500  0.51622800  0.23531200  1
  O  O22  1  0.36514500  0.84893700  0.56908000  1
  O  O23  1  0.69385700  0.18652600  0.90715800  1
  O  O24  1  0.51622800  0.03537500  0.23531200  1
  O  O25  1  0.84893700  0.36514500  0.56908000  1
  O  O26  1  0.18652600  0.69385700  0.90715800  1
  O  O27  1  0.30890600  0.79945600  0.09332300  1
  O  O28  1  0.64103700  0.13289400  0.42496400  1
  O  O29  1  0.97680300  0.47799500  0.75885400  1
