# generated using pymatgen
data_Sm2Mn2O5
_symmetry_space_group_name_H-M   'P 1'
_cell_length_a   8.68681279
_cell_length_b   8.68681279
_cell_length_c   8.68681279
_cell_angle_alpha   141.56760555
_cell_angle_beta   140.79299832
_cell_angle_gamma   56.06794471
_symmetry_Int_Tables_number   1
_chemical_formula_structural   Sm2Mn2O5
_chemical_formula_sum   'Sm4 Mn4 O10'
_cell_volume   255.57352080
_cell_formula_units_Z   2
loop_
 _symmetry_equiv_pos_site_id
 _symmetry_equiv_pos_as_xyz
  1  'x, y, z'
loop_
 _atom_site_type_symbol
 _atom_site_label
 _atom_site_symmetry_multiplicity
 _atom_site_fract_x
 _atom_site_fract_y
 _atom_site_fract_z
 _atom_site_occupancy
  Sm  Sm0  1  0.90005200  0.36493400  0.49191800  1
  Sm  Sm1  1  0.09994800  0.59186600  0.46488100  1
  Sm  Sm2  1  0.37301500  0.86493400  0.46488100  1
  Sm  Sm3  1  0.62698500  0.09186600  0.49191800  1
  Mn  Mn4  1  0.00000000  0.99920700  0.99920700  1
  Mn  Mn5  1  0.50000000  0.49920700  0.99920700  1
  Mn  Mn6  1  0.71011100  0.71254600  0.92265700  1
  Mn  Mn7  1  0.28988900  0.21254600  0.00243500  1
  O  O8  1  0.29957000  0.26919300  0.50214600  1
  O  O9  1  0.70043000  0.20257600  0.96962300  1
  O  O10  1  0.26704700  0.76919300  0.96962300  1
  O  O11  1  0.73295300  0.70257600  0.50214600  1
  O  O12  1  0.97579500  0.94863700  0.20830700  1
  O  O13  1  0.02420500  0.23251100  0.97284200  1
  O  O14  1  0.24033100  0.44863700  0.97284200  1
  O  O15  1  0.75966900  0.73251100  0.20830700  1
  O  O16  1  0.63490500  0.34252900  0.47743400  1
  O  O17  1  0.36509500  0.84252900  0.70762400  1
