# generated using pymatgen
data_Ba4Fe2MoWO12
_symmetry_space_group_name_H-M   'P 1'
_cell_length_a   10.07465355
_cell_length_b   10.07465355
_cell_length_c   10.07465389
_cell_angle_alpha   33.60693299
_cell_angle_beta   33.60693299
_cell_angle_gamma   33.60693617
_symmetry_Int_Tables_number   1
_chemical_formula_structural   Ba4Fe2MoWO12
_chemical_formula_sum   'Ba4 Fe2 Mo1 W1 O12'
_cell_volume   279.05641654
_cell_formula_units_Z   1
loop_
 _symmetry_equiv_pos_site_id
 _symmetry_equiv_pos_as_xyz
  1  'x, y, z'
loop_
 _atom_site_type_symbol
 _atom_site_label
 _atom_site_symmetry_multiplicity
 _atom_site_fract_x
 _atom_site_fract_y
 _atom_site_fract_z
 _atom_site_occupancy
  Ba  Ba0  1  0.62334700  0.62334700  0.62334700  1
  Ba  Ba1  1  0.12643000  0.12643000  0.12643000  1
  Ba  Ba2  1  0.87357000  0.87357000  0.87357000  1
  Ba  Ba3  1  0.37665300  0.37665300  0.37665300  1
  Fe  Fe4  1  0.24644400  0.24644400  0.24644400  1
  Fe  Fe5  1  0.75355600  0.75355600  0.75355600  1
  Mo  Mo6  1  0.50000000  0.50000000  0.50000000  1
  W  W7  1  0.00000000  0.00000000  0.00000000  1
  O  O8  1  0.12098300  0.12098300  0.63903800  1
  O  O9  1  0.62598600  0.62598600  0.12080100  1
  O  O10  1  0.37401400  0.87919900  0.37401400  1
  O  O11  1  0.87901700  0.36096200  0.87901700  1
  O  O12  1  0.63903800  0.12098300  0.12098300  1
  O  O13  1  0.12080100  0.62598600  0.62598600  1
  O  O14  1  0.37401400  0.37401400  0.87919900  1
  O  O15  1  0.87901700  0.87901700  0.36096200  1
  O  O16  1  0.12098300  0.63903800  0.12098300  1
  O  O17  1  0.62598600  0.12080100  0.62598600  1
  O  O18  1  0.87919900  0.37401400  0.37401400  1
  O  O19  1  0.36096200  0.87901700  0.87901700  1
