# generated using pymatgen
data_Ca9Nb2Ga10(SiO7)6
_symmetry_space_group_name_H-M   'P 1'
_cell_length_a   9.61540726
_cell_length_b   9.61540726
_cell_length_c   9.61540705
_cell_angle_alpha   94.93463696
_cell_angle_beta   94.93463696
_cell_angle_gamma   94.93463090
_symmetry_Int_Tables_number   1
_chemical_formula_structural   Ca9Nb2Ga10(SiO7)6
_chemical_formula_sum   'Ca9 Nb2 Ga10 Si6 O42'
_cell_volume   878.50784270
_cell_formula_units_Z   1
loop_
 _symmetry_equiv_pos_site_id
 _symmetry_equiv_pos_as_xyz
  1  'x, y, z'
loop_
 _atom_site_type_symbol
 _atom_site_label
 _atom_site_symmetry_multiplicity
 _atom_site_fract_x
 _atom_site_fract_y
 _atom_site_fract_z
 _atom_site_occupancy
  Ca  Ca0  1  0.28037300  0.85971300  0.85882000  1
  Ca  Ca1  1  0.94937500  0.52481700  0.52490000  1
  Ca  Ca2  1  0.61656200  0.19153600  0.19187200  1
  Ca  Ca3  1  0.52481700  0.52490000  0.94937500  1
  Ca  Ca4  1  0.19153600  0.19187200  0.61656200  1
  Ca  Ca5  1  0.85971300  0.85882000  0.28037300  1
  Ca  Ca6  1  0.85882000  0.28037300  0.85971300  1
  Ca  Ca7  1  0.52490000  0.94937500  0.52481700  1
  Ca  Ca8  1  0.19187200  0.61656200  0.19153600  1
  Nb  Nb9  1  0.66712100  0.66712100  0.66712100  1
  Nb  Nb10  1  0.33289000  0.33289000  0.33289000  1
  Ga  Ga11  1  0.33050200  0.58465600  0.58479900  1
  Ga  Ga12  1  0.99703800  0.25052500  0.24761100  1
  Ga  Ga13  1  0.66561900  0.91750600  0.91994000  1
  Ga  Ga14  1  0.91750600  0.91994000  0.66561900  1
  Ga  Ga15  1  0.58465600  0.58479900  0.33050200  1
  Ga  Ga16  1  0.25052500  0.24761100  0.99703700  1
  Ga  Ga17  1  0.91994000  0.66561900  0.91750600  1
  Ga  Ga18  1  0.58479900  0.33050200  0.58465600  1
  Ga  Ga19  1  0.24761100  0.99703800  0.25052500  1
  Ga  Ga20  1  0.99990400  0.99990400  0.99990400  1
  Si  Si21  1  0.14892000  0.81671800  0.48445900  1
  Si  Si22  1  0.81671800  0.48445900  0.14892000  1
  Si  Si23  1  0.48445900  0.14892000  0.81671800  1
  Si  Si24  1  0.18366600  0.51539500  0.85019500  1
  Si  Si25  1  0.85019500  0.18366600  0.51539500  1
  Si  Si26  1  0.51539500  0.85019500  0.18366600  1
  O  O27  1  0.25558800  0.92357100  0.59152300  1
  O  O28  1  0.92357100  0.59152300  0.25558800  1
  O  O29  1  0.59152300  0.25558800  0.92357100  1
  O  O30  1  0.07697100  0.40851300  0.74366500  1
  O  O31  1  0.74366500  0.07697100  0.40851300  1
  O  O32  1  0.40851300  0.74366500  0.07697100  1
  O  O33  1  0.10751800  0.62862100  0.95212000  1
  O  O34  1  0.77350700  0.29630000  0.61841600  1
  O  O35  1  0.43851800  0.96303000  0.28607700  1
  O  O36  1  0.29630000  0.61841600  0.77350700  1
  O  O37  1  0.96303000  0.28607700  0.43851800  1
  O  O38  1  0.62862100  0.95212000  0.10751800  1
  O  O39  1  0.28607700  0.43851800  0.96303000  1
  O  O40  1  0.95212000  0.10751800  0.62862100  1
  O  O41  1  0.61841600  0.77350700  0.29630000  1
  O  O42  1  0.15945500  0.83656800  0.31559500  1
  O  O43  1  0.82701800  0.50507500  0.98026600  1
  O  O44  1  0.49336400  0.17028500  0.64774600  1
  O  O45  1  0.17028500  0.64774600  0.49336400  1
  O  O46  1  0.83656800  0.31559500  0.15945500  1
  O  O47  1  0.50507500  0.98026700  0.82701800  1
  O  O48  1  0.98026600  0.82701800  0.50507500  1
  O  O49  1  0.64774600  0.49336400  0.17028500  1
  O  O50  1  0.31559500  0.15945500  0.83656800  1
  O  O51  1  0.53523800  0.30942000  0.39255300  1
  O  O52  1  0.19939900  0.97714000  0.06053800  1
  O  O53  1  0.86828700  0.64112000  0.72521400  1
  O  O54  1  0.97714000  0.06053800  0.19939900  1
  O  O55  1  0.64112000  0.72521400  0.86828700  1
  O  O56  1  0.30942000  0.39255300  0.53523800  1
  O  O57  1  0.72521400  0.86828700  0.64112000  1
  O  O58  1  0.39255300  0.53523800  0.30942000  1
  O  O59  1  0.06053800  0.19939900  0.97714000  1
  O  O60  1  0.90234400  0.81926300  0.04202100  1
  O  O61  1  0.56726700  0.48445400  0.71064200  1
  O  O62  1  0.23414900  0.15132900  0.37806500  1
  O  O63  1  0.15132900  0.37806500  0.23414900  1
  O  O64  1  0.81926300  0.04202100  0.90234400  1
  O  O65  1  0.48445400  0.71064200  0.56726700  1
  O  O66  1  0.71064200  0.56726700  0.48445400  1
  O  O67  1  0.37806500  0.23414900  0.15132900  1
  O  O68  1  0.04202100  0.90234400  0.81926300  1
