# generated using pymatgen
data_Ba5Ce4ZrO15
_symmetry_space_group_name_H-M   'P 1'
_cell_length_a   4.43032500
_cell_length_b   6.27528843
_cell_length_c   16.01639693
_cell_angle_alpha   78.70258177
_cell_angle_beta   90.00000000
_cell_angle_gamma   90.00000000
_symmetry_Int_Tables_number   1
_chemical_formula_structural   Ba5Ce4ZrO15
_chemical_formula_sum   'Ba5 Ce4 Zr1 O15'
_cell_volume   436.65294362
_cell_formula_units_Z   1
loop_
 _symmetry_equiv_pos_site_id
 _symmetry_equiv_pos_as_xyz
  1  'x, y, z'
loop_
 _atom_site_type_symbol
 _atom_site_label
 _atom_site_symmetry_multiplicity
 _atom_site_fract_x
 _atom_site_fract_y
 _atom_site_fract_z
 _atom_site_occupancy
  Ba  Ba0  1  0.50000000  0.69964000  0.60071900  1
  Ba  Ba1  1  0.50000000  0.09501000  0.80998000  1
  Ba  Ba2  1  0.50000000  0.50000000  0.00000000  1
  Ba  Ba3  1  0.50000000  0.90499000  0.19002000  1
  Ba  Ba4  1  0.50000000  0.30036000  0.39928100  1
  Ce  Ce5  1  0.00000000  0.40176600  0.19646800  1
  Ce  Ce6  1  0.00000000  0.80083200  0.39833600  1
  Ce  Ce7  1  0.00000000  0.19916800  0.60166400  1
  Ce  Ce8  1  0.00000000  0.59823400  0.80353200  1
  Zr  Zr9  1  0.00000000  0.00000000  0.00000000  1
  O  O10  1  0.00000000  0.40166100  0.70228200  1
  O  O11  1  0.00000000  0.80844600  0.90463700  1
  O  O12  1  0.00000000  0.19155400  0.09536300  1
  O  O13  1  0.00000000  0.59833900  0.29771800  1
  O  O14  1  0.00000000  0.00000000  0.50000000  1
  O  O15  1  0.00000000  0.50000000  0.50000000  1
  O  O16  1  0.00000000  0.89605700  0.70228200  1
  O  O17  1  0.00000000  0.28691700  0.90463700  1
  O  O18  1  0.00000000  0.71308300  0.09536300  1
  O  O19  1  0.00000000  0.10394300  0.29771800  1
  O  O20  1  0.50000000  0.20024500  0.59951000  1
  O  O21  1  0.50000000  0.59695600  0.80608900  1
  O  O22  1  0.50000000  0.00000000  0.00000000  1
  O  O23  1  0.50000000  0.40304400  0.19391100  1
  O  O24  1  0.50000000  0.79975500  0.40049000  1
