# generated using pymatgen
data_Ba4PrDy(Cu3O7)2
_symmetry_space_group_name_H-M   'P 1'
_cell_length_a   3.87830600
_cell_length_b   3.94272200
_cell_length_c   23.66707400
_cell_angle_alpha   90.00000000
_cell_angle_beta   90.00000000
_cell_angle_gamma   90.00000000
_symmetry_Int_Tables_number   1
_chemical_formula_structural   Ba4PrDy(Cu3O7)2
_chemical_formula_sum   'Ba4 Pr1 Dy1 Cu6 O14'
_cell_volume   361.89517844
_cell_formula_units_Z   1
loop_
 _symmetry_equiv_pos_site_id
 _symmetry_equiv_pos_as_xyz
  1  'x, y, z'
loop_
 _atom_site_type_symbol
 _atom_site_label
 _atom_site_symmetry_multiplicity
 _atom_site_fract_x
 _atom_site_fract_y
 _atom_site_fract_z
 _atom_site_occupancy
  Ba  Ba0  1  0.50000000  0.50000000  0.83984100  1
  Ba  Ba1  1  0.50000000  0.50000000  0.34029200  1
  Ba  Ba2  1  0.50000000  0.50000000  0.16015900  1
  Ba  Ba3  1  0.50000000  0.50000000  0.65970800  1
  Pr  Pr4  1  0.50000000  0.50000000  0.00000000  1
  Dy  Dy5  1  0.50000000  0.50000000  0.50000000  1
  Cu  Cu6  1  0.00000000  0.00000000  0.92335300  1
  Cu  Cu7  1  0.00000000  0.00000000  0.42544300  1
  Cu  Cu8  1  0.00000000  0.00000000  0.07664700  1
  Cu  Cu9  1  0.00000000  0.00000000  0.57455700  1
  Cu  Cu10  1  0.00000000  0.00000000  0.74994300  1
  Cu  Cu11  1  0.00000000  0.00000000  0.25005700  1
  O  O12  1  0.00000000  0.00000000  0.82926700  1
  O  O13  1  0.00000000  0.00000000  0.32974800  1
  O  O14  1  0.00000000  0.00000000  0.17073300  1
  O  O15  1  0.00000000  0.00000000  0.67025200  1
  O  O16  1  0.50000000  0.00000000  0.93521900  1
  O  O17  1  0.50000000  0.00000000  0.43955500  1
  O  O18  1  0.50000000  0.00000000  0.06478100  1
  O  O19  1  0.50000000  0.00000000  0.56044500  1
  O  O20  1  0.00000000  0.50000000  0.74973400  1
  O  O21  1  0.00000000  0.50000000  0.25026600  1
  O  O22  1  0.00000000  0.50000000  0.93476900  1
  O  O23  1  0.00000000  0.50000000  0.43925800  1
  O  O24  1  0.00000000  0.50000000  0.06523100  1
  O  O25  1  0.00000000  0.50000000  0.56074200  1
