# generated using pymatgen
data_KNa7V6(MoO12)2
_symmetry_space_group_name_H-M   'P 1'
_cell_length_a   7.65634614
_cell_length_b   7.65634614
_cell_length_c   7.67877800
_cell_angle_alpha   90.00000000
_cell_angle_beta   90.00000000
_cell_angle_gamma   90.03644846
_symmetry_Int_Tables_number   1
_chemical_formula_structural   KNa7V6(MoO12)2
_chemical_formula_sum   'K1 Na7 V6 Mo2 O24'
_cell_volume   450.12708172
_cell_formula_units_Z   1
loop_
 _symmetry_equiv_pos_site_id
 _symmetry_equiv_pos_as_xyz
  1  'x, y, z'
loop_
 _atom_site_type_symbol
 _atom_site_label
 _atom_site_symmetry_multiplicity
 _atom_site_fract_x
 _atom_site_fract_y
 _atom_site_fract_z
 _atom_site_occupancy
  K  K0  1  0.74463200  0.25536800  0.50000000  1
  Na  Na1  1  0.25935500  0.25958100  0.50000000  1
  Na  Na2  1  0.25940300  0.25933800  0.00000000  1
  Na  Na3  1  0.74045600  0.25954400  0.00000000  1
  Na  Na4  1  0.25939800  0.74060200  0.50000000  1
  Na  Na5  1  0.25927200  0.74072800  0.00000000  1
  Na  Na6  1  0.74041900  0.74064500  0.50000000  1
  Na  Na7  1  0.74066200  0.74059700  0.00000000  1
  V  V8  1  0.49872200  0.99847700  0.75105600  1
  V  V9  1  0.49872200  0.99847700  0.24894400  1
  V  V10  1  0.00152300  0.50127800  0.75105600  1
  V  V11  1  0.00152300  0.50127800  0.24894400  1
  V  V12  1  0.49943400  0.50056600  0.75112200  1
  V  V13  1  0.49943400  0.50056600  0.24887800  1
  Mo  Mo14  1  0.00053500  0.99946500  0.75063400  1
  Mo  Mo15  1  0.00053500  0.99946500  0.24936600  1
  O  O16  1  0.00241000  0.24970700  0.75241900  1
  O  O17  1  0.00241000  0.24970700  0.24758100  1
  O  O18  1  0.49693200  0.25053400  0.75304500  1
  O  O19  1  0.49693200  0.25053400  0.24695500  1
  O  O20  1  0.00108400  0.74989100  0.75102200  1
  O  O21  1  0.00108400  0.74989100  0.24897800  1
  O  O22  1  0.49892100  0.75049200  0.75128700  1
  O  O23  1  0.49892100  0.75049200  0.24871300  1
  O  O24  1  0.25010900  0.99891600  0.75102200  1
  O  O25  1  0.25010900  0.99891600  0.24897800  1
  O  O26  1  0.75029300  0.99759000  0.75241900  1
  O  O27  1  0.75029300  0.99759000  0.24758100  1
  O  O28  1  0.24950800  0.50107900  0.75128700  1
  O  O29  1  0.24950800  0.50107900  0.24871300  1
  O  O30  1  0.74946600  0.50306800  0.75304500  1
  O  O31  1  0.74946600  0.50306800  0.24695500  1
  O  O32  1  0.00204600  0.99795400  0.50000000  1
  O  O33  1  0.00119400  0.99880600  0.00000000  1
  O  O34  1  0.49730200  0.99728800  0.50000000  1
  O  O35  1  0.49924800  0.99907100  0.00000000  1
  O  O36  1  0.00271200  0.50269800  0.50000000  1
  O  O37  1  0.00092900  0.50075200  0.00000000  1
  O  O38  1  0.49657900  0.50342100  0.50000000  1
  O  O39  1  0.49851700  0.50148300  0.00000000  1
