# generated using pymatgen
data_Ba4Ce2BiO12
_symmetry_space_group_name_H-M   'P 1'
_cell_length_a   6.17409012
_cell_length_b   6.29079007
_cell_length_c   8.85477414
_cell_angle_alpha   88.28056340
_cell_angle_beta   89.56043019
_cell_angle_gamma   90.40028081
_symmetry_Int_Tables_number   1
_chemical_formula_structural   Ba4Ce2BiO12
_chemical_formula_sum   'Ba4 Ce2 Bi1 O12'
_cell_volume   343.74465503
_cell_formula_units_Z   1
loop_
 _symmetry_equiv_pos_site_id
 _symmetry_equiv_pos_as_xyz
  1  'x, y, z'
loop_
 _atom_site_type_symbol
 _atom_site_label
 _atom_site_symmetry_multiplicity
 _atom_site_fract_x
 _atom_site_fract_y
 _atom_site_fract_z
 _atom_site_occupancy
  Ba  Ba0  1  0.51202700  0.01573100  0.72643000  1
  Ba  Ba1  1  0.02407100  0.49255000  0.72114400  1
  Ba  Ba2  1  0.48797300  0.98426900  0.27357000  1
  Ba  Ba3  1  0.97592900  0.50745000  0.27885600  1
  Ce  Ce4  1  0.50000000  0.50000000  0.00000000  1
  Ce  Ce5  1  0.00000000  0.00000000  0.00000000  1
  Bi  Bi6  1  0.00000000  0.00000000  0.50000000  1
  O  O7  1  0.49180600  0.57973800  0.77920700  1
  O  O8  1  0.99453700  0.93206500  0.74752600  1
  O  O9  1  0.50819300  0.42026200  0.22079300  1
  O  O10  1  0.00546300  0.06793500  0.25247400  1
  O  O11  1  0.22848900  0.73640200  0.05110700  1
  O  O12  1  0.74981900  0.77740700  0.47526900  1
  O  O13  1  0.77731000  0.24734500  0.52590400  1
  O  O14  1  0.26419800  0.22885900  0.94709900  1
  O  O15  1  0.77151100  0.26359800  0.94889300  1
  O  O16  1  0.25018100  0.22259300  0.52473100  1
  O  O17  1  0.22269000  0.75265500  0.47409600  1
  O  O18  1  0.73580200  0.77114100  0.05290100  1
