# generated using pymatgen
data_K5Na3Nb8O24
_symmetry_space_group_name_H-M   'P 1'
_cell_length_a   8.07974100
_cell_length_b   8.07974100
_cell_length_c   8.07963500
_cell_angle_alpha   90.00000000
_cell_angle_beta   90.00000000
_cell_angle_gamma   90.00000000
_symmetry_Int_Tables_number   1
_chemical_formula_structural   K5Na3Nb8O24
_chemical_formula_sum   'K5 Na3 Nb8 O24'
_cell_volume   527.45646618
_cell_formula_units_Z   1
loop_
 _symmetry_equiv_pos_site_id
 _symmetry_equiv_pos_as_xyz
  1  'x, y, z'
loop_
 _atom_site_type_symbol
 _atom_site_label
 _atom_site_symmetry_multiplicity
 _atom_site_fract_x
 _atom_site_fract_y
 _atom_site_fract_z
 _atom_site_occupancy
  K  K0  1  0.00000000  0.00000000  0.00000000  1
  K  K1  1  0.50000000  0.00000000  0.00000000  1
  K  K2  1  0.00000000  0.50000000  0.00000000  1
  K  K3  1  0.50000000  0.50000000  0.00000000  1
  K  K4  1  0.50000000  0.50000000  0.50000000  1
  Na  Na5  1  0.00000000  0.00000000  0.50000000  1
  Na  Na6  1  0.50000000  0.00000000  0.50000000  1
  Na  Na7  1  0.00000000  0.50000000  0.50000000  1
  Nb  Nb8  1  0.75051100  0.75051100  0.74841600  1
  Nb  Nb9  1  0.75051100  0.75051100  0.25158400  1
  Nb  Nb10  1  0.24948900  0.75051100  0.74841600  1
  Nb  Nb11  1  0.24948900  0.75051100  0.25158400  1
  Nb  Nb12  1  0.75051100  0.24948900  0.74841600  1
  Nb  Nb13  1  0.75051100  0.24948900  0.25158400  1
  Nb  Nb14  1  0.24948900  0.24948900  0.74841600  1
  Nb  Nb15  1  0.24948900  0.24948900  0.25158400  1
  O  O16  1  0.75049200  0.00000000  0.74569300  1
  O  O17  1  0.75049200  0.00000000  0.25430700  1
  O  O18  1  0.24950800  0.00000000  0.74569300  1
  O  O19  1  0.24950800  0.00000000  0.25430700  1
  O  O20  1  0.75195600  0.50000000  0.74708700  1
  O  O21  1  0.75195600  0.50000000  0.25291300  1
  O  O22  1  0.24804400  0.50000000  0.74708700  1
  O  O23  1  0.24804400  0.50000000  0.25291300  1
  O  O24  1  0.00000000  0.75049200  0.74569300  1
  O  O25  1  0.00000000  0.75049200  0.25430700  1
  O  O26  1  0.50000000  0.75195600  0.74708700  1
  O  O27  1  0.50000000  0.75195600  0.25291300  1
  O  O28  1  0.00000000  0.24950800  0.74569300  1
  O  O29  1  0.00000000  0.24950800  0.25430700  1
  O  O30  1  0.50000000  0.24804400  0.74708700  1
  O  O31  1  0.50000000  0.24804400  0.25291300  1
  O  O32  1  0.75047200  0.75047200  0.00000000  1
  O  O33  1  0.75184100  0.75184100  0.50000000  1
  O  O34  1  0.24952800  0.75047200  0.00000000  1
  O  O35  1  0.24815900  0.75184100  0.50000000  1
  O  O36  1  0.75047200  0.24952800  0.00000000  1
  O  O37  1  0.75184100  0.24815900  0.50000000  1
  O  O38  1  0.24952800  0.24952800  0.00000000  1
  O  O39  1  0.24815900  0.24815900  0.50000000  1
