# generated using pymatgen
data_Rb2V2O5
_symmetry_space_group_name_H-M   'P 1'
_cell_length_a   8.55212738
_cell_length_b   8.55212738
_cell_length_c   8.55212738
_cell_angle_alpha   137.08528870
_cell_angle_beta   134.83803122
_cell_angle_gamma   64.05723174
_symmetry_Int_Tables_number   1
_chemical_formula_structural   Rb2V2O5
_chemical_formula_sum   'Rb4 V4 O10'
_cell_volume   297.94764985
_cell_formula_units_Z   2
loop_
 _symmetry_equiv_pos_site_id
 _symmetry_equiv_pos_as_xyz
  1  'x, y, z'
loop_
 _atom_site_type_symbol
 _atom_site_label
 _atom_site_symmetry_multiplicity
 _atom_site_fract_x
 _atom_site_fract_y
 _atom_site_fract_z
 _atom_site_occupancy
  Rb  Rb0  1  0.90345900  0.35757600  0.50416200  1
  Rb  Rb1  1  0.09654100  0.60070300  0.45411700  1
  Rb  Rb2  1  0.35341500  0.85757600  0.45411700  1
  Rb  Rb3  1  0.64658500  0.10070300  0.50416200  1
  V  V4  1  0.00000000  0.94230200  0.94230200  1
  V  V5  1  0.50000000  0.44230200  0.94230200  1
  V  V6  1  0.65649300  0.73268400  0.88917700  1
  V  V7  1  0.34350700  0.23268400  0.07619100  1
  O  O8  1  0.29003100  0.29333900  0.56696600  1
  O  O9  1  0.70996900  0.27693500  0.00330800  1
  O  O10  1  0.22637300  0.79333900  0.00330800  1
  O  O11  1  0.77362700  0.77693500  0.56696600  1
  O  O12  1  0.89263100  0.85485800  0.03047700  1
  O  O13  1  0.10736900  0.13784600  0.96222700  1
  O  O14  1  0.32438100  0.35485800  0.96222700  1
  O  O15  1  0.67561900  0.63784600  0.03047700  1
  O  O16  1  0.52526500  0.46775800  0.49302300  1
  O  O17  1  0.47473500  0.96775800  0.94249300  1
