# generated using pymatgen
data_BaMn2Ru4O11
_symmetry_space_group_name_H-M   'P 1'
_cell_length_a   6.03449696
_cell_length_b   6.03449696
_cell_length_c   13.58710995
_cell_angle_alpha   89.97304490
_cell_angle_beta   89.97304490
_cell_angle_gamma   119.65503834
_symmetry_Int_Tables_number   1
_chemical_formula_structural   BaMn2Ru4O11
_chemical_formula_sum   'Ba2 Mn4 Ru8 O22'
_cell_volume   429.97067883
_cell_formula_units_Z   2
loop_
 _symmetry_equiv_pos_site_id
 _symmetry_equiv_pos_as_xyz
  1  'x, y, z'
loop_
 _atom_site_type_symbol
 _atom_site_label
 _atom_site_symmetry_multiplicity
 _atom_site_fract_x
 _atom_site_fract_y
 _atom_site_fract_z
 _atom_site_occupancy
  Ba  Ba0  1  0.33244200  0.66755800  0.75000000  1
  Ba  Ba1  1  0.66755800  0.33244200  0.25000000  1
  Mn  Mn2  1  0.33433300  0.66566700  0.25000000  1
  Mn  Mn3  1  0.66566700  0.33433300  0.75000000  1
  Mn  Mn4  1  0.00000000  0.50000000  0.00000000  1
  Mn  Mn5  1  0.50000000  0.00000000  0.50000000  1
  Ru  Ru6  1  0.50000000  0.00000000  0.00000000  1
  Ru  Ru7  1  0.50000000  0.50000000  0.00000000  1
  Ru  Ru8  1  0.00000000  0.50000000  0.50000000  1
  Ru  Ru9  1  0.50000000  0.50000000  0.50000000  1
  Ru  Ru10  1  0.00673700  0.00469500  0.85141800  1
  Ru  Ru11  1  0.99326300  0.99530500  0.14858200  1
  Ru  Ru12  1  0.00469500  0.00673700  0.35141800  1
  Ru  Ru13  1  0.99530500  0.99326300  0.64858200  1
  O  O14  1  0.28646100  0.14227400  0.74749800  1
  O  O15  1  0.85772600  0.71353900  0.75250200  1
  O  O16  1  0.85531300  0.14468700  0.75000000  1
  O  O17  1  0.71353900  0.85772600  0.25250200  1
  O  O18  1  0.14227400  0.28646100  0.24749800  1
  O  O19  1  0.14468700  0.85531300  0.25000000  1
  O  O20  1  0.32448100  0.64973800  0.41446900  1
  O  O21  1  0.67551900  0.35026200  0.58553100  1
  O  O22  1  0.64973800  0.32448100  0.91446900  1
  O  O23  1  0.35026200  0.67551900  0.08553100  1
  O  O24  1  0.66641500  0.83421700  0.92136000  1
  O  O25  1  0.17832500  0.34239200  0.91963900  1
  O  O26  1  0.17895100  0.83864700  0.92010500  1
  O  O27  1  0.33358500  0.16578300  0.07864000  1
  O  O28  1  0.82167500  0.65760800  0.08036100  1
  O  O29  1  0.82104900  0.16135300  0.07989500  1
  O  O30  1  0.34239200  0.17832500  0.41963900  1
  O  O31  1  0.83421700  0.66641500  0.42136000  1
  O  O32  1  0.83864700  0.17895100  0.42010500  1
  O  O33  1  0.65760800  0.82167500  0.58036100  1
  O  O34  1  0.16578300  0.33358500  0.57864000  1
  O  O35  1  0.16135300  0.82104900  0.57989500  1
