# generated using pymatgen
data_Ba3TiNb4O15
_symmetry_space_group_name_H-M   'P 1'
_cell_length_a   12.73975800
_cell_length_b   4.12425300
_cell_length_c   12.67461555
_cell_angle_alpha   89.87014812
_cell_angle_beta   90.00000000
_cell_angle_gamma   90.00000000
_symmetry_Int_Tables_number   1
_chemical_formula_structural   Ba3TiNb4O15
_chemical_formula_sum   'Ba6 Ti2 Nb8 O30'
_cell_volume   665.94775178
_cell_formula_units_Z   2
loop_
 _symmetry_equiv_pos_site_id
 _symmetry_equiv_pos_as_xyz
  1  'x, y, z'
loop_
 _atom_site_type_symbol
 _atom_site_label
 _atom_site_symmetry_multiplicity
 _atom_site_fract_x
 _atom_site_fract_y
 _atom_site_fract_z
 _atom_site_occupancy
  Ba  Ba0  1  0.75281000  0.96799100  0.50479400  1
  Ba  Ba1  1  0.24719000  0.96799100  0.00479400  1
  Ba  Ba2  1  0.92784300  0.95825400  0.16979800  1
  Ba  Ba3  1  0.58379300  0.94870500  0.82443500  1
  Ba  Ba4  1  0.41620700  0.94870500  0.32443500  1
  Ba  Ba5  1  0.07215700  0.95825400  0.66979800  1
  Ti  Ti6  1  0.83103600  0.49861000  0.71337800  1
  Ti  Ti7  1  0.16896400  0.49861000  0.21337800  1
  Nb  Nb8  1  0.67614300  0.48922700  0.28420900  1
  Nb  Nb9  1  0.32385700  0.48922700  0.78420900  1
  Nb  Nb10  1  0.54128800  0.48496800  0.57586400  1
  Nb  Nb11  1  0.96425400  0.48596000  0.42513400  1
  Nb  Nb12  1  0.45871200  0.48496800  0.07586400  1
  Nb  Nb13  1  0.03574600  0.48596000  0.92513400  1
  Nb  Nb14  1  0.74883800  0.39897800  0.99355500  1
  Nb  Nb15  1  0.25116200  0.39897800  0.49355500  1
  O  O16  1  0.82957500  0.92590500  0.70647200  1
  O  O17  1  0.67200400  0.94332700  0.29454100  1
  O  O18  1  0.32799600  0.94332700  0.79454100  1
  O  O19  1  0.17042500  0.92590500  0.20647200  1
  O  O20  1  0.54151200  0.94321900  0.57834400  1
  O  O21  1  0.95637400  0.94406600  0.42214200  1
  O  O22  1  0.45848800  0.94321900  0.07834400  1
  O  O23  1  0.04362600  0.94406600  0.92214200  1
  O  O24  1  0.75106700  0.94798700  0.99934000  1
  O  O25  1  0.24893300  0.94798700  0.49934000  1
  O  O26  1  0.09319600  0.45178400  0.50883200  1
  O  O27  1  0.40517400  0.45100700  0.49254400  1
  O  O28  1  0.59482600  0.45100700  0.99254400  1
  O  O29  1  0.90680400  0.45178400  0.00883200  1
  O  O30  1  0.74617200  0.44763800  0.84192200  1
  O  O31  1  0.75697300  0.45064300  0.15639300  1
  O  O32  1  0.25382800  0.44763800  0.34192200  1
  O  O33  1  0.24302700  0.45064300  0.65639300  1
  O  O34  1  0.89059700  0.44337900  0.56929300  1
  O  O35  1  0.60924300  0.44234300  0.43309500  1
  O  O36  1  0.39075700  0.44234300  0.93309500  1
  O  O37  1  0.10940300  0.44337900  0.06929300  1
  O  O38  1  0.67902200  0.44558000  0.64245800  1
  O  O39  1  0.81740400  0.44345500  0.36131000  1
  O  O40  1  0.32097800  0.44558000  0.14245800  1
  O  O41  1  0.18259600  0.44345500  0.86131000  1
  O  O42  1  0.03105800  0.44579500  0.28296000  1
  O  O43  1  0.46683000  0.44017700  0.71918700  1
  O  O44  1  0.53317000  0.44017700  0.21918700  1
  O  O45  1  0.96894200  0.44579500  0.78296000  1
