# generated using pymatgen
data_Ba3ZrNb4O15
_symmetry_space_group_name_H-M   'P 1'
_cell_length_a   4.15073700
_cell_length_b   12.84301100
_cell_length_c   12.84301100
_cell_angle_alpha   90.00000000
_cell_angle_beta   90.00000000
_cell_angle_gamma   90.00000000
_symmetry_Int_Tables_number   1
_chemical_formula_structural   Ba3ZrNb4O15
_chemical_formula_sum   'Ba6 Zr2 Nb8 O30'
_cell_volume   684.63472886
_cell_formula_units_Z   2
loop_
 _symmetry_equiv_pos_site_id
 _symmetry_equiv_pos_as_xyz
  1  'x, y, z'
loop_
 _atom_site_type_symbol
 _atom_site_label
 _atom_site_symmetry_multiplicity
 _atom_site_fract_x
 _atom_site_fract_y
 _atom_site_fract_z
 _atom_site_occupancy
  Ba  Ba0  1  0.33784400  0.50000000  0.50000000  1
  Ba  Ba1  1  0.33784400  0.00000000  0.00000000  1
  Ba  Ba2  1  0.33996900  0.83064900  0.33064900  1
  Ba  Ba3  1  0.33996900  0.16935100  0.66935100  1
  Ba  Ba4  1  0.33996900  0.66935100  0.83064900  1
  Ba  Ba5  1  0.33996900  0.33064900  0.16935100  1
  Zr  Zr6  1  0.82023400  0.00000000  0.50000000  1
  Zr  Zr7  1  0.82023400  0.50000000  0.00000000  1
  Nb  Nb8  1  0.85768900  0.28727400  0.42409600  1
  Nb  Nb9  1  0.85768900  0.71272600  0.57590400  1
  Nb  Nb10  1  0.85768900  0.21272600  0.92409600  1
  Nb  Nb11  1  0.85768900  0.78727400  0.07590400  1
  Nb  Nb12  1  0.85768900  0.42409600  0.71272600  1
  Nb  Nb13  1  0.85768900  0.57590400  0.28727400  1
  Nb  Nb14  1  0.85768900  0.92409600  0.78727400  1
  Nb  Nb15  1  0.85768900  0.07590400  0.21272600  1
  O  O16  1  0.81150800  0.48932500  0.16508300  1
  O  O17  1  0.81150800  0.51067500  0.83491700  1
  O  O18  1  0.81150800  0.01067500  0.66508300  1
  O  O19  1  0.81150800  0.98932500  0.33491700  1
  O  O20  1  0.81150800  0.16508300  0.51067500  1
  O  O21  1  0.81150800  0.83491700  0.48932500  1
  O  O22  1  0.81150800  0.66508300  0.98932500  1
  O  O23  1  0.81150800  0.33491700  0.01067500  1
  O  O24  1  0.81122800  0.71870400  0.21870400  1
  O  O25  1  0.81122800  0.28129600  0.78129600  1
  O  O26  1  0.81122800  0.78129600  0.71870400  1
  O  O27  1  0.81122800  0.21870400  0.28129600  1
  O  O28  1  0.31523700  0.00000000  0.50000000  1
  O  O29  1  0.31523700  0.50000000  0.00000000  1
  O  O30  1  0.30931100  0.29558100  0.41847100  1
  O  O31  1  0.30931100  0.70441900  0.58152900  1
  O  O32  1  0.30931100  0.20441900  0.91847100  1
  O  O33  1  0.30931100  0.79558100  0.08152900  1
  O  O34  1  0.30931100  0.41847100  0.70441900  1
  O  O35  1  0.30931100  0.58152900  0.29558100  1
  O  O36  1  0.30931100  0.91847100  0.79558100  1
  O  O37  1  0.30931100  0.08152900  0.20441900  1
  O  O38  1  0.81056500  0.43366200  0.36324300  1
  O  O39  1  0.81056500  0.56633800  0.63675700  1
  O  O40  1  0.81056500  0.06633800  0.86324300  1
  O  O41  1  0.81056500  0.93366200  0.13675700  1
  O  O42  1  0.81056500  0.36324300  0.56633800  1
  O  O43  1  0.81056500  0.63675700  0.43366200  1
  O  O44  1  0.81056500  0.86324300  0.93366200  1
  O  O45  1  0.81056500  0.13675700  0.06633800  1
