# generated using pymatgen
data_Ba4PrTm(Cu3O7)2
_symmetry_space_group_name_H-M   'P 1'
_cell_length_a   3.86232300
_cell_length_b   3.93779100
_cell_length_c   23.74873700
_cell_angle_alpha   90.00000000
_cell_angle_beta   90.00000000
_cell_angle_gamma   90.00000000
_symmetry_Int_Tables_number   1
_chemical_formula_structural   Ba4PrTm(Cu3O7)2
_chemical_formula_sum   'Ba4 Pr1 Tm1 Cu6 O14'
_cell_volume   361.19503378
_cell_formula_units_Z   1
loop_
 _symmetry_equiv_pos_site_id
 _symmetry_equiv_pos_as_xyz
  1  'x, y, z'
loop_
 _atom_site_type_symbol
 _atom_site_label
 _atom_site_symmetry_multiplicity
 _atom_site_fract_x
 _atom_site_fract_y
 _atom_site_fract_z
 _atom_site_occupancy
  Ba  Ba0  1  0.50000000  0.50000000  0.83949200  1
  Ba  Ba1  1  0.50000000  0.50000000  0.34076600  1
  Ba  Ba2  1  0.50000000  0.50000000  0.16050800  1
  Ba  Ba3  1  0.50000000  0.50000000  0.65923400  1
  Pr  Pr4  1  0.50000000  0.50000000  0.00000000  1
  Tm  Tm5  1  0.50000000  0.50000000  0.50000000  1
  Cu  Cu6  1  0.00000000  0.00000000  0.92296300  1
  Cu  Cu7  1  0.00000000  0.00000000  0.42766900  1
  Cu  Cu8  1  0.00000000  0.00000000  0.07703700  1
  Cu  Cu9  1  0.00000000  0.00000000  0.57233100  1
  Cu  Cu10  1  0.00000000  0.00000000  0.74958400  1
  Cu  Cu11  1  0.00000000  0.00000000  0.25041600  1
  O  O12  1  0.00000000  0.00000000  0.82859100  1
  O  O13  1  0.00000000  0.00000000  0.32970600  1
  O  O14  1  0.00000000  0.00000000  0.17140900  1
  O  O15  1  0.00000000  0.00000000  0.67029400  1
  O  O16  1  0.00000000  0.50000000  0.74926000  1
  O  O17  1  0.00000000  0.50000000  0.25074000  1
  O  O18  1  0.00000000  0.50000000  0.93457800  1
  O  O19  1  0.00000000  0.50000000  0.44085400  1
  O  O20  1  0.00000000  0.50000000  0.06542200  1
  O  O21  1  0.00000000  0.50000000  0.55914600  1
  O  O22  1  0.50000000  0.00000000  0.93544200  1
  O  O23  1  0.50000000  0.00000000  0.44161900  1
  O  O24  1  0.50000000  0.00000000  0.06455800  1
  O  O25  1  0.50000000  0.00000000  0.55838100  1
