# generated using pymatgen
data_Ba3HfNb4O15
_symmetry_space_group_name_H-M   'P 1'
_cell_length_a   4.11259300
_cell_length_b   12.81272500
_cell_length_c   12.81272500
_cell_angle_alpha   90.00000000
_cell_angle_beta   90.00000000
_cell_angle_gamma   90.00000000
_symmetry_Int_Tables_number   1
_chemical_formula_structural   Ba3HfNb4O15
_chemical_formula_sum   'Ba6 Hf2 Nb8 O30'
_cell_volume   675.14762135
_cell_formula_units_Z   2
loop_
 _symmetry_equiv_pos_site_id
 _symmetry_equiv_pos_as_xyz
  1  'x, y, z'
loop_
 _atom_site_type_symbol
 _atom_site_label
 _atom_site_symmetry_multiplicity
 _atom_site_fract_x
 _atom_site_fract_y
 _atom_site_fract_z
 _atom_site_occupancy
  Ba  Ba0  1  0.33458700  0.50000000  0.50000000  1
  Ba  Ba1  1  0.33458700  0.00000000  0.00000000  1
  Ba  Ba2  1  0.34424200  0.83222700  0.33222700  1
  Ba  Ba3  1  0.34424200  0.16777300  0.66777300  1
  Ba  Ba4  1  0.34424200  0.66777300  0.83222700  1
  Ba  Ba5  1  0.34424200  0.33222700  0.16777300  1
  Hf  Hf6  1  0.82670500  0.00000000  0.50000000  1
  Hf  Hf7  1  0.82670500  0.50000000  0.00000000  1
  Nb  Nb8  1  0.85481800  0.28612500  0.42540800  1
  Nb  Nb9  1  0.85481800  0.71387500  0.57459200  1
  Nb  Nb10  1  0.85481800  0.21387500  0.92540800  1
  Nb  Nb11  1  0.85481800  0.78612500  0.07459200  1
  Nb  Nb12  1  0.85481800  0.42540800  0.71387500  1
  Nb  Nb13  1  0.85481800  0.57459200  0.28612500  1
  Nb  Nb14  1  0.85481800  0.92540800  0.78612500  1
  Nb  Nb15  1  0.85481800  0.07459200  0.21387500  1
  O  O16  1  0.81632900  0.48950700  0.16242500  1
  O  O17  1  0.81632900  0.51049300  0.83757500  1
  O  O18  1  0.81632900  0.01049300  0.66242500  1
  O  O19  1  0.81632900  0.98950700  0.33757500  1
  O  O20  1  0.81632900  0.16242500  0.51049300  1
  O  O21  1  0.81632900  0.83757500  0.48950700  1
  O  O22  1  0.81632900  0.66242500  0.98950700  1
  O  O23  1  0.81632900  0.33757500  0.01049300  1
  O  O24  1  0.80829800  0.43275200  0.36228500  1
  O  O25  1  0.80829800  0.56724800  0.63771500  1
  O  O26  1  0.80829800  0.06724800  0.86228500  1
  O  O27  1  0.80829800  0.93275200  0.13771500  1
  O  O28  1  0.80829800  0.36228500  0.56724800  1
  O  O29  1  0.80829800  0.63771500  0.43275200  1
  O  O30  1  0.80829800  0.86228500  0.93275200  1
  O  O31  1  0.80829800  0.13771500  0.06724800  1
  O  O32  1  0.31140600  0.29470900  0.42096100  1
  O  O33  1  0.31140600  0.70529100  0.57903900  1
  O  O34  1  0.31140600  0.20529100  0.92096100  1
  O  O35  1  0.31140600  0.79470900  0.07903900  1
  O  O36  1  0.31140600  0.42096100  0.70529100  1
  O  O37  1  0.31140600  0.57903900  0.29470900  1
  O  O38  1  0.31140600  0.92096100  0.79470900  1
  O  O39  1  0.31140600  0.07903900  0.20529100  1
  O  O40  1  0.32048200  0.00000000  0.50000000  1
  O  O41  1  0.32048200  0.50000000  0.00000000  1
  O  O42  1  0.81367100  0.71702100  0.21702100  1
  O  O43  1  0.81367100  0.28297900  0.78297900  1
  O  O44  1  0.81367100  0.78297900  0.71702100  1
  O  O45  1  0.81367100  0.21702100  0.28297900  1
