# generated using pymatgen
data_Ba2Sb2O5
_symmetry_space_group_name_H-M   'P 1'
_cell_length_a   7.62945990
_cell_length_b   7.62945990
_cell_length_c   6.51727100
_cell_angle_alpha   90.00000000
_cell_angle_beta   90.00000000
_cell_angle_gamma   149.44105778
_symmetry_Int_Tables_number   1
_chemical_formula_structural   Ba2Sb2O5
_chemical_formula_sum   'Ba2 Sb2 O5'
_cell_volume   192.87672595
_cell_formula_units_Z   1
loop_
 _symmetry_equiv_pos_site_id
 _symmetry_equiv_pos_as_xyz
  1  'x, y, z'
loop_
 _atom_site_type_symbol
 _atom_site_label
 _atom_site_symmetry_multiplicity
 _atom_site_fract_x
 _atom_site_fract_y
 _atom_site_fract_z
 _atom_site_occupancy
  Ba  Ba0  1  0.32408100  0.67591900  0.00000000  1
  Ba  Ba1  1  0.67770300  0.32229700  0.50000000  1
  Sb  Sb2  1  0.06992100  0.93007900  0.00000000  1
  Sb  Sb3  1  0.93058600  0.06941400  0.50000000  1
  O  O4  1  0.15676100  0.84323900  0.22494300  1
  O  O5  1  0.84106100  0.15893900  0.27763200  1
  O  O6  1  0.15676100  0.84323900  0.77505700  1
  O  O7  1  0.84106100  0.15893900  0.72236800  1
  O  O8  1  0.52406400  0.47593600  0.00000000  1
