# generated using pymatgen
data_Ca2Fe2O5
_symmetry_space_group_name_H-M   'P 1'
_cell_length_a   8.42374899
_cell_length_b   8.42374899
_cell_length_c   8.42374899
_cell_angle_alpha   142.06175019
_cell_angle_beta   140.51340706
_cell_angle_gamma   55.91326807
_symmetry_Int_Tables_number   1
_chemical_formula_structural   Ca2Fe2O5
_chemical_formula_sum   'Ca4 Fe4 O10'
_cell_volume   231.90791411
_cell_formula_units_Z   2
loop_
 _symmetry_equiv_pos_site_id
 _symmetry_equiv_pos_as_xyz
  1  'x, y, z'
loop_
 _atom_site_type_symbol
 _atom_site_label
 _atom_site_symmetry_multiplicity
 _atom_site_fract_x
 _atom_site_fract_y
 _atom_site_fract_z
 _atom_site_occupancy
  Ca  Ca0  1  0.92192700  0.39179100  0.52784500  1
  Ca  Ca1  1  0.07807300  0.60591800  0.46986400  1
  Ca  Ca2  1  0.36394600  0.89179100  0.46986400  1
  Ca  Ca3  1  0.63605400  0.10591800  0.52784500  1
  Fe  Fe4  1  0.00000000  0.01014900  0.01014900  1
  Fe  Fe5  1  0.50000000  0.51014900  0.01014900  1
  Fe  Fe6  1  0.68054500  0.70869700  0.88924200  1
  Fe  Fe7  1  0.31945500  0.20869700  0.02815200  1
  O  O8  1  0.26911100  0.27523600  0.51337600  1
  O  O9  1  0.73088900  0.24426500  0.00612600  1
  O  O10  1  0.26186000  0.77523600  0.00612600  1
  O  O11  1  0.73814000  0.74426500  0.51337600  1
  O  O12  1  0.93303500  0.89661700  0.11119200  1
  O  O13  1  0.06696500  0.17815600  0.96358200  1
  O  O14  1  0.28542600  0.39661700  0.96358200  1
  O  O15  1  0.71457400  0.67815600  0.11119200  1
  O  O16  1  0.63113700  0.35316900  0.48430600  1
  O  O17  1  0.36886300  0.85316900  0.72203200  1
