# generated using pymatgen
data_Ba4PrY(Cu3O7)2
_symmetry_space_group_name_H-M   'P 1'
_cell_length_a   3.87809700
_cell_length_b   3.94764000
_cell_length_c   23.89001100
_cell_angle_alpha   90.00000000
_cell_angle_beta   90.00000000
_cell_angle_gamma   90.00000000
_symmetry_Int_Tables_number   1
_chemical_formula_structural   Ba4PrY(Cu3O7)2
_chemical_formula_sum   'Ba4 Pr1 Y1 Cu6 O14'
_cell_volume   365.74008220
_cell_formula_units_Z   1
loop_
 _symmetry_equiv_pos_site_id
 _symmetry_equiv_pos_as_xyz
  1  'x, y, z'
loop_
 _atom_site_type_symbol
 _atom_site_label
 _atom_site_symmetry_multiplicity
 _atom_site_fract_x
 _atom_site_fract_y
 _atom_site_fract_z
 _atom_site_occupancy
  Ba  Ba0  1  0.50000000  0.50000000  0.34084000  1
  Ba  Ba1  1  0.50000000  0.50000000  0.83934800  1
  Ba  Ba2  1  0.50000000  0.50000000  0.65916000  1
  Ba  Ba3  1  0.50000000  0.50000000  0.16065200  1
  Pr  Pr4  1  0.50000000  0.50000000  0.00000000  1
  Y  Y5  1  0.50000000  0.50000000  0.50000000  1
  Cu  Cu6  1  0.00000000  0.00000000  0.42730900  1
  Cu  Cu7  1  0.00000000  0.00000000  0.92268400  1
  Cu  Cu8  1  0.00000000  0.00000000  0.57269100  1
  Cu  Cu9  1  0.00000000  0.00000000  0.07731600  1
  Cu  Cu10  1  0.00000000  0.00000000  0.25054100  1
  Cu  Cu11  1  0.00000000  0.00000000  0.74945900  1
  O  O12  1  0.50000000  0.00000000  0.44016800  1
  O  O13  1  0.50000000  0.00000000  0.93547000  1
  O  O14  1  0.50000000  0.00000000  0.55983200  1
  O  O15  1  0.50000000  0.00000000  0.06453000  1
  O  O16  1  0.00000000  0.50000000  0.43970500  1
  O  O17  1  0.00000000  0.50000000  0.93480100  1
  O  O18  1  0.00000000  0.50000000  0.56029500  1
  O  O19  1  0.00000000  0.50000000  0.06519900  1
  O  O20  1  0.00000000  0.00000000  0.32915700  1
  O  O21  1  0.00000000  0.00000000  0.82803800  1
  O  O22  1  0.00000000  0.00000000  0.67084300  1
  O  O23  1  0.00000000  0.00000000  0.17196200  1
  O  O24  1  0.00000000  0.50000000  0.25095300  1
  O  O25  1  0.00000000  0.50000000  0.74904700  1
