# generated using pymatgen
data_Ba4La4Cu4(BO6)3
_symmetry_space_group_name_H-M   'P 1'
_cell_length_a   7.75467600
_cell_length_b   7.75721312
_cell_length_c   8.14620670
_cell_angle_alpha   90.00000000
_cell_angle_beta   90.00000000
_cell_angle_gamma   90.00000000
_symmetry_Int_Tables_number   1
_chemical_formula_structural   Ba4La4Cu4(BO6)3
_chemical_formula_sum   'Ba4 La4 Cu4 B3 O18'
_cell_volume   490.03241181
_cell_formula_units_Z   1
loop_
 _symmetry_equiv_pos_site_id
 _symmetry_equiv_pos_as_xyz
  1  'x, y, z'
loop_
 _atom_site_type_symbol
 _atom_site_label
 _atom_site_symmetry_multiplicity
 _atom_site_fract_x
 _atom_site_fract_y
 _atom_site_fract_z
 _atom_site_occupancy
  Ba  Ba0  1  0.50711100  0.50782500  0.99672300  1
  Ba  Ba1  1  0.50711100  0.99217500  0.50327700  1
  Ba  Ba2  1  0.50711100  0.99217500  0.99672300  1
  Ba  Ba3  1  0.50711100  0.50782500  0.50327700  1
  La  La4  1  0.98847500  0.49747900  0.01460000  1
  La  La5  1  0.98847500  0.00252100  0.48540000  1
  La  La6  1  0.98847500  0.00252100  0.01460000  1
  La  La7  1  0.98847500  0.49747900  0.48540000  1
  Cu  Cu8  1  0.79858900  0.25000000  0.75000000  1
  Cu  Cu9  1  0.77827100  0.75000000  0.25000000  1
  Cu  Cu10  1  0.76105900  0.25000000  0.25000000  1
  Cu  Cu11  1  0.76186700  0.75000000  0.75000000  1
  B  B12  1  0.26890300  0.25000000  0.75000000  1
  B  B13  1  0.26372600  0.75000000  0.25000000  1
  B  B14  1  0.26787100  0.25000000  0.25000000  1
  O  O15  1  0.84846700  0.49917400  0.75000000  1
  O  O16  1  0.79621400  0.99952200  0.25000000  1
  O  O17  1  0.79621400  0.50047800  0.25000000  1
  O  O18  1  0.84846700  0.00082600  0.75000000  1
  O  O19  1  0.79091900  0.75000000  0.00628700  1
  O  O20  1  0.78648400  0.25000000  0.49644700  1
  O  O21  1  0.78648400  0.25000000  0.00355300  1
  O  O22  1  0.79091900  0.75000000  0.49371300  1
  O  O23  1  0.44792000  0.25000000  0.75000000  1
  O  O24  1  0.44259700  0.75000000  0.25000000  1
  O  O25  1  0.44714100  0.25000000  0.25000000  1
  O  O26  1  0.48400000  0.75000000  0.75000000  1
  O  O27  1  0.17905200  0.09431100  0.25000000  1
  O  O28  1  0.17905200  0.40568900  0.25000000  1
  O  O29  1  0.17791600  0.75000000  0.09749300  1
  O  O30  1  0.18205400  0.25000000  0.59980500  1
  O  O31  1  0.18205400  0.25000000  0.90019500  1
  O  O32  1  0.17791600  0.75000000  0.40250700  1
