# generated using pymatgen
data_La7SmMn2(Fe3O10)2
_symmetry_space_group_name_H-M   'P 1'
_cell_length_a   11.11605722
_cell_length_b   11.83307310
_cell_length_c   17.78921240
_cell_angle_alpha   109.41726816
_cell_angle_beta   108.01923378
_cell_angle_gamma   89.99088088
_symmetry_Int_Tables_number   1
_chemical_formula_structural   La7SmMn2(Fe3O10)2
_chemical_formula_sum   'La28 Sm4 Mn8 Fe24 O80'
_cell_volume   2084.81304796
_cell_formula_units_Z   4
loop_
 _symmetry_equiv_pos_site_id
 _symmetry_equiv_pos_as_xyz
  1  'x, y, z'
loop_
 _atom_site_type_symbol
 _atom_site_label
 _atom_site_symmetry_multiplicity
 _atom_site_fract_x
 _atom_site_fract_y
 _atom_site_fract_z
 _atom_site_occupancy
  La  La0  1  0.30304500  0.06292500  0.11368200  1
  La  La1  1  0.30159900  0.06323800  0.60823500  1
  La  La2  1  0.30084500  0.56574400  0.60991400  1
  La  La3  1  0.80391000  0.06444000  0.61245700  1
  La  La4  1  0.80516000  0.56382900  0.11246900  1
  La  La5  1  0.80067600  0.56480600  0.60940800  1
  La  La6  1  0.19152400  0.43488400  0.38844400  1
  La  La7  1  0.18867400  0.43443200  0.89184300  1
  La  La8  1  0.19042000  0.93400900  0.38552200  1
  La  La9  1  0.18873300  0.93791900  0.88949800  1
  La  La10  1  0.69104700  0.43501000  0.38708300  1
  La  La11  1  0.69187600  0.93629000  0.38951700  1
  La  La12  1  0.68940900  0.93522100  0.88896400  1
  La  La13  1  0.05189000  0.29674000  0.11051900  1
  La  La14  1  0.05069900  0.29395200  0.60978800  1
  La  La15  1  0.05062400  0.79727900  0.61004800  1
  La  La16  1  0.55575900  0.29651700  0.11246100  1
  La  La17  1  0.55157600  0.29646500  0.61130100  1
  La  La18  1  0.54953800  0.79810700  0.11131900  1
  La  La19  1  0.55375500  0.79486900  0.61099700  1
  La  La20  1  0.44270000  0.20175900  0.38732900  1
  La  La21  1  0.44347900  0.20665900  0.89096500  1
  La  La22  1  0.44226500  0.70441200  0.38818000  1
  La  La23  1  0.43851900  0.70514300  0.88982300  1
  La  La24  1  0.94238400  0.20365800  0.38764900  1
  La  La25  1  0.93759700  0.20185100  0.88786200  1
  La  La26  1  0.94183600  0.70149100  0.38661100  1
  La  La27  1  0.93964200  0.70528200  0.89219300  1
  Sm  Sm28  1  0.30073100  0.56680400  0.10924400  1
  Sm  Sm29  1  0.80277200  0.06568900  0.10885300  1
  Sm  Sm30  1  0.68827200  0.43465000  0.89237200  1
  Sm  Sm31  1  0.05480700  0.79600600  0.11243800  1
  Mn  Mn32  1  0.10774200  0.59719700  0.75049200  1
  Mn  Mn33  1  0.60923400  0.10009800  0.75010400  1
  Mn  Mn34  1  0.60956800  0.59789200  0.75234600  1
  Mn  Mn35  1  0.35758400  0.40453900  0.24813400  1
  Mn  Mn36  1  0.35992300  0.40200100  0.75075500  1
  Mn  Mn37  1  0.35705200  0.90346300  0.75010300  1
  Mn  Mn38  1  0.85680200  0.40227100  0.75197800  1
  Mn  Mn39  1  0.85878700  0.90240300  0.24673600  1
  Fe  Fe40  1  0.00494300  0.99956800  0.00266300  1
  Fe  Fe41  1  0.00398300  0.99805900  0.49772900  1
  Fe  Fe42  1  0.00455300  0.50078500  0.00148900  1
  Fe  Fe43  1  0.00412700  0.50001700  0.49969100  1
  Fe  Fe44  1  0.50593800  0.00059800  0.00104200  1
  Fe  Fe45  1  0.50443200  0.00009100  0.49925200  1
  Fe  Fe46  1  0.50524800  0.50149700  0.00088100  1
  Fe  Fe47  1  0.50417800  0.49868200  0.49889600  1
  Fe  Fe48  1  0.25676200  0.25101000  0.00314500  1
  Fe  Fe49  1  0.25449300  0.24933500  0.49906600  1
  Fe  Fe50  1  0.25331800  0.75073700  0.00058500  1
  Fe  Fe51  1  0.25454600  0.74921800  0.49860900  1
  Fe  Fe52  1  0.75511800  0.25040900  0.00059200  1
  Fe  Fe53  1  0.75440600  0.24981800  0.49963800  1
  Fe  Fe54  1  0.75654700  0.75047400  0.00228400  1
  Fe  Fe55  1  0.75357100  0.74969000  0.49849800  1
  Fe  Fe56  1  0.10795800  0.10166900  0.24801600  1
  Fe  Fe57  1  0.11166700  0.10443200  0.75074900  1
  Fe  Fe58  1  0.11401800  0.60333500  0.24848000  1
  Fe  Fe59  1  0.61489900  0.10189500  0.24934100  1
  Fe  Fe60  1  0.60892800  0.60369500  0.24818800  1
  Fe  Fe61  1  0.35890300  0.89461400  0.24865300  1
  Fe  Fe62  1  0.86151700  0.39560400  0.24924700  1
  Fe  Fe63  1  0.86205100  0.89585300  0.75082200  1
  O  O64  1  0.11528100  0.11549200  0.47670300  1
  O  O65  1  0.11256900  0.12105200  0.97755000  1
  O  O66  1  0.11433100  0.61569900  0.47524300  1
  O  O67  1  0.11364600  0.62189200  0.98096600  1
  O  O68  1  0.61441500  0.11644500  0.47486300  1
  O  O69  1  0.61413100  0.12172500  0.97814400  1
  O  O70  1  0.61446900  0.61611900  0.47677100  1
  O  O71  1  0.61232900  0.62020700  0.97467900  1
  O  O72  1  0.14365400  0.39127000  0.02854900  1
  O  O73  1  0.13634200  0.38215500  0.52160600  1
  O  O74  1  0.13666500  0.88494100  0.02674200  1
  O  O75  1  0.13743300  0.88247300  0.52309900  1
  O  O76  1  0.63785600  0.38653300  0.02100400  1
  O  O77  1  0.63835300  0.38395400  0.52489400  1
  O  O78  1  0.64296000  0.89127700  0.02789500  1
  O  O79  1  0.63644600  0.88292300  0.52076000  1
  O  O80  1  0.36444400  0.10935000  0.47595400  1
  O  O81  1  0.36378200  0.10609500  0.97639100  1
  O  O82  1  0.36361400  0.60826700  0.47430200  1
  O  O83  1  0.36258500  0.60763400  0.98001900  1
  O  O84  1  0.86543500  0.11038000  0.47515300  1
  O  O85  1  0.86345600  0.10575700  0.98187500  1
  O  O86  1  0.86475700  0.61088900  0.47746400  1
  O  O87  1  0.85785500  0.60010100  0.97133000  1
  O  O88  1  0.38867600  0.39102200  0.02674100  1
  O  O89  1  0.38649800  0.38907300  0.52162900  1
  O  O90  1  0.38798300  0.88766100  0.02408600  1
  O  O91  1  0.38759500  0.88813600  0.52188700  1
  O  O92  1  0.88839700  0.38707700  0.02340800  1
  O  O93  1  0.88748700  0.38884300  0.52266700  1
  O  O94  1  0.89270900  0.88822300  0.03131900  1
  O  O95  1  0.88593200  0.88932400  0.52064200  1
  O  O96  1  0.09551400  0.11795300  0.14015800  1
  O  O97  1  0.09239800  0.11407100  0.63958300  1
  O  O98  1  0.10246500  0.61848000  0.14006600  1
  O  O99  1  0.09587400  0.61785200  0.63946600  1
  O  O100  1  0.60537800  0.11598200  0.14104900  1
  O  O101  1  0.59677400  0.11687000  0.63809700  1
  O  O102  1  0.59710000  0.61777500  0.13959600  1
  O  O103  1  0.59691000  0.61591500  0.64035600  1
  O  O104  1  0.45612600  0.38198000  0.35893200  1
  O  O105  1  0.46570700  0.38408000  0.86076100  1
  O  O106  1  0.45046200  0.88490500  0.35953700  1
  O  O107  1  0.45846200  0.88289100  0.86082700  1
  O  O108  1  0.95208200  0.38486300  0.36009500  1
  O  O109  1  0.96218800  0.38103300  0.86138800  1
  O  O110  1  0.95718000  0.88170100  0.35833900  1
  O  O111  1  0.95404400  0.88628300  0.86187900  1
  O  O112  1  0.35064200  0.26813000  0.14060300  1
  O  O113  1  0.34657200  0.27196700  0.63901700  1
  O  O114  1  0.34307100  0.77199700  0.13946300  1
  O  O115  1  0.34745600  0.77261100  0.63921800  1
  O  O116  1  0.84170800  0.27295500  0.13925700  1
  O  O117  1  0.84598400  0.27224300  0.64016200  1
  O  O118  1  0.85976200  0.76749500  0.14023400  1
  O  O119  1  0.84203600  0.77591700  0.63929000  1
  O  O120  1  0.20004500  0.22279600  0.35878700  1
  O  O121  1  0.20750900  0.22557500  0.86075500  1
  O  O122  1  0.20360300  0.72592300  0.35911700  1
  O  O123  1  0.20657500  0.72859200  0.86134900  1
  O  O124  1  0.70331300  0.22586800  0.35948300  1
  O  O125  1  0.70892200  0.22998300  0.86170500  1
  O  O126  1  0.70072500  0.72450400  0.35913900  1
  O  O127  1  0.70921900  0.73081100  0.86198200  1
  O  O128  1  0.42415400  0.06459200  0.25041200  1
  O  O129  1  0.41972000  0.07238700  0.75003000  1
  O  O130  1  0.41463500  0.57226200  0.24434600  1
  O  O131  1  0.41816000  0.57169400  0.74983500  1
  O  O132  1  0.91443900  0.07173800  0.24452600  1
  O  O133  1  0.92095600  0.06690200  0.75045100  1
  O  O134  1  0.92411300  0.56559200  0.24975200  1
  O  O135  1  0.91756700  0.57125600  0.75068100  1
  O  O136  1  0.16881700  0.43046000  0.24969700  1
  O  O137  1  0.16964000  0.42790700  0.75073900  1
  O  O138  1  0.16529600  0.92837400  0.24490600  1
  O  O139  1  0.16791500  0.93113500  0.75012800  1
  O  O140  1  0.67072800  0.43403500  0.24980700  1
  O  O141  1  0.66828300  0.42843100  0.75599500  1
  O  O142  1  0.67056900  0.92915200  0.24969600  1
  O  O143  1  0.67056000  0.93106600  0.74978200  1
