# generated using pymatgen
data_Ba2Nd2Fe3CoO12
_symmetry_space_group_name_H-M   'P 1'
_cell_length_a   5.56698700
_cell_length_b   5.56698700
_cell_length_c   7.93854200
_cell_angle_alpha   90.00000000
_cell_angle_beta   90.00000000
_cell_angle_gamma   90.00000000
_symmetry_Int_Tables_number   1
_chemical_formula_structural   Ba2Nd2Fe3CoO12
_chemical_formula_sum   'Ba2 Nd2 Fe3 Co1 O12'
_cell_volume   246.02608803
_cell_formula_units_Z   1
loop_
 _symmetry_equiv_pos_site_id
 _symmetry_equiv_pos_as_xyz
  1  'x, y, z'
loop_
 _atom_site_type_symbol
 _atom_site_label
 _atom_site_symmetry_multiplicity
 _atom_site_fract_x
 _atom_site_fract_y
 _atom_site_fract_z
 _atom_site_occupancy
  Ba  Ba0  1  0.50000000  0.00000000  0.74913100  1
  Ba  Ba1  1  0.00000000  0.50000000  0.25086900  1
  Nd  Nd2  1  0.00000000  0.50000000  0.74581300  1
  Nd  Nd3  1  0.50000000  0.00000000  0.25418700  1
  Fe  Fe4  1  0.00000000  0.00000000  0.50000000  1
  Fe  Fe5  1  0.50000000  0.50000000  0.00000000  1
  Fe  Fe6  1  0.00000000  0.00000000  0.00000000  1
  Co  Co7  1  0.50000000  0.50000000  0.50000000  1
  O  O8  1  0.74452000  0.74452000  0.50000000  1
  O  O9  1  0.25548000  0.25548000  0.50000000  1
  O  O10  1  0.74978900  0.74978900  0.00000000  1
  O  O11  1  0.25021100  0.25021100  0.00000000  1
  O  O12  1  0.25548000  0.74452000  0.50000000  1
  O  O13  1  0.74452000  0.25548000  0.50000000  1
  O  O14  1  0.25021100  0.74978900  0.00000000  1
  O  O15  1  0.74978900  0.25021100  0.00000000  1
  O  O16  1  0.50000000  0.50000000  0.74727800  1
  O  O17  1  0.00000000  0.00000000  0.74844300  1
  O  O18  1  0.50000000  0.50000000  0.25272200  1
  O  O19  1  0.00000000  0.00000000  0.25155700  1
