# generated using pymatgen
data_Ba2NaSr2(SbO4)3
_symmetry_space_group_name_H-M   'P 1'
_cell_length_a   8.33626940
_cell_length_b   8.33626940
_cell_length_c   8.27558400
_cell_angle_alpha   90.00000000
_cell_angle_beta   90.00000000
_cell_angle_gamma   90.49104576
_symmetry_Int_Tables_number   1
_chemical_formula_structural   Ba2NaSr2(SbO4)3
_chemical_formula_sum   'Ba4 Na2 Sr4 Sb6 O24'
_cell_volume   575.07724476
_cell_formula_units_Z   2
loop_
 _symmetry_equiv_pos_site_id
 _symmetry_equiv_pos_as_xyz
  1  'x, y, z'
loop_
 _atom_site_type_symbol
 _atom_site_label
 _atom_site_symmetry_multiplicity
 _atom_site_fract_x
 _atom_site_fract_y
 _atom_site_fract_z
 _atom_site_occupancy
  Ba  Ba0  1  0.24988000  0.24988000  0.25412900  1
  Ba  Ba1  1  0.75012000  0.75012000  0.74587100  1
  Ba  Ba2  1  0.25012000  0.25012000  0.75412900  1
  Ba  Ba3  1  0.74988000  0.74988000  0.24587100  1
  Na  Na4  1  0.00000000  0.00000000  0.00000000  1
  Na  Na5  1  0.50000000  0.50000000  0.50000000  1
  Sr  Sr6  1  0.24710100  0.74710100  0.25000000  1
  Sr  Sr7  1  0.25289900  0.75289900  0.75000000  1
  Sr  Sr8  1  0.75289900  0.25289900  0.75000000  1
  Sr  Sr9  1  0.74710100  0.24710100  0.25000000  1
  Sb  Sb10  1  0.00000000  0.50000000  0.00000000  1
  Sb  Sb11  1  0.50000000  0.00000000  0.00000000  1
  Sb  Sb12  1  0.00000000  0.50000000  0.50000000  1
  Sb  Sb13  1  0.50000000  0.00000000  0.50000000  1
  Sb  Sb14  1  0.50000000  0.50000000  0.00000000  1
  Sb  Sb15  1  0.00000000  0.00000000  0.50000000  1
  O  O16  1  0.96917000  0.46917000  0.25000000  1
  O  O17  1  0.53083000  0.03083000  0.75000000  1
  O  O18  1  0.03083000  0.53083000  0.75000000  1
  O  O19  1  0.46917000  0.96917000  0.25000000  1
  O  O20  1  0.01731400  0.01731400  0.27063100  1
  O  O21  1  0.98268600  0.98268600  0.72936900  1
  O  O22  1  0.48268600  0.48268600  0.77063100  1
  O  O23  1  0.51731400  0.51731400  0.22936900  1
  O  O24  1  0.00577700  0.72831900  0.02508200  1
  O  O25  1  0.27168100  0.99422300  0.97491800  1
  O  O26  1  0.77168100  0.49422300  0.52508200  1
  O  O27  1  0.50577700  0.22831900  0.47491800  1
  O  O28  1  0.99422300  0.27168100  0.97491800  1
  O  O29  1  0.72831900  0.00577700  0.02508200  1
  O  O30  1  0.22831900  0.50577700  0.47491800  1
  O  O31  1  0.49422300  0.77168100  0.52508200  1
  O  O32  1  0.00328500  0.74978200  0.47434100  1
  O  O33  1  0.25021800  0.99671500  0.52565900  1
  O  O34  1  0.75021800  0.49671500  0.97434100  1
  O  O35  1  0.50328500  0.24978200  0.02565900  1
  O  O36  1  0.99671500  0.25021800  0.52565900  1
  O  O37  1  0.74978200  0.00328500  0.47434100  1
  O  O38  1  0.24978200  0.50328500  0.02565900  1
  O  O39  1  0.49671500  0.75021800  0.97434100  1
