# generated using pymatgen
data_Ba7Hg31
_symmetry_space_group_name_H-M   'P 1'
_cell_length_a   11.44710772
_cell_length_b   11.44710772
_cell_length_c   10.16955400
_cell_angle_alpha   90.00000000
_cell_angle_beta   90.00000000
_cell_angle_gamma   119.99999836
_symmetry_Int_Tables_number   1
_chemical_formula_structural   Ba7Hg31
_chemical_formula_sum   'Ba7 Hg31'
_cell_volume   1154.04856321
_cell_formula_units_Z   1
loop_
 _symmetry_equiv_pos_site_id
 _symmetry_equiv_pos_as_xyz
  1  'x, y, z'
loop_
 _atom_site_type_symbol
 _atom_site_label
 _atom_site_symmetry_multiplicity
 _atom_site_fract_x
 _atom_site_fract_y
 _atom_site_fract_z
 _atom_site_occupancy
  Ba  Ba0  1  0.66666700  0.33333300  0.00000000  1
  Ba  Ba1  1  0.00000000  0.00000000  0.00000000  1
  Ba  Ba2  1  0.83537800  0.67075500  0.50000000  1
  Ba  Ba3  1  0.32924500  0.16462200  0.50000000  1
  Ba  Ba4  1  0.83537800  0.16462200  0.50000000  1
  Ba  Ba5  1  0.33333300  0.66666700  0.78539800  1
  Ba  Ba6  1  0.33333300  0.66666700  0.21460200  1
  Hg  Hg7  1  0.06638100  0.66692000  0.00000000  1
  Hg  Hg8  1  0.33308000  0.39946000  0.00000000  1
  Hg  Hg9  1  0.60054000  0.93361900  0.00000000  1
  Hg  Hg10  1  0.60054000  0.66692000  0.00000000  1
  Hg  Hg11  1  0.33308000  0.93361900  0.00000000  1
  Hg  Hg12  1  0.06638100  0.39946000  0.00000000  1
  Hg  Hg13  1  0.83412000  0.66824100  0.83775400  1
  Hg  Hg14  1  0.33175900  0.16588000  0.83775400  1
  Hg  Hg15  1  0.83412000  0.16588000  0.83775400  1
  Hg  Hg16  1  0.83412000  0.66824100  0.16224600  1
  Hg  Hg17  1  0.33175900  0.16588000  0.16224600  1
  Hg  Hg18  1  0.83412000  0.16588000  0.16224600  1
  Hg  Hg19  1  0.66666700  0.33333300  0.64784900  1
  Hg  Hg20  1  0.00000000  0.00000000  0.64944000  1
  Hg  Hg21  1  0.00000000  0.00000000  0.35056000  1
  Hg  Hg22  1  0.66666700  0.33333300  0.35215100  1
  Hg  Hg23  1  0.95382300  0.47691100  0.73189300  1
  Hg  Hg24  1  0.52308900  0.47691100  0.73189300  1
  Hg  Hg25  1  0.52308900  0.04617700  0.73189300  1
  Hg  Hg26  1  0.14966500  0.85033500  0.71554600  1
  Hg  Hg27  1  0.70067000  0.85033500  0.71554600  1
  Hg  Hg28  1  0.14966500  0.29933000  0.71554600  1
  Hg  Hg29  1  0.70067000  0.85033500  0.28445400  1
  Hg  Hg30  1  0.14966500  0.85033500  0.28445400  1
  Hg  Hg31  1  0.14966500  0.29933000  0.28445400  1
  Hg  Hg32  1  0.52308900  0.47691100  0.26810700  1
  Hg  Hg33  1  0.95382300  0.47691100  0.26810700  1
  Hg  Hg34  1  0.52308900  0.04617700  0.26810700  1
  Hg  Hg35  1  0.13597700  0.56798900  0.50000000  1
  Hg  Hg36  1  0.43201100  0.56798900  0.50000000  1
  Hg  Hg37  1  0.43201100  0.86402300  0.50000000  1
