# generated using pymatgen
data_Ba8Ti3Co(SiO4)8
_symmetry_space_group_name_H-M   'P 1'
_cell_length_a   12.17342500
_cell_length_b   12.17342500
_cell_length_c   5.32213100
_cell_angle_alpha   90.00000000
_cell_angle_beta   90.00000000
_cell_angle_gamma   90.00000000
_symmetry_Int_Tables_number   1
_chemical_formula_structural   Ba8Ti3Co(SiO4)8
_chemical_formula_sum   'Ba8 Ti3 Co1 Si8 O32'
_cell_volume   788.69870729
_cell_formula_units_Z   1
loop_
 _symmetry_equiv_pos_site_id
 _symmetry_equiv_pos_as_xyz
  1  'x, y, z'
loop_
 _atom_site_type_symbol
 _atom_site_label
 _atom_site_symmetry_multiplicity
 _atom_site_fract_x
 _atom_site_fract_y
 _atom_site_fract_z
 _atom_site_occupancy
  Ba  Ba0  1  0.75041300  0.42299800  0.99670700  1
  Ba  Ba1  1  0.25010400  0.92294600  0.99904500  1
  Ba  Ba2  1  0.24958700  0.57700200  0.99670700  1
  Ba  Ba3  1  0.74989600  0.07705400  0.99904500  1
  Ba  Ba4  1  0.92294600  0.74989600  0.99904500  1
  Ba  Ba5  1  0.42299800  0.24958700  0.99670700  1
  Ba  Ba6  1  0.07705400  0.25010400  0.99904500  1
  Ba  Ba7  1  0.57700200  0.75041300  0.99670700  1
  Ti  Ti8  1  0.00000000  0.50000000  0.53902700  1
  Ti  Ti9  1  0.50000000  0.00000000  0.53902700  1
  Ti  Ti10  1  0.00000000  0.00000000  0.53887200  1
  Co  Co11  1  0.50000000  0.50000000  0.54333500  1
  Si  Si12  1  0.74844500  0.62092300  0.51552100  1
  Si  Si13  1  0.25007200  0.12193800  0.51562500  1
  Si  Si14  1  0.25155500  0.37907700  0.51552100  1
  Si  Si15  1  0.74992800  0.87806200  0.51562500  1
  Si  Si16  1  0.12193800  0.74992800  0.51562500  1
  Si  Si17  1  0.62092300  0.25155500  0.51552100  1
  Si  Si18  1  0.87806200  0.25007200  0.51562500  1
  Si  Si19  1  0.37907700  0.74844500  0.51552100  1
  O  O20  1  0.00000000  0.50000000  0.21825200  1
  O  O21  1  0.50000000  0.00000000  0.21825200  1
  O  O22  1  0.00000000  0.00000000  0.21825000  1
  O  O23  1  0.50000000  0.50000000  0.22173400  1
  O  O24  1  0.74860100  0.62319100  0.21419100  1
  O  O25  1  0.24994400  0.12369500  0.21436100  1
  O  O26  1  0.25139900  0.37680900  0.21419100  1
  O  O27  1  0.75005600  0.87630500  0.21436100  1
  O  O28  1  0.12369500  0.75005600  0.21436100  1
  O  O29  1  0.62319100  0.25139900  0.21419100  1
  O  O30  1  0.87630500  0.24994400  0.21436100  1
  O  O31  1  0.37680900  0.74860100  0.21419100  1
  O  O32  1  0.64140900  0.56343800  0.64961700  1
  O  O33  1  0.14243500  0.06454200  0.64700600  1
  O  O34  1  0.35859100  0.43656200  0.64961700  1
  O  O35  1  0.85756500  0.93545800  0.64700600  1
  O  O36  1  0.06439900  0.64234300  0.64703800  1
  O  O37  1  0.56442600  0.14302400  0.64601000  1
  O  O38  1  0.93560100  0.35765700  0.64703800  1
  O  O39  1  0.43557400  0.85697600  0.64601000  1
  O  O40  1  0.93545800  0.14243500  0.64700600  1
  O  O41  1  0.43656200  0.64140900  0.64961700  1
  O  O42  1  0.06454200  0.85756500  0.64700600  1
  O  O43  1  0.56343800  0.35859100  0.64961700  1
  O  O44  1  0.85697600  0.56442600  0.64601000  1
  O  O45  1  0.35765700  0.06439900  0.64703800  1
  O  O46  1  0.14302400  0.43557400  0.64601000  1
  O  O47  1  0.64234300  0.93560100  0.64703800  1
  O  O48  1  0.74968900  0.74965000  0.63203200  1
  O  O49  1  0.25031100  0.25035000  0.63203200  1
  O  O50  1  0.74965000  0.25031100  0.63203200  1
  O  O51  1  0.25035000  0.74968900  0.63203200  1
