# generated using pymatgen
data_Ba6La2Ga4O15
_symmetry_space_group_name_H-M   'P 1'
_cell_length_a   11.96754527
_cell_length_b   11.96754527
_cell_length_c   7.20463458
_cell_angle_alpha   89.69537624
_cell_angle_beta   89.69537624
_cell_angle_gamma   119.69418100
_symmetry_Int_Tables_number   1
_chemical_formula_structural   Ba6La2Ga4O15
_chemical_formula_sum   'Ba12 La4 Ga8 O30'
_cell_volume   896.31058478
_cell_formula_units_Z   2
loop_
 _symmetry_equiv_pos_site_id
 _symmetry_equiv_pos_as_xyz
  1  'x, y, z'
loop_
 _atom_site_type_symbol
 _atom_site_label
 _atom_site_symmetry_multiplicity
 _atom_site_fract_x
 _atom_site_fract_y
 _atom_site_fract_z
 _atom_site_occupancy
  Ba  Ba0  1  0.00047300  0.99990000  0.49334600  1
  Ba  Ba1  1  0.99990000  0.00047300  0.99334600  1
  Ba  Ba2  1  0.66923000  0.33445800  0.00751100  1
  Ba  Ba3  1  0.33445800  0.66923000  0.50751100  1
  Ba  Ba4  1  0.52114500  0.04347400  0.65526500  1
  Ba  Ba5  1  0.04347400  0.52114500  0.15526500  1
  Ba  Ba6  1  0.82821600  0.65321700  0.32357100  1
  Ba  Ba7  1  0.34581500  0.17084300  0.32352600  1
  Ba  Ba8  1  0.82519800  0.17314200  0.32367000  1
  Ba  Ba9  1  0.17084300  0.34581500  0.82352600  1
  Ba  Ba10  1  0.65321700  0.82821600  0.82357100  1
  Ba  Ba11  1  0.17314200  0.82519800  0.82367000  1
  La  La12  1  0.95791800  0.47887800  0.65227300  1
  La  La13  1  0.51997700  0.47993900  0.64740000  1
  La  La14  1  0.47887800  0.95791800  0.15227300  1
  La  La15  1  0.47993900  0.51997700  0.14740000  1
  Ga  Ga16  1  0.81832600  0.64421500  0.81833600  1
  Ga  Ga17  1  0.35790400  0.18081200  0.82724000  1
  Ga  Ga18  1  0.81985500  0.17630600  0.82179200  1
  Ga  Ga19  1  0.18081200  0.35790400  0.32724000  1
  Ga  Ga20  1  0.64421500  0.81832600  0.31833600  1
  Ga  Ga21  1  0.17630600  0.81985500  0.32179200  1
  Ga  Ga22  1  0.66144000  0.33154200  0.45874700  1
  Ga  Ga23  1  0.33154200  0.66144000  0.95874700  1
  O  O24  1  0.74754100  0.50468800  0.64438800  1
  O  O25  1  0.49722600  0.25991800  0.64537900  1
  O  O26  1  0.75900200  0.25722700  0.64652700  1
  O  O27  1  0.25991800  0.49722600  0.14537900  1
  O  O28  1  0.50468800  0.74754100  0.14438800  1
  O  O29  1  0.25722700  0.75900200  0.14652700  1
  O  O30  1  0.33168100  0.39722200  0.45587500  1
  O  O31  1  0.60695600  0.93114200  0.43993000  1
  O  O32  1  0.06645200  0.67673200  0.47190600  1
  O  O33  1  0.60374900  0.66737900  0.45294300  1
  O  O34  1  0.07007700  0.39122200  0.47250400  1
  O  O35  1  0.32484600  0.93352100  0.44251600  1
  O  O36  1  0.66737900  0.60374900  0.95294300  1
  O  O37  1  0.39122200  0.07007700  0.97250400  1
  O  O38  1  0.93352100  0.32484600  0.94251600  1
  O  O39  1  0.39722200  0.33168100  0.95587500  1
  O  O40  1  0.93114200  0.60695600  0.93993000  1
  O  O41  1  0.67673200  0.06645200  0.97190600  1
  O  O42  1  0.09908200  0.19696700  0.22290400  1
  O  O43  1  0.80804000  0.89799100  0.22097500  1
  O  O44  1  0.09126600  0.89763900  0.21906700  1
  O  O45  1  0.89799100  0.80804000  0.72097500  1
  O  O46  1  0.19696700  0.09908100  0.72290400  1
  O  O47  1  0.89763900  0.09126600  0.71906700  1
  O  O48  1  0.58346200  0.17270700  0.31057300  1
  O  O49  1  0.82292800  0.41377900  0.32990300  1
  O  O50  1  0.58129100  0.41674300  0.31964300  1
  O  O51  1  0.41377900  0.82292800  0.82990300  1
  O  O52  1  0.17270700  0.58346200  0.81057300  1
  O  O53  1  0.41674300  0.58129100  0.81964300  1
