# generated using pymatgen
data_Ba8Ta2Ru3(BrO9)2
_symmetry_space_group_name_H-M   'P 1'
_cell_length_a   5.93921965
_cell_length_b   5.93921900
_cell_length_c   20.18111222
_cell_angle_alpha   81.53831590
_cell_angle_beta   98.46168394
_cell_angle_gamma   120.00000192
_symmetry_Int_Tables_number   1
_chemical_formula_structural   Ba8Ta2Ru3(BrO9)2
_chemical_formula_sum   'Ba8 Ta2 Ru3 Br2 O18'
_cell_volume   607.53754827
_cell_formula_units_Z   1
loop_
 _symmetry_equiv_pos_site_id
 _symmetry_equiv_pos_as_xyz
  1  'x, y, z'
loop_
 _atom_site_type_symbol
 _atom_site_label
 _atom_site_symmetry_multiplicity
 _atom_site_fract_x
 _atom_site_fract_y
 _atom_site_fract_z
 _atom_site_occupancy
  Ba  Ba0  1  0.55919200  0.44080800  0.67757500  1
  Ba  Ba1  1  0.44080800  0.55919200  0.32242500  1
  Ba  Ba2  1  0.63104700  0.36895300  0.89314100  1
  Ba  Ba3  1  0.36895300  0.63104700  0.10685900  1
  Ba  Ba4  1  0.81182100  0.18817900  0.43546300  1
  Ba  Ba5  1  0.18817900  0.81182100  0.56453700  1
  Ba  Ba6  1  0.74180500  0.25819500  0.22541600  1
  Ba  Ba7  1  0.25819500  0.74180500  0.77458400  1
  Ta  Ta8  1  0.91864400  0.08135600  0.75593200  1
  Ta  Ta9  1  0.08135600  0.91864400  0.24406800  1
  Ru  Ru10  1  0.50000000  0.50000000  0.50000000  1
  Ru  Ru11  1  0.87051800  0.12948200  0.61155400  1
  Ru  Ru12  1  0.12948200  0.87051800  0.38844600  1
  Br  Br13  1  0.68688600  0.31311400  0.06065700  1
  Br  Br14  1  0.31311400  0.68688600  0.93934300  1
  O  O15  1  0.95742900  0.04257100  0.32135600  1
  O  O16  1  0.40649800  0.04257100  0.32135600  1
  O  O17  1  0.95742900  0.59350200  0.32135600  1
  O  O18  1  0.04257100  0.95742900  0.67864400  1
  O  O19  1  0.59350200  0.95742900  0.67864400  1
  O  O20  1  0.04257100  0.40649800  0.67864400  1
  O  O21  1  0.22986700  0.77013300  0.20032300  1
  O  O22  1  0.74058800  0.77013300  0.20032300  1
  O  O23  1  0.22986700  0.25941200  0.20032300  1
  O  O24  1  0.77013300  0.22986700  0.79967700  1
  O  O25  1  0.25941200  0.22986700  0.79967700  1
  O  O26  1  0.77013300  0.74058800  0.79967700  1
  O  O27  1  0.68339600  0.31660400  0.55810400  1
  O  O28  1  0.19131200  0.31660400  0.55810400  1
  O  O29  1  0.68339600  0.80868800  0.55810400  1
  O  O30  1  0.31660400  0.68339600  0.44189600  1
  O  O31  1  0.80868800  0.68339600  0.44189600  1
  O  O32  1  0.31660400  0.19131200  0.44189600  1
