# generated using pymatgen
data_Ba2CaEr3(NiO5)2
_symmetry_space_group_name_H-M   'P 1'
_cell_length_a   6.61453282
_cell_length_b   6.61453282
_cell_length_c   6.90340896
_cell_angle_alpha   102.38652528
_cell_angle_beta   77.61347472
_cell_angle_gamma   62.91073083
_symmetry_Int_Tables_number   1
_chemical_formula_structural   Ba2CaEr3(NiO5)2
_chemical_formula_sum   'Ba2 Ca1 Er3 Ni2 O10'
_cell_volume   245.13508626
_cell_formula_units_Z   1
loop_
 _symmetry_equiv_pos_site_id
 _symmetry_equiv_pos_as_xyz
  1  'x, y, z'
loop_
 _atom_site_type_symbol
 _atom_site_label
 _atom_site_symmetry_multiplicity
 _atom_site_fract_x
 _atom_site_fract_y
 _atom_site_fract_z
 _atom_site_occupancy
  Ba  Ba0  1  0.00082600  0.99972500  0.50250000  1
  Ba  Ba1  1  0.49972500  0.50082600  0.99750000  1
  Ca  Ca2  1  0.04337700  0.54337700  0.75000000  1
  Er  Er3  1  0.54543600  0.04543600  0.25000000  1
  Er  Er4  1  0.45644800  0.95644800  0.75000000  1
  Er  Er5  1  0.95606800  0.45606800  0.25000000  1
  Ni  Ni6  1  0.99776800  0.99841700  0.99943500  1
  Ni  Ni7  1  0.49841700  0.49776800  0.50056500  1
  O  O8  1  0.72256300  0.98381400  0.88855600  1
  O  O9  1  0.24299000  0.46561100  0.36986400  1
  O  O10  1  0.75685800  0.52893200  0.61225000  1
  O  O11  1  0.26718500  0.02940200  0.12107100  1
  O  O12  1  0.02893200  0.25685800  0.88775000  1
  O  O13  1  0.52940200  0.76718500  0.37892900  1
  O  O14  1  0.48381400  0.22256300  0.61144400  1
  O  O15  1  0.96561100  0.74299000  0.13013600  1
  O  O16  1  0.25330500  0.75330500  0.75000000  1
  O  O17  1  0.75127600  0.25127600  0.25000000  1
