# generated using pymatgen
data_Ba2As6O11
_symmetry_space_group_name_H-M   'P 1'
_cell_length_a   5.35218700
_cell_length_b   7.32986970
_cell_length_c   9.57520246
_cell_angle_alpha   69.92813871
_cell_angle_beta   86.14813688
_cell_angle_gamma   84.22838253
_symmetry_Int_Tables_number   1
_chemical_formula_structural   Ba2As6O11
_chemical_formula_sum   'Ba2 As6 O11'
_cell_volume   350.82458913
_cell_formula_units_Z   1
loop_
 _symmetry_equiv_pos_site_id
 _symmetry_equiv_pos_as_xyz
  1  'x, y, z'
loop_
 _atom_site_type_symbol
 _atom_site_label
 _atom_site_symmetry_multiplicity
 _atom_site_fract_x
 _atom_site_fract_y
 _atom_site_fract_z
 _atom_site_occupancy
  Ba  Ba0  1  0.21774500  0.31142700  0.41617000  1
  Ba  Ba1  1  0.74246700  0.69852200  0.56293000  1
  As  As2  1  0.73680700  0.12763100  0.18628100  1
  As  As3  1  0.26049600  0.88420700  0.82046600  1
  As  As4  1  0.80170900  0.59492300  0.11770600  1
  As  As5  1  0.19506200  0.42043400  0.90833800  1
  As  As6  1  0.25413400  0.85766300  0.27360700  1
  As  As7  1  0.73659500  0.13673100  0.73922700  1
  O  O8  1  0.98956300  0.02428800  0.32016300  1
  O  O9  1  0.00501200  0.97621100  0.68976000  1
  O  O10  1  0.90925500  0.45587400  0.83046300  1
  O  O11  1  0.11680700  0.48221000  0.08134200  1
  O  O12  1  0.67157900  0.35237800  0.22818900  1
  O  O13  1  0.33874100  0.65560600  0.79190900  1
  O  O14  1  0.27547600  0.67756800  0.44556800  1
  O  O15  1  0.74902400  0.32523800  0.57293200  1
  O  O16  1  0.48965500  0.01521000  0.31800800  1
  O  O17  1  0.49265600  0.00845400  0.67902800  1
  O  O18  1  0.89041700  0.64772600  0.26901500  1
