# generated using pymatgen
data_BaFeP3H2O11
_symmetry_space_group_name_H-M   'P 1'
_cell_length_a   6.97431819
_cell_length_b   7.78625622
_cell_length_c   8.83808067
_cell_angle_alpha   107.15964528
_cell_angle_beta   101.63688379
_cell_angle_gamma   95.60132850
_symmetry_Int_Tables_number   1
_chemical_formula_structural   BaFeP3H2O11
_chemical_formula_sum   'Ba2 Fe2 P6 H4 O22'
_cell_volume   442.77670450
_cell_formula_units_Z   2
loop_
 _symmetry_equiv_pos_site_id
 _symmetry_equiv_pos_as_xyz
  1  'x, y, z'
loop_
 _atom_site_type_symbol
 _atom_site_label
 _atom_site_symmetry_multiplicity
 _atom_site_fract_x
 _atom_site_fract_y
 _atom_site_fract_z
 _atom_site_occupancy
  Ba  Ba0  1  0.33030000  0.16905000  0.83782600  1
  Ba  Ba1  1  0.66839300  0.83043500  0.15633300  1
  Fe  Fe2  1  0.49357800  0.49848500  0.49546300  1
  Fe  Fe3  1  0.00251900  0.50146100  0.00362500  1
  P  P4  1  0.77902300  0.20277100  0.62687400  1
  P  P5  1  0.21640900  0.80324700  0.37635000  1
  P  P6  1  0.89843400  0.73912700  0.76833800  1
  P  P7  1  0.09490900  0.24986800  0.22387700  1
  P  P8  1  0.29047800  0.64400800  0.80160800  1
  P  P9  1  0.70798600  0.35420700  0.19539500  1
  H  H10  1  0.65206900  0.94816000  0.66159000  1
  H  H11  1  0.34682300  0.05069000  0.33486900  1
  H  H12  1  0.98155900  0.01255900  0.49960500  1
  H  H13  1  0.99542400  0.99416800  0.98287000  1
  O  O14  1  0.37391100  0.49664400  0.68867400  1
  O  O15  1  0.62355400  0.50103500  0.30864500  1
  O  O16  1  0.85168600  0.65920200  0.89833900  1
  O  O17  1  0.14652300  0.33419800  0.09656000  1
  O  O18  1  0.66172600  0.33135600  0.56523100  1
  O  O19  1  0.33200400  0.67163500  0.43812700  1
  O  O20  1  0.06710700  0.64283600  0.69487400  1
  O  O21  1  0.93100700  0.35458400  0.30073100  1
  O  O22  1  0.84568800  0.07123400  0.48276200  1
  O  O23  1  0.14446300  0.93512800  0.51204000  1
  O  O24  1  0.71914700  0.72113000  0.63083300  1
  O  O25  1  0.27647200  0.27250000  0.36242000  1
  O  O26  1  0.62543700  0.07533300  0.67852200  1
  O  O27  1  0.37446900  0.92416900  0.32148800  1
  O  O28  1  0.26093100  0.58366600  0.94982700  1
  O  O29  1  0.73854200  0.41574300  0.04777300  1
  O  O30  1  0.41006100  0.83404800  0.85965400  1
  O  O31  1  0.58613100  0.16503700  0.13623900  1
  O  O32  1  0.95528600  0.29572300  0.77352400  1
  O  O33  1  0.04620800  0.70266500  0.22401100  1
  O  O34  1  0.99091000  0.94516200  0.85048700  1
  O  O35  1  0.99983200  0.04873400  0.13961500  1
