# generated using pymatgen
data_Ba2Ti4O13
_symmetry_space_group_name_H-M   'P 1'
_cell_length_a   7.55264289
_cell_length_b   7.55264289
_cell_length_c   9.75228895
_cell_angle_alpha   81.54864018
_cell_angle_beta   81.54864018
_cell_angle_gamma   30.10024479
_symmetry_Int_Tables_number   1
_chemical_formula_structural   Ba2Ti4O13
_chemical_formula_sum   'Ba2 Ti4 O13'
_cell_volume   275.73964677
_cell_formula_units_Z   1
loop_
 _symmetry_equiv_pos_site_id
 _symmetry_equiv_pos_as_xyz
  1  'x, y, z'
loop_
 _atom_site_type_symbol
 _atom_site_label
 _atom_site_symmetry_multiplicity
 _atom_site_fract_x
 _atom_site_fract_y
 _atom_site_fract_z
 _atom_site_occupancy
  Ba  Ba0  1  0.42378300  0.42378300  0.76115800  1
  Ba  Ba1  1  0.57621700  0.57621700  0.23884200  1
  Ti  Ti2  1  0.13107700  0.13107700  0.88137300  1
  Ti  Ti3  1  0.86892300  0.86892300  0.11862700  1
  Ti  Ti4  1  0.16891700  0.16891700  0.57236700  1
  Ti  Ti5  1  0.83108300  0.83108300  0.42763300  1
  O  O6  1  0.11353300  0.11353300  0.41851700  1
  O  O7  1  0.88646700  0.88646700  0.58148300  1
  O  O8  1  0.38196800  0.38196800  0.10807500  1
  O  O9  1  0.61803200  0.61803200  0.89192500  1
  O  O10  1  0.15568700  0.15568700  0.06460400  1
  O  O11  1  0.84431300  0.84431300  0.93539600  1
  O  O12  1  0.06496300  0.06496300  0.71188400  1
  O  O13  1  0.93503700  0.93503700  0.28811600  1
  O  O14  1  0.23690300  0.23690300  0.75136600  1
  O  O15  1  0.76309700  0.76309700  0.24863400  1
  O  O16  1  0.30578000  0.30578000  0.45171600  1
  O  O17  1  0.69422000  0.69422000  0.54828400  1
  O  O18  1  0.00000000  0.00000000  0.00000000  1
