# generated using pymatgen
data_Ba4Ti11O26
_symmetry_space_group_name_H-M   'P 1'
_cell_length_a   7.85805400
_cell_length_b   7.92014738
_cell_length_c   10.04550049
_cell_angle_alpha   76.16171673
_cell_angle_beta   67.00024005
_cell_angle_gamma   75.70259487
_symmetry_Int_Tables_number   1
_chemical_formula_structural   Ba4Ti11O26
_chemical_formula_sum   'Ba4 Ti11 O26'
_cell_volume   550.49516834
_cell_formula_units_Z   1
loop_
 _symmetry_equiv_pos_site_id
 _symmetry_equiv_pos_as_xyz
  1  'x, y, z'
loop_
 _atom_site_type_symbol
 _atom_site_label
 _atom_site_symmetry_multiplicity
 _atom_site_fract_x
 _atom_site_fract_y
 _atom_site_fract_z
 _atom_site_occupancy
  Ba  Ba0  1  0.86111800  0.09301000  0.23090700  1
  Ba  Ba1  1  0.36538500  0.09578700  0.22221400  1
  Ba  Ba2  1  0.14253800  0.87802000  0.76330700  1
  Ba  Ba3  1  0.65291000  0.88602400  0.76485800  1
  Ti  Ti4  1  0.37443000  0.34519700  0.56519800  1
  Ti  Ti5  1  0.88801800  0.34612600  0.56731000  1
  Ti  Ti6  1  0.61363600  0.66327200  0.44115900  1
  Ti  Ti7  1  0.10859300  0.66590300  0.44947500  1
  Ti  Ti8  1  0.22659200  0.25092300  0.89374300  1
  Ti  Ti9  1  0.75298500  0.24386000  0.89964900  1
  Ti  Ti10  1  0.76660300  0.76015700  0.08491500  1
  Ti  Ti11  1  0.26243400  0.76710600  0.09338400  1
  Ti  Ti12  1  0.48804000  0.50708700  0.77674000  1
  Ti  Ti13  1  0.01740000  0.47623300  0.22970400  1
  Ti  Ti14  1  0.51413200  0.47771500  0.22979000  1
  O  O15  1  0.26307200  0.46535400  0.75849200  1
  O  O16  1  0.74543800  0.46561400  0.75765200  1
  O  O17  1  0.74784300  0.52717100  0.24154000  1
  O  O18  1  0.25450300  0.51115500  0.23426300  1
  O  O19  1  0.61391500  0.39985300  0.57165000  1
  O  O20  1  0.12242400  0.40214300  0.55379500  1
  O  O21  1  0.38459200  0.59996300  0.43136400  1
  O  O22  1  0.88419000  0.60039800  0.43071100  1
  O  O23  1  0.50645300  0.73409800  0.62110100  1
  O  O24  1  0.00681500  0.79265000  0.58762000  1
  O  O25  1  0.49751100  0.26742800  0.38240300  1
  O  O26  1  0.98598300  0.26878300  0.38203700  1
  O  O27  1  0.37903100  0.66029100  0.91344900  1
  O  O28  1  0.86775200  0.69246800  0.91688600  1
  O  O29  1  0.62770200  0.34357300  0.08603100  1
  O  O30  1  0.11574800  0.33869100  0.08657500  1
  O  O31  1  0.48315600  0.27143100  0.89569300  1
  O  O32  1  0.98874400  0.22691500  0.90979300  1
  O  O33  1  0.50693400  0.72414000  0.11914700  1
  O  O34  1  0.01223400  0.72831600  0.11648000  1
  O  O35  1  0.62803900  0.86253500  0.31099900  1
  O  O36  1  0.14518900  0.84906100  0.28634500  1
  O  O37  1  0.35508300  0.14487600  0.70474400  1
  O  O38  1  0.86647700  0.14581600  0.70642900  1
  O  O39  1  0.72801300  0.00841000  0.01065000  1
  O  O40  1  0.26329600  0.99624900  0.99999600  1
