# generated using pymatgen
data_K5Na3Ta7NbO24
_symmetry_space_group_name_H-M   'P 1'
_cell_length_a   8.02436584
_cell_length_b   8.02436584
_cell_length_c   8.02353601
_cell_angle_alpha   89.99845994
_cell_angle_beta   89.99845994
_cell_angle_gamma   90.00134301
_symmetry_Int_Tables_number   1
_chemical_formula_structural   K5Na3Ta7NbO24
_chemical_formula_sum   'K5 Na3 Ta7 Nb1 O24'
_cell_volume   516.63907053
_cell_formula_units_Z   1
loop_
 _symmetry_equiv_pos_site_id
 _symmetry_equiv_pos_as_xyz
  1  'x, y, z'
loop_
 _atom_site_type_symbol
 _atom_site_label
 _atom_site_symmetry_multiplicity
 _atom_site_fract_x
 _atom_site_fract_y
 _atom_site_fract_z
 _atom_site_occupancy
  K  K0  1  0.74995000  0.74995000  0.25005000  1
  K  K1  1  0.25005800  0.74995800  0.25004800  1
  K  K2  1  0.74995800  0.25005800  0.25004800  1
  K  K3  1  0.25004000  0.25004000  0.25004100  1
  K  K4  1  0.25005000  0.25005000  0.74994900  1
  Na  Na5  1  0.74999200  0.74999200  0.74999200  1
  Na  Na6  1  0.25000800  0.74999200  0.74999300  1
  Na  Na7  1  0.74999200  0.25000800  0.74999300  1
  Ta  Ta8  1  0.99977000  0.99977000  0.99930300  1
  Ta  Ta9  1  0.99977000  0.99977000  0.50070000  1
  Ta  Ta10  1  0.50022900  0.99977300  0.99930800  1
  Ta  Ta11  1  0.50022900  0.99977000  0.50069600  1
  Ta  Ta12  1  0.99977300  0.50022900  0.99930800  1
  Ta  Ta13  1  0.99977000  0.50022900  0.50069600  1
  Ta  Ta14  1  0.50023100  0.50023100  0.99930800  1
  Nb  Nb15  1  0.50021700  0.50021700  0.50066600  1
  O  O16  1  0.99991400  0.75000500  0.99837800  1
  O  O17  1  0.99991600  0.75008700  0.50162800  1
  O  O18  1  0.50008300  0.75008500  0.99837100  1
  O  O19  1  0.50008000  0.75104000  0.50161600  1
  O  O20  1  0.99922300  0.24999400  0.99904900  1
  O  O21  1  0.99922000  0.24991100  0.50095000  1
  O  O22  1  0.50077900  0.24991100  0.99904900  1
  O  O23  1  0.50077400  0.24894400  0.50093800  1
  O  O24  1  0.75000500  0.99991400  0.99837800  1
  O  O25  1  0.75008700  0.99991600  0.50162800  1
  O  O26  1  0.24999400  0.99922300  0.99904900  1
  O  O27  1  0.24991100  0.99922000  0.50095000  1
  O  O28  1  0.75008500  0.50008300  0.99837100  1
  O  O29  1  0.75104000  0.50008000  0.50161600  1
  O  O30  1  0.24991100  0.50077900  0.99904900  1
  O  O31  1  0.24894400  0.50077400  0.50093800  1
  O  O32  1  0.99991100  0.99991100  0.24999500  1
  O  O33  1  0.99923900  0.99923900  0.75000600  1
  O  O34  1  0.50008900  0.99991300  0.24990900  1
  O  O35  1  0.50076300  0.99923600  0.75008400  1
  O  O36  1  0.99991300  0.50008900  0.24990900  1
  O  O37  1  0.99923600  0.50076300  0.75008400  1
  O  O38  1  0.50008600  0.50008600  0.24893300  1
  O  O39  1  0.50075900  0.50075900  0.75102100  1
