# generated using pymatgen
data_Ba2Sr2CaTi5O15
_symmetry_space_group_name_H-M   'P 1'
_cell_length_a   3.97088600
_cell_length_b   8.87995500
_cell_length_c   8.88774370
_cell_angle_alpha   89.97734018
_cell_angle_beta   90.00000000
_cell_angle_gamma   90.00000000
_symmetry_Int_Tables_number   1
_chemical_formula_structural   Ba2Sr2CaTi5O15
_chemical_formula_sum   'Ba2 Sr2 Ca1 Ti5 O15'
_cell_volume   313.39327439
_cell_formula_units_Z   1
loop_
 _symmetry_equiv_pos_site_id
 _symmetry_equiv_pos_as_xyz
  1  'x, y, z'
loop_
 _atom_site_type_symbol
 _atom_site_label
 _atom_site_symmetry_multiplicity
 _atom_site_fract_x
 _atom_site_fract_y
 _atom_site_fract_z
 _atom_site_occupancy
  Ba  Ba0  1  0.50000000  0.09872300  0.29990400  1
  Ba  Ba1  1  0.50000000  0.30080100  0.89975900  1
  Sr  Sr2  1  0.50000000  0.50079700  0.50061700  1
  Sr  Sr3  1  0.50000000  0.70020200  0.09977500  1
  Ca  Ca4  1  0.50000000  0.89964900  0.70012900  1
  Ti  Ti5  1  0.00000000  0.60495800  0.79771000  1
  Ti  Ti6  1  0.00000000  0.79761500  0.40334200  1
  Ti  Ti7  1  0.00000000  0.99461900  0.99631500  1
  Ti  Ti8  1  0.00000000  0.19817100  0.60067800  1
  Ti  Ti9  1  0.00000000  0.40465300  0.20191700  1
  O  O10  1  0.00000000  0.70263400  0.60134900  1
  O  O11  1  0.00000000  0.89298300  0.19712100  1
  O  O12  1  0.00000000  0.09202500  0.79587700  1
  O  O13  1  0.00000000  0.30439100  0.40283900  1
  O  O14  1  0.00000000  0.50771500  0.00265000  1
  O  O15  1  0.00000000  0.40306300  0.69597500  1
  O  O16  1  0.00000000  0.60034200  0.30268900  1
  O  O17  1  0.00000000  0.80104800  0.89561100  1
  O  O18  1  0.00000000  0.99552700  0.50664700  1
  O  O19  1  0.00000000  0.19991400  0.09931500  1
  O  O20  1  0.50000000  0.60910400  0.79684900  1
  O  O21  1  0.50000000  0.79533800  0.40519200  1
  O  O22  1  0.50000000  0.99130500  0.99292000  1
  O  O23  1  0.50000000  0.19684000  0.60104600  1
  O  O24  1  0.50000000  0.40758200  0.20377200  1
