# generated using pymatgen
data_Ba4LaTiNb3O15
_symmetry_space_group_name_H-M   'P 1'
_cell_length_a   5.81577038
_cell_length_b   5.81577038
_cell_length_c   11.69400100
_cell_angle_alpha   90.00000000
_cell_angle_beta   90.00000000
_cell_angle_gamma   120.00000431
_symmetry_Int_Tables_number   1
_chemical_formula_structural   Ba4LaTiNb3O15
_chemical_formula_sum   'Ba4 La1 Ti1 Nb3 O15'
_cell_volume   342.53759313
_cell_formula_units_Z   1
loop_
 _symmetry_equiv_pos_site_id
 _symmetry_equiv_pos_as_xyz
  1  'x, y, z'
loop_
 _atom_site_type_symbol
 _atom_site_label
 _atom_site_symmetry_multiplicity
 _atom_site_fract_x
 _atom_site_fract_y
 _atom_site_fract_z
 _atom_site_occupancy
  Ba  Ba0  1  0.66666700  0.33333300  0.79115300  1
  Ba  Ba1  1  0.00000000  0.00000000  0.20364500  1
  Ba  Ba2  1  0.66666700  0.33333300  0.41661000  1
  Ba  Ba3  1  0.33333300  0.66666700  0.99887600  1
  La  La4  1  0.00000000  0.00000000  0.55101700  1
  Ti  Ti5  1  0.00000000  0.00000000  0.88404500  1
  Nb  Nb6  1  0.66666700  0.33333300  0.09711700  1
  Nb  Nb7  1  0.33333300  0.66666700  0.31849600  1
  Nb  Nb8  1  0.33333300  0.66666700  0.68140300  1
  O  O9  1  0.00289300  0.50144700  0.60689000  1
  O  O10  1  0.49855300  0.50144700  0.60689000  1
  O  O11  1  0.49855300  0.99710700  0.60689000  1
  O  O12  1  0.66770200  0.83385100  0.40070200  1
  O  O13  1  0.16614900  0.83385100  0.40070200  1
  O  O14  1  0.16614900  0.33229800  0.40070200  1
  O  O15  1  0.99929900  0.49964900  0.20330500  1
  O  O16  1  0.50035100  0.49964900  0.20330500  1
  O  O17  1  0.50035100  0.00070100  0.20330500  1
  O  O18  1  0.67599900  0.83799900  0.80478200  1
  O  O19  1  0.16200100  0.83799900  0.80478200  1
  O  O20  1  0.16200100  0.32400100  0.80478200  1
  O  O21  1  0.83188400  0.16811600  0.00352500  1
  O  O22  1  0.83188400  0.66376900  0.00352500  1
  O  O23  1  0.33623100  0.16811600  0.00352500  1
