# generated using pymatgen
data_Ba2Sr3Nb10O30
_symmetry_space_group_name_H-M   'P 1'
_cell_length_a   4.06464200
_cell_length_b   12.69938456
_cell_length_c   12.70100883
_cell_angle_alpha   90.13118148
_cell_angle_beta   90.01655581
_cell_angle_gamma   90.05361702
_symmetry_Int_Tables_number   1
_chemical_formula_structural   Ba2Sr3Nb10O30
_chemical_formula_sum   'Ba2 Sr3 Nb10 O30'
_cell_volume   655.60437954
_cell_formula_units_Z   1
loop_
 _symmetry_equiv_pos_site_id
 _symmetry_equiv_pos_as_xyz
  1  'x, y, z'
loop_
 _atom_site_type_symbol
 _atom_site_label
 _atom_site_symmetry_multiplicity
 _atom_site_fract_x
 _atom_site_fract_y
 _atom_site_fract_z
 _atom_site_occupancy
  Ba  Ba0  1  0.49943700  0.67049100  0.82702400  1
  Ba  Ba1  1  0.49888700  0.83233300  0.33170300  1
  Sr  Sr2  1  0.51313800  0.32658500  0.17061800  1
  Sr  Sr3  1  0.50165500  0.50086800  0.50111300  1
  Sr  Sr4  1  0.50140800  0.00135300  0.00086000  1
  Nb  Nb5  1  0.01721400  0.41891500  0.70991800  1
  Nb  Nb6  1  0.01144400  0.57499900  0.28814000  1
  Nb  Nb7  1  0.01441400  0.92747700  0.78740700  1
  Nb  Nb8  1  0.00977600  0.07973100  0.21207400  1
  Nb  Nb9  1  0.00890900  0.71253400  0.57657400  1
  Nb  Nb10  1  0.01495700  0.28882900  0.42479700  1
  Nb  Nb11  1  0.01030000  0.78941900  0.07561400  1
  Nb  Nb12  1  0.01772300  0.21076800  0.91979500  1
  Nb  Nb13  1  0.02074300  0.49643100  0.99963600  1
  Nb  Nb14  1  0.02913300  0.00396900  0.50276500  1
  O  O15  1  0.47757100  0.49729400  0.00114100  1
  O  O16  1  0.47845300  0.99323900  0.49280900  1
  O  O17  1  0.97325600  0.36804400  0.56118300  1
  O  O18  1  0.97019500  0.63834300  0.43427000  1
  O  O19  1  0.96957300  0.85789800  0.93596400  1
  O  O20  1  0.96894800  0.13528300  0.06660800  1
  O  O21  1  0.96976300  0.56771900  0.63889400  1
  O  O22  1  0.96844500  0.43760700  0.36166600  1
  O  O23  1  0.97103700  0.93435900  0.13873100  1
  O  O24  1  0.97239400  0.06139000  0.86879200  1
  O  O25  1  0.97205300  0.50480600  0.84341900  1
  O  O26  1  0.96788200  0.48917200  0.15794100  1
  O  O27  1  0.97222100  0.99646300  0.65535600  1
  O  O28  1  0.97326900  0.99452100  0.34106400  1
  O  O29  1  0.97395200  0.84224600  0.49280200  1
  O  O30  1  0.97159000  0.15642100  0.49373000  1
  O  O31  1  0.97221400  0.65371000  0.99638300  1
  O  O32  1  0.96813900  0.33920100  0.01149200  1
  O  O33  1  0.47419400  0.42915600  0.70072400  1
  O  O34  1  0.47466400  0.58048300  0.29735800  1
  O  O35  1  0.47420900  0.91560800  0.80280600  1
  O  O36  1  0.47543400  0.08185900  0.20336600  1
  O  O37  1  0.47536500  0.70267700  0.57922400  1
  O  O38  1  0.47432800  0.30233700  0.41281200  1
  O  O39  1  0.47506600  0.79794300  0.08050900  1
  O  O40  1  0.47406700  0.20121500  0.92937200  1
  O  O41  1  0.97496800  0.28815400  0.78866200  1
  O  O42  1  0.97520200  0.71913600  0.21975100  1
  O  O43  1  0.97677100  0.77936900  0.72111500  1
  O  O44  1  0.97574000  0.22804500  0.27241700  1
