# generated using pymatgen
data_BaNb4Bi4PbO18
_symmetry_space_group_name_H-M   'P 1'
_cell_length_a   12.82314479
_cell_length_b   12.82314479
_cell_length_c   5.66769000
_cell_angle_alpha   90.00000000
_cell_angle_beta   90.00000000
_cell_angle_gamma   154.40159879
_symmetry_Int_Tables_number   1
_chemical_formula_structural   BaNb4Bi4PbO18
_chemical_formula_sum   'Ba1 Nb4 Bi4 Pb1 O18'
_cell_volume   402.66124167
_cell_formula_units_Z   1
loop_
 _symmetry_equiv_pos_site_id
 _symmetry_equiv_pos_as_xyz
  1  'x, y, z'
loop_
 _atom_site_type_symbol
 _atom_site_label
 _atom_site_symmetry_multiplicity
 _atom_site_fract_x
 _atom_site_fract_y
 _atom_site_fract_z
 _atom_site_occupancy
  Ba  Ba0  1  0.24159700  0.24159700  0.50000000  1
  Nb  Nb1  1  0.82445800  0.65000800  0.50000000  1
  Nb  Nb2  1  0.32561300  0.15020300  0.00000000  1
  Nb  Nb3  1  0.15020300  0.32561300  0.00000000  1
  Nb  Nb4  1  0.65000800  0.82445800  0.50000000  1
  Bi  Bi5  1  0.49052200  0.08612100  0.50000000  1
  Bi  Bi6  1  0.90254000  0.50075700  0.00000000  1
  Bi  Bi7  1  0.50075700  0.90254000  0.00000000  1
  Bi  Bi8  1  0.08612100  0.49052200  0.50000000  1
  Pb  Pb9  1  0.71124000  0.71124000  0.00000000  1
  O  O10  1  0.77272400  0.77272400  0.50000000  1
  O  O11  1  0.24782400  0.24782400  0.00000000  1
  O  O12  1  0.09820900  0.92400000  0.25458600  1
  O  O13  1  0.09820900  0.92400000  0.74541400  1
  O  O14  1  0.92400000  0.09820900  0.25458600  1
  O  O15  1  0.92400000  0.09820900  0.74541400  1
  O  O16  1  0.24665600  0.75292000  0.25047200  1
  O  O17  1  0.24665600  0.75292000  0.74952800  1
  O  O18  1  0.75292000  0.24665600  0.25047200  1
  O  O19  1  0.75292000  0.24665600  0.74952800  1
  O  O20  1  0.43716400  0.58629800  0.24501600  1
  O  O21  1  0.43716400  0.58629800  0.75498400  1
  O  O22  1  0.58629800  0.43716400  0.24501600  1
  O  O23  1  0.58629800  0.43716400  0.75498400  1
  O  O24  1  0.84618800  0.52182600  0.50000000  1
  O  O25  1  0.48059200  0.15733800  0.00000000  1
  O  O26  1  0.15733800  0.48059200  0.00000000  1
  O  O27  1  0.52182600  0.84618800  0.50000000  1
