# generated using pymatgen
data_K3Na5V2(MoO4)6
_symmetry_space_group_name_H-M   'P 1'
_cell_length_a   7.85817500
_cell_length_b   7.89757800
_cell_length_c   7.90597781
_cell_angle_alpha   89.94372590
_cell_angle_beta   90.00000000
_cell_angle_gamma   90.00000000
_symmetry_Int_Tables_number   1
_chemical_formula_structural   K3Na5V2(MoO4)6
_chemical_formula_sum   'K3 Na5 V2 Mo6 O24'
_cell_volume   490.64909473
_cell_formula_units_Z   1
loop_
 _symmetry_equiv_pos_site_id
 _symmetry_equiv_pos_as_xyz
  1  'x, y, z'
loop_
 _atom_site_type_symbol
 _atom_site_label
 _atom_site_symmetry_multiplicity
 _atom_site_fract_x
 _atom_site_fract_y
 _atom_site_fract_z
 _atom_site_occupancy
  K  K0  1  0.00000000  0.25608000  0.25628700  1
  K  K1  1  0.50000000  0.25444900  0.74570900  1
  K  K2  1  0.50000000  0.25636200  0.25642100  1
  Na  Na3  1  0.00000000  0.26048300  0.73946900  1
  Na  Na4  1  0.00000000  0.73898400  0.73823500  1
  Na  Na5  1  0.00000000  0.74033400  0.26092000  1
  Na  Na6  1  0.50000000  0.73917800  0.73798300  1
  Na  Na7  1  0.50000000  0.74007500  0.26114700  1
  V  V8  1  0.24924300  0.50358500  0.50123700  1
  V  V9  1  0.75075700  0.50358500  0.50123700  1
  Mo  Mo10  1  0.24929500  0.99864400  0.99961100  1
  Mo  Mo11  1  0.24924500  0.50340100  0.99924400  1
  Mo  Mo12  1  0.24921700  0.99762700  0.50101100  1
  Mo  Mo13  1  0.75070500  0.99864400  0.99961100  1
  Mo  Mo14  1  0.75075500  0.50340100  0.99924400  1
  Mo  Mo15  1  0.75078300  0.99762700  0.50101100  1
  O  O16  1  0.00000000  0.99749300  0.99886100  1
  O  O17  1  0.00000000  0.50358400  0.99829300  1
  O  O18  1  0.00000000  0.99421000  0.50173700  1
  O  O19  1  0.00000000  0.50483200  0.50351200  1
  O  O20  1  0.50000000  0.99712800  0.99919400  1
  O  O21  1  0.50000000  0.50506500  0.99824000  1
  O  O22  1  0.50000000  0.99414100  0.50091600  1
  O  O23  1  0.50000000  0.50785300  0.50077100  1
  O  O24  1  0.24818700  0.99401700  0.75298700  1
  O  O25  1  0.24717000  0.50442900  0.75822800  1
  O  O26  1  0.24947200  0.99661500  0.24717100  1
  O  O27  1  0.24904900  0.50837100  0.24052700  1
  O  O28  1  0.75181300  0.99401700  0.75298700  1
  O  O29  1  0.75283000  0.50442900  0.75822800  1
  O  O30  1  0.75052800  0.99661500  0.24717100  1
  O  O31  1  0.75095100  0.50837100  0.24052700  1
  O  O32  1  0.24798400  0.24612500  0.99976400  1
  O  O33  1  0.24925700  0.75485800  0.99688600  1
  O  O34  1  0.24674700  0.24078500  0.50412700  1
  O  O35  1  0.24872700  0.75641800  0.50036000  1
  O  O36  1  0.75201600  0.24612500  0.99976400  1
  O  O37  1  0.75074300  0.75485800  0.99688600  1
  O  O38  1  0.75325300  0.24078500  0.50412700  1
  O  O39  1  0.75127300  0.75641800  0.50036000  1
