# generated using pymatgen
data_AsPOs
_symmetry_space_group_name_H-M   'P 1'
_cell_length_a   3.00104300
_cell_length_b   5.31028162
_cell_length_c   6.10350570
_cell_angle_alpha   92.04017156
_cell_angle_beta   90.00000000
_cell_angle_gamma   90.00000000
_symmetry_Int_Tables_number   1
_chemical_formula_structural   AsPOs
_chemical_formula_sum   'As2 P2 Os2'
_cell_volume   97.20615054
_cell_formula_units_Z   2
loop_
 _symmetry_equiv_pos_site_id
 _symmetry_equiv_pos_as_xyz
  1  'x, y, z'
loop_
 _atom_site_type_symbol
 _atom_site_label
 _atom_site_symmetry_multiplicity
 _atom_site_fract_x
 _atom_site_fract_y
 _atom_site_fract_z
 _atom_site_occupancy
  As  As0  1  0.50000000  0.67111600  0.13663400  1
  As  As1  1  0.50000000  0.32888400  0.86336600  1
  P  P2  1  0.00000000  0.16503400  0.37179200  1
  P  P3  1  0.00000000  0.83496600  0.62820800  1
  Os  Os4  1  0.50000000  0.50000000  0.50000000  1
  Os  Os5  1  0.00000000  0.00000000  0.00000000  1
