# generated using pymatgen
data_Ba5Co5O13F
_symmetry_space_group_name_H-M   'P 1'
_cell_length_a   5.81194667
_cell_length_b   5.81194667
_cell_length_c   24.18573200
_cell_angle_alpha   90.00000000
_cell_angle_beta   90.00000000
_cell_angle_gamma   119.01423027
_symmetry_Int_Tables_number   1
_chemical_formula_structural   Ba5Co5O13F
_chemical_formula_sum   'Ba10 Co10 O26 F2'
_cell_volume   714.43369376
_cell_formula_units_Z   2
loop_
 _symmetry_equiv_pos_site_id
 _symmetry_equiv_pos_as_xyz
  1  'x, y, z'
loop_
 _atom_site_type_symbol
 _atom_site_label
 _atom_site_symmetry_multiplicity
 _atom_site_fract_x
 _atom_site_fract_y
 _atom_site_fract_z
 _atom_site_occupancy
  Ba  Ba0  1  0.02909900  0.03591800  0.75000000  1
  Ba  Ba1  1  0.03591800  0.02909900  0.25000000  1
  Ba  Ba2  1  0.66663500  0.33530300  0.54041400  1
  Ba  Ba3  1  0.33530300  0.66663500  0.45958600  1
  Ba  Ba4  1  0.33530300  0.66663500  0.04041400  1
  Ba  Ba5  1  0.66663500  0.33530300  0.95958600  1
  Ba  Ba6  1  0.33665700  0.66857000  0.63874400  1
  Ba  Ba7  1  0.66857000  0.33665700  0.36125600  1
  Ba  Ba8  1  0.66857000  0.33665700  0.13874400  1
  Ba  Ba9  1  0.33665700  0.66857000  0.86125600  1
  Co  Co10  1  0.00051900  0.00051900  0.50000000  1
  Co  Co11  1  0.00051900  0.00051900  0.00000000  1
  Co  Co12  1  0.66533000  0.32772300  0.68103400  1
  Co  Co13  1  0.32772300  0.66533000  0.31896600  1
  Co  Co14  1  0.32772300  0.66533000  0.18103400  1
  Co  Co15  1  0.66533000  0.32772300  0.81896600  1
  Co  Co16  1  0.00260600  0.01287200  0.60451000  1
  Co  Co17  1  0.01287200  0.00260600  0.39549000  1
  Co  Co18  1  0.01287200  0.00260600  0.10451000  1
  Co  Co19  1  0.00260600  0.01287200  0.89549000  1
  O  O20  1  0.33039600  0.17199500  0.65202800  1
  O  O21  1  0.84729400  0.16146500  0.64857100  1
  O  O22  1  0.83762900  0.66007500  0.65906200  1
  O  O23  1  0.66007500  0.83762900  0.34093800  1
  O  O24  1  0.16146500  0.84729400  0.35142900  1
  O  O25  1  0.17199500  0.33039600  0.34797200  1
  O  O26  1  0.66007500  0.83762900  0.15906200  1
  O  O27  1  0.16146500  0.84729400  0.14857100  1
  O  O28  1  0.17199500  0.33039600  0.15202800  1
  O  O29  1  0.33039600  0.17199500  0.84797200  1
  O  O30  1  0.84729400  0.16146500  0.85142900  1
  O  O31  1  0.83762900  0.66007500  0.84093800  1
  O  O32  1  0.14513300  0.85275100  0.55669700  1
  O  O33  1  0.14832700  0.31560200  0.54731700  1
  O  O34  1  0.69471100  0.85387900  0.54940600  1
  O  O35  1  0.85275100  0.14513300  0.44330300  1
  O  O36  1  0.85387900  0.69471100  0.45059400  1
  O  O37  1  0.31560200  0.14832700  0.45268300  1
  O  O38  1  0.85275100  0.14513300  0.05669700  1
  O  O39  1  0.85387900  0.69471100  0.04940600  1
  O  O40  1  0.31560200  0.14832700  0.04731700  1
  O  O41  1  0.14513300  0.85275100  0.94330300  1
  O  O42  1  0.14832700  0.31560200  0.95268300  1
  O  O43  1  0.69471100  0.85387900  0.95059400  1
  O  O44  1  0.60219400  0.17248500  0.75000000  1
  O  O45  1  0.17248500  0.60219400  0.25000000  1
  F  F46  1  0.27222700  0.55413200  0.75000000  1
  F  F47  1  0.55413200  0.27222700  0.25000000  1
