# generated using pymatgen
data_Ca3Ga2(SnO4)3
_symmetry_space_group_name_H-M   'P 1'
_cell_length_a   11.13986755
_cell_length_b   11.13986755
_cell_length_c   11.13986755
_cell_angle_alpha   109.79781667
_cell_angle_beta   109.79781667
_cell_angle_gamma   108.81998478
_symmetry_Int_Tables_number   1
_chemical_formula_structural   Ca3Ga2(SnO4)3
_chemical_formula_sum   'Ca12 Ga8 Sn12 O48'
_cell_volume   1064.08462043
_cell_formula_units_Z   4
loop_
 _symmetry_equiv_pos_site_id
 _symmetry_equiv_pos_as_xyz
  1  'x, y, z'
loop_
 _atom_site_type_symbol
 _atom_site_label
 _atom_site_symmetry_multiplicity
 _atom_site_fract_x
 _atom_site_fract_y
 _atom_site_fract_z
 _atom_site_occupancy
  Ca  Ca0  1  0.50000000  0.00000000  0.50000000  1
  Ca  Ca1  1  0.75000000  0.75000000  0.00000000  1
  Ca  Ca2  1  0.75209200  0.37500000  0.87709200  1
  Ca  Ca3  1  0.49790800  0.87500000  0.12290800  1
  Ca  Ca4  1  0.12500000  0.74790800  0.12290800  1
  Ca  Ca5  1  0.62500000  0.00209200  0.87709200  1
  Ca  Ca6  1  0.25000000  0.25000000  0.00000000  1
  Ca  Ca7  1  0.00000000  0.50000000  0.50000000  1
  Ca  Ca8  1  0.99790800  0.87500000  0.62290800  1
  Ca  Ca9  1  0.25209200  0.37500000  0.37709200  1
  Ca  Ca10  1  0.62500000  0.50209200  0.37709200  1
  Ca  Ca11  1  0.12500000  0.24790800  0.62290800  1
  Ga  Ga12  1  0.00139400  0.37500000  0.12639400  1
  Ga  Ga13  1  0.24860600  0.87500000  0.87360600  1
  Ga  Ga14  1  0.12500000  0.99860600  0.37360600  1
  Ga  Ga15  1  0.62500000  0.75139400  0.62639400  1
  Ga  Ga16  1  0.74860600  0.87500000  0.37360600  1
  Ga  Ga17  1  0.50139400  0.37500000  0.62639400  1
  Ga  Ga18  1  0.62500000  0.25139400  0.12639400  1
  Ga  Ga19  1  0.12500000  0.49860600  0.87360600  1
  Sn  Sn20  1  0.37500000  0.12500000  0.75000000  1
  Sn  Sn21  1  0.37500000  0.62500000  0.25000000  1
  Sn  Sn22  1  0.87500000  0.62500000  0.75000000  1
  Sn  Sn23  1  0.87500000  0.12500000  0.25000000  1
  Sn  Sn24  1  0.87500000  0.12500000  0.75000000  1
  Sn  Sn25  1  0.87500000  0.62500000  0.25000000  1
  Sn  Sn26  1  0.37500000  0.12500000  0.25000000  1
  Sn  Sn27  1  0.37500000  0.62500000  0.75000000  1
  Sn  Sn28  1  0.75000000  0.25000000  0.50000000  1
  Sn  Sn29  1  0.50000000  0.50000000  0.00000000  1
  Sn  Sn30  1  0.00000000  0.00000000  0.00000000  1
  Sn  Sn31  1  0.25000000  0.75000000  0.50000000  1
  O  O32  1  0.40999800  0.94981100  0.65554100  1
  O  O33  1  0.29427000  0.75445800  0.34445900  1
  O  O34  1  0.95573000  0.80018900  0.96018700  1
  O  O35  1  0.84000200  0.99554200  0.03981300  1
  O  O36  1  0.69585900  0.52271600  0.77024700  1
  O  O37  1  0.49753200  0.22728400  0.67314300  1
  O  O38  1  0.55414100  0.82438800  0.32685700  1
  O  O39  1  0.75246800  0.92561200  0.22975300  1
  O  O40  1  0.27678300  0.64378700  0.06682900  1
  O  O41  1  0.97321700  0.54004600  0.86700400  1
  O  O42  1  0.57695800  0.20995400  0.93317100  1
  O  O43  1  0.67304200  0.10621300  0.13299600  1
  O  O44  1  0.34000200  0.30018900  0.84445900  1
  O  O45  1  0.45573000  0.49554200  0.15554100  1
  O  O46  1  0.79427000  0.44981100  0.53981300  1
  O  O47  1  0.90999800  0.25445800  0.46018700  1
  O  O48  1  0.05414100  0.72728400  0.72975300  1
  O  O49  1  0.25246800  0.02271600  0.82685700  1
  O  O50  1  0.19585900  0.42561200  0.17314300  1
  O  O51  1  0.99753200  0.32438800  0.27024700  1
  O  O52  1  0.47321700  0.60621300  0.43317100  1
  O  O53  1  0.77678300  0.70995400  0.63299600  1
  O  O54  1  0.17304200  0.04004600  0.56682900  1
  O  O55  1  0.07695800  0.14378700  0.36700400  1
  O  O56  1  0.89378700  0.02678300  0.56682900  1
  O  O57  1  0.79004600  0.72321700  0.36700400  1
  O  O58  1  0.45995400  0.32695800  0.43317100  1
  O  O59  1  0.35621300  0.42304200  0.63299600  1
  O  O60  1  0.19981100  0.15999800  0.15554100  1
  O  O61  1  0.00445800  0.04427000  0.84445900  1
  O  O62  1  0.05018900  0.70573000  0.46018700  1
  O  O63  1  0.24554200  0.59000200  0.53981300  1
  O  O64  1  0.77271600  0.44585900  0.27024700  1
  O  O65  1  0.47728400  0.24753200  0.17314300  1
  O  O66  1  0.07438800  0.30414100  0.82685700  1
  O  O67  1  0.17561200  0.50246800  0.72975300  1
  O  O68  1  0.85621300  0.22321700  0.93317100  1
  O  O69  1  0.95995400  0.52678300  0.13299600  1
  O  O70  1  0.29004600  0.92304200  0.06682900  1
  O  O71  1  0.39378700  0.82695800  0.86700400  1
  O  O72  1  0.55018900  0.09000200  0.34445900  1
  O  O73  1  0.74554200  0.20573000  0.65554100  1
  O  O74  1  0.69981100  0.54427000  0.03981300  1
  O  O75  1  0.50445800  0.65999800  0.96018700  1
  O  O76  1  0.97728400  0.80414100  0.22975300  1
  O  O77  1  0.27271600  0.00246800  0.32685700  1
  O  O78  1  0.67561200  0.94585900  0.67314300  1
  O  O79  1  0.57438800  0.74753200  0.77024700  1
