# generated using pymatgen
data_Ba2AlZnF9
_symmetry_space_group_name_H-M   'P 1'
_cell_length_a   5.67184300
_cell_length_b   7.52241500
_cell_length_c   17.87720500
_cell_angle_alpha   90.00000000
_cell_angle_beta   90.00000000
_cell_angle_gamma   90.00000000
_symmetry_Int_Tables_number   1
_chemical_formula_structural   Ba2AlZnF9
_chemical_formula_sum   'Ba8 Al4 Zn4 F36'
_cell_volume   762.74805732
_cell_formula_units_Z   4
loop_
 _symmetry_equiv_pos_site_id
 _symmetry_equiv_pos_as_xyz
  1  'x, y, z'
loop_
 _atom_site_type_symbol
 _atom_site_label
 _atom_site_symmetry_multiplicity
 _atom_site_fract_x
 _atom_site_fract_y
 _atom_site_fract_z
 _atom_site_occupancy
  Ba  Ba0  1  0.75000000  0.93965900  0.78395500  1
  Ba  Ba1  1  0.75000000  0.56034100  0.28395500  1
  Ba  Ba2  1  0.25000000  0.06034100  0.21604500  1
  Ba  Ba3  1  0.25000000  0.43965900  0.71604500  1
  Ba  Ba4  1  0.25000000  0.28885600  0.46415200  1
  Ba  Ba5  1  0.25000000  0.21114400  0.96415200  1
  Ba  Ba6  1  0.75000000  0.71114400  0.53584800  1
  Ba  Ba7  1  0.75000000  0.78885600  0.03584800  1
  Al  Al8  1  0.75000000  0.41727400  0.87446200  1
  Al  Al9  1  0.75000000  0.08272600  0.37446200  1
  Al  Al10  1  0.25000000  0.58272600  0.12553800  1
  Al  Al11  1  0.25000000  0.91727400  0.62553800  1
  Zn  Zn12  1  0.25000000  0.73267100  0.91128400  1
  Zn  Zn13  1  0.25000000  0.76732900  0.41128400  1
  Zn  Zn14  1  0.75000000  0.26732900  0.08871600  1
  Zn  Zn15  1  0.75000000  0.23267100  0.58871600  1
  F  F16  1  0.75000000  0.56491100  0.79577400  1
  F  F17  1  0.75000000  0.93508900  0.29577400  1
  F  F18  1  0.25000000  0.43508900  0.20422600  1
  F  F19  1  0.25000000  0.06491100  0.70422600  1
  F  F20  1  0.51952800  0.95270400  0.42398300  1
  F  F21  1  0.98047200  0.54729600  0.92398300  1
  F  F22  1  0.01952800  0.04729600  0.57601700  1
  F  F23  1  0.48047200  0.45270400  0.07601700  1
  F  F24  1  0.48047200  0.04729600  0.57601700  1
  F  F25  1  0.01952800  0.45270400  0.07601700  1
  F  F26  1  0.98047200  0.95270400  0.42398300  1
  F  F27  1  0.51952800  0.54729600  0.92398300  1
  F  F28  1  0.99943800  0.57687400  0.41871800  1
  F  F29  1  0.50056200  0.92312600  0.91871800  1
  F  F30  1  0.49943800  0.42312600  0.58128200  1
  F  F31  1  0.00056200  0.07687400  0.08128200  1
  F  F32  1  0.00056200  0.42312600  0.58128200  1
  F  F33  1  0.49943800  0.07687400  0.08128200  1
  F  F34  1  0.50056200  0.57687400  0.41871800  1
  F  F35  1  0.99943800  0.92312600  0.91871800  1
  F  F36  1  0.51781500  0.22393400  0.33681300  1
  F  F37  1  0.98218500  0.27606600  0.83681300  1
  F  F38  1  0.01781500  0.77606600  0.66318700  1
  F  F39  1  0.48218500  0.72393400  0.16318700  1
  F  F40  1  0.48218500  0.77606600  0.66318700  1
  F  F41  1  0.01781500  0.72393400  0.16318700  1
  F  F42  1  0.98218500  0.22393400  0.33681300  1
  F  F43  1  0.51781500  0.27606600  0.83681300  1
  F  F44  1  0.25000000  0.77468900  0.53726800  1
  F  F45  1  0.25000000  0.72531100  0.03726800  1
  F  F46  1  0.75000000  0.22531100  0.46273200  1
  F  F47  1  0.75000000  0.27468900  0.96273200  1
  F  F48  1  0.25000000  0.72071200  0.80254400  1
  F  F49  1  0.25000000  0.77928800  0.30254400  1
  F  F50  1  0.75000000  0.27928800  0.19745600  1
  F  F51  1  0.75000000  0.22071200  0.69745600  1
