# generated using pymatgen
data_Ba2SrYb6O12
_symmetry_space_group_name_H-M   'P 1'
_cell_length_a   3.55474000
_cell_length_b   10.22275423
_cell_length_c   10.24359078
_cell_angle_alpha   59.75423879
_cell_angle_beta   90.00000000
_cell_angle_gamma   90.00000000
_symmetry_Int_Tables_number   1
_chemical_formula_structural   Ba2SrYb6O12
_chemical_formula_sum   'Ba2 Sr1 Yb6 O12'
_cell_volume   321.57166002
_cell_formula_units_Z   1
loop_
 _symmetry_equiv_pos_site_id
 _symmetry_equiv_pos_as_xyz
  1  'x, y, z'
loop_
 _atom_site_type_symbol
 _atom_site_label
 _atom_site_symmetry_multiplicity
 _atom_site_fract_x
 _atom_site_fract_y
 _atom_site_fract_z
 _atom_site_occupancy
  Ba  Ba0  1  0.75000000  0.99995000  0.00029900  1
  Ba  Ba1  1  0.75000000  0.66679800  0.66657300  1
  Sr  Sr2  1  0.25000000  0.33356500  0.33334900  1
  Yb  Yb3  1  0.75000000  0.33312700  0.64182100  1
  Yb  Yb4  1  0.75000000  0.02503300  0.33379800  1
  Yb  Yb5  1  0.75000000  0.64161900  0.02489200  1
  Yb  Yb6  1  0.25000000  0.66042700  0.34117100  1
  Yb  Yb7  1  0.25000000  0.99947400  0.65949200  1
  Yb  Yb8  1  0.25000000  0.34121500  0.99870200  1
  O  O9  1  0.75000000  0.14522800  0.49018200  1
  O  O10  1  0.75000000  0.36459000  0.14440100  1
  O  O11  1  0.75000000  0.49060600  0.36562600  1
  O  O12  1  0.25000000  0.89903000  0.50264700  1
  O  O13  1  0.25000000  0.59802600  0.89921700  1
  O  O14  1  0.25000000  0.50283500  0.59800400  1
  O  O15  1  0.75000000  0.86141800  0.80306400  1
  O  O16  1  0.75000000  0.33414600  0.86207800  1
  O  O17  1  0.75000000  0.80356900  0.33370300  1
  O  O18  1  0.25000000  0.09101100  0.15819400  1
  O  O19  1  0.25000000  0.75011200  0.09207700  1
  O  O20  1  0.25000000  0.15822000  0.75071000  1
