# generated using pymatgen
data_BH4N
_symmetry_space_group_name_H-M   'P 1'
_cell_length_a   5.50887200
_cell_length_b   6.30108600
_cell_length_c   6.47396300
_cell_angle_alpha   90.00000000
_cell_angle_beta   90.00000000
_cell_angle_gamma   90.00000000
_symmetry_Int_Tables_number   1
_chemical_formula_structural   BH4N
_chemical_formula_sum   'B2 H8 N2'
_cell_volume   224.72340241
_cell_formula_units_Z   2
loop_
 _symmetry_equiv_pos_site_id
 _symmetry_equiv_pos_as_xyz
  1  'x, y, z'
loop_
 _atom_site_type_symbol
 _atom_site_label
 _atom_site_symmetry_multiplicity
 _atom_site_fract_x
 _atom_site_fract_y
 _atom_site_fract_z
 _atom_site_occupancy
  B  B0  1  0.50000000  0.65717900  0.66088700  1
  B  B1  1  0.00000000  0.34282100  0.16088700  1
  H  H2  1  0.50000000  0.89850100  0.40666800  1
  H  H3  1  0.00000000  0.10149900  0.90666800  1
  H  H4  1  0.50000000  0.53014800  0.79354500  1
  H  H5  1  0.00000000  0.46985200  0.29354500  1
  H  H6  1  0.43180000  0.98206100  0.98937900  1
  H  H7  1  0.56820000  0.98206100  0.98937900  1
  H  H8  1  0.06820000  0.01793900  0.48937900  1
  H  H9  1  0.93180000  0.01793900  0.48937900  1
  N  N10  1  0.50000000  0.79416500  0.52274300  1
  N  N11  1  0.00000000  0.20583500  0.02274300  1
