# generated using pymatgen
data_Ba3FeS5
_symmetry_space_group_name_H-M   'P 1'
_cell_length_a   9.37535063
_cell_length_b   9.37535063
_cell_length_c   18.24202400
_cell_angle_alpha   90.00000000
_cell_angle_beta   90.00000000
_cell_angle_gamma   120.00000447
_symmetry_Int_Tables_number   1
_chemical_formula_structural   Ba3FeS5
_chemical_formula_sum   'Ba18 Fe6 S30'
_cell_volume   1388.60483488
_cell_formula_units_Z   6
loop_
 _symmetry_equiv_pos_site_id
 _symmetry_equiv_pos_as_xyz
  1  'x, y, z'
loop_
 _atom_site_type_symbol
 _atom_site_label
 _atom_site_symmetry_multiplicity
 _atom_site_fract_x
 _atom_site_fract_y
 _atom_site_fract_z
 _atom_site_occupancy
  Ba  Ba0  1  0.62447800  0.64314100  0.00000000  1
  Ba  Ba1  1  0.01866300  0.37552200  0.00000000  1
  Ba  Ba2  1  0.35685900  0.98133700  0.00000000  1
  Ba  Ba3  1  0.03426400  0.64383800  0.50000000  1
  Ba  Ba4  1  0.35616200  0.39042600  0.50000000  1
  Ba  Ba5  1  0.60957400  0.96573600  0.50000000  1
  Ba  Ba6  1  0.98086000  0.61742700  0.83415800  1
  Ba  Ba7  1  0.63656700  0.01914000  0.83415800  1
  Ba  Ba8  1  0.38257300  0.36343300  0.83415800  1
  Ba  Ba9  1  0.98086000  0.61742700  0.16584200  1
  Ba  Ba10  1  0.63656700  0.01914000  0.16584200  1
  Ba  Ba11  1  0.38257300  0.36343300  0.16584200  1
  Ba  Ba12  1  0.62730300  0.62059400  0.33446800  1
  Ba  Ba13  1  0.37940600  0.00670800  0.33446800  1
  Ba  Ba14  1  0.99329200  0.37269700  0.33446800  1
  Ba  Ba15  1  0.62730300  0.62059400  0.66553200  1
  Ba  Ba16  1  0.37940600  0.00670800  0.66553200  1
  Ba  Ba17  1  0.99329200  0.37269700  0.66553200  1
  Fe  Fe18  1  0.00000000  0.00000000  0.90577000  1
  Fe  Fe19  1  0.00000000  0.00000000  0.09423000  1
  Fe  Fe20  1  0.00000000  0.00000000  0.40952400  1
  Fe  Fe21  1  0.00000000  0.00000000  0.59047600  1
  Fe  Fe22  1  0.00000000  0.00000000  0.74845000  1
  Fe  Fe23  1  0.00000000  0.00000000  0.25155000  1
  S  S24  1  0.33333300  0.66666700  0.89489500  1
  S  S25  1  0.33333300  0.66666700  0.10510500  1
  S  S26  1  0.33333300  0.66666700  0.39689400  1
  S  S27  1  0.33333300  0.66666700  0.60310600  1
  S  S28  1  0.99234700  0.77416600  0.00000000  1
  S  S29  1  0.78181900  0.00765300  0.00000000  1
  S  S30  1  0.22583400  0.21818100  0.00000000  1
  S  S31  1  0.78919500  0.77668600  0.50000000  1
  S  S32  1  0.22331400  0.01250800  0.50000000  1
  S  S33  1  0.98749200  0.21080500  0.50000000  1
  S  S34  1  0.77647400  0.78426400  0.83427400  1
  S  S35  1  0.00778900  0.22352600  0.83427400  1
  S  S36  1  0.21573600  0.99221100  0.83427400  1
  S  S37  1  0.77647400  0.78426400  0.16572600  1
  S  S38  1  0.00778900  0.22352600  0.16572600  1
  S  S39  1  0.21573600  0.99221100  0.16572600  1
  S  S40  1  0.00326500  0.78347500  0.33161300  1
  S  S41  1  0.21652500  0.21978900  0.33161300  1
  S  S42  1  0.78021100  0.99673500  0.33161300  1
  S  S43  1  0.00326500  0.78347500  0.66838700  1
  S  S44  1  0.21652500  0.21978900  0.66838700  1
  S  S45  1  0.78021100  0.99673500  0.66838700  1
  S  S46  1  0.66666700  0.33333300  0.94169100  1
  S  S47  1  0.66666700  0.33333300  0.05830900  1
  S  S48  1  0.66666700  0.33333300  0.44180000  1
  S  S49  1  0.66666700  0.33333300  0.55820000  1
  S  S50  1  0.66666700  0.33333300  0.75072900  1
  S  S51  1  0.66666700  0.33333300  0.24927100  1
  S  S52  1  0.33333300  0.66666700  0.77420300  1
  S  S53  1  0.33333300  0.66666700  0.22579700  1
