# generated using pymatgen
data_Al4InAgTe8
_symmetry_space_group_name_H-M   'P 1'
_cell_length_a   7.40239201
_cell_length_b   7.40239201
_cell_length_c   8.91101644
_cell_angle_alpha   89.85985612
_cell_angle_beta   89.85985612
_cell_angle_gamma   106.48939751
_symmetry_Int_Tables_number   1
_chemical_formula_structural   Al4InAgTe8
_chemical_formula_sum   'Al4 In1 Ag1 Te8'
_cell_volume   468.19690532
_cell_formula_units_Z   1
loop_
 _symmetry_equiv_pos_site_id
 _symmetry_equiv_pos_as_xyz
  1  'x, y, z'
loop_
 _atom_site_type_symbol
 _atom_site_label
 _atom_site_symmetry_multiplicity
 _atom_site_fract_x
 _atom_site_fract_y
 _atom_site_fract_z
 _atom_site_occupancy
  Al  Al0  1  0.98838000  0.01162000  0.50000000  1
  Al  Al1  1  0.51047400  0.48952600  0.00000000  1
  Al  Al2  1  0.98984400  0.48934500  0.75316400  1
  Al  Al3  1  0.51065500  0.01015600  0.24683600  1
  In  In4  1  0.50127100  0.49872900  0.50000000  1
  Ag  Ag5  1  0.99981600  0.00018400  0.00000000  1
  Te  Te6  1  0.39445500  0.12135900  0.99424900  1
  Te  Te7  1  0.90479100  0.63059000  0.49111600  1
  Te  Te8  1  0.87864100  0.60554500  0.00575100  1
  Te  Te9  1  0.36941000  0.09520900  0.50888400  1
  Te  Te10  1  0.87575300  0.14844800  0.25852300  1
  Te  Te11  1  0.36850200  0.64354300  0.76509300  1
  Te  Te12  1  0.85155200  0.12424700  0.74147700  1
  Te  Te13  1  0.35645700  0.63149800  0.23490700  1
