# generated using pymatgen
data_BaSi(HO2)2
_symmetry_space_group_name_H-M   'P 1'
_cell_length_a   7.22146964
_cell_length_b   7.61251235
_cell_length_c   7.68599251
_cell_angle_alpha   88.77800331
_cell_angle_beta   92.82077394
_cell_angle_gamma   77.76652292
_symmetry_Int_Tables_number   1
_chemical_formula_structural   BaSi(HO2)2
_chemical_formula_sum   'Ba4 Si4 H8 O16'
_cell_volume   412.21288246
_cell_formula_units_Z   4
loop_
 _symmetry_equiv_pos_site_id
 _symmetry_equiv_pos_as_xyz
  1  'x, y, z'
loop_
 _atom_site_type_symbol
 _atom_site_label
 _atom_site_symmetry_multiplicity
 _atom_site_fract_x
 _atom_site_fract_y
 _atom_site_fract_z
 _atom_site_occupancy
  Ba  Ba0  1  0.08498900  0.78913200  0.19565000  1
  Ba  Ba1  1  0.91501100  0.21086800  0.80435000  1
  Ba  Ba2  1  0.40977900  0.70057500  0.69581800  1
  Ba  Ba3  1  0.59022100  0.29942500  0.30418200  1
  Si  Si4  1  0.58299200  0.76127300  0.21804900  1
  Si  Si5  1  0.41700800  0.23872700  0.78195100  1
  Si  Si6  1  0.10669600  0.25414800  0.27265300  1
  Si  Si7  1  0.89330400  0.74585200  0.72734700  1
  H  H8  1  0.76398100  0.59139100  0.00963800  1
  H  H9  1  0.23601900  0.40860900  0.99036200  1
  H  H10  1  0.28939100  0.08901000  0.50070400  1
  H  H11  1  0.71060900  0.91099000  0.49929600  1
  H  H12  1  0.05327900  0.39172700  0.52414300  1
  H  H13  1  0.94672100  0.60827300  0.47585700  1
  H  H14  1  0.39056900  0.95098300  0.99135800  1
  H  H15  1  0.60943100  0.04901700  0.00864200  1
  O  O16  1  0.69585500  0.91527300  0.27471500  1
  O  O17  1  0.30414500  0.08472700  0.72528500  1
  O  O18  1  0.97240300  0.16391700  0.14650200  1
  O  O19  1  0.02759700  0.83608300  0.85349800  1
  O  O20  1  0.73713400  0.58760700  0.13932200  1
  O  O21  1  0.26286600  0.41239300  0.86067800  1
  O  O22  1  0.42672900  0.82861300  0.04174800  1
  O  O23  1  0.57327100  0.17138700  0.95825200  1
  O  O24  1  0.97468800  0.33388200  0.44644900  1
  O  O25  1  0.02531200  0.66611800  0.55355100  1
  O  O26  1  0.20531800  0.40810500  0.19307100  1
  O  O27  1  0.79468200  0.59189500  0.80692900  1
  O  O28  1  0.46611500  0.67444800  0.35746100  1
  O  O29  1  0.53388500  0.32555200  0.64253900  1
  O  O30  1  0.27603900  0.08981700  0.36948200  1
  O  O31  1  0.72396100  0.91018300  0.63051800  1
