# generated using pymatgen
data_B8O
_symmetry_space_group_name_H-M   'P 1'
_cell_length_a   5.31274400
_cell_length_b   5.13789700
_cell_length_c   7.36966058
_cell_angle_alpha   87.57706308
_cell_angle_beta   90.00000000
_cell_angle_gamma   90.00000000
_symmetry_Int_Tables_number   1
_chemical_formula_structural   B8O
_chemical_formula_sum   'B24 O3'
_cell_volume   200.98485387
_cell_formula_units_Z   3
loop_
 _symmetry_equiv_pos_site_id
 _symmetry_equiv_pos_as_xyz
  1  'x, y, z'
loop_
 _atom_site_type_symbol
 _atom_site_label
 _atom_site_symmetry_multiplicity
 _atom_site_fract_x
 _atom_site_fract_y
 _atom_site_fract_z
 _atom_site_occupancy
  B  B0  1  0.00000000  0.87849700  0.80035000  1
  B  B1  1  0.50000000  0.37488100  0.29725000  1
  B  B2  1  0.23504100  0.63374400  0.55832300  1
  B  B3  1  0.73957000  0.14516400  0.06533700  1
  B  B4  1  0.76495900  0.63374400  0.55832300  1
  B  B5  1  0.26043000  0.14516400  0.06533700  1
  B  B6  1  0.00000000  0.14582000  0.21870200  1
  B  B7  1  0.50000000  0.61753300  0.69939300  1
  B  B8  1  0.78154500  0.35202800  0.42717600  1
  B  B9  1  0.26240300  0.86246200  0.94131200  1
  B  B10  1  0.21845500  0.35202800  0.42717600  1
  B  B11  1  0.73759700  0.86246200  0.94131200  1
  B  B12  1  0.00000000  0.34150600  0.00393300  1
  B  B13  1  0.50000000  0.82809100  0.49710200  1
  B  B14  1  0.16647900  0.17053400  0.83432600  1
  B  B15  1  0.66888300  0.66333600  0.33032900  1
  B  B16  1  0.83352100  0.17053400  0.83432600  1
  B  B17  1  0.33111700  0.66333600  0.33032900  1
  B  B18  1  0.00000000  0.67098900  0.00507600  1
  B  B19  1  0.50000000  0.15760200  0.49496100  1
  B  B20  1  0.83470600  0.84024800  0.17341200  1
  B  B21  1  0.32998800  0.32411600  0.66232000  1
  B  B22  1  0.16529400  0.84024800  0.17341200  1
  B  B23  1  0.67001200  0.32411600  0.66232000  1
  O  O24  1  0.50000000  0.74107700  0.87994200  1
  O  O25  1  0.00000000  0.75707700  0.62070700  1
  O  O26  1  0.50000000  0.25966100  0.11951400  1
