# generated using pymatgen
data_Ba2EuTa3Ti2O15
_symmetry_space_group_name_H-M   'P 1'
_cell_length_a   3.96225600
_cell_length_b   12.51873300
_cell_length_c   12.58964400
_cell_angle_alpha   90.00000000
_cell_angle_beta   90.00000000
_cell_angle_gamma   90.00000000
_symmetry_Int_Tables_number   1
_chemical_formula_structural   Ba2EuTa3Ti2O15
_chemical_formula_sum   'Ba4 Eu2 Ta6 Ti4 O30'
_cell_volume   624.47687155
_cell_formula_units_Z   2
loop_
 _symmetry_equiv_pos_site_id
 _symmetry_equiv_pos_as_xyz
  1  'x, y, z'
loop_
 _atom_site_type_symbol
 _atom_site_label
 _atom_site_symmetry_multiplicity
 _atom_site_fract_x
 _atom_site_fract_y
 _atom_site_fract_z
 _atom_site_occupancy
  Ba  Ba0  1  0.00000000  0.17180100  0.67166000  1
  Ba  Ba1  1  0.00000000  0.82819900  0.32834000  1
  Ba  Ba2  1  0.00000000  0.32819900  0.17166000  1
  Ba  Ba3  1  0.00000000  0.67180100  0.82834000  1
  Eu  Eu4  1  0.00000000  0.50000000  0.50000000  1
  Eu  Eu5  1  0.00000000  0.00000000  0.00000000  1
  Ta  Ta6  1  0.50000000  0.57635700  0.29040800  1
  Ta  Ta7  1  0.50000000  0.42364300  0.70959200  1
  Ta  Ta8  1  0.50000000  0.07635700  0.20959200  1
  Ta  Ta9  1  0.50000000  0.92364300  0.79040800  1
  Ta  Ta10  1  0.50000000  0.00000000  0.50000000  1
  Ta  Ta11  1  0.50000000  0.50000000  0.00000000  1
  Ti  Ti12  1  0.50000000  0.71250500  0.57567100  1
  Ti  Ti13  1  0.50000000  0.28749500  0.42432900  1
  Ti  Ti14  1  0.50000000  0.78749500  0.07567100  1
  Ti  Ti15  1  0.50000000  0.21250500  0.92432900  1
  O  O16  1  0.50000000  0.50826800  0.84195400  1
  O  O17  1  0.50000000  0.49173200  0.15804600  1
  O  O18  1  0.50000000  0.99173200  0.34195400  1
  O  O19  1  0.50000000  0.00826800  0.65804600  1
  O  O20  1  0.50000000  0.84173500  0.49583700  1
  O  O21  1  0.50000000  0.15826500  0.50416300  1
  O  O22  1  0.50000000  0.34173500  0.00416300  1
  O  O23  1  0.50000000  0.65826500  0.99583700  1
  O  O24  1  0.50000000  0.56478100  0.63475000  1
  O  O25  1  0.50000000  0.43521900  0.36525000  1
  O  O26  1  0.50000000  0.93521900  0.13475000  1
  O  O27  1  0.50000000  0.06478100  0.86525000  1
  O  O28  1  0.50000000  0.63610900  0.43504900  1
  O  O29  1  0.50000000  0.36389100  0.56495100  1
  O  O30  1  0.50000000  0.13610900  0.06495100  1
  O  O31  1  0.50000000  0.86389100  0.93504900  1
  O  O32  1  0.00000000  0.69397200  0.57482400  1
  O  O33  1  0.00000000  0.30602800  0.42517600  1
  O  O34  1  0.00000000  0.80602800  0.07482400  1
  O  O35  1  0.00000000  0.19397200  0.92517600  1
  O  O36  1  0.00000000  0.57599800  0.30351800  1
  O  O37  1  0.00000000  0.42400200  0.69648200  1
  O  O38  1  0.00000000  0.07599800  0.19648200  1
  O  O39  1  0.00000000  0.92400200  0.80351800  1
  O  O40  1  0.50000000  0.28349200  0.78298100  1
  O  O41  1  0.50000000  0.71650800  0.21701900  1
  O  O42  1  0.50000000  0.21650800  0.28298100  1
  O  O43  1  0.50000000  0.78349200  0.71701900  1
  O  O44  1  0.00000000  0.00000000  0.50000000  1
  O  O45  1  0.00000000  0.50000000  0.00000000  1
