# generated using pymatgen
data_Ba2Fe5BiPb2O13
_symmetry_space_group_name_H-M   'P 1'
_cell_length_a   13.83551267
_cell_length_b   13.83551267
_cell_length_c   5.80977383
_cell_angle_alpha   89.06148073
_cell_angle_beta   89.06148073
_cell_angle_gamma   16.52147531
_symmetry_Int_Tables_number   1
_chemical_formula_structural   Ba2Fe5BiPb2O13
_chemical_formula_sum   'Ba2 Fe5 Bi1 Pb2 O13'
_cell_volume   316.21408263
_cell_formula_units_Z   1
loop_
 _symmetry_equiv_pos_site_id
 _symmetry_equiv_pos_as_xyz
  1  'x, y, z'
loop_
 _atom_site_type_symbol
 _atom_site_label
 _atom_site_symmetry_multiplicity
 _atom_site_fract_x
 _atom_site_fract_y
 _atom_site_fract_z
 _atom_site_occupancy
  Ba  Ba0  1  0.10152600  0.10152600  0.99533600  1
  Ba  Ba1  1  0.89847400  0.89847400  0.00466400  1
  Fe  Fe2  1  0.39799500  0.39799500  0.50675900  1
  Fe  Fe3  1  0.60200500  0.60200500  0.49324100  1
  Fe  Fe4  1  0.50000000  0.50000000  0.00000000  1
  Fe  Fe5  1  0.29268500  0.29268500  0.01304500  1
  Fe  Fe6  1  0.70731500  0.70731500  0.98695500  1
  Bi  Bi7  1  0.00000000  0.00000000  0.50000000  1
  Pb  Pb8  1  0.80642800  0.80642800  0.50202300  1
  Pb  Pb9  1  0.19357200  0.19357200  0.49797700  1
  O  O10  1  0.44975100  0.44975100  0.73891200  1
  O  O11  1  0.55024900  0.55024900  0.26108800  1
  O  O12  1  0.55066600  0.55066600  0.73450600  1
  O  O13  1  0.44933400  0.44933400  0.26549400  1
  O  O14  1  0.89066400  0.89066400  0.50485000  1
  O  O15  1  0.10933600  0.10933600  0.49515000  1
  O  O16  1  0.66371500  0.66371500  0.72240700  1
  O  O17  1  0.33628500  0.33628500  0.27759300  1
  O  O18  1  0.22037600  0.22037600  0.94604700  1
  O  O19  1  0.77962400  0.77962400  0.05395300  1
  O  O20  1  0.33788100  0.33788100  0.76107900  1
  O  O21  1  0.66211900  0.66211900  0.23892100  1
  O  O22  1  0.00000000  0.00000000  0.00000000  1
