# generated using pymatgen
data_La7SmCrFe7O20
_symmetry_space_group_name_H-M   'P 1'
_cell_length_a   11.08028671
_cell_length_b   11.75392999
_cell_length_c   17.85913807
_cell_angle_alpha   109.24885016
_cell_angle_beta   108.11074640
_cell_angle_gamma   89.96638500
_symmetry_Int_Tables_number   1
_chemical_formula_structural   La7SmCrFe7O20
_chemical_formula_sum   'La28 Sm4 Cr4 Fe28 O80'
_cell_volume   2073.60062133
_cell_formula_units_Z   4
loop_
 _symmetry_equiv_pos_site_id
 _symmetry_equiv_pos_as_xyz
  1  'x, y, z'
loop_
 _atom_site_type_symbol
 _atom_site_label
 _atom_site_symmetry_multiplicity
 _atom_site_fract_x
 _atom_site_fract_y
 _atom_site_fract_z
 _atom_site_occupancy
  La  La0  1  0.30009100  0.06523600  0.11454200  1
  La  La1  1  0.30490700  0.06311800  0.61068400  1
  La  La2  1  0.30490600  0.56316500  0.61084200  1
  La  La3  1  0.80488100  0.06428400  0.61128200  1
  La  La4  1  0.80191500  0.56620800  0.11304800  1
  La  La5  1  0.80483800  0.56335800  0.61094700  1
  La  La6  1  0.19299800  0.43515100  0.38808100  1
  La  La7  1  0.19204900  0.43513100  0.88935300  1
  La  La8  1  0.19204700  0.93603800  0.38702900  1
  La  La9  1  0.18883700  0.93617700  0.88719600  1
  La  La10  1  0.69302300  0.43693800  0.38808100  1
  La  La11  1  0.69346800  0.93588300  0.38907300  1
  La  La12  1  0.68890600  0.93360600  0.88518400  1
  La  La13  1  0.05484000  0.29856000  0.11239200  1
  La  La14  1  0.05521700  0.29836400  0.61166600  1
  La  La15  1  0.05461100  0.79763000  0.61073300  1
  La  La16  1  0.55544700  0.29601200  0.11187800  1
  La  La17  1  0.55542200  0.29863100  0.61282700  1
  La  La18  1  0.54725900  0.79978300  0.11257500  1
  La  La19  1  0.55490100  0.79730300  0.61031100  1
  La  La20  1  0.44398600  0.20270500  0.38908200  1
  La  La21  1  0.44500300  0.20356100  0.88985400  1
  La  La22  1  0.44134200  0.70092700  0.38635300  1
  La  La23  1  0.43813100  0.70004800  0.88665700  1
  La  La24  1  0.94214200  0.20117600  0.38742200  1
  La  La25  1  0.94147400  0.20431500  0.88835400  1
  La  La26  1  0.94276800  0.70171800  0.38778700  1
  La  La27  1  0.94379500  0.70116200  0.88724600  1
  Sm  Sm28  1  0.29961100  0.56650400  0.10989500  1
  Sm  Sm29  1  0.79992800  0.06602200  0.11073500  1
  Sm  Sm30  1  0.68846200  0.43583500  0.89143600  1
  Sm  Sm31  1  0.05590100  0.79474700  0.11280900  1
  Cr  Cr32  1  0.00056600  0.99837200  0.00200000  1
  Cr  Cr33  1  0.00006500  0.50191200  0.00072500  1
  Cr  Cr34  1  0.50173000  0.99942400  0.00040900  1
  Cr  Cr35  1  0.75281800  0.75158100  0.00102000  1
  Fe  Fe36  1  0.00502300  0.99992600  0.49971300  1
  Fe  Fe37  1  0.00498000  0.49963400  0.49976700  1
  Fe  Fe38  1  0.50462400  0.99990500  0.49955700  1
  Fe  Fe39  1  0.50419700  0.50095600  0.00081100  1
  Fe  Fe40  1  0.50465800  0.49990400  0.49950300  1
  Fe  Fe41  1  0.25500900  0.25120200  0.00188500  1
  Fe  Fe42  1  0.25474700  0.24960700  0.49974400  1
  Fe  Fe43  1  0.25286600  0.75097000  0.00079300  1
  Fe  Fe44  1  0.25487900  0.74958700  0.49941600  1
  Fe  Fe45  1  0.75501500  0.24883700  0.00022500  1
  Fe  Fe46  1  0.75484400  0.25037900  0.49999000  1
  Fe  Fe47  1  0.75444800  0.74969100  0.49924700  1
  Fe  Fe48  1  0.10878300  0.10183900  0.25008900  1
  Fe  Fe49  1  0.11275300  0.10450200  0.75070300  1
  Fe  Fe50  1  0.11399900  0.60479700  0.25037800  1
  Fe  Fe51  1  0.11201500  0.60167900  0.74974400  1
  Fe  Fe52  1  0.61550500  0.10291900  0.25161000  1
  Fe  Fe53  1  0.61229700  0.10612900  0.75060200  1
  Fe  Fe54  1  0.60838700  0.60275800  0.24829100  1
  Fe  Fe55  1  0.61243500  0.60093500  0.74989500  1
  Fe  Fe56  1  0.36122900  0.39861900  0.24864500  1
  Fe  Fe57  1  0.36492300  0.39597400  0.75049800  1
  Fe  Fe58  1  0.35935900  0.89501500  0.24922400  1
  Fe  Fe59  1  0.36149100  0.89667300  0.74794300  1
  Fe  Fe60  1  0.86200300  0.39446300  0.24900500  1
  Fe  Fe61  1  0.85884700  0.39620600  0.74955600  1
  Fe  Fe62  1  0.86328500  0.89820700  0.24902000  1
  Fe  Fe63  1  0.86143800  0.89650400  0.74805900  1
  O  O64  1  0.11523700  0.11647400  0.47721400  1
  O  O65  1  0.11332200  0.11663700  0.97938400  1
  O  O66  1  0.11498500  0.61617400  0.47700300  1
  O  O67  1  0.11565500  0.61754000  0.98246800  1
  O  O68  1  0.61500700  0.11705700  0.47699400  1
  O  O69  1  0.61501500  0.11473000  0.97970900  1
  O  O70  1  0.61428200  0.61729500  0.47658100  1
  O  O71  1  0.61432300  0.61823500  0.97540000  1
  O  O72  1  0.13753800  0.38854400  0.02379800  1
  O  O73  1  0.13779000  0.38331200  0.52291800  1
  O  O74  1  0.13473200  0.88318600  0.02512700  1
  O  O75  1  0.13772800  0.88347700  0.52251100  1
  O  O76  1  0.63424000  0.38050800  0.01864400  1
  O  O77  1  0.63703900  0.38387500  0.52246000  1
  O  O78  1  0.63962200  0.88608500  0.02616600  1
  O  O79  1  0.63784000  0.88421900  0.52181600  1
  O  O80  1  0.36524400  0.11028100  0.47758800  1
  O  O81  1  0.36540800  0.10954400  0.97854100  1
  O  O82  1  0.36485500  0.60965200  0.47616300  1
  O  O83  1  0.36496400  0.61214300  0.98061100  1
  O  O84  1  0.86548700  0.11077100  0.47742200  1
  O  O85  1  0.86336400  0.10734800  0.98045400  1
  O  O86  1  0.86524900  0.61018600  0.47691300  1
  O  O87  1  0.85914200  0.60720000  0.97440700  1
  O  O88  1  0.38581400  0.39238300  0.02532400  1
  O  O89  1  0.38752100  0.38833700  0.52199000  1
  O  O90  1  0.38489400  0.89118000  0.02140000  1
  O  O91  1  0.38828600  0.88866500  0.52259600  1
  O  O92  1  0.88257900  0.39116300  0.01885900  1
  O  O93  1  0.88806900  0.38919900  0.52269000  1
  O  O94  1  0.89016900  0.89210200  0.03056100  1
  O  O95  1  0.88710600  0.88838400  0.52129700  1
  O  O96  1  0.10584700  0.12546700  0.14681000  1
  O  O97  1  0.09043000  0.11494500  0.63985300  1
  O  O98  1  0.11397300  0.62380100  0.14635700  1
  O  O99  1  0.09095600  0.61471000  0.63991300  1
  O  O100  1  0.61370500  0.12142700  0.14691300  1
  O  O101  1  0.59143700  0.11527700  0.63948000  1
  O  O102  1  0.59478400  0.61642000  0.13911700  1
  O  O103  1  0.58984400  0.61301800  0.63927300  1
  O  O104  1  0.45017600  0.38562700  0.35884500  1
  O  O105  1  0.46069200  0.38764300  0.86119700  1
  O  O106  1  0.44946000  0.88496100  0.35998700  1
  O  O107  1  0.45793200  0.87603600  0.85361900  1
  O  O108  1  0.95124200  0.38430700  0.35996200  1
  O  O109  1  0.96072500  0.37836200  0.85468200  1
  O  O110  1  0.95073300  0.88565400  0.36001900  1
  O  O111  1  0.95983400  0.87888800  0.85421900  1
  O  O112  1  0.34423700  0.27380000  0.13954700  1
  O  O113  1  0.34185600  0.27474700  0.63960500  1
  O  O114  1  0.34270600  0.77456900  0.13884400  1
  O  O115  1  0.34035500  0.77453900  0.63795500  1
  O  O116  1  0.84254200  0.27395900  0.13804000  1
  O  O117  1  0.83708000  0.27569100  0.63841000  1
  O  O118  1  0.86763200  0.77062100  0.14651600  1
  O  O119  1  0.83969600  0.77463500  0.63778000  1
  O  O120  1  0.19957200  0.22269800  0.36082600  1
  O  O121  1  0.20538800  0.22388000  0.86209400  1
  O  O122  1  0.20104100  0.72671100  0.36150500  1
  O  O123  1  0.20182700  0.72268200  0.86150900  1
  O  O124  1  0.70160000  0.22639800  0.36177200  1
  O  O125  1  0.70189400  0.22733400  0.86181500  1
  O  O126  1  0.69966800  0.72332600  0.35922800  1
  O  O127  1  0.71253600  0.72747800  0.85479400  1
  O  O128  1  0.42316900  0.06735000  0.25122800  1
  O  O129  1  0.41970400  0.07167500  0.75102300  1
  O  O130  1  0.41417500  0.56987600  0.24416100  1
  O  O131  1  0.41921900  0.56825700  0.74936700  1
  O  O132  1  0.91318900  0.07009200  0.24492300  1
  O  O133  1  0.91947200  0.07093300  0.75056700  1
  O  O134  1  0.92119100  0.56712100  0.24961500  1
  O  O135  1  0.91940600  0.56713000  0.74873900  1
  O  O136  1  0.16931900  0.43145300  0.25041400  1
  O  O137  1  0.17279900  0.43048100  0.75083200  1
  O  O138  1  0.16551600  0.92718000  0.24563000  1
  O  O139  1  0.17045500  0.93146900  0.74960000  1
  O  O140  1  0.66961600  0.43178700  0.24961300  1
  O  O141  1  0.66783200  0.42926400  0.75662300  1
  O  O142  1  0.67051800  0.92884300  0.25023700  1
  O  O143  1  0.67018300  0.93319400  0.74851400  1
