# generated using pymatgen
data_Ca7Mg(Co2O5)4
_symmetry_space_group_name_H-M   'P 1'
_cell_length_a   10.68296132
_cell_length_b   11.11261458
_cell_length_c   16.63912636
_cell_angle_alpha   109.47977696
_cell_angle_beta   109.29386043
_cell_angle_gamma   89.91691156
_symmetry_Int_Tables_number   1
_chemical_formula_structural   Ca7Mg(Co2O5)4
_chemical_formula_sum   'Ca28 Mg4 Co32 O80'
_cell_volume   1744.49167433
_cell_formula_units_Z   4
loop_
 _symmetry_equiv_pos_site_id
 _symmetry_equiv_pos_as_xyz
  1  'x, y, z'
loop_
 _atom_site_type_symbol
 _atom_site_label
 _atom_site_symmetry_multiplicity
 _atom_site_fract_x
 _atom_site_fract_y
 _atom_site_fract_z
 _atom_site_occupancy
  Ca  Ca0  1  0.30511500  0.06177400  0.60423800  1
  Ca  Ca1  1  0.30303500  0.56004100  0.60249400  1
  Ca  Ca2  1  0.80577600  0.06661300  0.60462700  1
  Ca  Ca3  1  0.80484600  0.56090300  0.11058700  1
  Ca  Ca4  1  0.80184600  0.56168900  0.60697600  1
  Ca  Ca5  1  0.19742200  0.43291000  0.39276900  1
  Ca  Ca6  1  0.20322900  0.43911300  0.89453500  1
  Ca  Ca7  1  0.19962600  0.93646100  0.39083000  1
  Ca  Ca8  1  0.19413600  0.93883700  0.89324800  1
  Ca  Ca9  1  0.69633700  0.43435600  0.39411800  1
  Ca  Ca10  1  0.69199500  0.42885600  0.88965500  1
  Ca  Ca11  1  0.69636500  0.93874600  0.39125300  1
  Ca  Ca12  1  0.69470300  0.93560900  0.89206600  1
  Ca  Ca13  1  0.05315800  0.29378400  0.11308600  1
  Ca  Ca14  1  0.04999200  0.29543800  0.60498900  1
  Ca  Ca15  1  0.05739800  0.79207400  0.60579000  1
  Ca  Ca16  1  0.55783800  0.29500400  0.11134300  1
  Ca  Ca17  1  0.55187000  0.29257300  0.60386700  1
  Ca  Ca18  1  0.55401000  0.78768400  0.11098200  1
  Ca  Ca19  1  0.55137400  0.78738500  0.60429900  1
  Ca  Ca20  1  0.44593200  0.20357500  0.39010700  1
  Ca  Ca21  1  0.45012900  0.20689200  0.89074200  1
  Ca  Ca22  1  0.44392400  0.70459300  0.38960900  1
  Ca  Ca23  1  0.43880800  0.70374100  0.88659600  1
  Ca  Ca24  1  0.94958900  0.20456800  0.39074300  1
  Ca  Ca25  1  0.94210100  0.20285500  0.88844400  1
  Ca  Ca26  1  0.95242800  0.71176100  0.39223200  1
  Ca  Ca27  1  0.94807000  0.70955700  0.89333100  1
  Mg  Mg28  1  0.28905400  0.07593100  0.11749800  1
  Mg  Mg29  1  0.27605300  0.58525900  0.12333600  1
  Mg  Mg30  1  0.77999200  0.08402600  0.11696600  1
  Mg  Mg31  1  0.02913000  0.78660100  0.11903400  1
  Co  Co32  1  0.01044600  0.00266000  0.00909100  1
  Co  Co33  1  0.00690400  0.00315300  0.49985100  1
  Co  Co34  1  0.00717000  0.49971200  0.00061800  1
  Co  Co35  1  0.00306500  0.49942100  0.49788100  1
  Co  Co36  1  0.50752000  0.00251400  0.00488100  1
  Co  Co37  1  0.50487700  0.00028800  0.49963000  1
  Co  Co38  1  0.50780300  0.50185800  0.00371400  1
  Co  Co39  1  0.50290700  0.49711400  0.49691900  1
  Co  Co40  1  0.26164500  0.25582700  0.00640600  1
  Co  Co41  1  0.25316900  0.24762200  0.49846900  1
  Co  Co42  1  0.26160700  0.75432200  0.00810900  1
  Co  Co43  1  0.25675900  0.74893200  0.50025200  1
  Co  Co44  1  0.76030300  0.24827300  0.00351800  1
  Co  Co45  1  0.75096200  0.25005200  0.49720900  1
  Co  Co46  1  0.75787300  0.75229000  0.00297200  1
  Co  Co47  1  0.75301600  0.74886100  0.49771200  1
  Co  Co48  1  0.10100100  0.08844600  0.24595700  1
  Co  Co49  1  0.10847300  0.09515200  0.74882100  1
  Co  Co50  1  0.11257400  0.59872200  0.25426700  1
  Co  Co51  1  0.10663100  0.59491900  0.74648700  1
  Co  Co52  1  0.60093300  0.09330700  0.24911100  1
  Co  Co53  1  0.60805400  0.08855200  0.74408700  1
  Co  Co54  1  0.60126900  0.59406700  0.24749000  1
  Co  Co55  1  0.60912400  0.59315600  0.74777900  1
  Co  Co56  1  0.35931500  0.40280900  0.24821100  1
  Co  Co57  1  0.35649000  0.40332800  0.74455600  1
  Co  Co58  1  0.34824000  0.90071200  0.24578500  1
  Co  Co59  1  0.35869600  0.90331300  0.74768400  1
  Co  Co60  1  0.85857800  0.40540000  0.25424500  1
  Co  Co61  1  0.86009000  0.40444100  0.74909200  1
  Co  Co62  1  0.85775400  0.91031000  0.24813400  1
  Co  Co63  1  0.85890300  0.90330800  0.74906200  1
  O  O64  1  0.12191400  0.11475900  0.48193100  1
  O  O65  1  0.12685900  0.13541700  0.98963400  1
  O  O66  1  0.11905700  0.61507400  0.47943600  1
  O  O67  1  0.13045100  0.63435900  0.99023600  1
  O  O68  1  0.61778100  0.11536200  0.48003000  1
  O  O69  1  0.63062600  0.12206100  0.98933200  1
  O  O70  1  0.61689900  0.61373800  0.48219200  1
  O  O71  1  0.62830300  0.62897000  0.98712700  1
  O  O72  1  0.15359600  0.41104400  0.03236100  1
  O  O73  1  0.13294400  0.37778600  0.51541200  1
  O  O74  1  0.14855900  0.90153100  0.02285600  1
  O  O75  1  0.14098100  0.87587200  0.51494700  1
  O  O76  1  0.63991200  0.37743900  0.01244700  1
  O  O77  1  0.63274600  0.38018000  0.51634900  1
  O  O78  1  0.64599200  0.89772900  0.02505400  1
  O  O79  1  0.63592700  0.87862500  0.51126300  1
  O  O80  1  0.36896900  0.11410300  0.48011300  1
  O  O81  1  0.37885400  0.10905600  0.98546000  1
  O  O82  1  0.36940500  0.61193200  0.47950900  1
  O  O83  1  0.37550200  0.61813900  0.98331700  1
  O  O84  1  0.86687600  0.12352900  0.48161600  1
  O  O85  1  0.87872300  0.10922400  0.99405500  1
  O  O86  1  0.87154500  0.62082000  0.48301800  1
  O  O87  1  0.87974100  0.60870100  0.98785900  1
  O  O88  1  0.38709200  0.37560200  0.01377800  1
  O  O89  1  0.38087100  0.38171800  0.51096300  1
  O  O90  1  0.38577100  0.88311200  0.02213500  1
  O  O91  1  0.39075000  0.88405200  0.51791600  1
  O  O92  1  0.89181400  0.37649300  0.01725600  1
  O  O93  1  0.88100200  0.38872200  0.51448200  1
  O  O94  1  0.90227500  0.86856000  0.02480300  1
  O  O95  1  0.88773600  0.88937200  0.51108300  1
  O  O96  1  0.11626100  0.11448700  0.14804400  1
  O  O97  1  0.08121900  0.10287500  0.63686200  1
  O  O98  1  0.09845400  0.62773000  0.14948800  1
  O  O99  1  0.07808400  0.59667200  0.63217200  1
  O  O100  1  0.60698500  0.11406600  0.14709300  1
  O  O101  1  0.58153300  0.09565000  0.63118500  1
  O  O102  1  0.60754000  0.60566000  0.14413700  1
  O  O103  1  0.57780500  0.59476500  0.63357000  1
  O  O104  1  0.44292600  0.39977800  0.36191200  1
  O  O105  1  0.44838600  0.39057400  0.85287500  1
  O  O106  1  0.43225200  0.90348600  0.36176600  1
  O  O107  1  0.45160800  0.89210700  0.85788700  1
  O  O108  1  0.94189900  0.40044200  0.36722600  1
  O  O109  1  0.95567900  0.39281100  0.85988300  1
  O  O110  1  0.94692000  0.90383000  0.35956600  1
  O  O111  1  0.94804900  0.89830100  0.86176900  1
  O  O112  1  0.35000600  0.26873700  0.14552900  1
  O  O113  1  0.33113000  0.28513000  0.63159200  1
  O  O114  1  0.35156000  0.76788500  0.14709300  1
  O  O115  1  0.33026200  0.78385600  0.63480600  1
  O  O116  1  0.84453700  0.27585000  0.14957900  1
  O  O117  1  0.83062400  0.28845400  0.63532200  1
  O  O118  1  0.85270500  0.77973200  0.14614900  1
  O  O119  1  0.83739000  0.78498400  0.63854900  1
  O  O120  1  0.18147200  0.20482800  0.36111700  1
  O  O121  1  0.19596500  0.21595300  0.85860400  1
  O  O122  1  0.19546200  0.71619400  0.36632400  1
  O  O123  1  0.19633600  0.71813600  0.85506800  1
  O  O124  1  0.67970900  0.21176000  0.36263700  1
  O  O125  1  0.70151200  0.20852600  0.85239400  1
  O  O126  1  0.68310600  0.71595300  0.35846100  1
  O  O127  1  0.70134000  0.71563900  0.85800000  1
  O  O128  1  0.41274600  0.05789400  0.23612700  1
  O  O129  1  0.42886500  0.06420300  0.74823500  1
  O  O130  1  0.41171300  0.56145200  0.23615500  1
  O  O131  1  0.42796500  0.56572200  0.74737600  1
  O  O132  1  0.91216500  0.06679800  0.23460900  1
  O  O133  1  0.92628900  0.06489800  0.74807200  1
  O  O134  1  0.93251800  0.56165500  0.25114000  1
  O  O135  1  0.92766100  0.56649600  0.75087600  1
  O  O136  1  0.18033700  0.43720300  0.25038400  1
  O  O137  1  0.17800500  0.43529800  0.74913900  1
  O  O138  1  0.15929100  0.92005400  0.23577900  1
  O  O139  1  0.17881600  0.93447400  0.74982400  1
  O  O140  1  0.67703200  0.43603800  0.25219200  1
  O  O141  1  0.67929900  0.43286600  0.74995600  1
  O  O142  1  0.67717900  0.93576900  0.24899200  1
  O  O143  1  0.67649900  0.92920100  0.74812100  1
