# generated using pymatgen
data_AlW3C4
_symmetry_space_group_name_H-M   'P 1'
_cell_length_a   2.83236400
_cell_length_b   2.94740600
_cell_length_c   10.13795200
_cell_angle_alpha   90.00000000
_cell_angle_beta   90.00000000
_cell_angle_gamma   90.00000000
_symmetry_Int_Tables_number   1
_chemical_formula_structural   AlW3C4
_chemical_formula_sum   'Al1 W3 C4'
_cell_volume   84.63290725
_cell_formula_units_Z   1
loop_
 _symmetry_equiv_pos_site_id
 _symmetry_equiv_pos_as_xyz
  1  'x, y, z'
loop_
 _atom_site_type_symbol
 _atom_site_label
 _atom_site_symmetry_multiplicity
 _atom_site_fract_x
 _atom_site_fract_y
 _atom_site_fract_z
 _atom_site_occupancy
  Al  Al0  1  0.00000000  0.00000000  0.73889600  1
  W  W1  1  0.00000000  0.50000000  0.00188100  1
  W  W2  1  0.00000000  0.00000000  0.25134700  1
  W  W3  1  0.00000000  0.50000000  0.50165500  1
  C  C4  1  0.50000000  0.50000000  0.16804400  1
  C  C5  1  0.50000000  0.00000000  0.41766900  1
  C  C6  1  0.50000000  0.50000000  0.66168700  1
  C  C7  1  0.50000000  0.00000000  0.92552200  1
