# generated using pymatgen
data_Al2FeCo
_symmetry_space_group_name_H-M   'P 1'
_cell_length_a   2.86446700
_cell_length_b   2.86446700
_cell_length_c   5.73366400
_cell_angle_alpha   90.00000000
_cell_angle_beta   90.00000000
_cell_angle_gamma   90.00000000
_symmetry_Int_Tables_number   1
_chemical_formula_structural   Al2FeCo
_chemical_formula_sum   'Al2 Fe1 Co1'
_cell_volume   47.04569469
_cell_formula_units_Z   1
loop_
 _symmetry_equiv_pos_site_id
 _symmetry_equiv_pos_as_xyz
  1  'x, y, z'
loop_
 _atom_site_type_symbol
 _atom_site_label
 _atom_site_symmetry_multiplicity
 _atom_site_fract_x
 _atom_site_fract_y
 _atom_site_fract_z
 _atom_site_occupancy
  Al  Al0  1  0.00000000  0.00000000  0.74978500  1
  Al  Al1  1  0.00000000  0.00000000  0.25021500  1
  Fe  Fe2  1  0.50000000  0.50000000  0.50000000  1
  Co  Co3  1  0.50000000  0.50000000  0.00000000  1
