# generated using pymatgen
data_Sr3CaTiMn3O10
_symmetry_space_group_name_H-M   'P 1'
_cell_length_a   11.15750103
_cell_length_b   11.32787654
_cell_length_c   17.73652345
_cell_angle_alpha   108.55431675
_cell_angle_beta   108.53323025
_cell_angle_gamma   89.89965055
_symmetry_Int_Tables_number   1
_chemical_formula_structural   Sr3CaTiMn3O10
_chemical_formula_sum   'Sr24 Ca8 Ti8 Mn24 O80'
_cell_volume   2002.64233954
_cell_formula_units_Z   8
loop_
 _symmetry_equiv_pos_site_id
 _symmetry_equiv_pos_as_xyz
  1  'x, y, z'
loop_
 _atom_site_type_symbol
 _atom_site_label
 _atom_site_symmetry_multiplicity
 _atom_site_fract_x
 _atom_site_fract_y
 _atom_site_fract_z
 _atom_site_occupancy
  Sr  Sr0  1  0.30740500  0.05955500  0.60941700  1
  Sr  Sr1  1  0.30757100  0.55990700  0.60907300  1
  Sr  Sr2  1  0.80917600  0.06139900  0.60928000  1
  Sr  Sr3  1  0.80989800  0.56000700  0.61030400  1
  Sr  Sr4  1  0.19784500  0.43866200  0.39049900  1
  Sr  Sr5  1  0.19354000  0.43670800  0.88898800  1
  Sr  Sr6  1  0.19452800  0.93892100  0.38821400  1
  Sr  Sr7  1  0.69911100  0.43992900  0.38963600  1
  Sr  Sr8  1  0.69729400  0.43990800  0.88981400  1
  Sr  Sr9  1  0.70190600  0.93867500  0.38996500  1
  Sr  Sr10  1  0.69526900  0.93686000  0.88821000  1
  Sr  Sr11  1  0.05893100  0.29530000  0.11166300  1
  Sr  Sr12  1  0.05835000  0.29941100  0.60909200  1
  Sr  Sr13  1  0.05869300  0.79785500  0.60990000  1
  Sr  Sr14  1  0.55776100  0.30054000  0.60871700  1
  Sr  Sr15  1  0.55759500  0.80102600  0.11317800  1
  Sr  Sr16  1  0.55997300  0.79761200  0.60983200  1
  Sr  Sr17  1  0.44760700  0.20126800  0.38774300  1
  Sr  Sr18  1  0.44106200  0.20054300  0.88854200  1
  Sr  Sr19  1  0.44749600  0.69812400  0.38770800  1
  Sr  Sr20  1  0.44516600  0.69949900  0.88895600  1
  Sr  Sr21  1  0.94744900  0.19942800  0.38857200  1
  Sr  Sr22  1  0.94918700  0.20367900  0.88999000  1
  Sr  Sr23  1  0.94785700  0.69977500  0.38846000  1
  Ca  Ca24  1  0.30197400  0.06841600  0.10923700  1
  Ca  Ca25  1  0.30284800  0.56317100  0.10953800  1
  Ca  Ca26  1  0.80422800  0.06533000  0.10787300  1
  Ca  Ca27  1  0.80350700  0.56595700  0.11022200  1
  Ca  Ca28  1  0.19602900  0.93664300  0.89248200  1
  Ca  Ca29  1  0.05362100  0.79809600  0.10957500  1
  Ca  Ca30  1  0.55050700  0.29257700  0.11040700  1
  Ca  Ca31  1  0.94493400  0.70218500  0.89166300  1
  Ti  Ti32  1  0.00337100  0.99814000  0.99809900  1
  Ti  Ti33  1  0.00564000  0.50429000  0.00652300  1
  Ti  Ti34  1  0.50022800  0.00024300  0.00150700  1
  Ti  Ti35  1  0.50463000  0.99913200  0.49906000  1
  Ti  Ti36  1  0.50332200  0.50347700  0.00567500  1
  Ti  Ti37  1  0.24924300  0.75155300  0.00266700  1
  Ti  Ti38  1  0.74936600  0.25115800  0.00146300  1
  Ti  Ti39  1  0.75714900  0.75100800  0.00277500  1
  Mn  Mn40  1  0.00501900  0.99848900  0.49937100  1
  Mn  Mn41  1  0.00472400  0.50049600  0.50002100  1
  Mn  Mn42  1  0.50523000  0.50162100  0.50038200  1
  Mn  Mn43  1  0.25498900  0.25114100  0.00185300  1
  Mn  Mn44  1  0.25376400  0.24888700  0.49927600  1
  Mn  Mn45  1  0.25434600  0.74979500  0.49912100  1
  Mn  Mn46  1  0.75401000  0.25016100  0.49906500  1
  Mn  Mn47  1  0.75596200  0.74893700  0.49971500  1
  Mn  Mn48  1  0.10443300  0.09034300  0.24356700  1
  Mn  Mn49  1  0.11063700  0.09234400  0.75059100  1
  Mn  Mn50  1  0.11037100  0.59586600  0.24825500  1
  Mn  Mn51  1  0.11256600  0.60195400  0.75339600  1
  Mn  Mn52  1  0.60654900  0.09732900  0.24574600  1
  Mn  Mn53  1  0.61236900  0.09716800  0.74994000  1
  Mn  Mn54  1  0.61013600  0.58995900  0.24725100  1
  Mn  Mn55  1  0.61725100  0.59749500  0.75150500  1
  Mn  Mn56  1  0.36059400  0.40294000  0.24854900  1
  Mn  Mn57  1  0.36304500  0.40510200  0.75284900  1
  Mn  Mn58  1  0.35838100  0.90429200  0.24693000  1
  Mn  Mn59  1  0.36135100  0.90402300  0.75262200  1
  Mn  Mn60  1  0.85457000  0.40050400  0.24493600  1
  Mn  Mn61  1  0.86253500  0.40877700  0.75449800  1
  Mn  Mn62  1  0.86402500  0.90655400  0.24716900  1
  Mn  Mn63  1  0.86475000  0.90196200  0.75051600  1
  O  O64  1  0.12637900  0.12297900  0.49399200  1
  O  O65  1  0.12321800  0.10834600  0.99087700  1
  O  O66  1  0.12768300  0.62543000  0.49239000  1
  O  O67  1  0.12212400  0.62547600  0.98715100  1
  O  O68  1  0.62474700  0.12131600  0.49269000  1
  O  O69  1  0.62722400  0.12432600  0.99335900  1
  O  O70  1  0.62374700  0.62129400  0.49243300  1
  O  O71  1  0.63029200  0.62343900  0.99202700  1
  O  O72  1  0.13161300  0.39138500  0.01185300  1
  O  O73  1  0.13192700  0.37485000  0.50474600  1
  O  O74  1  0.13953000  0.87872100  0.01648800  1
  O  O75  1  0.13203500  0.88013100  0.50758300  1
  O  O76  1  0.63867300  0.37924300  0.01389800  1
  O  O77  1  0.63102800  0.37552900  0.50479500  1
  O  O78  1  0.64123200  0.88042300  0.01287400  1
  O  O79  1  0.63214000  0.87891200  0.50721700  1
  O  O80  1  0.37592300  0.11812500  0.49165700  1
  O  O81  1  0.38017500  0.11219300  0.99173800  1
  O  O82  1  0.37618000  0.62064600  0.49323200  1
  O  O83  1  0.37684900  0.61799200  0.99130400  1
  O  O84  1  0.87570700  0.12146200  0.49456900  1
  O  O85  1  0.87649100  0.11593600  0.99224300  1
  O  O86  1  0.87334300  0.62206900  0.49158200  1
  O  O87  1  0.87913900  0.62316700  0.99017800  1
  O  O88  1  0.39516600  0.38993800  0.01645200  1
  O  O89  1  0.37964000  0.37565000  0.50344500  1
  O  O90  1  0.38711800  0.88561600  0.01402700  1
  O  O91  1  0.38504600  0.88155200  0.50777400  1
  O  O92  1  0.88503200  0.38939300  0.01448400  1
  O  O93  1  0.87895500  0.37587300  0.50479500  1
  O  O94  1  0.88954300  0.88050800  0.01448500  1
  O  O95  1  0.88372500  0.88063600  0.50663900  1
  O  O96  1  0.07805300  0.08250200  0.12869100  1
  O  O97  1  0.07579400  0.08039700  0.63499300  1
  O  O98  1  0.07917500  0.59794600  0.12626400  1
  O  O99  1  0.07508900  0.58546500  0.63301500  1
  O  O100  1  0.58161500  0.08902800  0.12794900  1
  O  O101  1  0.57385900  0.08423000  0.62738300  1
  O  O102  1  0.58569200  0.58983800  0.12633700  1
  O  O103  1  0.57451800  0.58160600  0.63178200  1
  O  O104  1  0.44072800  0.41993400  0.36430000  1
  O  O105  1  0.44821800  0.41745400  0.87332700  1
  O  O106  1  0.44489400  0.91807000  0.37077500  1
  O  O107  1  0.45094800  0.91554000  0.87535000  1
  O  O108  1  0.93650700  0.41940200  0.36239200  1
  O  O109  1  0.94130000  0.41667200  0.87146000  1
  O  O110  1  0.94437100  0.91805300  0.36838800  1
  O  O111  1  0.95188800  0.90395500  0.87615300  1
  O  O112  1  0.33174600  0.28799500  0.13815700  1
  O  O113  1  0.32750900  0.30172600  0.63909100  1
  O  O114  1  0.32540800  0.77839600  0.12525300  1
  O  O115  1  0.32396900  0.80161300  0.63468100  1
  O  O116  1  0.82673600  0.28390700  0.12695200  1
  O  O117  1  0.82997800  0.30731200  0.64133100  1
  O  O118  1  0.83150700  0.78154700  0.12684200  1
  O  O119  1  0.82429600  0.79508200  0.62885800  1
  O  O120  1  0.18399100  0.18998800  0.35716300  1
  O  O121  1  0.18943400  0.20341800  0.86309100  1
  O  O122  1  0.19384500  0.70544800  0.36840400  1
  O  O123  1  0.20156300  0.71986400  0.87751000  1
  O  O124  1  0.68303700  0.19501800  0.36038500  1
  O  O125  1  0.70045000  0.20965700  0.87783600  1
  O  O126  1  0.69166900  0.70202100  0.36836300  1
  O  O127  1  0.70440000  0.70848500  0.87528800  1
  O  O128  1  0.42475100  0.07086400  0.23895700  1
  O  O129  1  0.43243200  0.06584900  0.75238000  1
  O  O130  1  0.42268700  0.56139600  0.23886900  1
  O  O131  1  0.43876600  0.56397100  0.75231100  1
  O  O132  1  0.92500400  0.07486500  0.23932100  1
  O  O133  1  0.93771200  0.07148800  0.75245100  1
  O  O134  1  0.92291800  0.55999100  0.23895300  1
  O  O135  1  0.93383800  0.57406100  0.76074300  1
  O  O136  1  0.18513800  0.42786900  0.24796100  1
  O  O137  1  0.18798800  0.43479000  0.75265800  1
  O  O138  1  0.17123100  0.92729100  0.24037200  1
  O  O139  1  0.18410800  0.93337500  0.76056800  1
  O  O140  1  0.67222500  0.41500900  0.24008000  1
  O  O141  1  0.68664500  0.42939300  0.75154300  1
  O  O142  1  0.68377700  0.94086800  0.24813400  1
  O  O143  1  0.68609300  0.93268800  0.75231900  1
