# generated using pymatgen
data_AuN7O9
_symmetry_space_group_name_H-M   'P 1'
_cell_length_a   8.06261916
_cell_length_b   8.06261916
_cell_length_c   5.35906100
_cell_angle_alpha   90.00000000
_cell_angle_beta   90.00000000
_cell_angle_gamma   123.70044461
_symmetry_Int_Tables_number   1
_chemical_formula_structural   AuN7O9
_chemical_formula_sum   'Au1 N7 O9'
_cell_volume   289.82652069
_cell_formula_units_Z   1
loop_
 _symmetry_equiv_pos_site_id
 _symmetry_equiv_pos_as_xyz
  1  'x, y, z'
loop_
 _atom_site_type_symbol
 _atom_site_label
 _atom_site_symmetry_multiplicity
 _atom_site_fract_x
 _atom_site_fract_y
 _atom_site_fract_z
 _atom_site_occupancy
  Au  Au0  1  0.99902700  0.99902700  0.00000000  1
  N  N1  1  0.22770200  0.76604500  0.50000000  1
  N  N2  1  0.76604500  0.22770200  0.50000000  1
  N  N3  1  0.29401400  0.08946800  0.00000000  1
  N  N4  1  0.70547100  0.90802800  0.00000000  1
  N  N5  1  0.08946800  0.29401400  0.00000000  1
  N  N6  1  0.90802800  0.70547100  0.00000000  1
  N  N7  1  0.43067000  0.43067000  0.50000000  1
  O  O8  1  0.13381100  0.84847500  0.50000000  1
  O  O9  1  0.84847500  0.13381100  0.50000000  1
  O  O10  1  0.27509900  0.72463500  0.29752900  1
  O  O11  1  0.72463500  0.27509900  0.29752900  1
  O  O12  1  0.72463500  0.27509900  0.70247100  1
  O  O13  1  0.27509900  0.72463500  0.70247100  1
  O  O14  1  0.51228800  0.51228800  0.29692100  1
  O  O15  1  0.51228800  0.51228800  0.70307900  1
  O  O16  1  0.26524500  0.26524500  0.50000000  1
