# generated using pymatgen
data_CsVCoF6
_symmetry_space_group_name_H-M   'P 1'
_cell_length_a   7.54585880
_cell_length_b   7.54585880
_cell_length_c   7.54585880
_cell_angle_alpha   120.61299189
_cell_angle_beta   120.39132563
_cell_angle_gamma   89.13252286
_symmetry_Int_Tables_number   1
_chemical_formula_structural   CsVCoF6
_chemical_formula_sum   'Cs2 V2 Co2 F12'
_cell_volume   301.47136165
_cell_formula_units_Z   2
loop_
 _symmetry_equiv_pos_site_id
 _symmetry_equiv_pos_as_xyz
  1  'x, y, z'
loop_
 _atom_site_type_symbol
 _atom_site_label
 _atom_site_symmetry_multiplicity
 _atom_site_fract_x
 _atom_site_fract_y
 _atom_site_fract_z
 _atom_site_occupancy
  Cs  Cs0  1  0.37059600  0.12059600  0.25000000  1
  Cs  Cs1  1  0.62940400  0.87940400  0.75000000  1
  V  V2  1  0.00000000  0.50000000  0.50000000  1
  V  V3  1  0.50000000  0.50000000  0.00000000  1
  Co  Co4  1  0.00000000  0.50000000  0.00000000  1
  Co  Co5  1  0.00000000  0.00000000  0.50000000  1
  F  F6  1  0.31406200  0.56406200  0.75000000  1
  F  F7  1  0.92839200  0.17839200  0.75000000  1
  F  F8  1  0.32685600  0.18798200  0.75886600  1
  F  F9  1  0.92911600  0.56799000  0.74113400  1
  F  F10  1  0.32685600  0.56799000  0.13887300  1
  F  F11  1  0.92911600  0.18798200  0.36112700  1
  F  F12  1  0.68593800  0.43593800  0.25000000  1
  F  F13  1  0.07160800  0.82160800  0.25000000  1
  F  F14  1  0.67314400  0.81201800  0.24113400  1
  F  F15  1  0.07088400  0.43201000  0.25886600  1
  F  F16  1  0.67314400  0.43201000  0.86112700  1
  F  F17  1  0.07088400  0.81201800  0.63887300  1
