# generated using pymatgen
data_K5Na3Ta3Nb5O24
_symmetry_space_group_name_H-M   'P 1'
_cell_length_a   8.05231600
_cell_length_b   8.05293400
_cell_length_c   8.05372401
_cell_angle_alpha   90.00140145
_cell_angle_beta   90.00165761
_cell_angle_gamma   90.00147990
_symmetry_Int_Tables_number   1
_chemical_formula_structural   K5Na3Ta3Nb5O24
_chemical_formula_sum   'K5 Na3 Ta3 Nb5 O24'
_cell_volume   522.24187475
_cell_formula_units_Z   1
loop_
 _symmetry_equiv_pos_site_id
 _symmetry_equiv_pos_as_xyz
  1  'x, y, z'
loop_
 _atom_site_type_symbol
 _atom_site_label
 _atom_site_symmetry_multiplicity
 _atom_site_fract_x
 _atom_site_fract_y
 _atom_site_fract_z
 _atom_site_occupancy
  K  K0  1  0.74995200  0.74995400  0.25013000  1
  K  K1  1  0.74995100  0.74995200  0.74987100  1
  K  K2  1  0.74994800  0.25005200  0.25012600  1
  K  K3  1  0.74994600  0.25004000  0.74986900  1
  K  K4  1  0.25006100  0.25005100  0.74986800  1
  Na  Na5  1  0.25000500  0.74999400  0.25001400  1
  Na  Na6  1  0.25000500  0.74999400  0.74998300  1
  Na  Na7  1  0.25000500  0.25000700  0.25001500  1
  Ta  Ta8  1  0.00070600  0.99976500  0.00023900  1
  Ta  Ta9  1  0.49929000  0.99975700  0.00023800  1
  Ta  Ta10  1  0.00073200  0.50023600  0.00023900  1
  Nb  Nb11  1  0.00069000  0.99977300  0.49977600  1
  Nb  Nb12  1  0.49930900  0.99977300  0.49977800  1
  Nb  Nb13  1  0.49933000  0.50022100  0.00022300  1
  Nb  Nb14  1  0.00068500  0.50022900  0.49977800  1
  Nb  Nb15  1  0.49931100  0.50022800  0.49976800  1
  O  O16  1  0.00153300  0.75008400  0.00007300  1
  O  O17  1  0.49847700  0.75107400  0.00007100  1
  O  O18  1  0.00151100  0.75000900  0.49993000  1
  O  O19  1  0.49848300  0.75008200  0.49993200  1
  O  O20  1  0.00089000  0.24991500  0.00073400  1
  O  O21  1  0.49911900  0.24891400  0.00073300  1
  O  O22  1  0.00086700  0.24999200  0.49927400  1
  O  O23  1  0.49913100  0.24991600  0.49927100  1
  O  O24  1  0.00152400  0.99992900  0.24875800  1
  O  O25  1  0.49847100  0.99993100  0.24883800  1
  O  O26  1  0.00087900  0.99926500  0.75125800  1
  O  O27  1  0.49911700  0.99926300  0.75117600  1
  O  O28  1  0.00152700  0.50007000  0.24883800  1
  O  O29  1  0.49848800  0.50006700  0.24982800  1
  O  O30  1  0.00088000  0.50073500  0.75117700  1
  O  O31  1  0.49913100  0.50072900  0.75017800  1
  O  O32  1  0.75008700  0.99992100  0.00007800  1
  O  O33  1  0.24991700  0.99927700  0.00072200  1
  O  O34  1  0.75000600  0.99993000  0.49992600  1
  O  O35  1  0.24999100  0.99928700  0.49928600  1
  O  O36  1  0.75109700  0.50007500  0.00007300  1
  O  O37  1  0.24894300  0.50072000  0.00072100  1
  O  O38  1  0.75008700  0.50007100  0.49992900  1
  O  O39  1  0.24992000  0.50071800  0.49928200  1
