# generated using pymatgen
data_Ba8Ge43Pd3
_symmetry_space_group_name_H-M   'P 1'
_cell_length_a   10.95691462
_cell_length_b   10.95691462
_cell_length_c   10.95691408
_cell_angle_alpha   90.25794305
_cell_angle_beta   90.25794305
_cell_angle_gamma   90.25794445
_symmetry_Int_Tables_number   1
_chemical_formula_structural   Ba8Ge43Pd3
_chemical_formula_sum   'Ba8 Ge43 Pd3'
_cell_volume   1315.38101007
_cell_formula_units_Z   1
loop_
 _symmetry_equiv_pos_site_id
 _symmetry_equiv_pos_as_xyz
  1  'x, y, z'
loop_
 _atom_site_type_symbol
 _atom_site_label
 _atom_site_symmetry_multiplicity
 _atom_site_fract_x
 _atom_site_fract_y
 _atom_site_fract_z
 _atom_site_occupancy
  Ba  Ba0  1  0.74829400  0.74829400  0.74829400  1
  Ba  Ba1  1  0.25170600  0.25170600  0.25170600  1
  Ba  Ba2  1  0.00000000  0.25423700  0.74576300  1
  Ba  Ba3  1  0.25423700  0.74576300  0.00000000  1
  Ba  Ba4  1  0.74576300  0.00000000  0.25423700  1
  Ba  Ba5  1  0.50000000  0.25421700  0.74578300  1
  Ba  Ba6  1  0.25421700  0.74578300  0.50000000  1
  Ba  Ba7  1  0.74578300  0.50000000  0.25421700  1
  Ge  Ge8  1  0.75038700  0.05695400  0.86521500  1
  Ge  Ge9  1  0.05695400  0.86521500  0.75038800  1
  Ge  Ge10  1  0.86521500  0.75038800  0.05695400  1
  Ge  Ge11  1  0.74983400  0.43455900  0.62621200  1
  Ge  Ge12  1  0.43455900  0.62621200  0.74983400  1
  Ge  Ge13  1  0.62621200  0.74983400  0.43455900  1
  Ge  Ge14  1  0.75016800  0.06720400  0.62788600  1
  Ge  Ge15  1  0.44350000  0.86547700  0.74982300  1
  Ge  Ge16  1  0.74982300  0.44350000  0.86547700  1
  Ge  Ge17  1  0.06720400  0.62788600  0.75016800  1
  Ge  Ge18  1  0.86547700  0.74982300  0.44350000  1
  Ge  Ge19  1  0.62788600  0.75016800  0.06720400  1
  Ge  Ge20  1  0.13452300  0.55650000  0.25017700  1
  Ge  Ge21  1  0.24983200  0.37211400  0.93279600  1
  Ge  Ge22  1  0.94304600  0.24961300  0.13478500  1
  Ge  Ge23  1  0.37211400  0.93279600  0.24983200  1
  Ge  Ge24  1  0.25017700  0.13452300  0.55650000  1
  Ge  Ge25  1  0.56544100  0.25016600  0.37378800  1
  Ge  Ge26  1  0.37378800  0.56544100  0.25016600  1
  Ge  Ge27  1  0.25016600  0.37378800  0.56544100  1
  Ge  Ge28  1  0.13478500  0.94304600  0.24961300  1
  Ge  Ge29  1  0.24961200  0.13478500  0.94304600  1
  Ge  Ge30  1  0.55650000  0.25017700  0.13452300  1
  Ge  Ge31  1  0.93279600  0.24983200  0.37211400  1
  Ge  Ge32  1  0.93437100  0.93437100  0.93437100  1
  Ge  Ge33  1  0.56721500  0.56721500  0.56721500  1
  Ge  Ge34  1  0.56643000  0.93419400  0.56687100  1
  Ge  Ge35  1  0.93517700  0.56685300  0.93437000  1
  Ge  Ge36  1  0.93419400  0.56687100  0.56643000  1
  Ge  Ge37  1  0.56685300  0.93437000  0.93517700  1
  Ge  Ge38  1  0.56687100  0.56643000  0.93419400  1
  Ge  Ge39  1  0.93437000  0.93517700  0.56685300  1
  Ge  Ge40  1  0.06563000  0.43314700  0.06482300  1
  Ge  Ge41  1  0.43312900  0.06580600  0.43357000  1
  Ge  Ge42  1  0.43278500  0.43278500  0.43278500  1
  Ge  Ge43  1  0.06562900  0.06562900  0.06562900  1
  Ge  Ge44  1  0.43314700  0.06482300  0.06563000  1
  Ge  Ge45  1  0.06580600  0.43357000  0.43312900  1
  Ge  Ge46  1  0.06482300  0.06563000  0.43314700  1
  Ge  Ge47  1  0.43357000  0.43312900  0.06580600  1
  Ge  Ge48  1  0.00000000  0.74939700  0.25060300  1
  Ge  Ge49  1  0.74939700  0.25060300  0.00000000  1
  Ge  Ge50  1  0.25060300  0.00000000  0.74939700  1
  Pd  Pd51  1  0.50000000  0.75039400  0.24960600  1
  Pd  Pd52  1  0.75039400  0.24960600  0.50000000  1
  Pd  Pd53  1  0.24960600  0.50000000  0.75039400  1
