# generated using pymatgen
data_Ba10Nb3Bi7O30
_symmetry_space_group_name_H-M   'P 1'
_cell_length_a   6.21729106
_cell_length_b   13.88179883
_cell_length_c   10.68131194
_cell_angle_alpha   97.08131231
_cell_angle_beta   73.01325754
_cell_angle_gamma   77.06727758
_symmetry_Int_Tables_number   1
_chemical_formula_structural   Ba10Nb3Bi7O30
_chemical_formula_sum   'Ba10 Nb3 Bi7 O30'
_cell_volume   841.50487430
_cell_formula_units_Z   1
loop_
 _symmetry_equiv_pos_site_id
 _symmetry_equiv_pos_as_xyz
  1  'x, y, z'
loop_
 _atom_site_type_symbol
 _atom_site_label
 _atom_site_symmetry_multiplicity
 _atom_site_fract_x
 _atom_site_fract_y
 _atom_site_fract_z
 _atom_site_occupancy
  Ba  Ba0  1  0.95128700  0.64752800  0.44831900  1
  Ba  Ba1  1  0.34838500  0.45074500  0.85115000  1
  Ba  Ba2  1  0.74878600  0.25299000  0.25119100  1
  Ba  Ba3  1  0.14960600  0.05134800  0.65036900  1
  Ba  Ba4  1  0.55125700  0.84748200  0.04918900  1
  Ba  Ba5  1  0.25121400  0.74701000  0.74880900  1
  Ba  Ba6  1  0.65161500  0.54925500  0.14885000  1
  Ba  Ba7  1  0.04871300  0.35247200  0.55168100  1
  Ba  Ba8  1  0.44874300  0.15251800  0.95081100  1
  Ba  Ba9  1  0.85039400  0.94865200  0.34963100  1
  Nb  Nb10  1  0.89770300  0.29971800  0.90134600  1
  Nb  Nb11  1  0.50000000  0.50000000  0.50000000  1
  Nb  Nb12  1  0.10229700  0.70028200  0.09865400  1
  Bi  Bi13  1  0.40458100  0.79627900  0.39627300  1
  Bi  Bi14  1  0.80159300  0.59710000  0.80075500  1
  Bi  Bi15  1  0.19840700  0.40290000  0.19924500  1
  Bi  Bi16  1  0.59541900  0.20372100  0.60372700  1
  Bi  Bi17  1  0.00000000  0.00000000  0.00000000  1
  Bi  Bi18  1  0.70087000  0.89905000  0.69892500  1
  Bi  Bi19  1  0.29913000  0.10095000  0.30107500  1
  O  O20  1  0.02881700  0.82843300  0.54122900  1
  O  O21  1  0.62827600  0.02964200  0.14235400  1
  O  O22  1  0.21065500  0.23624400  0.75211900  1
  O  O23  1  0.81179900  0.43536900  0.35091700  1
  O  O24  1  0.41143500  0.63252500  0.95114300  1
  O  O25  1  0.51156500  0.87183600  0.56334900  1
  O  O26  1  0.11050100  0.07386300  0.16492000  1
  O  O27  1  0.72011500  0.27763000  0.77355700  1
  O  O28  1  0.32392000  0.47534400  0.37086200  1
  O  O29  1  0.92494300  0.67224000  0.97040400  1
  O  O30  1  0.70509300  0.04614000  0.65223000  1
  O  O31  1  0.30603900  0.24598000  0.24928400  1
  O  O32  1  0.90630300  0.43832500  0.85212900  1
  O  O33  1  0.50783200  0.63702700  0.45251000  1
  O  O34  1  0.10549900  0.83706300  0.05373400  1
  O  O35  1  0.37172400  0.97035800  0.85764600  1
  O  O36  1  0.97118300  0.17156700  0.45877100  1
  O  O37  1  0.58856500  0.36747500  0.04885700  1
  O  O38  1  0.18820100  0.56463100  0.64908300  1
  O  O39  1  0.78934500  0.76375600  0.24788100  1
  O  O40  1  0.88949900  0.92613700  0.83508000  1
  O  O41  1  0.48843500  0.12816400  0.43665100  1
  O  O42  1  0.07505700  0.32776000  0.02959600  1
  O  O43  1  0.67608000  0.52465600  0.62913800  1
  O  O44  1  0.27988500  0.72237000  0.22644300  1
  O  O45  1  0.69396100  0.75402000  0.75071600  1
  O  O46  1  0.29490700  0.95386000  0.34777000  1
  O  O47  1  0.89450100  0.16293700  0.94626600  1
  O  O48  1  0.49216800  0.36297300  0.54749000  1
  O  O49  1  0.09369700  0.56167500  0.14787100  1
