# generated using pymatgen
data_AlSi3AgO8
_symmetry_space_group_name_H-M   'P 1'
_cell_length_a   7.27958900
_cell_length_b   7.86335384
_cell_length_c   7.56155977
_cell_angle_alpha   115.16573898
_cell_angle_beta   100.59955147
_cell_angle_gamma   106.78707825
_symmetry_Int_Tables_number   1
_chemical_formula_structural   AlSi3AgO8
_chemical_formula_sum   'Al2 Si6 Ag2 O16'
_cell_volume   350.77038278
_cell_formula_units_Z   2
loop_
 _symmetry_equiv_pos_site_id
 _symmetry_equiv_pos_as_xyz
  1  'x, y, z'
loop_
 _atom_site_type_symbol
 _atom_site_label
 _atom_site_symmetry_multiplicity
 _atom_site_fract_x
 _atom_site_fract_y
 _atom_site_fract_z
 _atom_site_occupancy
  Al  Al0  1  0.21098400  0.17857300  0.82883300  1
  Al  Al1  1  0.78901600  0.82142700  0.17116700  1
  Si  Si2  1  0.32119200  0.80394500  0.57302600  1
  Si  Si3  1  0.67880800  0.19605500  0.42697400  1
  Si  Si4  1  0.23777000  0.82539400  0.18120900  1
  Si  Si5  1  0.76223000  0.17460600  0.81879100  1
  Si  Si6  1  0.36418800  0.57599600  0.80219400  1
  Si  Si7  1  0.63581200  0.42400400  0.19780600  1
  Ag  Ag8  1  0.12869800  0.25899300  0.26346800  1
  Ag  Ag9  1  0.87130200  0.74100700  0.73653200  1
  O  O10  1  0.97073800  0.13915700  0.86034700  1
  O  O11  1  0.02926200  0.86084300  0.13965300  1
  O  O12  1  0.43331300  0.04946000  0.31163100  1
  O  O13  1  0.56668700  0.95054000  0.68836900  1
  O  O14  1  0.18880000  0.92484300  0.67603000  1
  O  O15  1  0.81120000  0.07515700  0.32397000  1
  O  O16  1  0.28900500  0.59651100  0.59280800  1
  O  O17  1  0.71099500  0.40348900  0.40719200  1
  O  O18  1  0.24830700  0.68211400  0.95584500  1
  O  O19  1  0.75169300  0.31788600  0.04415500  1
  O  O20  1  0.38794000  0.29833800  0.08499600  1
  O  O21  1  0.61206000  0.70166200  0.91500400  1
  O  O22  1  0.24620200  0.71274400  0.32046700  1
  O  O23  1  0.75379800  0.28725600  0.67953300  1
  O  O24  1  0.28180800  0.33247100  0.71992500  1
  O  O25  1  0.71819200  0.66752900  0.28007500  1
