# generated using pymatgen
data_Ba2Pb(SO4)3
_symmetry_space_group_name_H-M   'P 1'
_cell_length_a   5.54751700
_cell_length_b   7.21350300
_cell_length_c   26.66186967
_cell_angle_alpha   89.69746758
_cell_angle_beta   90.00000000
_cell_angle_gamma   90.00000000
_symmetry_Int_Tables_number   1
_chemical_formula_structural   Ba2Pb(SO4)3
_chemical_formula_sum   'Ba8 Pb4 S12 O48'
_cell_volume   1066.91397923
_cell_formula_units_Z   4
loop_
 _symmetry_equiv_pos_site_id
 _symmetry_equiv_pos_as_xyz
  1  'x, y, z'
loop_
 _atom_site_type_symbol
 _atom_site_label
 _atom_site_symmetry_multiplicity
 _atom_site_fract_x
 _atom_site_fract_y
 _atom_site_fract_z
 _atom_site_occupancy
  Ba  Ba0  1  0.50000000  0.84135300  0.39518000  1
  Ba  Ba1  1  0.50000000  0.84129600  0.72854300  1
  Ba  Ba2  1  0.00000000  0.34128200  0.10525800  1
  Ba  Ba3  1  0.00000000  0.34178000  0.43909100  1
  Ba  Ba4  1  0.00000000  0.34173000  0.77246800  1
  Ba  Ba5  1  0.00000000  0.15846400  0.27137300  1
  Ba  Ba6  1  0.00000000  0.15874900  0.60500700  1
  Ba  Ba7  1  0.00000000  0.15867000  0.93890600  1
  Pb  Pb8  1  0.50000000  0.66739700  0.22933100  1
  Pb  Pb9  1  0.50000000  0.66671200  0.56302500  1
  Pb  Pb10  1  0.50000000  0.66631300  0.89685900  1
  Pb  Pb11  1  0.50000000  0.83280100  0.06323200  1
  S  S12  1  0.00000000  0.68654600  0.31075600  1
  S  S13  1  0.00000000  0.68666600  0.64416000  1
  S  S14  1  0.00000000  0.68687300  0.97898300  1
  S  S15  1  0.00000000  0.81318900  0.14559300  1
  S  S16  1  0.00000000  0.81074700  0.48049200  1
  S  S17  1  0.00000000  0.81070100  0.81391500  1
  S  S18  1  0.50000000  0.31252800  0.02061100  1
  S  S19  1  0.50000000  0.31212200  0.35379100  1
  S  S20  1  0.50000000  0.31204200  0.68717200  1
  S  S21  1  0.50000000  0.18747300  0.18720900  1
  S  S22  1  0.50000000  0.18896300  0.52105700  1
  S  S23  1  0.50000000  0.18889900  0.85445000  1
  O  O24  1  0.00000000  0.54658700  0.27020300  1
  O  O25  1  0.00000000  0.54671000  0.60360500  1
  O  O26  1  0.00000000  0.55089800  0.93728500  1
  O  O27  1  0.00000000  0.94976600  0.10364600  1
  O  O28  1  0.00000000  0.94598100  0.43794500  1
  O  O29  1  0.00000000  0.94596400  0.77135100  1
  O  O30  1  0.50000000  0.45584900  0.06125500  1
  O  O31  1  0.50000000  0.45076400  0.39505800  1
  O  O32  1  0.50000000  0.45072000  0.72840400  1
  O  O33  1  0.50000000  0.04371300  0.22811000  1
  O  O34  1  0.50000000  0.04488700  0.56173700  1
  O  O35  1  0.50000000  0.04463600  0.89510000  1
  O  O36  1  0.22051200  0.80823500  0.30469300  1
  O  O37  1  0.22047300  0.80834700  0.63811900  1
  O  O38  1  0.22161000  0.80879600  0.97382500  1
  O  O39  1  0.77837500  0.69126100  0.14048500  1
  O  O40  1  0.77984100  0.68872700  0.47590600  1
  O  O41  1  0.77979100  0.68873700  0.80931700  1
  O  O42  1  0.71830600  0.19096700  0.02688800  1
  O  O43  1  0.71873100  0.19008700  0.35938600  1
  O  O44  1  0.71870400  0.19000900  0.69276700  1
  O  O45  1  0.28171500  0.30887900  0.19333700  1
  O  O46  1  0.28153600  0.31003000  0.52699700  1
  O  O47  1  0.28148400  0.31000700  0.86044600  1
  O  O48  1  0.28169400  0.19096700  0.02688800  1
  O  O49  1  0.28126900  0.19008700  0.35938600  1
  O  O50  1  0.28129600  0.19000900  0.69276700  1
  O  O51  1  0.71828500  0.30887900  0.19333700  1
  O  O52  1  0.71846400  0.31003000  0.52699700  1
  O  O53  1  0.71851600  0.31000700  0.86044600  1
  O  O54  1  0.77948800  0.80823500  0.30469300  1
  O  O55  1  0.77952700  0.80834700  0.63811900  1
  O  O56  1  0.77839000  0.80879600  0.97382500  1
  O  O57  1  0.22162500  0.69126100  0.14048500  1
  O  O58  1  0.22015900  0.68872700  0.47590600  1
  O  O59  1  0.22020900  0.68873700  0.80931700  1
  O  O60  1  0.00000000  0.59950500  0.02917500  1
  O  O61  1  0.00000000  0.60447400  0.36172500  1
  O  O62  1  0.00000000  0.60445200  0.69510500  1
  O  O63  1  0.00000000  0.89975200  0.19556300  1
  O  O64  1  0.00000000  0.90232600  0.52974400  1
  O  O65  1  0.00000000  0.90238300  0.86319300  1
  O  O66  1  0.50000000  0.39976100  0.30339600  1
  O  O67  1  0.50000000  0.39960600  0.63675700  1
  O  O68  1  0.50000000  0.39751300  0.96986700  1
  O  O69  1  0.50000000  0.10285200  0.13664100  1
  O  O70  1  0.50000000  0.10459600  0.47048700  1
  O  O71  1  0.50000000  0.10484100  0.80385400  1
