# generated using pymatgen
data_K4Na4VMo7O20
_symmetry_space_group_name_H-M   'P 1'
_cell_length_a   11.47046842
_cell_length_b   11.78320454
_cell_length_c   17.36238400
_cell_angle_alpha   109.89485634
_cell_angle_beta   109.32358097
_cell_angle_gamma   89.90072443
_symmetry_Int_Tables_number   1
_chemical_formula_structural   K4Na4VMo7O20
_chemical_formula_sum   'K16 Na16 V4 Mo28 O80'
_cell_volume   2065.99815935
_cell_formula_units_Z   4
loop_
 _symmetry_equiv_pos_site_id
 _symmetry_equiv_pos_as_xyz
  1  'x, y, z'
loop_
 _atom_site_type_symbol
 _atom_site_label
 _atom_site_symmetry_multiplicity
 _atom_site_fract_x
 _atom_site_fract_y
 _atom_site_fract_z
 _atom_site_occupancy
  K  K0  1  0.30384000  0.06601800  0.10787900  1
  K  K1  1  0.30313200  0.56230700  0.10708000  1
  K  K2  1  0.80339700  0.06368200  0.10889100  1
  K  K3  1  0.80305800  0.56259500  0.10777600  1
  K  K4  1  0.20092200  0.93566500  0.39575400  1
  K  K5  1  0.19049100  0.92312800  0.87865400  1
  K  K6  1  0.69858000  0.43740700  0.39721200  1
  K  K7  1  0.68813900  0.42778600  0.87906900  1
  K  K8  1  0.69853000  0.93361500  0.39534900  1
  K  K9  1  0.05690700  0.29473700  0.10893200  1
  K  K10  1  0.05160600  0.79129100  0.10614400  1
  K  K11  1  0.55364900  0.29231900  0.10620800  1
  K  K12  1  0.55280600  0.79333200  0.10424300  1
  K  K13  1  0.45009300  0.71066300  0.39796600  1
  K  K14  1  0.43738200  0.70218600  0.87647700  1
  K  K15  1  0.94191700  0.70209500  0.87898300  1
  Na  Na16  1  0.29788000  0.07137200  0.60740700  1
  Na  Na17  1  0.30807700  0.56840900  0.60816300  1
  Na  Na18  1  0.80358900  0.06892500  0.60602200  1
  Na  Na19  1  0.81023100  0.56901300  0.60516900  1
  Na  Na20  1  0.20131000  0.43877000  0.40644700  1
  Na  Na21  1  0.19944300  0.43144300  0.88919700  1
  Na  Na22  1  0.69782900  0.93099400  0.89385200  1
  Na  Na23  1  0.05849900  0.28900400  0.60822400  1
  Na  Na24  1  0.05788600  0.78455400  0.60680400  1
  Na  Na25  1  0.55437600  0.28968100  0.60501100  1
  Na  Na26  1  0.55163500  0.78415800  0.60505700  1
  Na  Na27  1  0.45038400  0.21705800  0.40638800  1
  Na  Na28  1  0.44212000  0.21062000  0.89138700  1
  Na  Na29  1  0.95011000  0.21825700  0.40545700  1
  Na  Na30  1  0.94634000  0.21269200  0.89335400  1
  Na  Na31  1  0.95078100  0.71698700  0.40506600  1
  V  V32  1  0.10553300  0.57962800  0.74333600  1
  V  V33  1  0.59912600  0.58478200  0.74314600  1
  V  V34  1  0.34988000  0.40685100  0.74438000  1
  V  V35  1  0.34713000  0.91477000  0.74406000  1
  Mo  Mo36  1  0.00341600  0.99810600  0.99406100  1
  Mo  Mo37  1  0.01261100  0.00280200  0.50536000  1
  Mo  Mo38  1  0.00264200  0.49448900  0.99296800  1
  Mo  Mo39  1  0.01445200  0.50179600  0.50561900  1
  Mo  Mo40  1  0.50035900  0.99685600  0.99084700  1
  Mo  Mo41  1  0.51340600  0.00660200  0.50866200  1
  Mo  Mo42  1  0.50091500  0.49572700  0.99171800  1
  Mo  Mo43  1  0.51348100  0.50266500  0.50947700  1
  Mo  Mo44  1  0.25310600  0.24776800  0.99292700  1
  Mo  Mo45  1  0.26166600  0.25424200  0.50632500  1
  Mo  Mo46  1  0.25122200  0.74505500  0.99297500  1
  Mo  Mo47  1  0.26239100  0.75348400  0.50847300  1
  Mo  Mo48  1  0.75275500  0.24432300  0.99107300  1
  Mo  Mo49  1  0.76517100  0.25157400  0.50621600  1
  Mo  Mo50  1  0.75103200  0.74619300  0.99167800  1
  Mo  Mo51  1  0.76576800  0.75364900  0.50868800  1
  Mo  Mo52  1  0.09849700  0.10655700  0.25806900  1
  Mo  Mo53  1  0.09463500  0.09060000  0.74634600  1
  Mo  Mo54  1  0.09707700  0.59384300  0.25767500  1
  Mo  Mo55  1  0.59804100  0.09989000  0.25468900  1
  Mo  Mo56  1  0.58869300  0.08351100  0.74496600  1
  Mo  Mo57  1  0.59924000  0.59224200  0.25102800  1
  Mo  Mo58  1  0.34648400  0.40386900  0.25863200  1
  Mo  Mo59  1  0.34850500  0.91429900  0.25217200  1
  Mo  Mo60  1  0.85490200  0.40661400  0.25465000  1
  Mo  Mo61  1  0.85252100  0.40800700  0.74326900  1
  Mo  Mo62  1  0.85119700  0.91035500  0.25398600  1
  Mo  Mo63  1  0.83771600  0.91217600  0.74584500  1
  O  O64  1  0.12617100  0.12458100  0.48904000  1
  O  O65  1  0.12037700  0.11932900  0.98137100  1
  O  O66  1  0.12810700  0.61905200  0.48929100  1
  O  O67  1  0.12191100  0.61271000  0.98155900  1
  O  O68  1  0.62868300  0.12571400  0.49302000  1
  O  O69  1  0.61903300  0.11185000  0.97474900  1
  O  O70  1  0.63251900  0.62570100  0.49969000  1
  O  O71  1  0.62099600  0.61797600  0.98355600  1
  O  O72  1  0.13161500  0.37564000  0.00209600  1
  O  O73  1  0.14652800  0.38716000  0.52107300  1
  O  O74  1  0.13222200  0.87605500  0.00561800  1
  O  O75  1  0.14296000  0.88312600  0.52056700  1
  O  O76  1  0.62884600  0.37165800  0.00029100  1
  O  O77  1  0.64757200  0.38679900  0.52634300  1
  O  O78  1  0.63009500  0.87659000  0.99904400  1
  O  O79  1  0.64846200  0.88970500  0.52792300  1
  O  O80  1  0.38152600  0.12487000  0.49378200  1
  O  O81  1  0.37236600  0.11773800  0.98071000  1
  O  O82  1  0.37835500  0.61881000  0.49669500  1
  O  O83  1  0.36823900  0.61273100  0.98051000  1
  O  O84  1  0.88122500  0.11951500  0.48984300  1
  O  O85  1  0.87111200  0.11437700  0.97910600  1
  O  O86  1  0.88305000  0.62228500  0.49278400  1
  O  O87  1  0.87073600  0.61486100  0.98221300  1
  O  O88  1  0.38152600  0.37686600  0.00147200  1
  O  O89  1  0.39611200  0.38608800  0.52308000  1
  O  O90  1  0.37998800  0.87696100  0.00268300  1
  O  O91  1  0.39826400  0.89284200  0.52930600  1
  O  O92  1  0.88380300  0.37590300  0.00450500  1
  O  O93  1  0.89716200  0.38483300  0.52184400  1
  O  O94  1  0.87792400  0.87792300  0.00085700  1
  O  O95  1  0.89728300  0.88694300  0.52459700  1
  O  O96  1  0.07386800  0.08937500  0.13805000  1
  O  O97  1  0.09060400  0.11139800  0.64045800  1
  O  O98  1  0.07686200  0.58644300  0.14141800  1
  O  O99  1  0.09264200  0.60333500  0.64497500  1
  O  O100  1  0.57358000  0.08722300  0.13556400  1
  O  O101  1  0.59002400  0.11629900  0.64531600  1
  O  O102  1  0.57527400  0.58898500  0.13500600  1
  O  O103  1  0.58180900  0.61143000  0.64602600  1
  O  O104  1  0.44866700  0.39262600  0.36753700  1
  O  O105  1  0.43024400  0.40180300  0.85083800  1
  O  O106  1  0.44482500  0.90826900  0.36532400  1
  O  O107  1  0.42782900  0.90941500  0.84980500  1
  O  O108  1  0.95392200  0.39193300  0.36441700  1
  O  O109  1  0.93972000  0.39321100  0.85396600  1
  O  O110  1  0.94418300  0.89187900  0.36359500  1
  O  O111  1  0.94154300  0.90529600  0.85565800  1
  O  O112  1  0.32536500  0.30217400  0.13885100  1
  O  O113  1  0.32733900  0.28590000  0.64406400  1
  O  O114  1  0.32955700  0.79902200  0.13860200  1
  O  O115  1  0.33573300  0.79081600  0.64617200  1
  O  O116  1  0.83176000  0.29794700  0.13801600  1
  O  O117  1  0.84407400  0.27409600  0.64125000  1
  O  O118  1  0.83030700  0.80133100  0.13766200  1
  O  O119  1  0.84434700  0.78307300  0.64583500  1
  O  O120  1  0.20637400  0.22463100  0.36578500  1
  O  O121  1  0.19447200  0.21251300  0.85454700  1
  O  O122  1  0.20331200  0.70934400  0.36816200  1
  O  O123  1  0.17848200  0.68904400  0.85129700  1
  O  O124  1  0.70952200  0.20935400  0.36484700  1
  O  O125  1  0.69780400  0.19959700  0.85320500  1
  O  O126  1  0.70105700  0.70391600  0.36569400  1
  O  O127  1  0.67685900  0.69688600  0.85019000  1
  O  O128  1  0.44158500  0.07191200  0.26809200  1
  O  O129  1  0.41796300  0.06071400  0.74580800  1
  O  O130  1  0.44059100  0.54577300  0.25377600  1
  O  O131  1  0.43778700  0.53463300  0.73573300  1
  O  O132  1  0.94292000  0.06895500  0.27026400  1
  O  O133  1  0.92551900  0.06158100  0.74755900  1
  O  O134  1  0.93763700  0.56705500  0.26793300  1
  O  O135  1  0.94011300  0.54319800  0.73218400  1
  O  O136  1  0.18888700  0.44925600  0.26941700  1
  O  O137  1  0.18848100  0.44250700  0.74444500  1
  O  O138  1  0.18605600  0.95646000  0.25159300  1
  O  O139  1  0.18200300  0.94105700  0.73391600  1
  O  O140  1  0.69207700  0.44829700  0.25321700  1
  O  O141  1  0.68117400  0.44559400  0.73370600  1
  O  O142  1  0.68768500  0.95195300  0.25134200  1
  O  O143  1  0.66628300  0.93121000  0.74673000  1
