# generated using pymatgen
data_Cs2GaFeS4
_symmetry_space_group_name_H-M   'P 1'
_cell_length_a   7.28830274
_cell_length_b   7.28830274
_cell_length_c   5.78344719
_cell_angle_alpha   78.78689336
_cell_angle_beta   78.78689336
_cell_angle_gamma   117.39047861
_symmetry_Int_Tables_number   1
_chemical_formula_structural   Cs2GaFeS4
_chemical_formula_sum   'Cs2 Ga1 Fe1 S4'
_cell_volume   252.94853761
_cell_formula_units_Z   1
loop_
 _symmetry_equiv_pos_site_id
 _symmetry_equiv_pos_as_xyz
  1  'x, y, z'
loop_
 _atom_site_type_symbol
 _atom_site_label
 _atom_site_symmetry_multiplicity
 _atom_site_fract_x
 _atom_site_fract_y
 _atom_site_fract_z
 _atom_site_occupancy
  Cs  Cs0  1  0.14512900  0.85487100  0.00000000  1
  Cs  Cs1  1  0.85477000  0.14523000  0.50000000  1
  Ga  Ga2  1  0.50301800  0.49698200  0.00000000  1
  Fe  Fe3  1  0.49704800  0.50295200  0.50000000  1
  S  S4  1  0.21835400  0.41856600  0.84298500  1
  S  S5  1  0.58143400  0.78164600  0.15701500  1
  S  S6  1  0.78199400  0.58174700  0.65463100  1
  S  S7  1  0.41825300  0.21800600  0.34536900  1
