# generated using pymatgen
data_K3Na5VMo7O20
_symmetry_space_group_name_H-M   'P 1'
_cell_length_a   11.43449119
_cell_length_b   11.73144335
_cell_length_c   17.17819899
_cell_angle_alpha   110.14111950
_cell_angle_beta   109.00665163
_cell_angle_gamma   89.89262623
_symmetry_Int_Tables_number   1
_chemical_formula_structural   K3Na5VMo7O20
_chemical_formula_sum   'K12 Na20 V4 Mo28 O80'
_cell_volume   2029.62888413
_cell_formula_units_Z   4
loop_
 _symmetry_equiv_pos_site_id
 _symmetry_equiv_pos_as_xyz
  1  'x, y, z'
loop_
 _atom_site_type_symbol
 _atom_site_label
 _atom_site_symmetry_multiplicity
 _atom_site_fract_x
 _atom_site_fract_y
 _atom_site_fract_z
 _atom_site_occupancy
  K  K0  1  0.30519300  0.06574700  0.10962300  1
  K  K1  1  0.30538400  0.56380700  0.11058800  1
  K  K2  1  0.80288200  0.06493000  0.10965000  1
  K  K3  1  0.80253600  0.56488500  0.10957700  1
  K  K4  1  0.20092100  0.93367700  0.39522000  1
  K  K5  1  0.19121900  0.92291000  0.87903100  1
  K  K6  1  0.68862400  0.42793000  0.87925700  1
  K  K7  1  0.05568300  0.29569000  0.11078200  1
  K  K8  1  0.05167100  0.79323100  0.10813600  1
  K  K9  1  0.55568000  0.29446300  0.11004300  1
  K  K10  1  0.55474100  0.79517300  0.10854000  1
  K  K11  1  0.94272900  0.70235300  0.87969100  1
  Na  Na12  1  0.29746400  0.07185000  0.60797900  1
  Na  Na13  1  0.30802300  0.56936400  0.60991400  1
  Na  Na14  1  0.80210700  0.06767100  0.60411300  1
  Na  Na15  1  0.80904400  0.56768500  0.60353700  1
  Na  Na16  1  0.19984500  0.43721300  0.40521400  1
  Na  Na17  1  0.19896100  0.43059300  0.88840200  1
  Na  Na18  1  0.69828600  0.43637400  0.40369200  1
  Na  Na19  1  0.69947600  0.93524300  0.40253700  1
  Na  Na20  1  0.69752100  0.92960600  0.89256700  1
  Na  Na21  1  0.05767400  0.28968200  0.60788500  1
  Na  Na22  1  0.05716700  0.78425800  0.60569600  1
  Na  Na23  1  0.55308300  0.28943000  0.60446100  1
  Na  Na24  1  0.55025300  0.78307100  0.60378800  1
  Na  Na25  1  0.44886100  0.21775600  0.40416400  1
  Na  Na26  1  0.44192500  0.21110000  0.89095400  1
  Na  Na27  1  0.44789100  0.71773200  0.40375700  1
  Na  Na28  1  0.44907400  0.70814500  0.88856800  1
  Na  Na29  1  0.94987400  0.21800900  0.40406700  1
  Na  Na30  1  0.94551300  0.21212600  0.89273400  1
  Na  Na31  1  0.94936200  0.71670500  0.40357400  1
  V  V32  1  0.10587800  0.57955300  0.74253100  1
  V  V33  1  0.59599200  0.58859000  0.74418200  1
  V  V34  1  0.35093500  0.41191400  0.74763800  1
  V  V35  1  0.34854200  0.90939100  0.74403000  1
  Mo  Mo36  1  0.00362800  0.99800500  0.99413100  1
  Mo  Mo37  1  0.01153000  0.00151400  0.50327700  1
  Mo  Mo38  1  0.00300200  0.49473300  0.99324600  1
  Mo  Mo39  1  0.01322200  0.50065400  0.50335200  1
  Mo  Mo40  1  0.49992000  0.99469400  0.98961600  1
  Mo  Mo41  1  0.51293700  0.00268400  0.50370900  1
  Mo  Mo42  1  0.50058100  0.49563200  0.99214800  1
  Mo  Mo43  1  0.51268200  0.50146500  0.50436900  1
  Mo  Mo44  1  0.25329900  0.24800700  0.99328300  1
  Mo  Mo45  1  0.26245800  0.25474000  0.50569000  1
  Mo  Mo46  1  0.25207600  0.74382200  0.99166100  1
  Mo  Mo47  1  0.26298300  0.75164900  0.50515300  1
  Mo  Mo48  1  0.75228300  0.24503700  0.99185300  1
  Mo  Mo49  1  0.76272200  0.24980800  0.50093500  1
  Mo  Mo50  1  0.75095200  0.74690000  0.99227100  1
  Mo  Mo51  1  0.76292500  0.75121300  0.50246100  1
  Mo  Mo52  1  0.09724600  0.10371100  0.25814700  1
  Mo  Mo53  1  0.09505500  0.08916500  0.74587200  1
  Mo  Mo54  1  0.09702200  0.59184100  0.25750000  1
  Mo  Mo55  1  0.59960600  0.10063800  0.25781100  1
  Mo  Mo56  1  0.58872000  0.08326900  0.74381800  1
  Mo  Mo57  1  0.59806600  0.59803500  0.25840500  1
  Mo  Mo58  1  0.35002100  0.41075000  0.26048600  1
  Mo  Mo59  1  0.35307600  0.91047500  0.25385900  1
  Mo  Mo60  1  0.84790900  0.40996700  0.25952900  1
  Mo  Mo61  1  0.85001200  0.40725300  0.74128600  1
  Mo  Mo62  1  0.84598800  0.91147700  0.25886900  1
  Mo  Mo63  1  0.83724700  0.91008800  0.74369600  1
  O  O64  1  0.12681300  0.12480500  0.48937800  1
  O  O65  1  0.12083100  0.11958200  0.98174000  1
  O  O66  1  0.12855300  0.61855200  0.48785100  1
  O  O67  1  0.12335800  0.61215800  0.98140900  1
  O  O68  1  0.62653600  0.11766400  0.48220800  1
  O  O69  1  0.61835300  0.11083900  0.97392300  1
  O  O70  1  0.62818100  0.62008900  0.48693400  1
  O  O71  1  0.61852400  0.61900000  0.98190700  1
  O  O72  1  0.13236100  0.37615000  0.00321100  1
  O  O73  1  0.14702100  0.38717600  0.52191700  1
  O  O74  1  0.13326300  0.87631900  0.00627300  1
  O  O75  1  0.14423800  0.88308400  0.52118300  1
  O  O76  1  0.62922200  0.37285200  0.00172500  1
  O  O77  1  0.64764700  0.38634600  0.52267400  1
  O  O78  1  0.62852700  0.87466100  0.99816700  1
  O  O79  1  0.64656300  0.88639500  0.52173500  1
  O  O80  1  0.38203700  0.12285800  0.49191800  1
  O  O81  1  0.37290000  0.11728500  0.98071900  1
  O  O82  1  0.37944800  0.61768200  0.48915200  1
  O  O83  1  0.36925300  0.61217200  0.97636600  1
  O  O84  1  0.87531800  0.11324600  0.48095000  1
  O  O85  1  0.87105200  0.11488900  0.97950600  1
  O  O86  1  0.87727200  0.61584800  0.48393900  1
  O  O87  1  0.87103700  0.61535500  0.98310700  1
  O  O88  1  0.38213300  0.37811200  0.00340500  1
  O  O89  1  0.39639200  0.38720800  0.52211200  1
  O  O90  1  0.38144900  0.87335400  0.00055500  1
  O  O91  1  0.39928700  0.88838000  0.52594700  1
  O  O92  1  0.88395500  0.37644300  0.00521000  1
  O  O93  1  0.89586500  0.38423400  0.51951400  1
  O  O94  1  0.87859100  0.87896500  0.00218000  1
  O  O95  1  0.89615100  0.88676200  0.52263200  1
  O  O96  1  0.07361500  0.09051500  0.13843300  1
  O  O97  1  0.08809600  0.11331800  0.63983200  1
  O  O98  1  0.07659900  0.58807300  0.14134200  1
  O  O99  1  0.09029400  0.60463100  0.64308100  1
  O  O100  1  0.57626300  0.08500200  0.13778500  1
  O  O101  1  0.59045200  0.11398200  0.64232000  1
  O  O102  1  0.57468900  0.58674600  0.13941100  1
  O  O103  1  0.57752200  0.61066100  0.64378700  1
  O  O104  1  0.45948000  0.38928400  0.36497000  1
  O  O105  1  0.43147500  0.39704400  0.85139500  1
  O  O106  1  0.45076700  0.89047000  0.36278700  1
  O  O107  1  0.42823700  0.89649900  0.84861900  1
  O  O108  1  0.95910800  0.38866200  0.36343900  1
  O  O109  1  0.93934400  0.39238500  0.85247300  1
  O  O110  1  0.95085700  0.88709300  0.36297600  1
  O  O111  1  0.94241500  0.90420600  0.85423800  1
  O  O112  1  0.32834400  0.30458100  0.14115300  1
  O  O113  1  0.33328400  0.29197400  0.64563200  1
  O  O114  1  0.33238300  0.79764800  0.13759800  1
  O  O115  1  0.33749000  0.78759900  0.64403700  1
  O  O116  1  0.82530000  0.30217300  0.14061500  1
  O  O117  1  0.84008600  0.27229700  0.63741100  1
  O  O118  1  0.82406700  0.80495300  0.13949500  1
  O  O119  1  0.83943500  0.77910500  0.64135100  1
  O  O120  1  0.20724300  0.22412900  0.36550600  1
  O  O121  1  0.19598200  0.21285300  0.85434800  1
  O  O122  1  0.21245000  0.70805400  0.36512100  1
  O  O123  1  0.18204900  0.69082100  0.85014400  1
  O  O124  1  0.70905700  0.22641500  0.36182200  1
  O  O125  1  0.69853700  0.19972000  0.85266400  1
  O  O126  1  0.70733200  0.72466400  0.36286800  1
  O  O127  1  0.68054900  0.70094200  0.85032100  1
  O  O128  1  0.44017100  0.07035300  0.26942100  1
  O  O129  1  0.41918900  0.05727200  0.74678100  1
  O  O130  1  0.43829700  0.56714700  0.26994700  1
  O  O131  1  0.43628400  0.55042600  0.74782200  1
  O  O132  1  0.93963800  0.06636300  0.26942800  1
  O  O133  1  0.92479800  0.06134000  0.74700500  1
  O  O134  1  0.93621700  0.56604200  0.26862800  1
  O  O135  1  0.93980600  0.54387900  0.73251900  1
  O  O136  1  0.18837400  0.44759800  0.27035300  1
  O  O137  1  0.18652500  0.44019400  0.74465000  1
  O  O138  1  0.19011800  0.95652300  0.25324400  1
  O  O139  1  0.18315300  0.93948700  0.73396900  1
  O  O140  1  0.68721200  0.45217700  0.26972000  1
  O  O141  1  0.67898700  0.44801100  0.73349700  1
  O  O142  1  0.68502400  0.95265800  0.26806900  1
  O  O143  1  0.66609600  0.93048100  0.74596400  1
