# generated using pymatgen
data_CaAl2(Si8O19)2
_symmetry_space_group_name_H-M   'P 1'
_cell_length_a   13.50404139
_cell_length_b   13.50404139
_cell_length_c   14.75367200
_cell_angle_alpha   90.00000000
_cell_angle_beta   90.00000000
_cell_angle_gamma   120.71052975
_symmetry_Int_Tables_number   1
_chemical_formula_structural   CaAl2(Si8O19)2
_chemical_formula_sum   'Ca2 Al4 Si32 O76'
_cell_volume   2313.15155186
_cell_formula_units_Z   2
loop_
 _symmetry_equiv_pos_site_id
 _symmetry_equiv_pos_as_xyz
  1  'x, y, z'
loop_
 _atom_site_type_symbol
 _atom_site_label
 _atom_site_symmetry_multiplicity
 _atom_site_fract_x
 _atom_site_fract_y
 _atom_site_fract_z
 _atom_site_occupancy
  Ca  Ca0  1  0.01408200  0.98591800  0.25000000  1
  Ca  Ca1  1  0.98591800  0.01408200  0.75000000  1
  Al  Al2  1  0.10070600  0.43424200  0.75000000  1
  Al  Al3  1  0.56575800  0.89929400  0.75000000  1
  Al  Al4  1  0.89929400  0.56575800  0.25000000  1
  Al  Al5  1  0.43424200  0.10070600  0.25000000  1
  Si  Si6  1  0.00261500  0.22418500  0.38914500  1
  Si  Si7  1  0.76728600  0.76642000  0.39137200  1
  Si  Si8  1  0.22997500  0.00243800  0.39250100  1
  Si  Si9  1  0.99756200  0.77002500  0.39250100  1
  Si  Si10  1  0.77581500  0.99738500  0.38914500  1
  Si  Si11  1  0.23358000  0.23271400  0.39137200  1
  Si  Si12  1  0.99738500  0.77581500  0.61085500  1
  Si  Si13  1  0.23271400  0.23358000  0.60862800  1
  Si  Si14  1  0.77002500  0.99756200  0.60749900  1
  Si  Si15  1  0.00243800  0.22997500  0.60749900  1
  Si  Si16  1  0.22418500  0.00261500  0.61085500  1
  Si  Si17  1  0.76642000  0.76728600  0.60862800  1
  Si  Si18  1  0.99738500  0.77581500  0.88914500  1
  Si  Si19  1  0.23271400  0.23358000  0.89137200  1
  Si  Si20  1  0.77002500  0.99756200  0.89250100  1
  Si  Si21  1  0.00243800  0.22997500  0.89250100  1
  Si  Si22  1  0.22418500  0.00261500  0.88914500  1
  Si  Si23  1  0.76642000  0.76728600  0.89137200  1
  Si  Si24  1  0.00261500  0.22418500  0.11085500  1
  Si  Si25  1  0.76728600  0.76642000  0.10862800  1
  Si  Si26  1  0.22997500  0.00243800  0.10749900  1
  Si  Si27  1  0.99756200  0.77002500  0.10749900  1
  Si  Si28  1  0.77581500  0.99738500  0.11085500  1
  Si  Si29  1  0.23358000  0.23271400  0.10862800  1
  Si  Si30  1  0.57032200  0.66406600  0.75000000  1
  Si  Si31  1  0.32832800  0.90888800  0.75000000  1
  Si  Si32  1  0.09111200  0.67167200  0.75000000  1
  Si  Si33  1  0.33593400  0.42967800  0.75000000  1
  Si  Si34  1  0.42967800  0.33593400  0.25000000  1
  Si  Si35  1  0.67167200  0.09111200  0.25000000  1
  Si  Si36  1  0.90888800  0.32832800  0.25000000  1
  Si  Si37  1  0.66406600  0.57032200  0.25000000  1
  O  O38  1  0.33430300  0.66569700  0.42994900  1
  O  O39  1  0.66569700  0.33430300  0.57005100  1
  O  O40  1  0.66569700  0.33430300  0.92994900  1
  O  O41  1  0.33430300  0.66569700  0.07005100  1
  O  O42  1  0.99802800  0.23501300  0.49764300  1
  O  O43  1  0.74895400  0.74895400  0.50000000  1
  O  O44  1  0.23501300  0.99802800  0.50235700  1
  O  O45  1  0.00197200  0.76498700  0.50235700  1
  O  O46  1  0.76498700  0.00197200  0.49764300  1
  O  O47  1  0.25104600  0.25104600  0.50000000  1
  O  O48  1  0.00197200  0.76498700  0.99764300  1
  O  O49  1  0.25104600  0.25104600  0.00000000  1
  O  O50  1  0.76498700  0.00197200  0.00235700  1
  O  O51  1  0.99802800  0.23501300  0.00235700  1
  O  O52  1  0.23501300  0.99802800  0.99764300  1
  O  O53  1  0.74895400  0.74895400  0.00000000  1
  O  O54  1  0.09536500  0.18548500  0.86435100  1
  O  O55  1  0.81451500  0.90463500  0.86435100  1
  O  O56  1  0.08649700  0.91350300  0.85884300  1
  O  O57  1  0.90463500  0.81451500  0.13564900  1
  O  O58  1  0.18548500  0.09536500  0.13564900  1
  O  O59  1  0.91350300  0.08649700  0.14115700  1
  O  O60  1  0.90463500  0.81451500  0.36435100  1
  O  O61  1  0.18548500  0.09536500  0.36435100  1
  O  O62  1  0.91350300  0.08649700  0.35884300  1
  O  O63  1  0.09536500  0.18548500  0.63564900  1
  O  O64  1  0.81451500  0.90463500  0.63564900  1
  O  O65  1  0.08649700  0.91350300  0.64115700  1
  O  O66  1  0.46909900  0.53090100  0.75000000  1
  O  O67  1  0.45003800  0.92017400  0.75000000  1
  O  O68  1  0.07982600  0.54996200  0.75000000  1
  O  O69  1  0.53090100  0.46909900  0.25000000  1
  O  O70  1  0.54996200  0.07982600  0.25000000  1
  O  O71  1  0.92017400  0.45003800  0.25000000  1
  O  O72  1  0.03368800  0.34711900  0.84608800  1
  O  O73  1  0.64964200  0.67874700  0.84035400  1
  O  O74  1  0.31067600  0.97210900  0.83955200  1
  O  O75  1  0.02789100  0.68932400  0.83955200  1
  O  O76  1  0.65288100  0.96631200  0.84608800  1
  O  O77  1  0.32125300  0.35035800  0.84035400  1
  O  O78  1  0.96631200  0.65288100  0.15391200  1
  O  O79  1  0.35035800  0.32125300  0.15964600  1
  O  O80  1  0.68932400  0.02789100  0.16044800  1
  O  O81  1  0.97210900  0.31067600  0.16044800  1
  O  O82  1  0.34711900  0.03368800  0.15391200  1
  O  O83  1  0.67874700  0.64964200  0.15964600  1
  O  O84  1  0.96631200  0.65288100  0.34608800  1
  O  O85  1  0.35035800  0.32125300  0.34035400  1
  O  O86  1  0.68932400  0.02789100  0.33955200  1
  O  O87  1  0.97210900  0.31067600  0.33955200  1
  O  O88  1  0.34711900  0.03368800  0.34608800  1
  O  O89  1  0.67874700  0.64964200  0.34035400  1
  O  O90  1  0.03368800  0.34711900  0.65391200  1
  O  O91  1  0.64964200  0.67874700  0.65964600  1
  O  O92  1  0.31067600  0.97210900  0.66044800  1
  O  O93  1  0.02789100  0.68932400  0.66044800  1
  O  O94  1  0.65288100  0.96631200  0.65391200  1
  O  O95  1  0.32125300  0.35035800  0.65964600  1
  O  O96  1  0.24540100  0.47145300  0.75000000  1
  O  O97  1  0.52854700  0.75459900  0.75000000  1
  O  O98  1  0.22440300  0.77559700  0.75000000  1
  O  O99  1  0.75459900  0.52854700  0.25000000  1
  O  O100  1  0.47145300  0.24540100  0.25000000  1
  O  O101  1  0.77559700  0.22440300  0.25000000  1
  O  O102  1  0.12850100  0.24928100  0.14342900  1
  O  O103  1  0.75071900  0.87149900  0.14342900  1
  O  O104  1  0.11716400  0.88283600  0.14479700  1
  O  O105  1  0.87149900  0.75071900  0.85657100  1
  O  O106  1  0.24928100  0.12850100  0.85657100  1
  O  O107  1  0.88283600  0.11716400  0.85520300  1
  O  O108  1  0.87149900  0.75071900  0.64342900  1
  O  O109  1  0.24928100  0.12850100  0.64342900  1
  O  O110  1  0.88283600  0.11716400  0.64479700  1
  O  O111  1  0.12850100  0.24928100  0.35657100  1
  O  O112  1  0.75071900  0.87149900  0.35657100  1
  O  O113  1  0.11716400  0.88283600  0.35520300  1
