# generated using pymatgen
data_Ag6S2IBr
_symmetry_space_group_name_H-M   'P 1'
_cell_length_a   6.99165712
_cell_length_b   6.93815794
_cell_length_c   6.93815794
_cell_angle_alpha   88.65083700
_cell_angle_beta   61.02083303
_cell_angle_gamma   118.97916697
_symmetry_Int_Tables_number   1
_chemical_formula_structural   Ag6S2IBr
_chemical_formula_sum   'Ag6 S2 I1 Br1'
_cell_volume   242.44988096
_cell_formula_units_Z   1
loop_
 _symmetry_equiv_pos_site_id
 _symmetry_equiv_pos_as_xyz
  1  'x, y, z'
loop_
 _atom_site_type_symbol
 _atom_site_label
 _atom_site_symmetry_multiplicity
 _atom_site_fract_x
 _atom_site_fract_y
 _atom_site_fract_z
 _atom_site_occupancy
  Ag  Ag0  1  0.98574000  0.99287000  0.50713000  1
  Ag  Ag1  1  0.98574000  0.49287000  0.00713000  1
  Ag  Ag2  1  0.52151000  0.05380700  0.94619300  1
  Ag  Ag3  1  0.52151000  0.46770300  0.53229700  1
  Ag  Ag4  1  0.32796400  0.89801300  0.57004900  1
  Ag  Ag5  1  0.32796400  0.42995100  0.10198700  1
  S  S6  1  0.49082400  0.24541200  0.25458800  1
  S  S7  1  0.49082400  0.74541200  0.75458800  1
  I  I8  1  0.99033800  0.99516900  0.00483100  1
  Br  Br9  1  0.97358900  0.48679500  0.51320500  1
