# generated using pymatgen
data_AlP2H4O8F
_symmetry_space_group_name_H-M   'P 1'
_cell_length_a   4.84446400
_cell_length_b   8.64654778
_cell_length_c   16.06129140
_cell_angle_alpha   99.52145930
_cell_angle_beta   90.00000000
_cell_angle_gamma   90.00000000
_symmetry_Int_Tables_number   1
_chemical_formula_structural   AlP2H4O8F
_chemical_formula_sum   'Al4 P8 H16 O32 F4'
_cell_volume   663.50527810
_cell_formula_units_Z   4
loop_
 _symmetry_equiv_pos_site_id
 _symmetry_equiv_pos_as_xyz
  1  'x, y, z'
loop_
 _atom_site_type_symbol
 _atom_site_label
 _atom_site_symmetry_multiplicity
 _atom_site_fract_x
 _atom_site_fract_y
 _atom_site_fract_z
 _atom_site_occupancy
  Al  Al0  1  0.21614700  0.13622600  0.79924900  1
  Al  Al1  1  0.71647500  0.86297200  0.69995000  1
  Al  Al2  1  0.78352500  0.86297200  0.19995000  1
  Al  Al3  1  0.28385300  0.13622600  0.29924900  1
  P  P4  1  0.71061800  0.36248000  0.86161400  1
  P  P5  1  0.20974300  0.63590400  0.63729000  1
  P  P6  1  0.29025700  0.63590400  0.13729000  1
  P  P7  1  0.78938200  0.36248000  0.36161400  1
  P  P8  1  0.46384500  0.13467500  0.61622600  1
  P  P9  1  0.96275900  0.86468400  0.88335900  1
  P  P10  1  0.53724100  0.86468400  0.38335900  1
  P  P11  1  0.03615500  0.13467500  0.11622600  1
  H  H12  1  0.87595100  0.20764600  0.57995100  1
  H  H13  1  0.37459900  0.79151900  0.92033800  1
  H  H14  1  0.12540100  0.79151900  0.42033800  1
  H  H15  1  0.62404900  0.20764600  0.07995100  1
  H  H16  1  0.71375200  0.55443800  0.78701500  1
  H  H17  1  0.21210200  0.44450600  0.71211900  1
  H  H18  1  0.28789800  0.44450600  0.21211900  1
  H  H19  1  0.78624800  0.55443800  0.28701500  1
  H  H20  1  0.26628400  0.11018900  0.49090300  1
  H  H21  1  0.76513900  0.89035600  0.00870100  1
  H  H22  1  0.73486100  0.89035600  0.50870100  1
  H  H23  1  0.23371600  0.11018900  0.99090300  1
  H  H24  1  0.57893700  0.47978300  0.98656200  1
  H  H25  1  0.92106300  0.47978300  0.48656200  1
  H  H26  1  0.41416500  0.52624200  0.51704700  1
  H  H27  1  0.08583500  0.52624200  0.01704700  1
  O  O28  1  0.21234500  0.13301500  0.55170500  1
  O  O29  1  0.71112200  0.86647300  0.94787200  1
  O  O30  1  0.78887800  0.86647300  0.44787200  1
  O  O31  1  0.28765500  0.13301500  0.05170500  1
  O  O32  1  0.58304300  0.48008100  0.80617400  1
  O  O33  1  0.08258700  0.51968300  0.69316500  1
  O  O34  1  0.41741300  0.51968300  0.19316500  1
  O  O35  1  0.91695700  0.48008100  0.30617400  1
  O  O36  1  0.75526200  0.45824500  0.95463300  1
  O  O37  1  0.23033900  0.53451300  0.54446100  1
  O  O38  1  0.26966100  0.53451300  0.04446100  1
  O  O39  1  0.74473800  0.45824500  0.45463300  1
  O  O40  1  0.58428000  0.96830900  0.60988500  1
  O  O41  1  0.08350600  0.03089400  0.88934300  1
  O  O42  1  0.41649400  0.03089400  0.38934300  1
  O  O43  1  0.91572000  0.96830900  0.10988500  1
  O  O44  1  0.68284600  0.24677000  0.58542100  1
  O  O45  1  0.18093400  0.75308400  0.91531700  1
  O  O46  1  0.31906600  0.75308400  0.41531700  1
  O  O47  1  0.81715400  0.24677000  0.08542100  1
  O  O48  1  0.49906800  0.23470700  0.86646000  1
  O  O49  1  0.99829400  0.76344900  0.63230300  1
  O  O50  1  0.50170600  0.76344900  0.13230300  1
  O  O51  1  0.00093200  0.23470700  0.36646000  1
  O  O52  1  0.34685900  0.20871200  0.70084400  1
  O  O53  1  0.84694700  0.79001500  0.79863500  1
  O  O54  1  0.65305300  0.79001500  0.29863500  1
  O  O55  1  0.15314100  0.20871200  0.20084400  1
  O  O56  1  0.99477300  0.31134600  0.82930600  1
  O  O57  1  0.49609600  0.68745100  0.66711100  1
  O  O58  1  0.00390400  0.68745100  0.16711100  1
  O  O59  1  0.50522700  0.31134600  0.32930600  1
  F  F60  1  0.43275000  0.95879900  0.76745600  1
  F  F61  1  0.93343800  0.03883300  0.73158700  1
  F  F62  1  0.56656200  0.03883300  0.23158700  1
  F  F63  1  0.06725000  0.95879900  0.26745600  1
