# generated using pymatgen
data_Ag6SbAsS6
_symmetry_space_group_name_H-M   'P 1'
_cell_length_a   7.05507878
_cell_length_b   7.05507878
_cell_length_c   7.05507947
_cell_angle_alpha   102.12427131
_cell_angle_beta   102.12427131
_cell_angle_gamma   102.12427880
_symmetry_Int_Tables_number   1
_chemical_formula_structural   Ag6SbAsS6
_chemical_formula_sum   'Ag6 Sb1 As1 S6'
_cell_volume   323.58786584
_cell_formula_units_Z   1
loop_
 _symmetry_equiv_pos_site_id
 _symmetry_equiv_pos_as_xyz
  1  'x, y, z'
loop_
 _atom_site_type_symbol
 _atom_site_label
 _atom_site_symmetry_multiplicity
 _atom_site_fract_x
 _atom_site_fract_y
 _atom_site_fract_z
 _atom_site_occupancy
  Ag  Ag0  1  0.97852600  0.78414200  0.42965400  1
  Ag  Ag1  1  0.42965400  0.97852600  0.78414200  1
  Ag  Ag2  1  0.78414200  0.42965400  0.97852600  1
  Ag  Ag3  1  0.93277000  0.27671200  0.47547900  1
  Ag  Ag4  1  0.47547900  0.93277000  0.27671200  1
  Ag  Ag5  1  0.27671200  0.47547900  0.93277000  1
  Sb  Sb6  1  0.52365900  0.52365900  0.52365900  1
  As  As7  1  0.00521200  0.00521200  0.00521200  1
  S  S8  1  0.09966700  0.77579900  0.78179300  1
  S  S9  1  0.78179300  0.09966700  0.77579900  1
  S  S10  1  0.77579900  0.78179300  0.09966700  1
  S  S11  1  0.27902400  0.26685100  0.61071200  1
  S  S12  1  0.61071200  0.27902400  0.26685100  1
  S  S13  1  0.26685100  0.61071200  0.27902400  1
