# generated using pymatgen
data_BaCa3Zr16(PO4)24
_symmetry_space_group_name_H-M   'P 1'
_cell_length_a   8.93566200
_cell_length_b   15.68620107
_cell_length_c   16.29892572
_cell_angle_alpha   101.95722191
_cell_angle_beta   89.99973987
_cell_angle_gamma   106.54778920
_symmetry_Int_Tables_number   1
_chemical_formula_structural   BaCa3Zr16(PO4)24
_chemical_formula_sum   'Ba1 Ca3 Zr16 P24 O96'
_cell_volume   2138.18289252
_cell_formula_units_Z   1
loop_
 _symmetry_equiv_pos_site_id
 _symmetry_equiv_pos_as_xyz
  1  'x, y, z'
loop_
 _atom_site_type_symbol
 _atom_site_label
 _atom_site_symmetry_multiplicity
 _atom_site_fract_x
 _atom_site_fract_y
 _atom_site_fract_z
 _atom_site_occupancy
  Ba  Ba0  1  0.50000000  0.50000000  0.00000000  1
  Ca  Ca1  1  0.74995800  0.99981900  0.74983900  1
  Ca  Ca2  1  0.00000000  0.50000000  0.50000000  1
  Ca  Ca3  1  0.25004200  0.00018100  0.25016100  1
  Zr  Zr4  1  0.46210400  0.42424000  0.18949300  1
  Zr  Zr5  1  0.71267100  0.92661900  0.93643600  1
  Zr  Zr6  1  0.21257300  0.92535000  0.43660700  1
  Zr  Zr7  1  0.96323800  0.42486300  0.68480500  1
  Zr  Zr8  1  0.78742700  0.07465000  0.56339300  1
  Zr  Zr9  1  0.03676200  0.57513700  0.31519500  1
  Zr  Zr10  1  0.53789600  0.57576000  0.81050700  1
  Zr  Zr11  1  0.28732900  0.07338100  0.06356400  1
  Zr  Zr12  1  0.58993000  0.67990100  0.55037400  1
  Zr  Zr13  1  0.84007000  0.17993400  0.30039800  1
  Zr  Zr14  1  0.33957500  0.17946800  0.80027500  1
  Zr  Zr15  1  0.09007500  0.67996900  0.05079400  1
  Zr  Zr16  1  0.66042500  0.82053200  0.19972500  1
  Zr  Zr17  1  0.90992500  0.32003100  0.94920600  1
  Zr  Zr18  1  0.41007000  0.32009900  0.44962600  1
  Zr  Zr19  1  0.15993000  0.82006600  0.69960200  1
  P  P20  1  0.25074100  0.72721400  0.49276000  1
  P  P21  1  0.50058900  0.22632300  0.24292400  1
  P  P22  1  0.00066900  0.22708300  0.74251600  1
  P  P23  1  0.75354400  0.72946000  0.99142200  1
  P  P24  1  0.65939800  0.51560500  0.38765200  1
  P  P25  1  0.90905300  0.01550900  0.13674600  1
  P  P26  1  0.40907600  0.01545000  0.63681200  1
  P  P27  1  0.15617600  0.51639000  0.88483800  1
  P  P28  1  0.90081500  0.87842200  0.56831500  1
  P  P29  1  0.14985200  0.37826100  0.31890300  1
  P  P30  1  0.65179900  0.37748600  0.81531200  1
  P  P31  1  0.40097400  0.87823800  0.06828500  1
  P  P32  1  0.99933100  0.77291700  0.25748400  1
  P  P33  1  0.24645600  0.27054000  0.00857800  1
  P  P34  1  0.74925900  0.27278600  0.50724000  1
  P  P35  1  0.49941100  0.77367700  0.75707600  1
  P  P36  1  0.59092400  0.98455000  0.36318800  1
  P  P37  1  0.84382400  0.48361000  0.11516200  1
  P  P38  1  0.34060200  0.48439500  0.61234800  1
  P  P39  1  0.09094700  0.98449100  0.86325400  1
  P  P40  1  0.34820100  0.62251400  0.18468800  1
  P  P41  1  0.59902600  0.12176200  0.93171500  1
  P  P42  1  0.09918500  0.12157800  0.43168500  1
  P  P43  1  0.85014800  0.62173900  0.68109700  1
  O  O44  1  0.00390300  0.13153200  0.35762200  1
  O  O45  1  0.25582000  0.63028500  0.10791900  1
  O  O46  1  0.75409500  0.63179500  0.60728400  1
  O  O47  1  0.50369000  0.13174500  0.85768700  1
  O  O48  1  0.81627800  0.25718700  0.42041100  1
  O  O49  1  0.06631100  0.75708500  0.17050300  1
  O  O50  1  0.56638700  0.75764100  0.67021000  1
  O  O51  1  0.31717100  0.25895500  0.92215900  1
  O  O52  1  0.65887100  0.06917400  0.32639000  1
  O  O53  1  0.90559300  0.56806500  0.07675800  1
  O  O54  1  0.40890300  0.56935300  0.57604800  1
  O  O55  1  0.15907300  0.06934000  0.82661100  1
  O  O56  1  0.24590500  0.36820500  0.39271600  1
  O  O57  1  0.49631000  0.86825500  0.14231300  1
  O  O58  1  0.99609700  0.86846800  0.64237800  1
  O  O59  1  0.74418000  0.36971500  0.89208100  1
  O  O60  1  0.43361300  0.24235900  0.32979000  1
  O  O61  1  0.68282900  0.74104500  0.07784100  1
  O  O62  1  0.18372200  0.74281300  0.57958900  1
  O  O63  1  0.93368900  0.24291500  0.82949700  1
  O  O64  1  0.59109700  0.43064700  0.42395200  1
  O  O65  1  0.84092700  0.93066000  0.17338900  1
  O  O66  1  0.34112900  0.93082600  0.67361000  1
  O  O67  1  0.09440700  0.43193500  0.92324200  1
  O  O68  1  0.77137800  0.78991000  0.53181000  1
  O  O69  1  0.02096000  0.28974700  0.28208000  1
  O  O70  1  0.52189800  0.28861500  0.78141200  1
  O  O71  1  0.27139400  0.78960800  0.03197300  1
  O  O72  1  0.42107700  0.72495600  0.49933400  1
  O  O73  1  0.67101300  0.22448500  0.24947500  1
  O  O74  1  0.17094900  0.22478700  0.74965300  1
  O  O75  1  0.92283300  0.72604700  0.00003100  1
  O  O76  1  0.61432800  0.59856400  0.43646500  1
  O  O77  1  0.86419600  0.09835900  0.18618100  1
  O  O78  1  0.36419200  0.09836200  0.68612600  1
  O  O79  1  0.11164100  0.59833700  0.93634300  1
  O  O80  1  0.47810200  0.71138500  0.21858800  1
  O  O81  1  0.72860600  0.21039200  0.96802700  1
  O  O82  1  0.22862200  0.21009000  0.46819000  1
  O  O83  1  0.97904000  0.71025300  0.71792000  1
  O  O84  1  0.82905100  0.77521300  0.25034700  1
  O  O85  1  0.07716700  0.27395300  0.99996900  1
  O  O86  1  0.57892300  0.27504400  0.50066600  1
  O  O87  1  0.32898700  0.77551500  0.75052500  1
  O  O88  1  0.63580800  0.90163800  0.31387400  1
  O  O89  1  0.88835900  0.40166300  0.06365700  1
  O  O90  1  0.38567200  0.40143600  0.56353500  1
  O  O91  1  0.13580400  0.90164100  0.81381900  1
  O  O92  1  0.10262800  0.86688700  0.30922100  1
  O  O93  1  0.34552300  0.36082900  0.06653300  1
  O  O94  1  0.85240200  0.36669300  0.55880600  1
  O  O95  1  0.60268600  0.86733700  0.80920100  1
  O  O96  1  0.40874200  0.96315000  0.35754400  1
  O  O97  1  0.66274000  0.45909500  0.11559300  1
  O  O98  1  0.15882800  0.46318100  0.60676600  1
  O  O99  1  0.90890700  0.96346000  0.85745100  1
  O  O100  1  0.42363200  0.54393100  0.15800200  1
  O  O101  1  0.67576500  0.04447100  0.89774700  1
  O  O102  1  0.17557800  0.04394100  0.39793900  1
  O  O103  1  0.92603500  0.54409200  0.64739300  1
  O  O104  1  0.14759800  0.63330700  0.44119400  1
  O  O105  1  0.39731400  0.13266300  0.19079900  1
  O  O106  1  0.89737200  0.13311300  0.69077900  1
  O  O107  1  0.65447700  0.63917100  0.93346700  1
  O  O108  1  0.84117200  0.53681900  0.39323400  1
  O  O109  1  0.09109300  0.03654000  0.14254900  1
  O  O110  1  0.59125800  0.03685000  0.64245600  1
  O  O111  1  0.33726000  0.54090500  0.88440700  1
  O  O112  1  0.82442200  0.95605900  0.60206100  1
  O  O113  1  0.07396500  0.45590800  0.35260700  1
  O  O114  1  0.57636800  0.45606900  0.84199800  1
  O  O115  1  0.32423500  0.95552900  0.10225300  1
  O  O116  1  0.99567900  0.30363400  0.69684000  1
  O  O117  1  0.24501700  0.80386100  0.44703900  1
  O  O118  1  0.49500700  0.30273800  0.19743500  1
  O  O119  1  0.74929600  0.80779700  0.94823300  1
  O  O120  1  0.09190100  0.49673600  0.79271000  1
  O  O121  1  0.34861200  0.99718000  0.54364200  1
  O  O122  1  0.59977600  0.49741500  0.29479700  1
  O  O123  1  0.84866400  0.99745000  0.04374800  1
  O  O124  1  0.76124700  0.40103800  0.74479100  1
  O  O125  1  0.00876900  0.90396000  0.49710100  1
  O  O126  1  0.25723700  0.40375600  0.24793700  1
  O  O127  1  0.50844100  0.90391400  0.99705000  1
  O  O128  1  0.25070400  0.19220300  0.05176700  1
  O  O129  1  0.50499300  0.69726200  0.80256500  1
  O  O130  1  0.75498300  0.19613900  0.55296100  1
  O  O131  1  0.00432100  0.69636600  0.30316000  1
  O  O132  1  0.15133600  0.00255000  0.95625200  1
  O  O133  1  0.40022400  0.50258500  0.70520300  1
  O  O134  1  0.65138800  0.00282000  0.45635800  1
  O  O135  1  0.90809900  0.50326400  0.20729000  1
  O  O136  1  0.49155900  0.09608600  0.00295000  1
  O  O137  1  0.74276300  0.59624400  0.75206300  1
  O  O138  1  0.99123100  0.09604000  0.50289900  1
  O  O139  1  0.23875300  0.59896200  0.25520900  1
