# generated using pymatgen
data_Ag3Bi
_symmetry_space_group_name_H-M   'P 1'
_cell_length_a   3.25624311
_cell_length_b   3.25624311
_cell_length_c   9.63353300
_cell_angle_alpha   90.00000000
_cell_angle_beta   90.00000000
_cell_angle_gamma   119.99998197
_symmetry_Int_Tables_number   1
_chemical_formula_structural   Ag3Bi
_chemical_formula_sum   'Ag3 Bi1'
_cell_volume   88.46061290
_cell_formula_units_Z   1
loop_
 _symmetry_equiv_pos_site_id
 _symmetry_equiv_pos_as_xyz
  1  'x, y, z'
loop_
 _atom_site_type_symbol
 _atom_site_label
 _atom_site_symmetry_multiplicity
 _atom_site_fract_x
 _atom_site_fract_y
 _atom_site_fract_z
 _atom_site_occupancy
  Ag  Ag0  1  0.66666700  0.33333300  0.50000000  1
  Ag  Ag1  1  0.33333300  0.66666700  0.27227000  1
  Ag  Ag2  1  0.33333300  0.66666700  0.72773000  1
  Bi  Bi3  1  0.66666700  0.33333300  0.00000000  1
