# generated using pymatgen
data_K4Na4Mo7WO24
_symmetry_space_group_name_H-M   'P 1'
_cell_length_a   7.98667700
_cell_length_b   7.98667700
_cell_length_c   8.01211200
_cell_angle_alpha   90.00000000
_cell_angle_beta   90.00000000
_cell_angle_gamma   90.00000000
_symmetry_Int_Tables_number   1
_chemical_formula_structural   K4Na4Mo7WO24
_chemical_formula_sum   'K4 Na4 Mo7 W1 O24'
_cell_volume   511.06866428
_cell_formula_units_Z   1
loop_
 _symmetry_equiv_pos_site_id
 _symmetry_equiv_pos_as_xyz
  1  'x, y, z'
loop_
 _atom_site_type_symbol
 _atom_site_label
 _atom_site_symmetry_multiplicity
 _atom_site_fract_x
 _atom_site_fract_y
 _atom_site_fract_z
 _atom_site_occupancy
  K  K0  1  0.24890700  0.24890700  0.25070400  1
  K  K1  1  0.24890700  0.75109300  0.25070400  1
  K  K2  1  0.75109300  0.24890700  0.25070400  1
  K  K3  1  0.75109300  0.75109300  0.25070400  1
  Na  Na4  1  0.24796900  0.24796900  0.74951300  1
  Na  Na5  1  0.24796900  0.75203100  0.74951300  1
  Na  Na6  1  0.75203100  0.24796900  0.74951300  1
  Na  Na7  1  0.75203100  0.75203100  0.74951300  1
  Mo  Mo8  1  0.00000000  0.00000000  0.50141300  1
  Mo  Mo9  1  0.00000000  0.50000000  0.99722900  1
  Mo  Mo10  1  0.00000000  0.50000000  0.50255600  1
  Mo  Mo11  1  0.50000000  0.00000000  0.99722900  1
  Mo  Mo12  1  0.50000000  0.00000000  0.50255600  1
  Mo  Mo13  1  0.50000000  0.50000000  0.99795200  1
  Mo  Mo14  1  0.50000000  0.50000000  0.50209300  1
  W  W15  1  0.00000000  0.00000000  0.99686800  1
  O  O16  1  0.24419400  0.00000000  0.99471700  1
  O  O17  1  0.25422800  0.00000000  0.50495800  1
  O  O18  1  0.23849300  0.50000000  0.99514500  1
  O  O19  1  0.24343500  0.50000000  0.50486500  1
  O  O20  1  0.75580600  0.00000000  0.99471700  1
  O  O21  1  0.74577200  0.00000000  0.50495800  1
  O  O22  1  0.76150700  0.50000000  0.99514500  1
  O  O23  1  0.75656500  0.50000000  0.50486500  1
  O  O24  1  0.00000000  0.24419400  0.99471700  1
  O  O25  1  0.00000000  0.25422800  0.50495800  1
  O  O26  1  0.00000000  0.75580600  0.99471700  1
  O  O27  1  0.00000000  0.74577200  0.50495800  1
  O  O28  1  0.50000000  0.23849300  0.99514500  1
  O  O29  1  0.50000000  0.24343500  0.50486500  1
  O  O30  1  0.50000000  0.76150700  0.99514500  1
  O  O31  1  0.50000000  0.75656500  0.50486500  1
  O  O32  1  0.00000000  0.00000000  0.23786400  1
  O  O33  1  0.00000000  0.00000000  0.75800200  1
  O  O34  1  0.00000000  0.50000000  0.25872700  1
  O  O35  1  0.00000000  0.50000000  0.74352200  1
  O  O36  1  0.50000000  0.00000000  0.25872700  1
  O  O37  1  0.50000000  0.00000000  0.74352200  1
  O  O38  1  0.50000000  0.50000000  0.26276000  1
  O  O39  1  0.50000000  0.50000000  0.73937600  1
