# generated using pymatgen
data_Al3Si3(PbO8)2
_symmetry_space_group_name_H-M   'P 1'
_cell_length_a   9.16595104
_cell_length_b   9.16595104
_cell_length_c   9.11997600
_cell_angle_alpha   90.00000000
_cell_angle_beta   90.00000000
_cell_angle_gamma   90.93149786
_symmetry_Int_Tables_number   1
_chemical_formula_structural   Al3Si3(PbO8)2
_chemical_formula_sum   'Al6 Si6 Pb4 O32'
_cell_volume   766.11041105
_cell_formula_units_Z   2
loop_
 _symmetry_equiv_pos_site_id
 _symmetry_equiv_pos_as_xyz
  1  'x, y, z'
loop_
 _atom_site_type_symbol
 _atom_site_label
 _atom_site_symmetry_multiplicity
 _atom_site_fract_x
 _atom_site_fract_y
 _atom_site_fract_z
 _atom_site_occupancy
  Al  Al0  1  0.00000000  0.00000000  0.25879800  1
  Al  Al1  1  0.51441800  0.25051400  0.00040800  1
  Al  Al2  1  0.25051400  0.51441800  0.50040800  1
  Al  Al3  1  0.48558200  0.74948600  0.00040800  1
  Al  Al4  1  0.74948600  0.48558200  0.50040800  1
  Al  Al5  1  0.00000000  0.00000000  0.75879800  1
  Si  Si6  1  0.50000000  0.50000000  0.25174900  1
  Si  Si7  1  0.99740500  0.25031500  0.50748400  1
  Si  Si8  1  0.25031500  0.99740500  0.00748400  1
  Si  Si9  1  0.00259500  0.74968500  0.50748400  1
  Si  Si10  1  0.74968500  0.00259500  0.00748400  1
  Si  Si11  1  0.50000000  0.50000000  0.75174900  1
  Pb  Pb12  1  0.32961100  0.17435500  0.32038300  1
  Pb  Pb13  1  0.67038900  0.82564500  0.32038300  1
  Pb  Pb14  1  0.17435500  0.32961100  0.82038300  1
  Pb  Pb15  1  0.82564500  0.67038900  0.82038300  1
  O  O16  1  0.10417200  0.39832100  0.05106100  1
  O  O17  1  0.89582800  0.60167900  0.05106100  1
  O  O18  1  0.08314100  0.58430400  0.91035000  1
  O  O19  1  0.91685900  0.41569600  0.91035000  1
  O  O20  1  0.58430400  0.08314100  0.41035000  1
  O  O21  1  0.39832100  0.10417200  0.55106100  1
  O  O22  1  0.60167900  0.89582800  0.55106100  1
  O  O23  1  0.41569600  0.91685900  0.41035000  1
  O  O24  1  0.05892000  0.14730500  0.37310600  1
  O  O25  1  0.35990900  0.13877000  0.05427500  1
  O  O26  1  0.36080900  0.44784800  0.35655200  1
  O  O27  1  0.94108000  0.85269500  0.37310600  1
  O  O28  1  0.64009100  0.86123000  0.05427500  1
  O  O29  1  0.63919100  0.55215200  0.35655200  1
  O  O30  1  0.03125800  0.84314000  0.65651000  1
  O  O31  1  0.34327200  0.86069600  0.95458700  1
  O  O32  1  0.35533700  0.53886200  0.65851100  1
  O  O33  1  0.96874200  0.15686000  0.65651000  1
  O  O34  1  0.65672800  0.13930400  0.95458800  1
  O  O35  1  0.64466300  0.46113800  0.65851100  1
  O  O36  1  0.53886200  0.35533700  0.15851100  1
  O  O37  1  0.84314000  0.03125800  0.15651000  1
  O  O38  1  0.86069600  0.34327200  0.45458800  1
  O  O39  1  0.44784800  0.36080900  0.85655200  1
  O  O40  1  0.14730500  0.05892000  0.87310600  1
  O  O41  1  0.13877000  0.35990900  0.55427500  1
  O  O42  1  0.55215200  0.63919100  0.85655200  1
  O  O43  1  0.85269500  0.94108000  0.87310600  1
  O  O44  1  0.86123000  0.64009100  0.55427500  1
  O  O45  1  0.46113800  0.64466300  0.15851100  1
  O  O46  1  0.15686000  0.96874200  0.15651000  1
  O  O47  1  0.13930400  0.65672800  0.45458800  1
