# generated using pymatgen
data_Ba12In4S19
_symmetry_space_group_name_H-M   'P 1'
_cell_length_a   9.73612608
_cell_length_b   9.73612549
_cell_length_c   26.07158344
_cell_angle_alpha   90.00000000
_cell_angle_beta   79.23862366
_cell_angle_gamma   119.99999802
_symmetry_Int_Tables_number   1
_chemical_formula_structural   Ba12In4S19
_chemical_formula_sum   'Ba24 In8 S38'
_cell_volume   2089.94127659
_cell_formula_units_Z   2
loop_
 _symmetry_equiv_pos_site_id
 _symmetry_equiv_pos_as_xyz
  1  'x, y, z'
loop_
 _atom_site_type_symbol
 _atom_site_label
 _atom_site_symmetry_multiplicity
 _atom_site_fract_x
 _atom_site_fract_y
 _atom_site_fract_z
 _atom_site_occupancy
  Ba  Ba0  1  0.29992992  0.83467025  0.43702495  1
  Ba  Ba1  1  0.09771538  0.26304513  0.43702495  1
  Ba  Ba2  1  0.72830479  0.46525966  0.43702495  1
  Ba  Ba3  1  0.70007008  0.16532975  0.56297505  1
  Ba  Ba4  1  0.90228462  0.73695487  0.56297505  1
  Ba  Ba5  1  0.27169521  0.53474034  0.56297505  1
  Ba  Ba6  1  0.15942879  0.77789111  0.68730659  1
  Ba  Ba7  1  0.93115572  0.15326461  0.68730659  1
  Ba  Ba8  1  0.53480230  0.38153768  0.68730659  1
  Ba  Ba9  1  0.84057121  0.22210889  0.31269341  1
  Ba  Ba10  1  0.06884428  0.84673539  0.31269341  1
  Ba  Ba11  1  0.46519770  0.61846232  0.31269341  1
  Ba  Ba12  1  0.46268456  0.92223390  0.18715559  1
  Ba  Ba13  1  0.27239375  0.35015985  0.18715559  1
  Ba  Ba14  1  0.89061051  0.54045065  0.18715559  1
  Ba  Ba15  1  0.53731544  0.07776610  0.81284441  1
  Ba  Ba16  1  0.72760625  0.64984015  0.81284441  1
  Ba  Ba17  1  0.10938949  0.45954935  0.81284441  1
  Ba  Ba18  1  0.96876938  0.68763205  0.93821043  1
  Ba  Ba19  1  0.78065224  0.09302018  0.93821043  1
  Ba  Ba20  1  0.37415752  0.28113733  0.93821043  1
  Ba  Ba21  1  0.03123062  0.31236795  0.06178957  1
  Ba  Ba22  1  0.21934776  0.90697982  0.06178957  1
  Ba  Ba23  1  0.62584248  0.71886267  0.06178957  1
  In  In24  1  0.60643309  0.30321654  0.09035037  1
  In  In25  1  0.39356691  0.69678346  0.90964963  1
  In  In26  1  0.14217885  0.07108943  0.78673172  1
  In  In27  1  0.85782115  0.92891057  0.21326828  1
  In  In28  1  0.30650927  0.15325463  0.54023610  1
  In  In29  1  0.69349073  0.84674537  0.45976390  1
  In  In30  1  0.44405374  0.22202687  0.33391940  1
  In  In31  1  0.55594626  0.77797313  0.66608060  1
  S  S32  1  0.37934753  0.31219186  0.06169319  1
  S  S33  1  0.87115114  0.55895928  0.06169319  1
  S  S34  1  0.62611495  0.06715567  0.06169319  1
  S  S35  1  0.62065247  0.68780814  0.93830681  1
  S  S36  1  0.12884886  0.44104072  0.93830681  1
  S  S37  1  0.37388505  0.93284433  0.93830681  1
  S  S38  1  0.90359296  0.45179648  0.64461056  1
  S  S39  1  0.09640704  0.54820352  0.35538944  1
  S  S40  1  0.44653667  0.97751251  0.31386144  1
  S  S41  1  0.21711441  0.23960190  0.31386144  1
  S  S42  1  0.70862605  0.46902415  0.31386144  1
  S  S43  1  0.55346333  0.02248749  0.68613856  1
  S  S44  1  0.78288559  0.76039810  0.68613856  1
  S  S45  1  0.29137395  0.53097585  0.68613856  1
  S  S46  1  0.74700137  0.37350068  0.87949795  1
  S  S47  1  0.25299863  0.62649932  0.12050205  1
  S  S48  1  0.54224848  0.27112424  0.18662728  1
  S  S49  1  0.45775152  0.72887576  0.81337272  1
  S  S50  1  0.28456153  0.89575393  0.56086023  1
  S  S51  1  0.05033217  0.15457824  0.56086023  1
  S  S52  1  0.54338584  0.38880760  0.56086023  1
  S  S53  1  0.71543847  0.10424607  0.43913977  1
  S  S54  1  0.94966783  0.84542176  0.43913977  1
  S  S55  1  0.45661416  0.61119240  0.43913977  1
  S  S56  1  0.10930343  0.81011584  0.81357982  1
  S  S57  1  0.88723259  0.07711675  0.81357982  1
  S  S58  1  0.37630435  0.29918759  0.81357982  1
  S  S59  1  0.89069657  0.18988416  0.18642018  1
  S  S60  1  0.11276741  0.92288325  0.18642018  1
  S  S61  1  0.62369565  0.70081241  0.18642018  1
  S  S62  1  -0.00000000  -0.00000000  -0.00000000  1
  S  S63  1  0.84758976  0.42379488  0.72861537  1
  S  S64  1  0.15241024  0.57620512  0.27138463  1
  S  S65  1  0.20707317  0.10353659  0.68939024  1
  S  S66  1  0.79292683  0.89646341  0.31060976  1
  S  S67  1  -0.00000000  0.50000000  0.50000000  1
  S  S68  1  0.37501071  0.18750536  0.43748393  1
  S  S69  1  0.62498929  0.81249464  0.56251607  1
