# generated using pymatgen
data_Cs2TeP2H8O13
_symmetry_space_group_name_H-M   'P 1'
_cell_length_a   11.20638501
_cell_length_b   11.20638501
_cell_length_c   16.85673341
_cell_angle_alpha   74.47540033
_cell_angle_beta   74.47540033
_cell_angle_gamma   44.52406192
_symmetry_Int_Tables_number   1
_chemical_formula_structural   Cs2TeP2H8O13
_chemical_formula_sum   'Cs8 Te4 P8 H32 O52'
_cell_volume   1420.96825734
_cell_formula_units_Z   4
loop_
 _symmetry_equiv_pos_site_id
 _symmetry_equiv_pos_as_xyz
  1  'x, y, z'
loop_
 _atom_site_type_symbol
 _atom_site_label
 _atom_site_symmetry_multiplicity
 _atom_site_fract_x
 _atom_site_fract_y
 _atom_site_fract_z
 _atom_site_occupancy
  Cs  Cs0  1  0.81363100  0.87420700  0.95421500  1
  Cs  Cs1  1  0.12722500  0.18646000  0.54640100  1
  Cs  Cs2  1  0.18646000  0.12722500  0.04640100  1
  Cs  Cs3  1  0.87420700  0.81363100  0.45421500  1
  Cs  Cs4  1  0.74235600  0.43635000  0.33007100  1
  Cs  Cs5  1  0.56721000  0.25523000  0.16890600  1
  Cs  Cs6  1  0.25523000  0.56721000  0.66890600  1
  Cs  Cs7  1  0.43635000  0.74235600  0.83007100  1
  Te  Te8  1  0.33544700  0.40536600  0.92829900  1
  Te  Te9  1  0.59484800  0.66463600  0.57156700  1
  Te  Te10  1  0.66463600  0.59484800  0.07156700  1
  Te  Te11  1  0.40536600  0.33544700  0.42829900  1
  P  P12  1  0.18796700  0.89932100  0.36859800  1
  P  P13  1  0.09443900  0.81402700  0.12648800  1
  P  P14  1  0.81402700  0.09443900  0.62648800  1
  P  P15  1  0.89932100  0.18796700  0.86859800  1
  P  P16  1  0.37611500  0.00334400  0.28810300  1
  P  P17  1  0.99613500  0.62251400  0.21175000  1
  P  P18  1  0.62251400  0.99613500  0.71175000  1
  P  P19  1  0.00334400  0.37611500  0.78810300  1
  H  H20  1  0.46554200  0.11096200  0.37314800  1
  H  H21  1  0.88930400  0.53458800  0.12687400  1
  H  H22  1  0.53458800  0.88930400  0.62687400  1
  H  H23  1  0.11096200  0.46554200  0.87314800  1
  H  H24  1  0.40165600  0.68221900  0.04331400  1
  H  H25  1  0.31667600  0.59857900  0.45696100  1
  H  H26  1  0.59857900  0.31667600  0.95696100  1
  H  H27  1  0.68221900  0.40165600  0.54331400  1
  H  H28  1  0.71882000  0.76461600  0.26420900  1
  H  H29  1  0.23536600  0.28085600  0.23613300  1
  H  H30  1  0.28085600  0.23536600  0.73613300  1
  H  H31  1  0.76461600  0.71882000  0.76420900  1
  H  H32  1  0.37224500  0.75278400  0.49762700  1
  H  H33  1  0.24899600  0.62645200  0.00253100  1
  H  H34  1  0.62645200  0.24899600  0.50253100  1
  H  H35  1  0.75278400  0.37224500  0.99762700  1
  H  H36  1  0.52044400  0.86182500  0.43719000  1
  H  H37  1  0.13802000  0.47952300  0.06276000  1
  H  H38  1  0.47952300  0.13802000  0.56276000  1
  H  H39  1  0.86182500  0.52044400  0.93719000  1
  H  H40  1  0.56604000  0.81693900  0.14977100  1
  H  H41  1  0.18306200  0.43393200  0.35024100  1
  H  H42  1  0.43393200  0.18306200  0.85024100  1
  H  H43  1  0.81693900  0.56604000  0.64977100  1
  H  H44  1  0.42354800  0.67456200  0.17828800  1
  H  H45  1  0.32356300  0.57768400  0.32205600  1
  H  H46  1  0.57768400  0.32356300  0.82205600  1
  H  H47  1  0.67456200  0.42354800  0.67828800  1
  H  H48  1  0.00667400  0.01082100  0.48418200  1
  H  H49  1  0.01082200  0.00667400  0.98418200  1
  H  H50  1  0.11652800  0.87843000  0.23905300  1
  H  H51  1  0.87843000  0.11652800  0.73905300  1
  O  O52  1  0.53344400  0.28373700  0.98619400  1
  O  O53  1  0.71695100  0.46544800  0.51434000  1
  O  O54  1  0.46544800  0.71695100  0.01434000  1
  O  O55  1  0.28373700  0.53344400  0.48619400  1
  O  O56  1  0.62836200  0.23386000  0.44524300  1
  O  O57  1  0.76628100  0.37181100  0.05499000  1
  O  O58  1  0.37181100  0.76628100  0.55499000  1
  O  O59  1  0.23386000  0.62836200  0.94524300  1
  O  O60  1  0.54525500  0.84400900  0.25049600  1
  O  O61  1  0.15536400  0.45419100  0.24961600  1
  O  O62  1  0.45419100  0.15536400  0.74961600  1
  O  O63  1  0.84400900  0.54525500  0.75049600  1
  O  O64  1  0.56889300  0.81588900  0.08986500  1
  O  O65  1  0.18460000  0.43039900  0.41016700  1
  O  O66  1  0.43039900  0.18460000  0.91016700  1
  O  O67  1  0.81588900  0.56889300  0.58986500  1
  O  O68  1  0.53350200  0.14077300  0.36681200  1
  O  O69  1  0.85897600  0.46696400  0.13303000  1
  O  O70  1  0.46696400  0.85897600  0.63303000  1
  O  O71  1  0.14077300  0.53350200  0.86681200  1
  O  O72  1  0.34276900  0.74116200  0.41320300  1
  O  O73  1  0.26204800  0.65397000  0.08836800  1
  O  O74  1  0.65397000  0.26204800  0.58836800  1
  O  O75  1  0.74116200  0.34276900  0.91320300  1
  O  O76  1  0.96293600  0.95471000  0.06705900  1
  O  O77  1  0.04487100  0.04661300  0.42624700  1
  O  O78  1  0.04661300  0.04487100  0.92624700  1
  O  O79  1  0.95471000  0.96293600  0.56705900  1
  O  O80  1  0.23567500  0.99179000  0.29594900  1
  O  O81  1  0.00528100  0.76487700  0.20190200  1
  O  O82  1  0.76487700  0.00528100  0.70190200  1
  O  O83  1  0.99179000  0.23567500  0.79594900  1
  O  O84  1  0.54818500  0.57668500  0.17857700  1
  O  O85  1  0.42282800  0.45281200  0.32163400  1
  O  O86  1  0.45281200  0.42282800  0.82163400  1
  O  O87  1  0.57668500  0.54818500  0.67857700  1
  O  O88  1  0.13505700  0.88417700  0.17372700  1
  O  O89  1  0.11593500  0.86000400  0.32670600  1
  O  O90  1  0.86000400  0.11593500  0.82670600  1
  O  O91  1  0.88417700  0.13505700  0.67372700  1
  O  O92  1  0.30525000  0.16094900  0.22003700  1
  O  O93  1  0.83911000  0.69270900  0.28023000  1
  O  O94  1  0.69270900  0.83911000  0.78023000  1
  O  O95  1  0.16094900  0.30525000  0.72003700  1
  O  O96  1  0.37545200  0.03138200  0.37132500  1
  O  O97  1  0.96813500  0.62173800  0.12882700  1
  O  O98  1  0.62173800  0.96813500  0.62882700  1
  O  O99  1  0.03138200  0.37545200  0.87132500  1
  O  O100  1  0.62348100  0.77454900  0.46852800  1
  O  O101  1  0.22524800  0.37681900  0.03119200  1
  O  O102  1  0.37681900  0.22524800  0.53119200  1
  O  O103  1  0.77454900  0.62348100  0.96852800  1
