# generated using pymatgen
data_CaMg2(SO4)3
_symmetry_space_group_name_H-M   'P 1'
_cell_length_a   7.43466700
_cell_length_b   16.89241800
_cell_length_c   16.89636949
_cell_angle_alpha   60.01056665
_cell_angle_beta   90.00000000
_cell_angle_gamma   90.00000000
_symmetry_Int_Tables_number   1
_chemical_formula_structural   CaMg2(SO4)3
_chemical_formula_sum   'Ca8 Mg16 S24 O96'
_cell_volume   1837.90730010
_cell_formula_units_Z   8
loop_
 _symmetry_equiv_pos_site_id
 _symmetry_equiv_pos_as_xyz
  1  'x, y, z'
loop_
 _atom_site_type_symbol
 _atom_site_label
 _atom_site_symmetry_multiplicity
 _atom_site_fract_x
 _atom_site_fract_y
 _atom_site_fract_z
 _atom_site_occupancy
  Ca  Ca0  1  0.03337300  0.52204400  0.99159200  1
  Ca  Ca1  1  0.03341200  0.99159200  0.48640500  1
  Ca  Ca2  1  0.03338200  0.48642000  0.52195700  1
  Ca  Ca3  1  0.53337300  0.47795600  0.00840800  1
  Ca  Ca4  1  0.53341200  0.00840800  0.51359500  1
  Ca  Ca5  1  0.53338200  0.51358000  0.47804300  1
  Ca  Ca6  1  0.52903600  0.98885800  0.00417400  1
  Ca  Ca7  1  0.02903600  0.01114200  0.99582600  1
  Mg  Mg8  1  0.58227300  0.33333000  0.33333200  1
  Mg  Mg9  1  0.08227300  0.66667000  0.66666800  1
  Mg  Mg10  1  0.07669500  0.15865200  0.17264900  1
  Mg  Mg11  1  0.07744900  0.17314400  0.66800800  1
  Mg  Mg12  1  0.07773600  0.66750500  0.15893900  1
  Mg  Mg13  1  0.57669500  0.84134800  0.82735100  1
  Mg  Mg14  1  0.57744900  0.82685600  0.33199200  1
  Mg  Mg15  1  0.57773600  0.33249500  0.84106100  1
  Mg  Mg16  1  0.98783000  0.33333700  0.33333400  1
  Mg  Mg17  1  0.48783000  0.66666300  0.66666600  1
  Mg  Mg18  1  0.48214700  0.17478100  0.16191700  1
  Mg  Mg19  1  0.48312300  0.16125900  0.66408400  1
  Mg  Mg20  1  0.48350800  0.66459000  0.17455400  1
  Mg  Mg21  1  0.98214700  0.82521900  0.83808300  1
  Mg  Mg22  1  0.98312300  0.83874100  0.33591600  1
  Mg  Mg23  1  0.98350800  0.33541000  0.82544600  1
  S  S24  1  0.77796100  0.16522800  0.01690400  1
  S  S25  1  0.78177800  0.01712300  0.81808400  1
  S  S26  1  0.78350900  0.81818900  0.16491000  1
  S  S27  1  0.27796100  0.83477200  0.98309600  1
  S  S28  1  0.28177800  0.98287700  0.18191600  1
  S  S29  1  0.28350900  0.18181100  0.83509000  1
  S  S30  1  0.78542700  0.31948900  0.16411000  1
  S  S31  1  0.78544400  0.16412000  0.51634400  1
  S  S32  1  0.78549900  0.51632100  0.31954000  1
  S  S33  1  0.28542700  0.68051100  0.83589000  1
  S  S34  1  0.28544400  0.83588000  0.48365600  1
  S  S35  1  0.28549900  0.48367900  0.68046000  1
  S  S36  1  0.27385500  0.33613600  0.98281700  1
  S  S37  1  0.27401000  0.98286700  0.68098600  1
  S  S38  1  0.27423900  0.68103200  0.33612500  1
  S  S39  1  0.77385500  0.66386400  0.01718300  1
  S  S40  1  0.77401000  0.01713300  0.31901400  1
  S  S41  1  0.77423900  0.31896800  0.66387500  1
  S  S42  1  0.78700300  0.51684800  0.81838200  1
  S  S43  1  0.78685700  0.81842900  0.66474400  1
  S  S44  1  0.78694200  0.66477900  0.51681000  1
  S  S45  1  0.28700300  0.48315200  0.18161800  1
  S  S46  1  0.28685700  0.18157100  0.33525600  1
  S  S47  1  0.28694200  0.33522100  0.48319000  1
  O  O48  1  0.78286100  0.30452700  0.25936300  1
  O  O49  1  0.78265000  0.25937000  0.43605800  1
  O  O50  1  0.78240000  0.43599000  0.30461300  1
  O  O51  1  0.28286100  0.69547300  0.74063700  1
  O  O52  1  0.28265000  0.74063000  0.56394200  1
  O  O53  1  0.28240000  0.56401000  0.69538700  1
  O  O54  1  0.81325700  0.41856200  0.09932700  1
  O  O55  1  0.81305800  0.09931900  0.48203800  1
  O  O56  1  0.81286300  0.48202600  0.41864000  1
  O  O57  1  0.31325700  0.58143800  0.90067300  1
  O  O58  1  0.31305800  0.90068100  0.51796200  1
  O  O59  1  0.31286300  0.51797400  0.58136000  1
  O  O60  1  0.24591100  0.40148700  0.01654200  1
  O  O61  1  0.24644600  0.01666700  0.58189200  1
  O  O62  1  0.24631600  0.58195600  0.40140600  1
  O  O63  1  0.74591100  0.59851300  0.98345800  1
  O  O64  1  0.74644600  0.98333300  0.41810800  1
  O  O65  1  0.74631600  0.41804400  0.59859400  1
  O  O66  1  0.61324200  0.15542800  0.06897800  1
  O  O67  1  0.61382700  0.06782700  0.77831500  1
  O  O68  1  0.61268700  0.78140800  0.15149100  1
  O  O69  1  0.11324200  0.84457200  0.93102200  1
  O  O70  1  0.11382700  0.93217300  0.22168500  1
  O  O71  1  0.11268700  0.21859200  0.84850900  1
  O  O72  1  0.78954600  0.48235100  0.91861900  1
  O  O73  1  0.78953100  0.91867400  0.59901700  1
  O  O74  1  0.78953500  0.59901600  0.48230900  1
  O  O75  1  0.28954600  0.51764900  0.08138100  1
  O  O76  1  0.28953100  0.08132600  0.40098300  1
  O  O77  1  0.28953500  0.40098400  0.51769100  1
  O  O78  1  0.76910100  0.10016300  0.98150800  1
  O  O79  1  0.78064200  0.98209500  0.91857000  1
  O  O80  1  0.78612300  0.91877600  0.09991300  1
  O  O81  1  0.26910100  0.89983700  0.01849200  1
  O  O82  1  0.28064200  0.01790500  0.08143000  1
  O  O83  1  0.28612300  0.08122400  0.90008700  1
  O  O84  1  0.27257400  0.24097900  0.06350000  1
  O  O85  1  0.27318700  0.06355400  0.69550900  1
  O  O86  1  0.27380900  0.69554600  0.24094900  1
  O  O87  1  0.77257400  0.75902100  0.93650000  1
  O  O88  1  0.77318700  0.93644600  0.30449100  1
  O  O89  1  0.77380900  0.30445400  0.75905100  1
  O  O90  1  0.62402300  0.57207300  0.77842700  1
  O  O91  1  0.62397900  0.77845100  0.64945900  1
  O  O92  1  0.62400000  0.64950600  0.57204100  1
  O  O93  1  0.12402300  0.42792700  0.22157300  1
  O  O94  1  0.12397900  0.22154900  0.35054100  1
  O  O95  1  0.12400000  0.35049400  0.42795900  1
  O  O96  1  0.13207500  0.34742500  0.91793000  1
  O  O97  1  0.13187900  0.91815400  0.73425500  1
  O  O98  1  0.13214000  0.73446500  0.34741400  1
  O  O99  1  0.63207500  0.65257500  0.08207000  1
  O  O100  1  0.63187900  0.08184600  0.26574500  1
  O  O101  1  0.63214000  0.26553500  0.65258600  1
  O  O102  1  0.45501700  0.35534200  0.93899200  1
  O  O103  1  0.45508000  0.93886500  0.70591800  1
  O  O104  1  0.45529800  0.70580200  0.35535000  1
  O  O105  1  0.95501700  0.64465800  0.06100800  1
  O  O106  1  0.95508000  0.06113500  0.29408200  1
  O  O107  1  0.95529800  0.29419800  0.64465000  1
  O  O108  1  0.78741300  0.26044500  0.93643100  1
  O  O109  1  0.78845600  0.93634300  0.80372300  1
  O  O110  1  0.78811600  0.80311700  0.26030500  1
  O  O111  1  0.28741300  0.73955500  0.06356900  1
  O  O112  1  0.28845600  0.06365700  0.19627700  1
  O  O113  1  0.28811600  0.19688300  0.73969500  1
  O  O114  1  0.78337000  0.43575300  0.80429600  1
  O  O115  1  0.78287600  0.80440600  0.75988400  1
  O  O116  1  0.78319600  0.75993400  0.43571800  1
  O  O117  1  0.28337000  0.56424700  0.19570400  1
  O  O118  1  0.28287600  0.19559400  0.24011600  1
  O  O119  1  0.28319600  0.24006600  0.56428200  1
  O  O120  1  0.94199600  0.14420800  0.07359100  1
  O  O121  1  0.94268800  0.07509500  0.77965500  1
  O  O122  1  0.94155900  0.77721900  0.14710200  1
  O  O123  1  0.44199600  0.85579200  0.92640900  1
  O  O124  1  0.44268800  0.92490500  0.22034500  1
  O  O125  1  0.44155900  0.22278100  0.85289800  1
  O  O126  1  0.92931300  0.26530800  0.15539100  1
  O  O127  1  0.92956200  0.15547100  0.57903600  1
  O  O128  1  0.92992900  0.57874700  0.26563100  1
  O  O129  1  0.42931300  0.73469200  0.84460900  1
  O  O130  1  0.42956200  0.84452900  0.42096400  1
  O  O131  1  0.42992900  0.42125300  0.73436900  1
  O  O132  1  0.60632700  0.29559400  0.14147500  1
  O  O133  1  0.60651400  0.14139500  0.56310700  1
  O  O134  1  0.60677700  0.56337200  0.29532900  1
  O  O135  1  0.10632700  0.70440600  0.85852500  1
  O  O136  1  0.10651400  0.85860500  0.43689300  1
  O  O137  1  0.10677700  0.43662800  0.70467100  1
  O  O138  1  0.95298300  0.57004600  0.77921200  1
  O  O139  1  0.95293400  0.77923200  0.65081000  1
  O  O140  1  0.95295100  0.65078500  0.56998200  1
  O  O141  1  0.45298300  0.42995400  0.22078800  1
  O  O142  1  0.45293400  0.22076800  0.34919000  1
  O  O143  1  0.45295100  0.34921500  0.43001800  1
