# generated using pymatgen
data_La2MgSe4
_symmetry_space_group_name_H-M   'P 1'
_cell_length_a   6.97360800
_cell_length_b   8.74563200
_cell_length_c   14.89608900
_cell_angle_alpha   90.00000000
_cell_angle_beta   90.00000000
_cell_angle_gamma   90.00000000
_symmetry_Int_Tables_number   1
_chemical_formula_structural   La2MgSe4
_chemical_formula_sum   'La8 Mg4 Se16'
_cell_volume   908.49175182
_cell_formula_units_Z   4
loop_
 _symmetry_equiv_pos_site_id
 _symmetry_equiv_pos_as_xyz
  1  'x, y, z'
loop_
 _atom_site_type_symbol
 _atom_site_label
 _atom_site_symmetry_multiplicity
 _atom_site_fract_x
 _atom_site_fract_y
 _atom_site_fract_z
 _atom_site_occupancy
  La  La0  1  0.50000000  0.00000000  0.00000000  1
  La  La1  1  0.00000000  0.00000000  0.50000000  1
  La  La2  1  0.00000000  0.50000000  0.50000000  1
  La  La3  1  0.50000000  0.50000000  0.00000000  1
  La  La4  1  0.00068200  0.75000000  0.23185800  1
  La  La5  1  0.99931800  0.25000000  0.76814200  1
  La  La6  1  0.50068200  0.25000000  0.26814200  1
  La  La7  1  0.49931800  0.75000000  0.73185800  1
  Mg  Mg8  1  0.91825700  0.25000000  0.09269800  1
  Mg  Mg9  1  0.08174300  0.75000000  0.90730200  1
  Mg  Mg10  1  0.41825700  0.75000000  0.40730200  1
  Mg  Mg11  1  0.58174300  0.25000000  0.59269800  1
  Se  Se12  1  0.74932300  0.01755500  0.16809700  1
  Se  Se13  1  0.25067700  0.98244500  0.83190300  1
  Se  Se14  1  0.24932300  0.98244500  0.33190300  1
  Se  Se15  1  0.75067700  0.01755500  0.66809700  1
  Se  Se16  1  0.75067700  0.48244500  0.66809700  1
  Se  Se17  1  0.24932300  0.51755500  0.33190300  1
  Se  Se18  1  0.25067700  0.51755500  0.83190300  1
  Se  Se19  1  0.74932300  0.48244500  0.16809700  1
  Se  Se20  1  0.24211000  0.75000000  0.06640000  1
  Se  Se21  1  0.75789000  0.25000000  0.93360000  1
  Se  Se22  1  0.74211000  0.25000000  0.43360000  1
  Se  Se23  1  0.25789000  0.75000000  0.56640000  1
  Se  Se24  1  0.28382400  0.25000000  0.09321700  1
  Se  Se25  1  0.71617600  0.75000000  0.90678300  1
  Se  Se26  1  0.78382400  0.75000000  0.40678300  1
  Se  Se27  1  0.21617600  0.25000000  0.59321700  1
