# generated using pymatgen
data_Dy2MgSe4
_symmetry_space_group_name_H-M   'P 1'
_cell_length_a   7.52063908
_cell_length_b   7.52063908
_cell_length_c   7.52063908
_cell_angle_alpha   110.49567774
_cell_angle_beta   110.49567774
_cell_angle_gamma   107.44118045
_symmetry_Int_Tables_number   1
_chemical_formula_structural   Dy2MgSe4
_chemical_formula_sum   'Dy4 Mg2 Se8'
_cell_volume   327.14106579
_cell_formula_units_Z   2
loop_
 _symmetry_equiv_pos_site_id
 _symmetry_equiv_pos_as_xyz
  1  'x, y, z'
loop_
 _atom_site_type_symbol
 _atom_site_label
 _atom_site_symmetry_multiplicity
 _atom_site_fract_x
 _atom_site_fract_y
 _atom_site_fract_z
 _atom_site_occupancy
  Dy  Dy0  1  0.87500000  0.75655000  0.38155000  1
  Dy  Dy1  1  0.50655000  0.12500000  0.88155000  1
  Dy  Dy2  1  0.37500000  0.49345000  0.61845000  1
  Dy  Dy3  1  0.24345000  0.62500000  0.11845000  1
  Mg  Mg4  1  0.00000000  0.00000000  0.00000000  1
  Mg  Mg5  1  0.75000000  0.25000000  0.50000000  1
  Se  Se6  1  0.50780600  0.37849600  0.26175400  1
  Se  Se7  1  0.75394800  0.49219400  0.87069100  1
  Se  Se8  1  0.11674300  0.24605200  0.73824600  1
  Se  Se9  1  0.62150400  0.88325700  0.12930900  1
  Se  Se10  1  0.24219400  0.00394800  0.37069100  1
  Se  Se11  1  0.99605200  0.36674300  0.23824600  1
  Se  Se12  1  0.63325700  0.87150400  0.62930900  1
  Se  Se13  1  0.12849600  0.75780600  0.76175400  1
