# generated using pymatgen
data_La2MgSe4
_symmetry_space_group_name_H-M   'P 1'
_cell_length_a   7.80285988
_cell_length_b   7.80285988
_cell_length_c   7.80285988
_cell_angle_alpha   111.12571655
_cell_angle_beta   111.12571655
_cell_angle_gamma   106.21061225
_symmetry_Int_Tables_number   1
_chemical_formula_structural   La2MgSe4
_chemical_formula_sum   'La4 Mg2 Se8'
_cell_volume   364.83044990
_cell_formula_units_Z   2
loop_
 _symmetry_equiv_pos_site_id
 _symmetry_equiv_pos_as_xyz
  1  'x, y, z'
loop_
 _atom_site_type_symbol
 _atom_site_label
 _atom_site_symmetry_multiplicity
 _atom_site_fract_x
 _atom_site_fract_y
 _atom_site_fract_z
 _atom_site_occupancy
  La  La0  1  0.87500000  0.75767500  0.38267500  1
  La  La1  1  0.50767500  0.12500000  0.88267500  1
  La  La2  1  0.37500000  0.49232500  0.61732500  1
  La  La3  1  0.24232500  0.62500000  0.11732500  1
  Mg  Mg4  1  0.00000000  0.00000000  0.00000000  1
  Mg  Mg5  1  0.75000000  0.25000000  0.50000000  1
  Se  Se6  1  0.50633500  0.37532500  0.26767600  1
  Se  Se7  1  0.76134100  0.49366500  0.86899000  1
  Se  Se8  1  0.10764900  0.23865900  0.73232400  1
  Se  Se9  1  0.62467500  0.89235100  0.13101000  1
  Se  Se10  1  0.24366500  0.01134100  0.36899000  1
  Se  Se11  1  0.98865900  0.35764900  0.23232400  1
  Se  Se12  1  0.64235100  0.87467500  0.63101000  1
  Se  Se13  1  0.12532500  0.75633500  0.76767600  1
