# generated using pymatgen
data_Eu2MgS4
_symmetry_space_group_name_H-M   'P 1'
_cell_length_a   13.90959100
_cell_length_b   8.13526900
_cell_length_c   6.67590300
_cell_angle_alpha   90.00000000
_cell_angle_beta   90.00000000
_cell_angle_gamma   90.00000000
_symmetry_Int_Tables_number   1
_chemical_formula_structural   Eu2MgS4
_chemical_formula_sum   'Eu8 Mg4 S16'
_cell_volume   755.43359722
_cell_formula_units_Z   4
loop_
 _symmetry_equiv_pos_site_id
 _symmetry_equiv_pos_as_xyz
  1  'x, y, z'
loop_
 _atom_site_type_symbol
 _atom_site_label
 _atom_site_symmetry_multiplicity
 _atom_site_fract_x
 _atom_site_fract_y
 _atom_site_fract_z
 _atom_site_occupancy
  Eu  Eu0  1  0.00000000  0.00000000  0.50000000  1
  Eu  Eu1  1  0.50000000  0.00000000  0.00000000  1
  Eu  Eu2  1  0.50000000  0.50000000  0.00000000  1
  Eu  Eu3  1  0.00000000  0.50000000  0.50000000  1
  Eu  Eu4  1  0.23176100  0.75000000  0.00129900  1
  Eu  Eu5  1  0.76823900  0.25000000  0.99870100  1
  Eu  Eu6  1  0.26823900  0.25000000  0.50129900  1
  Eu  Eu7  1  0.73176100  0.75000000  0.49870100  1
  Mg  Mg8  1  0.09259800  0.25000000  0.92635700  1
  Mg  Mg9  1  0.90740200  0.75000000  0.07364300  1
  Mg  Mg10  1  0.40740200  0.75000000  0.42635700  1
  Mg  Mg11  1  0.59259800  0.25000000  0.57364300  1
  S  S12  1  0.16660000  0.01577400  0.74929900  1
  S  S13  1  0.83340000  0.98422600  0.25070100  1
  S  S14  1  0.33340000  0.98422600  0.24929900  1
  S  S15  1  0.66660000  0.01577400  0.75070100  1
  S  S16  1  0.66660000  0.48422600  0.75070100  1
  S  S17  1  0.33340000  0.51577400  0.24929900  1
  S  S18  1  0.83340000  0.51577400  0.25070100  1
  S  S19  1  0.16660000  0.48422600  0.74929900  1
  S  S20  1  0.06670000  0.75000000  0.24425200  1
  S  S21  1  0.93330000  0.25000000  0.75574800  1
  S  S22  1  0.43330000  0.25000000  0.74425200  1
  S  S23  1  0.56670000  0.75000000  0.25574800  1
  S  S24  1  0.09139000  0.25000000  0.28640400  1
  S  S25  1  0.90861000  0.75000000  0.71359600  1
  S  S26  1  0.40861000  0.75000000  0.78640400  1
  S  S27  1  0.59139000  0.25000000  0.21359600  1
