# generated using pymatgen
data_B2P6H60Ir2C18O3F8
_symmetry_space_group_name_H-M   'P 1'
_cell_length_a   9.48432246
_cell_length_b   10.02675869
_cell_length_c   11.50478652
_cell_angle_alpha   94.33412031
_cell_angle_beta   96.94460635
_cell_angle_gamma   97.78265850
_symmetry_Int_Tables_number   1
_chemical_formula_structural   B2P6H60Ir2C18O3F8
_chemical_formula_sum   'B2 P6 H60 Ir2 C18 O3 F8'
_cell_volume   1071.32805203
_cell_formula_units_Z   1
loop_
 _symmetry_equiv_pos_site_id
 _symmetry_equiv_pos_as_xyz
  1  'x, y, z'
loop_
 _atom_site_type_symbol
 _atom_site_label
 _atom_site_symmetry_multiplicity
 _atom_site_fract_x
 _atom_site_fract_y
 _atom_site_fract_z
 _atom_site_occupancy
  B  B0  1  0.86036700  0.82643500  0.18192300  1
  B  B1  1  0.14063900  0.17380800  0.81838100  1
  P  P2  1  0.73996300  0.79213200  0.64355100  1
  P  P3  1  0.26306400  0.19984100  0.36076400  1
  P  P4  1  0.42875400  0.69471800  0.75148800  1
  P  P5  1  0.56273200  0.31003000  0.25153000  1
  P  P6  1  0.68892000  0.45536200  0.70900700  1
  P  P7  1  0.29935900  0.53444400  0.28324000  1
  H  H8  1  0.19344800  0.62951700  0.80273500  1
  H  H9  1  0.80117900  0.38121000  0.20360900  1
  H  H10  1  0.60895900  0.97627800  0.58978700  1
  H  H11  1  0.39369700  0.01611400  0.41370400  1
  H  H12  1  0.29718600  0.88034700  0.78892400  1
  H  H13  1  0.70277800  0.12807500  0.21345800  1
  H  H14  1  0.66890400  0.89401300  0.46521400  1
  H  H15  1  0.33139800  0.09814600  0.53773900  1
  H  H16  1  0.19302800  0.61182500  0.64522500  1
  H  H17  1  0.79880900  0.39064700  0.35983300  1
  H  H18  1  0.75960300  0.31739000  0.54974700  1
  H  H19  1  0.24422800  0.67323100  0.44710400  1
  H  H20  1  0.87502300  0.72211900  0.48860800  1
  H  H21  1  0.12798600  0.27534300  0.51291300  1
  H  H22  1  0.88632900  0.96942600  0.77852900  1
  H  H23  1  0.11775700  0.03055200  0.22033300  1
  H  H24  1  0.59270800  0.74809600  0.93505200  1
  H  H25  1  0.40971100  0.25241200  0.06183200  1
  H  H26  1  0.89750500  0.45521900  0.60168300  1
  H  H27  1  0.09781500  0.54410900  0.39692600  1
  H  H28  1  0.25696500  0.48713600  0.73188200  1
  H  H29  1  0.73577500  0.51959700  0.27663000  1
  H  H30  1  0.87470700  0.31281600  0.68532700  1
  H  H31  1  0.12674400  0.68757400  0.31434300  1
  H  H32  1  0.50159800  0.57803100  0.91908400  1
  H  H33  1  0.49847600  0.42259000  0.07740200  1
  H  H34  1  0.09710800  0.80449200  0.03614800  1
  H  H35  1  0.90421300  0.19460700  0.96374600  1
  H  H36  1  0.64935400  0.24622400  0.80296700  1
  H  H37  1  0.35325300  0.74679200  0.19751200  1
  H  H38  1  0.98179900  0.84489400  0.59623400  1
  H  H39  1  0.01974100  0.15207600  0.40494400  1
  H  H40  1  0.85065200  0.43660600  0.88734900  1
  H  H41  1  0.14444200  0.56201800  0.10451200  1
  H  H42  1  0.37434300  0.89202000  0.65502600  1
  H  H43  1  0.62463600  0.11361700  0.34693000  1
  H  H44  1  0.47115000  0.72610500  0.54875800  1
  H  H45  1  0.53074500  0.29961100  0.47725500  1
  H  H46  1  0.40748600  0.71548600  0.95699900  1
  H  H47  1  0.59630500  0.28616700  0.04604100  1
  H  H48  1  0.49452900  0.33135700  0.79856800  1
  H  H49  1  0.50459400  0.65714500  0.20183300  1
  H  H50  1  0.74305000  0.56696500  0.91044400  1
  H  H51  1  0.24949500  0.42915000  0.08128000  1
  H  H52  1  0.79370900  0.00982200  0.56694900  1
  H  H53  1  0.20786700  0.98241200  0.43451600  1
  H  H54  1  0.72305900  0.90983200  0.83302100  1
  H  H55  1  0.28238600  0.09099400  0.16775500  1
  H  H56  1  0.89184900  0.59580100  0.83130800  1
  H  H57  1  0.09706300  0.40127200  0.15676800  1
  H  H58  1  0.94568200  0.67245600  0.62767100  1
  H  H59  1  0.06083700  0.32380300  0.37265900  1
  H  H60  1  0.48344800  0.94018700  0.79357600  1
  H  H61  1  0.51770300  0.06437600  0.20777600  1
  H  H62  1  0.86645600  0.81271900  0.84329900  1
  H  H63  1  0.14068100  0.19061400  0.16164300  1
  H  H64  1  0.52956300  0.24322500  0.66865700  1
  H  H65  1  0.46678500  0.74108600  0.33293000  1
  H  H66  1  0.16422500  0.90829900  0.95722900  1
  H  H67  1  0.83627100  0.09237700  0.04355100  1
  Ir  Ir68  1  0.55399500  0.61684900  0.61558500  1
  Ir  Ir69  1  0.43005000  0.38151200  0.39153000  1
  C  C70  1  0.81085300  0.87913900  0.78808600  1
  C  C71  1  0.19513500  0.12074700  0.21363500  1
  C  C72  1  0.69870100  0.93221500  0.55823500  1
  C  C73  1  0.30357100  0.05969500  0.44471200  1
  C  C74  1  0.58059600  0.30476700  0.74947800  1
  C  C75  1  0.41740200  0.68320600  0.24964700  1
  C  C76  1  0.90140300  0.75349800  0.58322800  1
  C  C77  1  0.10183300  0.24238300  0.41867400  1
  C  C78  1  0.25001100  0.59530000  0.73043800  1
  C  C79  1  0.74190700  0.41101600  0.27554100  1
  C  C80  1  0.39316600  0.86866600  0.74660800  1
  C  C81  1  0.60614000  0.13761500  0.25534000  1
  C  C82  1  0.80373300  0.51949900  0.84762900  1
  C  C83  1  0.18747700  0.47663200  0.14309200  1
  C  C84  1  0.81806100  0.37765100  0.62877200  1
  C  C85  1  0.17949000  0.61806200  0.36822500  1
  C  C86  1  0.48993600  0.68338800  0.90574300  1
  C  C87  1  0.51127500  0.31819700  0.09405000  1
  O  O88  1  0.16734500  0.81631500  0.98019400  1
  O  O89  1  0.83555700  0.18467000  0.02105200  1
  O  O90  1  0.38616500  0.49951900  0.52216300  1
  F  F91  1  0.98146400  0.76780500  0.14901300  1
  F  F92  1  0.01796300  0.23092400  0.84944200  1
  F  F93  1  0.74512400  0.72243400  0.18455700  1
  F  F94  1  0.25551400  0.27881500  0.81834400  1
  F  F95  1  0.89992100  0.89970600  0.29375400  1
  F  F96  1  0.10449700  0.10127500  0.70601000  1
  F  F97  1  0.82047200  0.91512800  0.09635600  1
  F  F98  1  0.17924900  0.08438500  0.90390800  1
