# generated using pymatgen
data_Ce3Al3Pd2Pt
_symmetry_space_group_name_H-M   'P 1'
_cell_length_a   4.44434699
_cell_length_b   7.21127198
_cell_length_c   23.37502999
_cell_angle_alpha   89.56541544
_cell_angle_beta   90.00000000
_cell_angle_gamma   90.00000000
_symmetry_Int_Tables_number   1
_chemical_formula_structural   Ce3Al3Pd2Pt
_chemical_formula_sum   'Ce12 Al12 Pd8 Pt4'
_cell_volume   749.13401773
_cell_formula_units_Z   4
loop_
 _symmetry_equiv_pos_site_id
 _symmetry_equiv_pos_as_xyz
  1  'x, y, z'
loop_
 _atom_site_type_symbol
 _atom_site_label
 _atom_site_symmetry_multiplicity
 _atom_site_fract_x
 _atom_site_fract_y
 _atom_site_fract_z
 _atom_site_occupancy
  Ce  Ce0  1  0.75000000  0.46953270  0.06026559  1
  Ce  Ce1  1  0.75000000  0.46844786  0.39328039  1
  Ce  Ce2  1  0.75000000  0.46917230  0.72663646  1
  Ce  Ce3  1  0.75000000  0.96856409  0.10669604  1
  Ce  Ce4  1  0.75000000  0.96689218  0.44001195  1
  Ce  Ce5  1  0.75000000  0.96772211  0.77375464  1
  Ce  Ce6  1  0.25000000  0.52803957  0.27436131  1
  Ce  Ce7  1  0.25000000  0.52763288  0.60772554  1
  Ce  Ce8  1  0.25000000  0.52745707  0.94088051  1
  Ce  Ce9  1  0.25000000  0.02858363  0.22603369  1
  Ce  Ce10  1  0.25000000  0.03222100  0.55956328  1
  Ce  Ce11  1  0.25000000  0.03187708  0.89260259  1
  Al  Al12  1  0.75000000  0.35239183  0.19039472  1
  Al  Al13  1  0.75000000  0.34992180  0.52315300  1
  Al  Al14  1  0.75000000  0.34947858  0.85641249  1
  Al  Al15  1  0.75000000  0.85264856  0.30960904  1
  Al  Al16  1  0.75000000  0.85436866  0.64359835  1
  Al  Al17  1  0.75000000  0.85428668  0.97654290  1
  Al  Al18  1  0.25000000  0.64915059  0.14491148  1
  Al  Al19  1  0.25000000  0.64747744  0.47775845  1
  Al  Al20  1  0.25000000  0.64839021  0.81098780  1
  Al  Al21  1  0.25000000  0.14972268  0.02194413  1
  Al  Al22  1  0.25000000  0.14916855  0.35524520  1
  Al  Al23  1  0.25000000  0.14918819  0.68897456  1
  Pd  Pd24  1  0.75000000  0.71325476  0.53700456  1
  Pd  Pd25  1  0.75000000  0.71331929  0.87022388  1
  Pd  Pd26  1  0.25000000  0.78504291  0.03700678  1
  Pd  Pd27  1  0.25000000  0.78471959  0.37027956  1
  Pd  Pd28  1  0.25000000  0.78531792  0.70375797  1
  Pd  Pd29  1  0.25000000  0.28546181  0.12945809  1
  Pd  Pd30  1  0.25000000  0.28534099  0.46264609  1
  Pd  Pd31  1  0.25000000  0.28527377  0.79599237  1
  Pt  Pt32  1  0.75000000  0.21683800  0.29641190  1
  Pt  Pt33  1  0.75000000  0.21821010  0.62943699  1
  Pt  Pt34  1  0.75000000  0.21852939  0.96253560  1
  Pt  Pt35  1  0.75000000  0.71635523  0.20390213  1
