# generated using pymatgen
data_Cs3Eu(Si2O5)3
_symmetry_space_group_name_H-M   'P 1'
_cell_length_a   28.94476700
_cell_length_b   7.30992700
_cell_length_c   9.80168050
_cell_angle_alpha   58.95152551
_cell_angle_beta   90.00000000
_cell_angle_gamma   90.00000000
_symmetry_Int_Tables_number   1
_chemical_formula_structural   Cs3Eu(Si2O5)3
_chemical_formula_sum   'Cs12 Eu4 Si24 O60'
_cell_volume   1776.75787469
_cell_formula_units_Z   4
loop_
 _symmetry_equiv_pos_site_id
 _symmetry_equiv_pos_as_xyz
  1  'x, y, z'
loop_
 _atom_site_type_symbol
 _atom_site_label
 _atom_site_symmetry_multiplicity
 _atom_site_fract_x
 _atom_site_fract_y
 _atom_site_fract_z
 _atom_site_occupancy
  Cs  Cs0  1  0.13679500  0.45688900  0.54014700  1
  Cs  Cs1  1  0.36320500  0.45688900  0.04014700  1
  Cs  Cs2  1  0.86320500  0.54311100  0.45985300  1
  Cs  Cs3  1  0.63679500  0.54311100  0.95985300  1
  Cs  Cs4  1  0.25580200  0.97045100  0.81446000  1
  Cs  Cs5  1  0.24419800  0.97045100  0.31446000  1
  Cs  Cs6  1  0.74419800  0.02954900  0.18554000  1
  Cs  Cs7  1  0.75580200  0.02954900  0.68554000  1
  Cs  Cs8  1  0.00112900  0.07695900  0.71849300  1
  Cs  Cs9  1  0.49887100  0.07695900  0.21849300  1
  Cs  Cs10  1  0.99887100  0.92304100  0.28150700  1
  Cs  Cs11  1  0.50112900  0.92304100  0.78150700  1
  Eu  Eu12  1  0.12373400  0.96836600  0.03939900  1
  Eu  Eu13  1  0.37626600  0.96836600  0.53939900  1
  Eu  Eu14  1  0.87626600  0.03163400  0.96060100  1
  Eu  Eu15  1  0.62373400  0.03163400  0.46060100  1
  Si  Si16  1  0.45114500  0.48010200  0.68709400  1
  Si  Si17  1  0.04885500  0.48010200  0.18709400  1
  Si  Si18  1  0.54885500  0.51989800  0.31290600  1
  Si  Si19  1  0.95114500  0.51989800  0.81290600  1
  Si  Si20  1  0.29804700  0.50351900  0.68622200  1
  Si  Si21  1  0.20195300  0.50351900  0.18622200  1
  Si  Si22  1  0.70195300  0.49648100  0.31377800  1
  Si  Si23  1  0.79804700  0.49648100  0.81377800  1
  Si  Si24  1  0.05719500  0.46894700  0.85998200  1
  Si  Si25  1  0.44280500  0.46894700  0.35998200  1
  Si  Si26  1  0.94280500  0.53105300  0.14001800  1
  Si  Si27  1  0.55719500  0.53105300  0.64001800  1
  Si  Si28  1  0.37811800  0.13575700  0.84326700  1
  Si  Si29  1  0.12188200  0.13575700  0.34326700  1
  Si  Si30  1  0.62188200  0.86424300  0.15673300  1
  Si  Si31  1  0.87811800  0.86424300  0.65673300  1
  Si  Si32  1  0.20824900  0.44735000  0.89141900  1
  Si  Si33  1  0.29175100  0.44735000  0.39141900  1
  Si  Si34  1  0.79175100  0.55265000  0.10858100  1
  Si  Si35  1  0.70824900  0.55265000  0.60858100  1
  Si  Si36  1  0.13668700  0.81339300  0.71914600  1
  Si  Si37  1  0.36331300  0.81339300  0.21914600  1
  Si  Si38  1  0.86331300  0.18660700  0.28085400  1
  Si  Si39  1  0.63668700  0.18660700  0.78085400  1
  O  O40  1  0.43260300  0.69536500  0.67226900  1
  O  O41  1  0.06739700  0.69536500  0.17226900  1
  O  O42  1  0.56739700  0.30463500  0.32773100  1
  O  O43  1  0.93260300  0.30463500  0.82773100  1
  O  O44  1  0.05688000  0.46983800  0.02603700  1
  O  O45  1  0.44312000  0.46983800  0.52603700  1
  O  O46  1  0.94312000  0.53016200  0.97396300  1
  O  O47  1  0.55688000  0.53016200  0.47396300  1
  O  O48  1  0.25733700  0.41181600  0.82332000  1
  O  O49  1  0.24266300  0.41181600  0.32332000  1
  O  O50  1  0.74266300  0.58818400  0.17668000  1
  O  O51  1  0.75733700  0.58818400  0.67668000  1
  O  O52  1  0.18510200  0.67362200  0.74778100  1
  O  O53  1  0.31489800  0.67362200  0.24778100  1
  O  O54  1  0.81489800  0.32637800  0.25221900  1
  O  O55  1  0.68510200  0.32637800  0.75221900  1
  O  O56  1  0.13856900  0.00142600  0.53027900  1
  O  O57  1  0.36143100  0.00142600  0.03027900  1
  O  O58  1  0.86143100  0.99857400  0.46972100  1
  O  O59  1  0.63856900  0.99857400  0.96972100  1
  O  O60  1  0.17732600  0.24140100  0.94776000  1
  O  O61  1  0.32267400  0.24140100  0.44776000  1
  O  O62  1  0.82267400  0.75859900  0.05224000  1
  O  O63  1  0.67732600  0.75859900  0.55224000  1
  O  O64  1  0.22443000  0.49343900  0.03413800  1
  O  O65  1  0.27557000  0.49343900  0.53413800  1
  O  O66  1  0.77557000  0.50656100  0.96586200  1
  O  O67  1  0.72443000  0.50656100  0.46586200  1
  O  O68  1  0.42703200  0.25994400  0.83703200  1
  O  O69  1  0.07296800  0.25994400  0.33703200  1
  O  O70  1  0.57296800  0.74005600  0.16296800  1
  O  O71  1  0.92703200  0.74005600  0.66296800  1
  O  O72  1  0.33868100  0.32314300  0.75870800  1
  O  O73  1  0.16131900  0.32314300  0.25870800  1
  O  O74  1  0.66131900  0.67685700  0.24129200  1
  O  O75  1  0.83868100  0.67685700  0.74129200  1
  O  O76  1  0.09359100  0.65559600  0.73694600  1
  O  O77  1  0.40640900  0.65559600  0.23694600  1
  O  O78  1  0.90640900  0.34440400  0.26305400  1
  O  O79  1  0.59359100  0.34440400  0.76305400  1
  O  O80  1  0.13388900  0.92326900  0.82319700  1
  O  O81  1  0.36611100  0.92326900  0.32319700  1
  O  O82  1  0.86611100  0.07673100  0.17680300  1
  O  O83  1  0.63388900  0.07673100  0.67680300  1
  O  O84  1  0.38236500  0.98343000  0.77220200  1
  O  O85  1  0.11763500  0.98343000  0.27220200  1
  O  O86  1  0.61763500  0.01657000  0.22779800  1
  O  O87  1  0.88236500  0.01657000  0.72779800  1
  O  O88  1  0.06860000  0.23839600  0.88588000  1
  O  O89  1  0.43140000  0.23839600  0.38588000  1
  O  O90  1  0.93140000  0.76160400  0.11412000  1
  O  O91  1  0.56860000  0.76160400  0.61412000  1
  O  O92  1  0.00686800  0.56020900  0.76822700  1
  O  O93  1  0.49313200  0.56020900  0.26822700  1
  O  O94  1  0.99313200  0.43979100  0.23177300  1
  O  O95  1  0.50686800  0.43979100  0.73177300  1
  O  O96  1  0.31362700  0.73468200  0.64741900  1
  O  O97  1  0.18637300  0.73468200  0.14741900  1
  O  O98  1  0.68637300  0.26531800  0.35258100  1
  O  O99  1  0.81362700  0.26531800  0.85258100  1
