# generated using pymatgen
data_AgOsN2O3
_symmetry_space_group_name_H-M   'P 1'
_cell_length_a   6.19511300
_cell_length_b   8.60287768
_cell_length_c   9.87987956
_cell_angle_alpha   96.51511425
_cell_angle_beta   71.72841066
_cell_angle_gamma   90.00000000
_symmetry_Int_Tables_number   1
_chemical_formula_structural   AgOsN2O3
_chemical_formula_sum   'Ag4 Os4 N8 O12'
_cell_volume   496.42533311
_cell_formula_units_Z   4
loop_
 _symmetry_equiv_pos_site_id
 _symmetry_equiv_pos_as_xyz
  1  'x, y, z'
loop_
 _atom_site_type_symbol
 _atom_site_label
 _atom_site_symmetry_multiplicity
 _atom_site_fract_x
 _atom_site_fract_y
 _atom_site_fract_z
 _atom_site_occupancy
  Ag  Ag0  1  0.99747100  0.50000000  0.00000000  1
  Ag  Ag1  1  0.29807000  0.19023600  0.38069300  1
  Ag  Ag2  1  0.67876300  0.80976400  0.61930700  1
  Ag  Ag3  1  0.50319600  0.50000000  0.00000000  1
  Os  Os4  1  0.31331700  0.67891100  0.38918200  1
  Os  Os5  1  0.70249800  0.32108900  0.61081800  1
  Os  Os6  1  0.10390900  0.99688800  0.77546200  1
  Os  Os7  1  0.87937100  0.00311200  0.22453800  1
  N  N8  1  0.11271400  0.52199200  0.77996500  1
  N  N9  1  0.89267800  0.47800800  0.22003500  1
  N  N10  1  0.50435400  0.24913700  0.99248600  1
  N  N11  1  0.49684000  0.75086300  0.00751400  1
  N  N12  1  0.80683600  0.94236700  0.39072200  1
  N  N13  1  0.19755800  0.05763300  0.60927800  1
  N  N14  1  0.48955300  0.68149000  0.49282600  1
  N  N15  1  0.98237900  0.31851000  0.50717400  1
  O  O16  1  0.03691600  0.16344200  0.90445600  1
  O  O17  1  0.94137200  0.83655800  0.09554400  1
  O  O18  1  0.39296100  0.51385400  0.25432900  1
  O  O19  1  0.64729000  0.48614600  0.74567100  1
  O  O20  1  0.34949000  0.85131500  0.30739600  1
  O  O21  1  0.65688600  0.14868500  0.69260400  1
  O  O22  1  0.64492900  0.11726700  0.21772900  1
  O  O23  1  0.12093700  0.11942400  0.20666200  1
  O  O24  1  0.32759900  0.88057600  0.79333800  1
  O  O25  1  0.86265800  0.88273300  0.78227100  1
  O  O26  1  0.02992900  0.67025700  0.49959700  1
  O  O27  1  0.52952600  0.32974300  0.50040300  1
