# generated using pymatgen
data_Ag10Te4BrCl
_symmetry_space_group_name_H-M   'P 1'
_cell_length_a   7.74413500
_cell_length_b   14.12761000
_cell_length_c   20.00579158
_cell_angle_alpha   45.14433893
_cell_angle_beta   90.00000000
_cell_angle_gamma   90.00000000
_symmetry_Int_Tables_number   1
_chemical_formula_structural   Ag10Te4BrCl
_chemical_formula_sum   'Ag40 Te16 Br4 Cl4'
_cell_volume   1551.57821573
_cell_formula_units_Z   4
loop_
 _symmetry_equiv_pos_site_id
 _symmetry_equiv_pos_as_xyz
  1  'x, y, z'
loop_
 _atom_site_type_symbol
 _atom_site_label
 _atom_site_symmetry_multiplicity
 _atom_site_fract_x
 _atom_site_fract_y
 _atom_site_fract_z
 _atom_site_occupancy
  Ag  Ag0  1  0.69633500  0.15135900  0.14641200  1
  Ag  Ag1  1  0.80366500  0.15135900  0.64641200  1
  Ag  Ag2  1  0.30366500  0.84864100  0.85358800  1
  Ag  Ag3  1  0.19633500  0.84864100  0.35358800  1
  Ag  Ag4  1  0.70638800  0.94663400  0.35210600  1
  Ag  Ag5  1  0.79361200  0.94663400  0.85210600  1
  Ag  Ag6  1  0.29361200  0.05336600  0.64789400  1
  Ag  Ag7  1  0.20638800  0.05336600  0.14789400  1
  Ag  Ag8  1  0.99317800  0.25358400  0.35909700  1
  Ag  Ag9  1  0.50682200  0.25358400  0.85909700  1
  Ag  Ag10  1  0.00682200  0.74641600  0.64090300  1
  Ag  Ag11  1  0.49317800  0.74641600  0.14090300  1
  Ag  Ag12  1  0.99229800  0.46573300  0.14364200  1
  Ag  Ag13  1  0.50770200  0.46573300  0.64364200  1
  Ag  Ag14  1  0.00770200  0.53426700  0.85635800  1
  Ag  Ag15  1  0.49229800  0.53426700  0.35635800  1
  Ag  Ag16  1  0.64391500  0.37073000  0.24981100  1
  Ag  Ag17  1  0.85608500  0.37073000  0.74981100  1
  Ag  Ag18  1  0.35608500  0.62927000  0.75018900  1
  Ag  Ag19  1  0.14391500  0.62927000  0.25018900  1
  Ag  Ag20  1  0.62404000  0.52225600  0.89992800  1
  Ag  Ag21  1  0.87596000  0.52225600  0.39992800  1
  Ag  Ag22  1  0.37596000  0.47774400  0.10007200  1
  Ag  Ag23  1  0.12404000  0.47774400  0.60007200  1
  Ag  Ag24  1  0.37422700  0.17589300  0.39910700  1
  Ag  Ag25  1  0.12577300  0.17589300  0.89910700  1
  Ag  Ag26  1  0.62577300  0.82410700  0.60089300  1
  Ag  Ag27  1  0.87422700  0.82410700  0.10089300  1
  Ag  Ag28  1  0.93652200  0.17728200  0.24959600  1
  Ag  Ag29  1  0.56347800  0.17728200  0.74959600  1
  Ag  Ag30  1  0.06347800  0.82271800  0.75040400  1
  Ag  Ag31  1  0.43652200  0.82271800  0.25040400  1
  Ag  Ag32  1  0.87433200  0.00934600  0.57247000  1
  Ag  Ag33  1  0.62566800  0.00934600  0.07247000  1
  Ag  Ag34  1  0.12566800  0.99065400  0.42753000  1
  Ag  Ag35  1  0.37433200  0.99065400  0.92753000  1
  Ag  Ag36  1  0.87097500  0.65274300  0.92702600  1
  Ag  Ag37  1  0.62902500  0.65274300  0.42702600  1
  Ag  Ag38  1  0.12902500  0.34725700  0.07297400  1
  Ag  Ag39  1  0.37097500  0.34725700  0.57297400  1
  Te  Te40  1  0.76430600  0.56186700  0.24965000  1
  Te  Te41  1  0.73569400  0.56186700  0.74965000  1
  Te  Te42  1  0.23569400  0.43813300  0.75035000  1
  Te  Te43  1  0.26430600  0.43813300  0.25035000  1
  Te  Te44  1  0.71719100  0.08025100  0.41151200  1
  Te  Te45  1  0.78280900  0.08025100  0.91151200  1
  Te  Te46  1  0.28280900  0.91974900  0.58848800  1
  Te  Te47  1  0.21719100  0.91974900  0.08848800  1
  Te  Te48  1  0.71376600  0.40293000  0.08833000  1
  Te  Te49  1  0.78623400  0.40293000  0.58833000  1
  Te  Te50  1  0.28623400  0.59707000  0.91167000  1
  Te  Te51  1  0.21376600  0.59707000  0.41167000  1
  Te  Te52  1  0.78770500  0.88570700  0.24998400  1
  Te  Te53  1  0.71229500  0.88570700  0.74998400  1
  Te  Te54  1  0.21229500  0.11429300  0.75001600  1
  Te  Te55  1  0.28770500  0.11429300  0.25001600  1
  Br  Br56  1  0.47512800  0.75415500  0.49918600  1
  Br  Br57  1  0.02487200  0.75415500  0.99918600  1
  Br  Br58  1  0.52487200  0.24584500  0.50081400  1
  Br  Br59  1  0.97512800  0.24584500  0.00081400  1
  Cl  Cl60  1  0.98212600  0.75227600  0.49810800  1
  Cl  Cl61  1  0.51787400  0.75227600  0.99810800  1
  Cl  Cl62  1  0.01787400  0.24772400  0.50189200  1
  Cl  Cl63  1  0.48212600  0.24772400  0.00189200  1
