# generated using pymatgen
data_Tm2MgSe4
_symmetry_space_group_name_H-M   'P 1'
_cell_length_a   14.02921100
_cell_length_b   8.15612900
_cell_length_c   6.79383100
_cell_angle_alpha   90.00000000
_cell_angle_beta   90.00000000
_cell_angle_gamma   90.00000000
_symmetry_Int_Tables_number   1
_chemical_formula_structural   Tm2MgSe4
_chemical_formula_sum   'Tm8 Mg4 Se16'
_cell_volume   777.37768986
_cell_formula_units_Z   4
loop_
 _symmetry_equiv_pos_site_id
 _symmetry_equiv_pos_as_xyz
  1  'x, y, z'
loop_
 _atom_site_type_symbol
 _atom_site_label
 _atom_site_symmetry_multiplicity
 _atom_site_fract_x
 _atom_site_fract_y
 _atom_site_fract_z
 _atom_site_occupancy
  Tm  Tm0  1  0.00000000  0.00000000  0.50000000  1
  Tm  Tm1  1  0.50000000  0.00000000  0.00000000  1
  Tm  Tm2  1  0.50000000  0.50000000  0.00000000  1
  Tm  Tm3  1  0.00000000  0.50000000  0.50000000  1
  Tm  Tm4  1  0.23513100  0.75000000  0.00399500  1
  Tm  Tm5  1  0.76486900  0.25000000  0.99600500  1
  Tm  Tm6  1  0.26486900  0.25000000  0.50399500  1
  Tm  Tm7  1  0.73513100  0.75000000  0.49600500  1
  Mg  Mg8  1  0.09229100  0.25000000  0.91908300  1
  Mg  Mg9  1  0.90770900  0.75000000  0.08091700  1
  Mg  Mg10  1  0.40770900  0.75000000  0.41908300  1
  Mg  Mg11  1  0.59229100  0.25000000  0.58091700  1
  Se  Se12  1  0.16939300  0.00318300  0.73890900  1
  Se  Se13  1  0.83060700  0.99681700  0.26109100  1
  Se  Se14  1  0.33060700  0.99681700  0.23890900  1
  Se  Se15  1  0.66939300  0.00318300  0.76109100  1
  Se  Se16  1  0.66939300  0.49681700  0.76109100  1
  Se  Se17  1  0.33060700  0.50318300  0.23890900  1
  Se  Se18  1  0.83060700  0.50318300  0.26109100  1
  Se  Se19  1  0.16939300  0.49681700  0.73890900  1
  Se  Se20  1  0.07434500  0.75000000  0.25140300  1
  Se  Se21  1  0.92565500  0.25000000  0.74859700  1
  Se  Se22  1  0.42565500  0.25000000  0.75140300  1
  Se  Se23  1  0.57434500  0.75000000  0.24859700  1
  Se  Se24  1  0.09159200  0.25000000  0.29124200  1
  Se  Se25  1  0.90840800  0.75000000  0.70875800  1
  Se  Se26  1  0.40840800  0.75000000  0.79124200  1
  Se  Se27  1  0.59159200  0.25000000  0.20875800  1
