# generated using pymatgen
data_Er2MgSe4
_symmetry_space_group_name_H-M   'P 1'
_cell_length_a   14.05849100
_cell_length_b   8.17207300
_cell_length_c   6.80738300
_cell_angle_alpha   90.00000000
_cell_angle_beta   90.00000000
_cell_angle_gamma   90.00000000
_symmetry_Int_Tables_number   1
_chemical_formula_structural   Er2MgSe4
_chemical_formula_sum   'Er8 Mg4 Se16'
_cell_volume   782.07991094
_cell_formula_units_Z   4
loop_
 _symmetry_equiv_pos_site_id
 _symmetry_equiv_pos_as_xyz
  1  'x, y, z'
loop_
 _atom_site_type_symbol
 _atom_site_label
 _atom_site_symmetry_multiplicity
 _atom_site_fract_x
 _atom_site_fract_y
 _atom_site_fract_z
 _atom_site_occupancy
  Er  Er0  1  0.00000000  0.00000000  0.50000000  1
  Er  Er1  1  0.50000000  0.00000000  0.00000000  1
  Er  Er2  1  0.50000000  0.50000000  0.00000000  1
  Er  Er3  1  0.00000000  0.50000000  0.50000000  1
  Er  Er4  1  0.23578000  0.75000000  0.00517300  1
  Er  Er5  1  0.76422000  0.25000000  0.99482700  1
  Er  Er6  1  0.26422000  0.25000000  0.50517300  1
  Er  Er7  1  0.73578000  0.75000000  0.49482700  1
  Mg  Mg8  1  0.09201200  0.25000000  0.91708600  1
  Mg  Mg9  1  0.90798800  0.75000000  0.08291400  1
  Mg  Mg10  1  0.40798800  0.75000000  0.41708600  1
  Mg  Mg11  1  0.59201200  0.25000000  0.58291400  1
  Se  Se12  1  0.16944600  0.00360500  0.73820700  1
  Se  Se13  1  0.83055400  0.99639500  0.26179300  1
  Se  Se14  1  0.33055400  0.99639500  0.23820700  1
  Se  Se15  1  0.66944600  0.00360500  0.76179300  1
  Se  Se16  1  0.66944600  0.49639500  0.76179300  1
  Se  Se17  1  0.33055400  0.50360500  0.23820700  1
  Se  Se18  1  0.83055400  0.50360500  0.26179300  1
  Se  Se19  1  0.16944600  0.49639500  0.73820700  1
  Se  Se20  1  0.07430800  0.75000000  0.25208900  1
  Se  Se21  1  0.92569200  0.25000000  0.74791100  1
  Se  Se22  1  0.42569200  0.25000000  0.75208900  1
  Se  Se23  1  0.57430800  0.75000000  0.24791100  1
  Se  Se24  1  0.09162900  0.25000000  0.28867400  1
  Se  Se25  1  0.90837100  0.75000000  0.71132600  1
  Se  Se26  1  0.40837100  0.75000000  0.78867400  1
  Se  Se27  1  0.59162900  0.25000000  0.21132600  1
