# generated using pymatgen
data_Y2MgS4
_symmetry_space_group_name_H-M   'P 1'
_cell_length_a   13.57566000
_cell_length_b   7.91468000
_cell_length_c   6.54124400
_cell_angle_alpha   90.00000000
_cell_angle_beta   90.00000000
_cell_angle_gamma   90.00000000
_symmetry_Int_Tables_number   1
_chemical_formula_structural   Y2MgS4
_chemical_formula_sum   'Y8 Mg4 S16'
_cell_volume   702.83707474
_cell_formula_units_Z   4
loop_
 _symmetry_equiv_pos_site_id
 _symmetry_equiv_pos_as_xyz
  1  'x, y, z'
loop_
 _atom_site_type_symbol
 _atom_site_label
 _atom_site_symmetry_multiplicity
 _atom_site_fract_x
 _atom_site_fract_y
 _atom_site_fract_z
 _atom_site_occupancy
  Y  Y0  1  0.00000000  0.00000000  0.50000000  1
  Y  Y1  1  0.50000000  0.00000000  0.00000000  1
  Y  Y2  1  0.50000000  0.50000000  0.00000000  1
  Y  Y3  1  0.00000000  0.50000000  0.50000000  1
  Y  Y4  1  0.23256900  0.75000000  0.00009400  1
  Y  Y5  1  0.76743100  0.25000000  0.99990600  1
  Y  Y6  1  0.26743100  0.25000000  0.50009400  1
  Y  Y7  1  0.73256900  0.75000000  0.49990600  1
  Mg  Mg8  1  0.09333600  0.25000000  0.92278800  1
  Mg  Mg9  1  0.90666400  0.75000000  0.07721200  1
  Mg  Mg10  1  0.40666400  0.75000000  0.42278800  1
  Mg  Mg11  1  0.59333600  0.25000000  0.57721200  1
  S  S12  1  0.16853700  0.00941500  0.74265600  1
  S  S13  1  0.83146300  0.99058500  0.25734400  1
  S  S14  1  0.33146300  0.99058500  0.24265600  1
  S  S15  1  0.66853700  0.00941500  0.75734400  1
  S  S16  1  0.66853700  0.49058500  0.75734400  1
  S  S17  1  0.33146300  0.50941500  0.24265600  1
  S  S18  1  0.83146300  0.50941500  0.25734400  1
  S  S19  1  0.16853700  0.49058500  0.74265600  1
  S  S20  1  0.07039300  0.75000000  0.24711600  1
  S  S21  1  0.92960700  0.25000000  0.75288400  1
  S  S22  1  0.42960700  0.25000000  0.74711600  1
  S  S23  1  0.57039300  0.75000000  0.25288400  1
  S  S24  1  0.09158700  0.25000000  0.29020500  1
  S  S25  1  0.90841300  0.75000000  0.70979500  1
  S  S26  1  0.40841300  0.75000000  0.79020500  1
  S  S27  1  0.59158700  0.25000000  0.20979500  1
