# generated using pymatgen
data_Sm2MgSe4
_symmetry_space_group_name_H-M   'P 1'
_cell_length_a   4.09226800
_cell_length_b   13.35321600
_cell_length_c   14.51043500
_cell_angle_alpha   90.00000000
_cell_angle_beta   90.00000000
_cell_angle_gamma   90.00000000
_symmetry_Int_Tables_number   1
_chemical_formula_structural   Sm2MgSe4
_chemical_formula_sum   'Sm8 Mg4 Se16'
_cell_volume   792.92182867
_cell_formula_units_Z   4
loop_
 _symmetry_equiv_pos_site_id
 _symmetry_equiv_pos_as_xyz
  1  'x, y, z'
loop_
 _atom_site_type_symbol
 _atom_site_label
 _atom_site_symmetry_multiplicity
 _atom_site_fract_x
 _atom_site_fract_y
 _atom_site_fract_z
 _atom_site_occupancy
  Sm  Sm0  1  0.25000000  0.11786000  0.07354500  1
  Sm  Sm1  1  0.75000000  0.88214000  0.92645500  1
  Sm  Sm2  1  0.75000000  0.38214000  0.57354500  1
  Sm  Sm3  1  0.25000000  0.61786000  0.42645500  1
  Sm  Sm4  1  0.25000000  0.13798700  0.70372900  1
  Sm  Sm5  1  0.75000000  0.86201300  0.29627100  1
  Sm  Sm6  1  0.75000000  0.36201300  0.20372900  1
  Sm  Sm7  1  0.25000000  0.63798700  0.79627100  1
  Mg  Mg8  1  0.75000000  0.10790200  0.46002500  1
  Mg  Mg9  1  0.25000000  0.89209800  0.53997500  1
  Mg  Mg10  1  0.25000000  0.39209800  0.96002500  1
  Mg  Mg11  1  0.75000000  0.60790200  0.03997500  1
  Se  Se12  1  0.75000000  0.00320400  0.61572600  1
  Se  Se13  1  0.25000000  0.99679600  0.38427400  1
  Se  Se14  1  0.25000000  0.49679600  0.11572600  1
  Se  Se15  1  0.75000000  0.50320400  0.88427400  1
  Se  Se16  1  0.25000000  0.02899900  0.88289200  1
  Se  Se17  1  0.75000000  0.97100100  0.11710800  1
  Se  Se18  1  0.75000000  0.47100100  0.38289200  1
  Se  Se19  1  0.25000000  0.52899900  0.61710800  1
  Se  Se20  1  0.25000000  0.22408000  0.24630400  1
  Se  Se21  1  0.75000000  0.77592000  0.75369600  1
  Se  Se22  1  0.75000000  0.27592000  0.74630400  1
  Se  Se23  1  0.25000000  0.72408000  0.25369600  1
  Se  Se24  1  0.75000000  0.26489800  0.01408400  1
  Se  Se25  1  0.25000000  0.73510200  0.98591600  1
  Se  Se26  1  0.25000000  0.23510200  0.51408400  1
  Se  Se27  1  0.75000000  0.76489800  0.48591600  1
