data_image0
_chemical_formula_structural       Bi2BrNdO4
_chemical_formula_sum              "Bi2 Br1 Nd1 O4"
_cell_length_a       3.94741
_cell_length_b       3.94741
_cell_length_c       9.19849
_cell_angle_alpha    90
_cell_angle_beta     90
_cell_angle_gamma    90

_space_group_name_H-M_alt    "P 1"
_space_group_IT_number       1

loop_
  _space_group_symop_operation_xyz
  'x, y, z'

loop_
  _atom_site_type_symbol
  _atom_site_label
  _atom_site_symmetry_multiplicity
  _atom_site_fract_x
  _atom_site_fract_y
  _atom_site_fract_z
  _atom_site_occupancy
  Bi  Bi1       1.0  0.50000  0.50000  0.27800  1.0000
  Bi  Bi2       1.0  0.50000  0.50000  0.72200  1.0000
  Br  Br1       1.0  0.00000  0.00000  0.50000  1.0000
  Nd  Nd1       1.0  0.00000  0.00000  0.00000  1.0000
  O   O1        1.0  0.50000  0.00000  0.15900  1.0000
  O   O2        1.0  0.00000  0.50000  0.15900  1.0000
  O   O3        1.0  0.50000  0.00000  0.84100  1.0000
  O   O4        1.0  0.00000  0.50000  0.84100  1.0000
