# generated using pymatgen
data_AgSb(Te8Pb7)2
_symmetry_space_group_name_H-M   'P 1'
_cell_length_a   14.45945434
_cell_length_b   14.45945434
_cell_length_c   14.45945434
_cell_angle_alpha   142.73539554
_cell_angle_beta   142.73539554
_cell_angle_gamma   53.72259001
_symmetry_Int_Tables_number   1
_chemical_formula_structural   AgSb(Te8Pb7)2
_chemical_formula_sum   'Ag1 Sb1 Te16 Pb14'
_cell_volume   1101.17156113
_cell_formula_units_Z   1
loop_
 _symmetry_equiv_pos_site_id
 _symmetry_equiv_pos_as_xyz
  1  'x, y, z'
loop_
 _atom_site_type_symbol
 _atom_site_label
 _atom_site_symmetry_multiplicity
 _atom_site_fract_x
 _atom_site_fract_y
 _atom_site_fract_z
 _atom_site_occupancy
  Ag  Ag0  1  0.50000000  0.50000000  0.00000000  1
  Sb  Sb1  1  0.00000000  0.00000000  0.00000000  1
  Te  Te2  1  0.12503100  0.62503100  0.50000000  1
  Te  Te3  1  0.37496900  0.87496900  0.50000000  1
  Te  Te4  1  0.62503100  0.12503100  0.50000000  1
  Te  Te5  1  0.87496900  0.37496900  0.50000000  1
  Te  Te6  1  0.50000000  0.50000000  0.50000000  1
  Te  Te7  1  0.75737700  0.75737700  0.51475400  1
  Te  Te8  1  0.00000000  0.00000000  0.50000000  1
  Te  Te9  1  0.24262300  0.24262300  0.48524600  1
  Te  Te10  1  0.61562800  0.61562800  0.00000000  1
  Te  Te11  1  0.87952900  0.87952900  0.00000000  1
  Te  Te12  1  0.12047100  0.12047100  0.00000000  1
  Te  Te13  1  0.38437200  0.38437200  0.00000000  1
  Te  Te14  1  0.50000000  0.00000000  0.00000000  1
  Te  Te15  1  0.75737700  0.24262300  0.00000000  1
  Te  Te16  1  0.00000000  0.50000000  0.00000000  1
  Te  Te17  1  0.24262300  0.75737700  0.00000000  1
  Pb  Pb18  1  0.25000000  0.75000000  0.50000000  1
  Pb  Pb19  1  0.50000000  0.00000000  0.50000000  1
  Pb  Pb20  1  0.75000000  0.25000000  0.50000000  1
  Pb  Pb21  1  0.00000000  0.50000000  0.50000000  1
  Pb  Pb22  1  0.37465900  0.37465900  0.50141200  1
  Pb  Pb23  1  0.62534100  0.62534100  0.49858800  1
  Pb  Pb24  1  0.87324700  0.87324700  0.49858800  1
  Pb  Pb25  1  0.12675300  0.12675300  0.50141200  1
  Pb  Pb26  1  0.37465900  0.87324700  0.00000000  1
  Pb  Pb27  1  0.62534100  0.12675300  0.00000000  1
  Pb  Pb28  1  0.87324700  0.37465900  0.00000000  1
  Pb  Pb29  1  0.12675300  0.62534100  0.00000000  1
  Pb  Pb30  1  0.74757900  0.74757900  0.00000000  1
  Pb  Pb31  1  0.25242100  0.25242100  0.00000000  1
