# generated using pymatgen
data_Ba14U2Fe4S25O
_symmetry_space_group_name_H-M   'P 1'
_cell_length_a   16.18726700
_cell_length_b   16.18726700
_cell_length_c   9.68837400
_cell_angle_alpha   90.00000000
_cell_angle_beta   90.00000000
_cell_angle_gamma   90.00000000
_symmetry_Int_Tables_number   1
_chemical_formula_structural   Ba14U2Fe4S25O
_chemical_formula_sum   'Ba28 U4 Fe8 S50 O2'
_cell_volume   2538.62151239
_cell_formula_units_Z   2
loop_
 _symmetry_equiv_pos_site_id
 _symmetry_equiv_pos_as_xyz
  1  'x, y, z'
loop_
 _atom_site_type_symbol
 _atom_site_label
 _atom_site_symmetry_multiplicity
 _atom_site_fract_x
 _atom_site_fract_y
 _atom_site_fract_z
 _atom_site_occupancy
  Ba  Ba0  1  0.50000000  0.00000000  0.78234100  1
  Ba  Ba1  1  0.00000000  0.50000000  0.78234100  1
  Ba  Ba2  1  0.50000000  0.00000000  0.21756300  1
  Ba  Ba3  1  0.00000000  0.50000000  0.21756300  1
  Ba  Ba4  1  0.70252000  0.20283300  0.00067900  1
  Ba  Ba5  1  0.29748000  0.79716700  0.00067900  1
  Ba  Ba6  1  0.20283300  0.29748000  0.00067900  1
  Ba  Ba7  1  0.79716700  0.70252000  0.00067900  1
  Ba  Ba8  1  0.23779500  0.73790900  0.49924500  1
  Ba  Ba9  1  0.76220500  0.26209100  0.49924500  1
  Ba  Ba10  1  0.73790900  0.76220500  0.49924500  1
  Ba  Ba11  1  0.26209100  0.23779500  0.49924500  1
  Ba  Ba12  1  0.51092100  0.71224100  0.75404100  1
  Ba  Ba13  1  0.48907900  0.28775900  0.75404100  1
  Ba  Ba14  1  0.01105700  0.78801100  0.75616900  1
  Ba  Ba15  1  0.98894300  0.21198900  0.75616900  1
  Ba  Ba16  1  0.28775900  0.51092100  0.75404100  1
  Ba  Ba17  1  0.71224100  0.48907900  0.75404100  1
  Ba  Ba18  1  0.21198900  0.01105700  0.75616900  1
  Ba  Ba19  1  0.78801100  0.98894300  0.75616900  1
  Ba  Ba20  1  0.48902800  0.28172700  0.24515500  1
  Ba  Ba21  1  0.51097200  0.71827300  0.24515500  1
  Ba  Ba22  1  0.98869900  0.21875500  0.24730900  1
  Ba  Ba23  1  0.01130100  0.78124500  0.24730900  1
  Ba  Ba24  1  0.71827300  0.48902800  0.24515500  1
  Ba  Ba25  1  0.28172700  0.51097200  0.24515500  1
  Ba  Ba26  1  0.78124500  0.98869900  0.24730900  1
  Ba  Ba27  1  0.21875500  0.01130100  0.24730900  1
  U  U28  1  0.50000000  0.50000000  0.02457300  1
  U  U29  1  0.00000000  0.00000000  0.02827500  1
  U  U30  1  0.00000000  0.00000000  0.47457000  1
  U  U31  1  0.50000000  0.50000000  0.47106200  1
  Fe  Fe32  1  0.60323900  0.10314000  0.50029900  1
  Fe  Fe33  1  0.39676100  0.89686000  0.50029900  1
  Fe  Fe34  1  0.10314000  0.39676100  0.50029900  1
  Fe  Fe35  1  0.89686000  0.60323900  0.50029900  1
  Fe  Fe36  1  0.13640900  0.63631900  0.99960100  1
  Fe  Fe37  1  0.86359100  0.36368100  0.99960100  1
  Fe  Fe38  1  0.63631900  0.86359100  0.99960100  1
  Fe  Fe39  1  0.36368100  0.13640900  0.99960100  1
  S  S40  1  0.65304500  0.15270600  0.70365800  1
  S  S41  1  0.34695500  0.84729400  0.70365800  1
  S  S42  1  0.15270600  0.34695500  0.70365800  1
  S  S43  1  0.84729400  0.65304500  0.70365800  1
  S  S44  1  0.34772300  0.84757000  0.29635100  1
  S  S45  1  0.65227700  0.15243000  0.29635100  1
  S  S46  1  0.84757000  0.65227700  0.29635100  1
  S  S47  1  0.15243000  0.34772300  0.29635100  1
  S  S48  1  0.84299100  0.50296500  0.99847000  1
  S  S49  1  0.15700900  0.49703500  0.99847000  1
  S  S50  1  0.34312600  0.99712300  0.99939200  1
  S  S51  1  0.65687400  0.00287700  0.99939200  1
  S  S52  1  0.49703500  0.84299100  0.99847000  1
  S  S53  1  0.50296500  0.15700900  0.99847000  1
  S  S54  1  0.00287700  0.34312600  0.99939200  1
  S  S55  1  0.99712300  0.65687400  0.99939200  1
  S  S56  1  0.61767800  0.61009100  0.48673400  1
  S  S57  1  0.38232200  0.38990900  0.48673400  1
  S  S58  1  0.11751900  0.89017800  0.49238200  1
  S  S59  1  0.88248100  0.10982200  0.49238200  1
  S  S60  1  0.38990900  0.61767800  0.48673400  1
  S  S61  1  0.61009100  0.38232200  0.48673400  1
  S  S62  1  0.10982200  0.11751900  0.49238200  1
  S  S63  1  0.89017800  0.88248100  0.49238200  1
  S  S64  1  0.54189000  0.86590000  0.50042400  1
  S  S65  1  0.45811000  0.13410000  0.50042400  1
  S  S66  1  0.04195700  0.63428500  0.49964400  1
  S  S67  1  0.95804300  0.36571500  0.49964400  1
  S  S68  1  0.13410000  0.54189000  0.50042400  1
  S  S69  1  0.86590000  0.45811000  0.50042400  1
  S  S70  1  0.36571500  0.04195700  0.49964400  1
  S  S71  1  0.63428500  0.95804300  0.49964400  1
  S  S72  1  0.18615000  0.68649600  0.79684600  1
  S  S73  1  0.81385000  0.31350400  0.79684600  1
  S  S74  1  0.68649600  0.81385000  0.79684600  1
  S  S75  1  0.31350400  0.18615000  0.79684600  1
  S  S76  1  0.81408300  0.31435000  0.20277800  1
  S  S77  1  0.18591700  0.68565000  0.20277800  1
  S  S78  1  0.31435000  0.18591700  0.20277800  1
  S  S79  1  0.68565000  0.81408300  0.20277800  1
  S  S80  1  0.62137600  0.60498100  0.00744400  1
  S  S81  1  0.37862400  0.39501900  0.00744400  1
  S  S82  1  0.12126800  0.89518600  0.01351700  1
  S  S83  1  0.87873200  0.10481400  0.01351700  1
  S  S84  1  0.39501900  0.62137600  0.00744400  1
  S  S85  1  0.60498100  0.37862400  0.00744400  1
  S  S86  1  0.10481400  0.12126800  0.01351700  1
  S  S87  1  0.89518600  0.87873200  0.01351700  1
  S  S88  1  0.50000000  0.50000000  0.74747800  1
  S  S89  1  0.00000000  0.00000000  0.75165800  1
  O  O90  1  0.50000000  0.50000000  0.24781000  1
  O  O91  1  0.00000000  0.00000000  0.25422200  1
