# generated using pymatgen
data_Ce2MgSe4
_symmetry_space_group_name_H-M   'P 1'
_cell_length_a   7.65514712
_cell_length_b   7.65514712
_cell_length_c   7.65514712
_cell_angle_alpha   111.42184828
_cell_angle_beta   111.42184828
_cell_angle_gamma   105.63668275
_symmetry_Int_Tables_number   1
_chemical_formula_structural   Ce2MgSe4
_chemical_formula_sum   'Ce4 Mg2 Se8'
_cell_volume   344.18352166
_cell_formula_units_Z   2
loop_
 _symmetry_equiv_pos_site_id
 _symmetry_equiv_pos_as_xyz
  1  'x, y, z'
loop_
 _atom_site_type_symbol
 _atom_site_label
 _atom_site_symmetry_multiplicity
 _atom_site_fract_x
 _atom_site_fract_y
 _atom_site_fract_z
 _atom_site_occupancy
  Ce  Ce0  1  0.87500000  0.75496200  0.37996200  1
  Ce  Ce1  1  0.50496200  0.12500000  0.87996200  1
  Ce  Ce2  1  0.37500000  0.49503800  0.62003800  1
  Ce  Ce3  1  0.24503800  0.62500000  0.12003800  1
  Mg  Mg4  1  0.00000000  0.00000000  0.00000000  1
  Mg  Mg5  1  0.75000000  0.25000000  0.50000000  1
  Se  Se6  1  0.50407300  0.37627700  0.26748200  1
  Se  Se7  1  0.76340900  0.49592700  0.87220400  1
  Se  Se8  1  0.10879400  0.23659100  0.73251800  1
  Se  Se9  1  0.62372300  0.89120600  0.12779600  1
  Se  Se10  1  0.24592700  0.01340900  0.37220400  1
  Se  Se11  1  0.98659100  0.35879400  0.23251800  1
  Se  Se12  1  0.64120600  0.87372300  0.62779600  1
  Se  Se13  1  0.12627700  0.75407300  0.76748200  1
