# generated using pymatgen
data_Cd5Ni
_symmetry_space_group_name_H-M   'P 1'
_cell_length_a   9.99350502
_cell_length_b   9.99350502
_cell_length_c   10.01189800
_cell_angle_alpha   90.00000000
_cell_angle_beta   90.00000000
_cell_angle_gamma   91.35863536
_symmetry_Int_Tables_number   1
_chemical_formula_structural   Cd5Ni
_chemical_formula_sum   'Cd40 Ni8'
_cell_volume   999.60858071
_cell_formula_units_Z   8
loop_
 _symmetry_equiv_pos_site_id
 _symmetry_equiv_pos_as_xyz
  1  'x, y, z'
loop_
 _atom_site_type_symbol
 _atom_site_label
 _atom_site_symmetry_multiplicity
 _atom_site_fract_x
 _atom_site_fract_y
 _atom_site_fract_z
 _atom_site_occupancy
  Cd  Cd0  1  0.86272500  0.49662700  0.49909200  1
  Cd  Cd1  1  0.50337300  0.13727500  0.49909200  1
  Cd  Cd2  1  0.50000000  0.50000000  0.86018700  1
  Cd  Cd3  1  0.13727500  0.50337300  0.49909200  1
  Cd  Cd4  1  0.49662700  0.86272500  0.49909200  1
  Cd  Cd5  1  0.50000000  0.50000000  0.13974900  1
  Cd  Cd6  1  0.30242200  0.69757800  0.00703400  1
  Cd  Cd7  1  0.05425500  0.72511900  0.25106100  1
  Cd  Cd8  1  0.27488100  0.94574500  0.25106100  1
  Cd  Cd9  1  0.69757800  0.30242200  0.00703400  1
  Cd  Cd10  1  0.94574500  0.27488100  0.25106100  1
  Cd  Cd11  1  0.72511900  0.05425500  0.25106100  1
  Cd  Cd12  1  0.79854400  0.79854400  0.94934400  1
  Cd  Cd13  1  0.00527500  0.74823000  0.73960600  1
  Cd  Cd14  1  0.74823000  0.00527500  0.73960600  1
  Cd  Cd15  1  0.20145600  0.20145600  0.94934400  1
  Cd  Cd16  1  0.99472500  0.25177000  0.73960600  1
  Cd  Cd17  1  0.25177000  0.99472500  0.73960600  1
  Cd  Cd18  1  0.64345900  0.35654100  0.65273800  1
  Cd  Cd19  1  0.35654100  0.64345900  0.65273800  1
  Cd  Cd20  1  0.34578300  0.34578300  0.35973300  1
  Cd  Cd21  1  0.65421700  0.65421700  0.35973300  1
  Cd  Cd22  1  0.82955000  0.17045000  0.50956100  1
  Cd  Cd23  1  0.49015900  0.16193600  0.83053200  1
  Cd  Cd24  1  0.83806400  0.50984100  0.83053200  1
  Cd  Cd25  1  0.17045000  0.82955000  0.50956100  1
  Cd  Cd26  1  0.50984100  0.83806400  0.83053200  1
  Cd  Cd27  1  0.16193600  0.49015900  0.83053200  1
  Cd  Cd28  1  0.13396700  0.13396700  0.45870200  1
  Cd  Cd29  1  0.45655800  0.16919600  0.14968600  1
  Cd  Cd30  1  0.16919600  0.45655800  0.14968600  1
  Cd  Cd31  1  0.86603300  0.86603300  0.45870200  1
  Cd  Cd32  1  0.54344200  0.83080400  0.14968600  1
  Cd  Cd33  1  0.83080400  0.54344200  0.14968600  1
  Cd  Cd34  1  0.34390100  0.65609900  0.33338300  1
  Cd  Cd35  1  0.65609900  0.34390100  0.33338300  1
  Cd  Cd36  1  0.67757200  0.67757200  0.65602200  1
  Cd  Cd37  1  0.32242800  0.32242800  0.65602200  1
  Cd  Cd38  1  0.90012800  0.09987200  0.99770600  1
  Cd  Cd39  1  0.09987200  0.90012800  0.99770600  1
  Ni  Ni40  1  0.18536600  0.18536600  0.20447600  1
  Ni  Ni41  1  0.81463400  0.81463400  0.20447600  1
  Ni  Ni42  1  0.36087800  0.97643400  0.99241200  1
  Ni  Ni43  1  0.02356600  0.63912200  0.99241200  1
  Ni  Ni44  1  0.00000000  0.00000000  0.24600800  1
  Ni  Ni45  1  0.63912200  0.02356600  0.99241200  1
  Ni  Ni46  1  0.97643400  0.36087800  0.99241200  1
  Ni  Ni47  1  0.00000000  0.00000000  0.64710300  1
