# generated using pymatgen
data_Bi(W3O10)6
_symmetry_space_group_name_H-M   'P 1'
_cell_length_a   12.81087592
_cell_length_b   12.81087592
_cell_length_c   12.81087543
_cell_angle_alpha   98.95099807
_cell_angle_beta   98.95099807
_cell_angle_gamma   98.95100129
_symmetry_Int_Tables_number   1
_chemical_formula_structural   Bi(W3O10)6
_chemical_formula_sum   'Bi1 W18 O60'
_cell_volume   2016.47657296
_cell_formula_units_Z   1
loop_
 _symmetry_equiv_pos_site_id
 _symmetry_equiv_pos_as_xyz
  1  'x, y, z'
loop_
 _atom_site_type_symbol
 _atom_site_label
 _atom_site_symmetry_multiplicity
 _atom_site_fract_x
 _atom_site_fract_y
 _atom_site_fract_z
 _atom_site_occupancy
  Bi  Bi0  1  0.46371300  0.46371300  0.46371300  1
  W  W1  1  0.36619800  0.14505100  0.22756400  1
  W  W2  1  0.14505100  0.22756400  0.36619800  1
  W  W3  1  0.22756400  0.36619800  0.14505100  1
  W  W4  1  0.62780500  0.85073300  0.76564200  1
  W  W5  1  0.85073300  0.76564200  0.62780500  1
  W  W6  1  0.76564200  0.62780500  0.85073300  1
  W  W7  1  0.61375200  0.31284800  0.26688700  1
  W  W8  1  0.31284800  0.26688700  0.61375200  1
  W  W9  1  0.26688700  0.61375200  0.31284800  1
  W  W10  1  0.38634600  0.68784400  0.73494400  1
  W  W11  1  0.68784400  0.73494400  0.38634600  1
  W  W12  1  0.73494400  0.38634600  0.68784400  1
  W  W13  1  0.53597600  0.18400900  0.47428000  1
  W  W14  1  0.18400900  0.47428000  0.53597600  1
  W  W15  1  0.47428000  0.53597600  0.18400900  1
  W  W16  1  0.46633700  0.81799600  0.52330800  1
  W  W17  1  0.81799600  0.52330800  0.46633700  1
  W  W18  1  0.52330800  0.46633700  0.81799600  1
  O  O19  1  0.31873900  0.02760800  0.13567000  1
  O  O20  1  0.02760800  0.13567000  0.31873900  1
  O  O21  1  0.13567000  0.31873900  0.02760800  1
  O  O22  1  0.68815000  0.96475600  0.85969600  1
  O  O23  1  0.96475600  0.85969600  0.68815000  1
  O  O24  1  0.85969600  0.68815000  0.96475600  1
  O  O25  1  0.64030800  0.22408900  0.38006300  1
  O  O26  1  0.22408900  0.38006300  0.64030800  1
  O  O27  1  0.38006300  0.64030800  0.22408900  1
  O  O28  1  0.36276100  0.77639800  0.61944700  1
  O  O29  1  0.77639800  0.61944700  0.36276100  1
  O  O30  1  0.61944700  0.36276100  0.77639800  1
  O  O31  1  0.50519000  0.19467800  0.18779600  1
  O  O32  1  0.19467800  0.18779600  0.50519000  1
  O  O33  1  0.18779600  0.50519000  0.19467800  1
  O  O34  1  0.49162300  0.81100400  0.81517800  1
  O  O35  1  0.81100400  0.81517800  0.49162300  1
  O  O36  1  0.81517800  0.49162300  0.81100400  1
  O  O37  1  0.59899300  0.09090000  0.53171200  1
  O  O38  1  0.09090000  0.53171200  0.59899300  1
  O  O39  1  0.53171200  0.59899300  0.09090000  1
  O  O40  1  0.39889600  0.90787600  0.46490000  1
  O  O41  1  0.90787600  0.46490000  0.39889600  1
  O  O42  1  0.46490000  0.39889600  0.90787600  1
  O  O43  1  0.72120700  0.29576300  0.20334300  1
  O  O44  1  0.29576300  0.20334300  0.72120700  1
  O  O45  1  0.20334300  0.72120700  0.29576300  1
  O  O46  1  0.27726200  0.70677200  0.79551200  1
  O  O47  1  0.70677200  0.79551200  0.27726200  1
  O  O48  1  0.79551200  0.27726200  0.70677200  1
  O  O49  1  0.44607900  0.09470200  0.34773900  1
  O  O50  1  0.09470200  0.34773900  0.44607900  1
  O  O51  1  0.34773900  0.44607900  0.09470200  1
  O  O52  1  0.55361100  0.91276000  0.65047200  1
  O  O53  1  0.91276000  0.65047200  0.55361100  1
  O  O54  1  0.65047200  0.55361100  0.91276000  1
  O  O55  1  0.61522900  0.31957800  0.56796100  1
  O  O56  1  0.31957800  0.56796100  0.61522900  1
  O  O57  1  0.56796100  0.61522900  0.31957800  1
  O  O58  1  0.38967100  0.68135300  0.43052800  1
  O  O59  1  0.68135300  0.43052800  0.38967100  1
  O  O60  1  0.43052800  0.38967100  0.68135300  1
  O  O61  1  0.31062700  0.25319800  0.15639300  1
  O  O62  1  0.25319800  0.15639300  0.31062700  1
  O  O63  1  0.15639300  0.31062700  0.25319800  1
  O  O64  1  0.67728000  0.73575700  0.83063200  1
  O  O65  1  0.73575700  0.83063200  0.67728000  1
  O  O66  1  0.83063200  0.67728000  0.73575700  1
  O  O67  1  0.41798500  0.19857100  0.54970800  1
  O  O68  1  0.19857100  0.54970800  0.41798500  1
  O  O69  1  0.54970800  0.41798500  0.19857100  1
  O  O70  1  0.58664500  0.80797300  0.45122300  1
  O  O71  1  0.80797300  0.45122300  0.58664500  1
  O  O72  1  0.45122300  0.58664500  0.80797300  1
  O  O73  1  0.47757000  0.30945600  0.37338200  1
  O  O74  1  0.30945600  0.37338200  0.47757000  1
  O  O75  1  0.37338200  0.47757000  0.30945600  1
  O  O76  1  0.51609100  0.70631500  0.63358500  1
  O  O77  1  0.70631500  0.63358500  0.51609100  1
  O  O78  1  0.63358500  0.51609100  0.70631500  1
