# generated using pymatgen
data_Sm2MgSe4
_symmetry_space_group_name_H-M   'P 1'
_cell_length_a   7.62654800
_cell_length_b   8.84914278
_cell_length_c   13.92100609
_cell_angle_alpha   99.40205504
_cell_angle_beta   95.56820230
_cell_angle_gamma   89.95461216
_symmetry_Int_Tables_number   1
_chemical_formula_structural   Sm2MgSe4
_chemical_formula_sum   'Sm8 Mg4 Se16'
_cell_volume   922.40345505
_cell_formula_units_Z   4
loop_
 _symmetry_equiv_pos_site_id
 _symmetry_equiv_pos_as_xyz
  1  'x, y, z'
loop_
 _atom_site_type_symbol
 _atom_site_label
 _atom_site_symmetry_multiplicity
 _atom_site_fract_x
 _atom_site_fract_y
 _atom_site_fract_z
 _atom_site_occupancy
  Sm  Sm0  1  0.86476300  0.30043400  0.69697200  1
  Sm  Sm1  1  0.13523700  0.69956600  0.30302800  1
  Sm  Sm2  1  0.75875100  0.12795600  0.00080200  1
  Sm  Sm3  1  0.24124900  0.87204400  0.99919800  1
  Sm  Sm4  1  0.63151300  0.44373100  0.30141000  1
  Sm  Sm5  1  0.36848700  0.55626900  0.69859000  1
  Sm  Sm6  1  0.63307200  0.95731400  0.30525000  1
  Sm  Sm7  1  0.36692800  0.04268600  0.69475000  1
  Mg  Mg8  1  0.86646700  0.80020500  0.70251800  1
  Mg  Mg9  1  0.13353300  0.19979500  0.29748200  1
  Mg  Mg10  1  0.75090300  0.62198600  0.99560500  1
  Mg  Mg11  1  0.24909700  0.37801400  0.00439500  1
  Se  Se12  1  0.90976700  0.35851500  0.89909500  1
  Se  Se13  1  0.09023300  0.64148500  0.10090500  1
  Se  Se14  1  0.88948600  0.84135100  0.89080100  1
  Se  Se15  1  0.11051400  0.15864900  0.10919900  1
  Se  Se16  1  0.83528200  0.21957800  0.37464300  1
  Se  Se17  1  0.16471800  0.78042200  0.62535700  1
  Se  Se18  1  0.80924200  0.71905300  0.37928000  1
  Se  Se19  1  0.19075800  0.28094700  0.62072000  1
  Se  Se20  1  0.69864800  0.01705400  0.62656100  1
  Se  Se21  1  0.30135200  0.98294600  0.37343900  1
  Se  Se22  1  0.69643100  0.54594200  0.62626800  1
  Se  Se23  1  0.30356900  0.45405800  0.37373200  1
  Se  Se24  1  0.60872500  0.89215900  0.10279900  1
  Se  Se25  1  0.39127500  0.10784100  0.89720100  1
  Se  Se26  1  0.59264200  0.40983000  0.09977400  1
  Se  Se27  1  0.40735800  0.59017000  0.90022600  1
