# generated using pymatgen
data_Al2H30Se3O28
_symmetry_space_group_name_H-M   'P 1'
_cell_length_a   6.21353574
_cell_length_b   7.63034847
_cell_length_c   27.53152200
_cell_angle_alpha   90.00000000
_cell_angle_beta   90.00000000
_cell_angle_gamma   97.82739925
_symmetry_Int_Tables_number   1
_chemical_formula_structural   Al2H30Se3O28
_chemical_formula_sum   'Al4 H60 Se6 O56'
_cell_volume   1293.14739261
_cell_formula_units_Z   2
loop_
 _symmetry_equiv_pos_site_id
 _symmetry_equiv_pos_as_xyz
  1  'x, y, z'
loop_
 _atom_site_type_symbol
 _atom_site_label
 _atom_site_symmetry_multiplicity
 _atom_site_fract_x
 _atom_site_fract_y
 _atom_site_fract_z
 _atom_site_occupancy
  Al  Al0  1  0.51325800  0.26745700  0.86214700  1
  Al  Al1  1  0.48674200  0.73254300  0.36214700  1
  Al  Al2  1  0.52093300  0.82272200  0.06064100  1
  Al  Al3  1  0.47906700  0.17727800  0.56064100  1
  H  H4  1  0.81103900  0.29142300  0.92798400  1
  H  H5  1  0.18896100  0.70857700  0.42798400  1
  H  H6  1  0.49151900  0.96224600  0.82097400  1
  H  H7  1  0.50848100  0.03775400  0.32097400  1
  H  H8  1  0.46066700  0.45153600  0.20240300  1
  H  H9  1  0.53933300  0.54846400  0.70240300  1
  H  H10  1  0.66931700  0.84745800  0.97349400  1
  H  H11  1  0.33068300  0.15254200  0.47349400  1
  H  H12  1  0.68371800  0.57612600  0.19913500  1
  H  H13  1  0.31628200  0.42387400  0.69913500  1
  H  H14  1  0.13214900  0.67298600  0.04232800  1
  H  H15  1  0.86785100  0.32701400  0.54232800  1
  H  H16  1  0.41528200  0.89070700  0.74370900  1
  H  H17  1  0.58471800  0.10929300  0.24370900  1
  H  H18  1  0.32626200  0.10154900  0.07529800  1
  H  H19  1  0.67373800  0.89845100  0.57529800  1
  H  H20  1  0.47566900  0.63309800  0.14183300  1
  H  H21  1  0.52433100  0.36690200  0.64183300  1
  H  H22  1  0.21355000  0.80862300  0.99841300  1
  H  H23  1  0.78645000  0.19137700  0.49841300  1
  H  H24  1  0.31793400  0.06176800  0.92794700  1
  H  H25  1  0.68206600  0.93823200  0.42794700  1
  H  H26  1  0.69889700  0.04678200  0.99569200  1
  H  H27  1  0.30110300  0.95321800  0.49569200  1
  H  H28  1  0.70937000  0.99401700  0.85466200  1
  H  H29  1  0.29063000  0.00598300  0.35466200  1
  H  H30  1  0.89910500  0.41845400  0.88283700  1
  H  H31  1  0.10089500  0.58154600  0.38283700  1
  H  H32  1  0.60995200  0.71385900  0.76551200  1
  H  H33  1  0.39004800  0.28614100  0.26551200  1
  H  H34  1  0.90049300  0.98742500  0.07333100  1
  H  H35  1  0.09950700  0.01257500  0.57333100  1
  H  H36  1  0.68317300  0.45614600  0.78646300  1
  H  H37  1  0.31682700  0.54385400  0.28646300  1
  H  H38  1  0.34043400  0.26331000  0.94911800  1
  H  H39  1  0.65956600  0.73669000  0.44911800  1
  H  H40  1  0.87667800  0.84283900  0.11561400  1
  H  H41  1  0.12332200  0.15716100  0.61561400  1
  H  H42  1  0.52432100  0.09460300  0.11434300  1
  H  H43  1  0.47567900  0.90539700  0.61434300  1
  H  H44  1  0.46968100  0.51094600  0.02228200  1
  H  H45  1  0.53031900  0.48905400  0.52228200  1
  H  H46  1  0.31822200  0.54559600  0.87488100  1
  H  H47  1  0.68177800  0.45440400  0.37488100  1
  H  H48  1  0.72298300  0.55062900  0.04269500  1
  H  H49  1  0.27701700  0.44937100  0.54269500  1
  H  H50  1  0.56815400  0.58708500  0.89572100  1
  H  H51  1  0.43184600  0.41291500  0.39572100  1
  H  H52  1  0.68001800  0.24510400  0.77691200  1
  H  H53  1  0.31998200  0.75489600  0.27691200  1
  H  H54  1  0.83764400  0.72272700  0.73932200  1
  H  H55  1  0.16235600  0.27727300  0.23932200  1
  H  H56  1  0.12873200  0.11766800  0.84541900  1
  H  H57  1  0.87126800  0.88233200  0.34541900  1
  H  H58  1  0.28060400  0.75920800  0.13618100  1
  H  H59  1  0.71939600  0.24079200  0.63618100  1
  H  H60  1  0.23482200  0.81222000  0.77901200  1
  H  H61  1  0.76517800  0.18778000  0.27901200  1
  H  H62  1  0.20347400  0.23543600  0.79737700  1
  H  H63  1  0.79652600  0.76456400  0.29737700  1
  Se  Se64  1  0.02888100  0.88816700  0.21254100  1
  Se  Se65  1  0.97111900  0.11183300  0.71254100  1
  Se  Se66  1  0.99017300  0.78019100  0.89983900  1
  Se  Se67  1  0.00982700  0.21980900  0.39983900  1
  Se  Se68  1  0.03942200  0.31864800  0.02398600  1
  Se  Se69  1  0.96057800  0.68135200  0.52398600  1
  O  O70  1  0.80544900  0.87796600  0.08463300  1
  O  O71  1  0.19455100  0.12203400  0.58463300  1
  O  O72  1  0.39071600  0.18640600  0.92289900  1
  O  O73  1  0.60928400  0.81359400  0.42289900  1
  O  O74  1  0.41318500  0.72329800  0.12031300  1
  O  O75  1  0.58681500  0.27670200  0.62031300  1
  O  O76  1  0.06794200  0.60126200  0.87282900  1
  O  O77  1  0.93205800  0.39873800  0.37282900  1
  O  O78  1  0.84735600  0.74006900  0.24084400  1
  O  O79  1  0.15264400  0.25993100  0.74084400  1
  O  O80  1  0.46798400  0.05623900  0.08157500  1
  O  O81  1  0.53201600  0.94376100  0.58157500  1
  O  O82  1  0.23232000  0.22069900  0.83332400  1
  O  O83  1  0.76768000  0.77930100  0.33332400  1
  O  O84  1  0.57211900  0.50514300  0.17895300  1
  O  O85  1  0.42788100  0.49485700  0.67895300  1
  O  O86  1  0.95223500  0.09249700  0.21329200  1
  O  O87  1  0.04776500  0.90750300  0.71329200  1
  O  O88  1  0.39236400  0.84368700  0.77728300  1
  O  O89  1  0.60763600  0.15631300  0.27728300  1
  O  O90  1  0.46546300  0.50513900  0.87509200  1
  O  O91  1  0.53453700  0.49486100  0.37509200  1
  O  O92  1  0.04930900  0.81590100  0.15528900  1
  O  O93  1  0.95069100  0.18409900  0.65528900  1
  O  O94  1  0.75242800  0.71838600  0.92803400  1
  O  O95  1  0.24757200  0.28161400  0.42803400  1
  O  O96  1  0.71327600  0.63973500  0.75143700  1
  O  O97  1  0.28672400  0.36026500  0.25143700  1
  O  O98  1  0.56161000  0.03049900  0.84982400  1
  O  O99  1  0.43839000  0.96950100  0.34982400  1
  O  O100  1  0.84177200  0.23683200  0.98554100  1
  O  O101  1  0.15822800  0.76316800  0.48554100  1
  O  O102  1  0.96584200  0.49541100  0.05243600  1
  O  O103  1  0.03415800  0.50458900  0.55243600  1
  O  O104  1  0.64163100  0.33628400  0.80103500  1
  O  O105  1  0.35836900  0.66371600  0.30103500  1
  O  O106  1  0.27285900  0.90345600  0.23879700  1
  O  O107  1  0.72714100  0.09654400  0.73879700  1
  O  O108  1  0.79118100  0.31381000  0.89243300  1
  O  O109  1  0.20881900  0.68619000  0.39243300  1
  O  O110  1  0.58145300  0.59859700  0.03853500  1
  O  O111  1  0.41854700  0.40140300  0.53853500  1
  O  O112  1  0.95731600  0.93111700  0.85705500  1
  O  O113  1  0.04268400  0.06888300  0.35705500  1
  O  O114  1  0.08115500  0.16254700  0.06427600  1
  O  O115  1  0.91884500  0.83745300  0.56427600  1
  O  O116  1  0.23775200  0.78097700  0.03331100  1
  O  O117  1  0.76224800  0.21902300  0.53331100  1
  O  O118  1  0.61660800  0.92425600  0.99917100  1
  O  O119  1  0.38339200  0.07574400  0.49917100  1
  O  O120  1  0.26970000  0.38445200  0.99322900  1
  O  O121  1  0.73030000  0.61554800  0.49322900  1
  O  O122  1  0.17815900  0.86663700  0.93984100  1
  O  O123  1  0.82184100  0.13336300  0.43984100  1
  O  O124  1  0.60191700  0.12532800  0.17762400  1
  O  O125  1  0.39808300  0.87467200  0.67762400  1
