# generated using pymatgen
data_AlZnH10O7F5
_symmetry_space_group_name_H-M   'P 1'
_cell_length_a   6.69551248
_cell_length_b   8.69484934
_cell_length_c   8.85562102
_cell_angle_alpha   105.22357924
_cell_angle_beta   94.85386553
_cell_angle_gamma   99.07207139
_symmetry_Int_Tables_number   1
_chemical_formula_structural   AlZnH10O7F5
_chemical_formula_sum   'Al2 Zn2 H20 O14 F10'
_cell_volume   486.91396670
_cell_formula_units_Z   2
loop_
 _symmetry_equiv_pos_site_id
 _symmetry_equiv_pos_as_xyz
  1  'x, y, z'
loop_
 _atom_site_type_symbol
 _atom_site_label
 _atom_site_symmetry_multiplicity
 _atom_site_fract_x
 _atom_site_fract_y
 _atom_site_fract_z
 _atom_site_occupancy
  Al  Al0  1  0.50000000  0.00000000  0.50000000  1
  Al  Al1  1  0.50000000  0.50000000  0.00000000  1
  Zn  Zn2  1  0.00000000  0.00000000  0.00000000  1
  Zn  Zn3  1  0.00000000  0.50000000  0.50000000  1
  H  H4  1  0.10150300  0.75301400  0.38168000  1
  H  H5  1  0.10459500  0.36621500  0.72395500  1
  H  H6  1  0.89849700  0.24698600  0.61832000  1
  H  H7  1  0.89540500  0.63378500  0.27604500  1
  H  H8  1  0.94572900  0.01005000  0.69150000  1
  H  H9  1  0.95432100  0.69344400  0.02189700  1
  H  H10  1  0.05427100  0.98995000  0.30850000  1
  H  H11  1  0.04567900  0.30655600  0.97810300  1
  H  H12  1  0.60269000  0.94033900  0.83579900  1
  H  H13  1  0.59450700  0.85478100  0.97353300  1
  H  H14  1  0.39731000  0.05966100  0.16420100  1
  H  H15  1  0.40549300  0.14521900  0.02646700  1
  H  H16  1  0.17751700  0.98382700  0.72647900  1
  H  H17  1  0.18247600  0.73436300  0.98418200  1
  H  H18  1  0.82248300  0.01617300  0.27352100  1
  H  H19  1  0.81752400  0.26563700  0.01581800  1
  H  H20  1  0.66561400  0.25053200  0.36695900  1
  H  H21  1  0.64410700  0.41594900  0.32186700  1
  H  H22  1  0.33438600  0.74946800  0.63304100  1
  H  H23  1  0.35589300  0.58405100  0.67813300  1
  O  O24  1  0.68241200  0.93129300  0.93165700  1
  O  O25  1  0.31758800  0.06870700  0.06834300  1
  O  O26  1  0.72891600  0.36922600  0.38489000  1
  O  O27  1  0.27108400  0.63077400  0.61511000  1
  O  O28  1  0.04227600  0.97671900  0.76280300  1
  O  O29  1  0.04291300  0.75409600  0.96592600  1
  O  O30  1  0.95772400  0.02328100  0.23719700  1
  O  O31  1  0.95708700  0.24590400  0.03407400  1
  O  O32  1  0.72676800  0.59305200  0.72991600  1
  O  O33  1  0.27323200  0.40694800  0.27008400  1
  O  O34  1  0.00489100  0.64403100  0.36156400  1
  O  O35  1  0.99510900  0.35596900  0.63843600  1
  O  O36  1  0.60222700  0.48745400  0.76100600  1
  O  O37  1  0.39777300  0.51254600  0.23899400  1
  F  F38  1  0.57474200  0.06977500  0.32220200  1
  F  F39  1  0.56528800  0.31199300  0.00019500  1
  F  F40  1  0.42525800  0.93022500  0.67779800  1
  F  F41  1  0.43471200  0.68800700  0.99980500  1
  F  F42  1  0.76923700  0.08511200  0.60012700  1
  F  F43  1  0.74756100  0.59567600  0.09287400  1
  F  F44  1  0.23076300  0.91488800  0.39987300  1
  F  F45  1  0.25243900  0.40432400  0.90712600  1
  F  F46  1  0.57261200  0.81093800  0.42060700  1
  F  F47  1  0.42738800  0.18906200  0.57939300  1
