# generated using pymatgen
data_Pr2MgS4
_symmetry_space_group_name_H-M   'P 1'
_cell_length_a   7.41419108
_cell_length_b   7.41419108
_cell_length_c   7.41419108
_cell_angle_alpha   110.98490366
_cell_angle_beta   110.98490366
_cell_angle_gamma   106.48450827
_symmetry_Int_Tables_number   1
_chemical_formula_structural   Pr2MgS4
_chemical_formula_sum   'Pr4 Mg2 S8'
_cell_volume   313.10450371
_cell_formula_units_Z   2
loop_
 _symmetry_equiv_pos_site_id
 _symmetry_equiv_pos_as_xyz
  1  'x, y, z'
loop_
 _atom_site_type_symbol
 _atom_site_label
 _atom_site_symmetry_multiplicity
 _atom_site_fract_x
 _atom_site_fract_y
 _atom_site_fract_z
 _atom_site_occupancy
  Pr  Pr0  1  0.87500000  0.75669500  0.38169500  1
  Pr  Pr1  1  0.50669500  0.12500000  0.88169500  1
  Pr  Pr2  1  0.37500000  0.49330500  0.61830500  1
  Pr  Pr3  1  0.24330500  0.62500000  0.11830500  1
  Mg  Mg4  1  0.00000000  0.00000000  0.00000000  1
  Mg  Mg5  1  0.75000000  0.25000000  0.50000000  1
  S  S6  1  0.50640400  0.37630400  0.26804600  1
  S  S7  1  0.76164200  0.49359600  0.86989900  1
  S  S8  1  0.10825700  0.23835800  0.73195400  1
  S  S9  1  0.62369600  0.89174300  0.13010100  1
  S  S10  1  0.24359600  0.01164200  0.36989900  1
  S  S11  1  0.98835800  0.35825700  0.23195400  1
  S  S12  1  0.64174300  0.87369600  0.63010100  1
  S  S13  1  0.12630400  0.75640400  0.76804600  1
