# generated using pymatgen
data_Ag5Sb23(PbS4)12
_symmetry_space_group_name_H-M   'P 1'
_cell_length_a   8.69541900
_cell_length_b   13.29602981
_cell_length_c   19.62485344
_cell_angle_alpha   90.29708353
_cell_angle_beta   90.02236377
_cell_angle_gamma   90.18961982
_symmetry_Int_Tables_number   1
_chemical_formula_structural   Ag5Sb23(PbS4)12
_chemical_formula_sum   'Ag5 Sb23 Pb12 S48'
_cell_volume   2268.87549057
_cell_formula_units_Z   1
loop_
 _symmetry_equiv_pos_site_id
 _symmetry_equiv_pos_as_xyz
  1  'x, y, z'
loop_
 _atom_site_type_symbol
 _atom_site_label
 _atom_site_symmetry_multiplicity
 _atom_site_fract_x
 _atom_site_fract_y
 _atom_site_fract_z
 _atom_site_occupancy
  Ag  Ag0  1  0.37992200  0.81897700  0.85752900  1
  Ag  Ag1  1  0.88135000  0.67647500  0.35946800  1
  Ag  Ag2  1  0.61787600  0.17783700  0.14069400  1
  Ag  Ag3  1  0.11855500  0.32162100  0.64128700  1
  Ag  Ag4  1  0.88298500  0.85145900  0.86796000  1
  Sb  Sb5  1  0.87762300  0.85525300  0.63115500  1
  Sb  Sb6  1  0.37934300  0.65058700  0.12781800  1
  Sb  Sb7  1  0.12080700  0.14942300  0.37192800  1
  Sb  Sb8  1  0.62017400  0.34942800  0.87060900  1
  Sb  Sb9  1  0.35537800  0.87155100  0.64865900  1
  Sb  Sb10  1  0.85745000  0.62657600  0.14769300  1
  Sb  Sb11  1  0.64379400  0.12909500  0.35157500  1
  Sb  Sb12  1  0.14174800  0.37516800  0.85051200  1
  Sb  Sb13  1  0.38019700  0.12099100  0.55548900  1
  Sb  Sb14  1  0.88004400  0.37848600  0.05512500  1
  Sb  Sb15  1  0.61972700  0.87899300  0.44491400  1
  Sb  Sb16  1  0.12066900  0.62344100  0.94266200  1
  Sb  Sb17  1  0.86499700  0.13207700  0.55238600  1
  Sb  Sb18  1  0.36510700  0.36718600  0.05183200  1
  Sb  Sb19  1  0.13209000  0.86795300  0.44757200  1
  Sb  Sb20  1  0.63697200  0.63506200  0.94671700  1
  Sb  Sb21  1  0.85911500  0.11799500  0.94573600  1
  Sb  Sb22  1  0.36103000  0.38034600  0.44641900  1
  Sb  Sb23  1  0.14017700  0.88074900  0.05248900  1
  Sb  Sb24  1  0.64044300  0.61986300  0.55397400  1
  Sb  Sb25  1  0.37781000  0.64978700  0.37019500  1
  Sb  Sb26  1  0.12206600  0.14951400  0.13076300  1
  Sb  Sb27  1  0.62133000  0.35103600  0.63086100  1
  Pb  Pb28  1  0.09792500  0.07622300  0.75156500  1
  Pb  Pb29  1  0.60251200  0.41851800  0.25159000  1
  Pb  Pb30  1  0.89583900  0.91912300  0.25079500  1
  Pb  Pb31  1  0.39774600  0.58596500  0.75278400  1
  Pb  Pb32  1  0.61371600  0.09103200  0.74632400  1
  Pb  Pb33  1  0.10728500  0.40668500  0.24583100  1
  Pb  Pb34  1  0.39193300  0.90512500  0.25519900  1
  Pb  Pb35  1  0.89303700  0.59992300  0.75731700  1
  Pb  Pb36  1  0.37233100  0.10855800  0.94907600  1
  Pb  Pb37  1  0.87213200  0.38766200  0.45134100  1
  Pb  Pb38  1  0.63226400  0.88779200  0.04661400  1
  Pb  Pb39  1  0.12752100  0.61395800  0.54950100  1
  S  S40  1  0.35724600  0.76324600  0.49600300  1
  S  S41  1  0.85202900  0.73600500  0.99702900  1
  S  S42  1  0.64535100  0.23714100  0.50269300  1
  S  S43  1  0.14629700  0.26531200  0.00402700  1
  S  S44  1  0.86043400  0.93747800  0.74546800  1
  S  S45  1  0.36078200  0.56377600  0.24548500  1
  S  S46  1  0.13855500  0.06395200  0.25421200  1
  S  S47  1  0.63809700  0.43600700  0.75470200  1
  S  S48  1  0.35698700  0.95033100  0.76648600  1
  S  S49  1  0.85716800  0.54876200  0.26678300  1
  S  S50  1  0.64314700  0.04967600  0.23326400  1
  S  S51  1  0.14064100  0.45104600  0.73371700  1
  S  S52  1  0.84968000  0.21765700  0.66506600  1
  S  S53  1  0.34961400  0.28289700  0.16553200  1
  S  S54  1  0.15101800  0.78418200  0.33400400  1
  S  S55  1  0.64346100  0.71229300  0.83454100  1
  S  S56  1  0.40856400  0.23914900  0.83370500  1
  S  S57  1  0.90430100  0.25877300  0.33312600  1
  S  S58  1  0.59153200  0.75968700  0.16689000  1
  S  S59  1  0.09437800  0.74222800  0.66689700  1
  S  S60  1  0.41858500  0.75253700  0.98420200  1
  S  S61  1  0.91595000  0.74721400  0.48085600  1
  S  S62  1  0.58146600  0.25048800  0.01763900  1
  S  S63  1  0.08252500  0.25084500  0.51692200  1
  S  S64  1  0.07166700  0.01721300  0.89858300  1
  S  S65  1  0.57546900  0.48173500  0.39799500  1
  S  S66  1  0.92719000  0.98273600  0.10220600  1
  S  S67  1  0.42528700  0.51724100  0.60086800  1
  S  S68  1  0.65667500  0.99804400  0.91058300  1
  S  S69  1  0.15663000  0.50181000  0.40922500  1
  S  S70  1  0.34393400  0.00076200  0.08987000  1
  S  S71  1  0.84596500  0.49810300  0.58971600  1
  S  S72  1  0.57665300  0.99889300  0.59991200  1
  S  S73  1  0.07463700  0.50151900  0.10285500  1
  S  S74  1  0.42252700  0.00133400  0.39895600  1
  S  S75  1  0.92505500  0.49684600  0.89978100  1
  S  S76  1  0.38768800  0.22458200  0.66163500  1
  S  S77  1  0.88667300  0.27550400  0.16151100  1
  S  S78  1  0.61260000  0.77761100  0.33731000  1
  S  S79  1  0.11507800  0.72167100  0.83868600  1
  S  S80  1  0.83782900  0.22818200  0.84076500  1
  S  S81  1  0.34123200  0.26991500  0.34110400  1
  S  S82  1  0.16097500  0.77141900  0.15799200  1
  S  S83  1  0.66044700  0.72970300  0.65963300  1
  S  S84  1  0.16122600  0.00106100  0.60458800  1
  S  S85  1  0.66212900  0.49824500  0.10594800  1
  S  S86  1  0.84151100  0.99892700  0.39404200  1
  S  S87  1  0.34009400  0.49877000  0.89502700  1
