# generated using pymatgen
data_Sm2MgSe4
_symmetry_space_group_name_H-M   'P 1'
_cell_length_a   6.92259700
_cell_length_b   8.44646600
_cell_length_c   14.46574500
_cell_angle_alpha   90.00000000
_cell_angle_beta   90.00000000
_cell_angle_gamma   90.00000000
_symmetry_Int_Tables_number   1
_chemical_formula_structural   Sm2MgSe4
_chemical_formula_sum   'Sm8 Mg4 Se16'
_cell_volume   845.83352223
_cell_formula_units_Z   4
loop_
 _symmetry_equiv_pos_site_id
 _symmetry_equiv_pos_as_xyz
  1  'x, y, z'
loop_
 _atom_site_type_symbol
 _atom_site_label
 _atom_site_symmetry_multiplicity
 _atom_site_fract_x
 _atom_site_fract_y
 _atom_site_fract_z
 _atom_site_occupancy
  Sm  Sm0  1  0.50000000  0.00000000  0.00000000  1
  Sm  Sm1  1  0.00000000  0.00000000  0.50000000  1
  Sm  Sm2  1  0.00000000  0.50000000  0.50000000  1
  Sm  Sm3  1  0.50000000  0.50000000  0.00000000  1
  Sm  Sm4  1  0.00189500  0.75000000  0.23395300  1
  Sm  Sm5  1  0.99810500  0.25000000  0.76604700  1
  Sm  Sm6  1  0.50189500  0.25000000  0.26604700  1
  Sm  Sm7  1  0.49810500  0.75000000  0.73395300  1
  Mg  Mg8  1  0.91729300  0.25000000  0.09244200  1
  Mg  Mg9  1  0.08270700  0.75000000  0.90755800  1
  Mg  Mg10  1  0.41729300  0.75000000  0.40755800  1
  Mg  Mg11  1  0.58270700  0.25000000  0.59244200  1
  Se  Se12  1  0.74378900  0.01007900  0.16892900  1
  Se  Se13  1  0.25621100  0.98992100  0.83107100  1
  Se  Se14  1  0.24378900  0.98992100  0.33107100  1
  Se  Se15  1  0.75621100  0.01007900  0.66892900  1
  Se  Se16  1  0.75621100  0.48992100  0.66892900  1
  Se  Se17  1  0.24378900  0.51007900  0.33107100  1
  Se  Se18  1  0.25621100  0.51007900  0.83107100  1
  Se  Se19  1  0.74378900  0.48992100  0.16892900  1
  Se  Se20  1  0.24698200  0.75000000  0.07069300  1
  Se  Se21  1  0.75301800  0.25000000  0.92930700  1
  Se  Se22  1  0.74698200  0.25000000  0.42930700  1
  Se  Se23  1  0.25301800  0.75000000  0.57069300  1
  Se  Se24  1  0.28451900  0.25000000  0.09179700  1
  Se  Se25  1  0.71548100  0.75000000  0.90820300  1
  Se  Se26  1  0.78451900  0.75000000  0.40820300  1
  Se  Se27  1  0.21548100  0.25000000  0.59179700  1
