# generated using pymatgen
data_Dy2MgSe4
_symmetry_space_group_name_H-M   'P 1'
_cell_length_a   14.18695100
_cell_length_b   8.25973900
_cell_length_c   6.84554000
_cell_angle_alpha   90.00000000
_cell_angle_beta   90.00000000
_cell_angle_gamma   90.00000000
_symmetry_Int_Tables_number   1
_chemical_formula_structural   Dy2MgSe4
_chemical_formula_sum   'Dy8 Mg4 Se16'
_cell_volume   802.16388531
_cell_formula_units_Z   4
loop_
 _symmetry_equiv_pos_site_id
 _symmetry_equiv_pos_as_xyz
  1  'x, y, z'
loop_
 _atom_site_type_symbol
 _atom_site_label
 _atom_site_symmetry_multiplicity
 _atom_site_fract_x
 _atom_site_fract_y
 _atom_site_fract_z
 _atom_site_occupancy
  Dy  Dy0  1  0.00000000  0.00000000  0.50000000  1
  Dy  Dy1  1  0.50000000  0.00000000  0.00000000  1
  Dy  Dy2  1  0.50000000  0.50000000  0.00000000  1
  Dy  Dy3  1  0.00000000  0.50000000  0.50000000  1
  Dy  Dy4  1  0.23453400  0.75000000  0.00302900  1
  Dy  Dy5  1  0.76546600  0.25000000  0.99697100  1
  Dy  Dy6  1  0.26546600  0.25000000  0.50302900  1
  Dy  Dy7  1  0.73453400  0.75000000  0.49697100  1
  Mg  Mg8  1  0.09251900  0.25000000  0.91835000  1
  Mg  Mg9  1  0.90748100  0.75000000  0.08165000  1
  Mg  Mg10  1  0.40748100  0.75000000  0.41835000  1
  Mg  Mg11  1  0.59251900  0.25000000  0.58165000  1
  Se  Se12  1  0.16935900  0.00571700  0.74054600  1
  Se  Se13  1  0.83064100  0.99428300  0.25945400  1
  Se  Se14  1  0.33064100  0.99428300  0.24054600  1
  Se  Se15  1  0.66935900  0.00571700  0.75945400  1
  Se  Se16  1  0.66935900  0.49428300  0.75945400  1
  Se  Se17  1  0.33064100  0.50571700  0.24054600  1
  Se  Se18  1  0.83064100  0.50571700  0.25945400  1
  Se  Se19  1  0.16935900  0.49428300  0.74054600  1
  Se  Se20  1  0.07297000  0.75000000  0.25013900  1
  Se  Se21  1  0.92703000  0.25000000  0.74986100  1
  Se  Se22  1  0.42703000  0.25000000  0.75013900  1
  Se  Se23  1  0.57297000  0.75000000  0.24986100  1
  Se  Se24  1  0.09171600  0.25000000  0.28874100  1
  Se  Se25  1  0.90828400  0.75000000  0.71125900  1
  Se  Se26  1  0.40828400  0.75000000  0.78874100  1
  Se  Se27  1  0.59171600  0.25000000  0.21125900  1
