# generated using pymatgen
data_Sm2MgS4
_symmetry_space_group_name_H-M   'P 1'
_cell_length_a   7.28994207
_cell_length_b   7.28994207
_cell_length_c   7.28994207
_cell_angle_alpha   110.82742065
_cell_angle_beta   110.82742065
_cell_angle_gamma   106.79159607
_symmetry_Int_Tables_number   1
_chemical_formula_structural   Sm2MgS4
_chemical_formula_sum   'Sm4 Mg2 S8'
_cell_volume   297.74297595
_cell_formula_units_Z   2
loop_
 _symmetry_equiv_pos_site_id
 _symmetry_equiv_pos_as_xyz
  1  'x, y, z'
loop_
 _atom_site_type_symbol
 _atom_site_label
 _atom_site_symmetry_multiplicity
 _atom_site_fract_x
 _atom_site_fract_y
 _atom_site_fract_z
 _atom_site_occupancy
  Sm  Sm0  1  0.87500000  0.75719900  0.38219900  1
  Sm  Sm1  1  0.50719900  0.12500000  0.88219900  1
  Sm  Sm2  1  0.37500000  0.49280100  0.61780100  1
  Sm  Sm3  1  0.24280100  0.62500000  0.11780100  1
  Mg  Mg4  1  0.00000000  0.00000000  0.00000000  1
  Mg  Mg5  1  0.75000000  0.25000000  0.50000000  1
  S  S6  1  0.50647600  0.37725500  0.26561800  1
  S  S7  1  0.75914200  0.49352400  0.87077900  1
  S  S8  1  0.11163700  0.24085800  0.73438200  1
  S  S9  1  0.62274500  0.88836300  0.12922100  1
  S  S10  1  0.24352400  0.00914200  0.37077900  1
  S  S11  1  0.99085800  0.36163700  0.23438200  1
  S  S12  1  0.63836300  0.87274500  0.62922100  1
  S  S13  1  0.12725500  0.75647600  0.76561800  1
