# generated using pymatgen
data_Tm2MgSe4
_symmetry_space_group_name_H-M   'P 1'
_cell_length_a   7.39196600
_cell_length_b   8.56252710
_cell_length_c   13.80262497
_cell_angle_alpha   99.03050735
_cell_angle_beta   95.28939617
_cell_angle_gamma   89.99114051
_symmetry_Int_Tables_number   1
_chemical_formula_structural   Tm2MgSe4
_chemical_formula_sum   'Tm8 Mg4 Se16'
_cell_volume   859.02847005
_cell_formula_units_Z   4
loop_
 _symmetry_equiv_pos_site_id
 _symmetry_equiv_pos_as_xyz
  1  'x, y, z'
loop_
 _atom_site_type_symbol
 _atom_site_label
 _atom_site_symmetry_multiplicity
 _atom_site_fract_x
 _atom_site_fract_y
 _atom_site_fract_z
 _atom_site_occupancy
  Tm  Tm0  1  0.86356600  0.30028700  0.70020700  1
  Tm  Tm1  1  0.13643400  0.69971300  0.29979300  1
  Tm  Tm2  1  0.75841000  0.12561000  0.00043100  1
  Tm  Tm3  1  0.24159000  0.87439000  0.99956900  1
  Tm  Tm4  1  0.63150000  0.44495200  0.29868800  1
  Tm  Tm5  1  0.36850000  0.55504800  0.70131200  1
  Tm  Tm6  1  0.63167900  0.95469300  0.30127400  1
  Tm  Tm7  1  0.36832100  0.04530700  0.69872600  1
  Mg  Mg8  1  0.86745200  0.80066900  0.70252100  1
  Mg  Mg9  1  0.13254800  0.19933100  0.29747900  1
  Mg  Mg10  1  0.75116400  0.62391100  0.99769000  1
  Mg  Mg11  1  0.24883600  0.37608900  0.00231000  1
  Se  Se12  1  0.90294700  0.35269000  0.89627100  1
  Se  Se13  1  0.09705300  0.64731000  0.10372900  1
  Se  Se14  1  0.89457300  0.84536000  0.89183100  1
  Se  Se15  1  0.10542700  0.15464000  0.10816900  1
  Se  Se16  1  0.82341400  0.21917200  0.37523400  1
  Se  Se17  1  0.17658600  0.78082800  0.62476600  1
  Se  Se18  1  0.81123500  0.71898200  0.37701100  1
  Se  Se19  1  0.18876500  0.28101800  0.62298900  1
  Se  Se20  1  0.69303800  0.02369100  0.62501700  1
  Se  Se21  1  0.30696200  0.97630900  0.37498300  1
  Se  Se22  1  0.69210800  0.53905300  0.62585900  1
  Se  Se23  1  0.30789200  0.46094700  0.37414100  1
  Se  Se24  1  0.60268200  0.89850400  0.10451200  1
  Se  Se25  1  0.39731800  0.10149600  0.89548800  1
  Se  Se26  1  0.59812400  0.40444400  0.10263400  1
  Se  Se27  1  0.40187600  0.59555600  0.89736600  1
