# generated using pymatgen
data_Co20(As4O19)3
_symmetry_space_group_name_H-M   'P 1'
_cell_length_a   13.73332693
_cell_length_b   13.85899594
_cell_length_c   13.73332693
_cell_angle_alpha   107.12385953
_cell_angle_beta   72.07189915
_cell_angle_gamma   72.87614047
_symmetry_Int_Tables_number   1
_chemical_formula_structural   Co20(As4O19)3
_chemical_formula_sum   'Co40 As24 O114'
_cell_volume   2153.04516663
_cell_formula_units_Z   2
loop_
 _symmetry_equiv_pos_site_id
 _symmetry_equiv_pos_as_xyz
  1  'x, y, z'
loop_
 _atom_site_type_symbol
 _atom_site_label
 _atom_site_symmetry_multiplicity
 _atom_site_fract_x
 _atom_site_fract_y
 _atom_site_fract_z
 _atom_site_occupancy
  Co  Co0  1  0.20520313  0.79409632  0.79466047  1
  Co  Co1  1  0.89384291  0.10699200  0.10560254  1
  Co  Co2  1  0.70533953  0.29409632  0.29479687  1
  Co  Co3  1  0.39439746  0.60699200  0.60615709  1
  Co  Co4  1  0.47994798  0.08780554  0.44758553  1
  Co  Co5  1  0.15077278  0.41396027  0.77087716  1
  Co  Co6  1  0.81742270  0.75342160  0.10525306  1
  Co  Co7  1  0.24897895  0.09656455  0.17959882  1
  Co  Co8  1  0.91469197  0.43498790  0.51669989  1
  Co  Co9  1  0.58514823  0.76670564  0.84693237  1
  Co  Co10  1  0.23111000  0.84865832  0.41381304  1
  Co  Co11  1  0.90369733  0.17854843  0.75082137  1
  Co  Co12  1  0.56624636  0.51406283  0.08351625  1
  Co  Co13  1  0.38796918  0.17860106  0.25362331  1
  Co  Co14  1  0.05795874  0.50913386  0.58534769  1
  Co  Co15  1  0.72264933  0.84563166  0.91993196  1
  Co  Co16  1  0.41864793  0.93288726  0.50160444  1
  Co  Co17  1  0.08190546  0.26673721  0.83880158  1
  Co  Co18  1  0.75181906  0.60174022  0.16965197  1
  Co  Co19  1  0.15661933  0.91935978  0.27298184  1
  Co  Co20  1  0.82337527  0.25004778  0.61199792  1
  Co  Co21  1  0.48903627  0.58634668  0.94477003  1
  Co  Co22  1  0.33034803  0.10174022  0.74818094  1
  Co  Co23  1  0.99839556  0.43288726  0.08135207  1
  Co  Co24  1  0.66119842  0.76673721  0.41809454  1
  Co  Co25  1  0.55522997  0.08634668  0.01096373  1
  Co  Co26  1  0.22701816  0.41935978  0.34338067  1
  Co  Co27  1  0.88800208  0.75004778  0.67662473  1
  Co  Co28  1  0.58006804  0.34563166  0.77735067  1
  Co  Co29  1  0.24637669  0.67860106  0.11203082  1
  Co  Co30  1  0.91465231  0.00913386  0.44204126  1
  Co  Co31  1  0.41648375  0.01406283  0.93375364  1
  Co  Co32  1  0.08618696  0.34865832  0.26889000  1
  Co  Co33  1  0.74917863  0.67854843  0.59630267  1
  Co  Co34  1  0.39474694  0.25342160  0.68257730  1
  Co  Co35  1  0.05241447  0.58780554  0.02005202  1
  Co  Co36  1  0.72912284  0.91396027  0.34922722  1
  Co  Co37  1  0.65306763  0.26670564  0.91485177  1
  Co  Co38  1  0.32040118  0.59656455  0.25102105  1
  Co  Co39  1  0.98330011  0.93498790  0.58530803  1
  As  As40  1  0.56440949  0.76964695  0.10356865  1
  As  As41  1  0.22784220  0.10444561  0.43764813  1
  As  As42  1  0.89573158  0.43582404  0.77231916  1
  As  As43  1  0.72768084  0.93582404  0.60426842  1
  As  As44  1  0.39643135  0.26964695  0.93559051  1
  As  As45  1  0.06235187  0.60444561  0.27215780  1
  As  As46  1  0.97413994  0.87732393  0.17433104  1
  As  As47  1  0.64635803  0.20451526  0.49912254  1
  As  As48  1  0.30589644  0.54592066  0.84042183  1
  As  As49  1  0.79798522  0.49524210  0.34903714  1
  As  As50  1  0.45590862  0.83567737  0.69105297  1
  As  As51  1  0.12685068  0.17309085  0.02290734  1
  As  As52  1  0.16218984  0.69130411  0.54439004  1
  As  As53  1  0.82475172  0.02377641  0.87539593  1
  As  As54  1  0.50265675  0.35154005  0.20594859  1
  As  As55  1  0.47709266  0.67309085  0.37314932  1
  As  As56  1  0.15096286  0.99524210  0.70201478  1
  As  As57  1  0.80894703  0.33567737  0.04409138  1
  As  As58  1  0.65957817  0.04592066  0.19410356  1
  As  As59  1  0.32566896  0.37732393  0.52586006  1
  As  As60  1  0.00087746  0.70451526  0.85364197  1
  As  As61  1  0.29405141  0.85154005  0.99734325  1
  As  As62  1  0.95560996  0.19130411  0.33781016  1
  As  As63  1  0.62460407  0.52377641  0.67524828  1
  O  O64  1  0.55158456  0.92043484  0.40306936  1
  O  O65  1  0.23227985  0.26579779  0.72830541  1
  O  O66  1  0.89971425  0.59670920  0.06050019  1
  O  O67  1  0.41835341  0.07484777  0.11609401  1
  O  O68  1  0.08529067  0.40864325  0.44960376  1
  O  O69  1  0.75159044  0.74136237  0.78029590  1
  O  O70  1  0.25899435  0.78400511  0.24636962  1
  O  O71  1  0.92619482  0.11477827  0.58200408  1
  O  O72  1  0.59202879  0.44787656  0.91226945  1
  O  O73  1  0.77169459  0.76579779  0.26772015  1
  O  O74  1  0.43949981  0.09670920  0.60028575  1
  O  O75  1  0.09693064  0.42043484  0.94841544  1
  O  O76  1  0.91799592  0.61477827  0.57380518  1
  O  O77  1  0.58773055  0.94787656  0.90797121  1
  O  O78  1  0.25363038  0.28400511  0.24100565  1
  O  O79  1  0.05039624  0.90864325  0.41470933  1
  O  O80  1  0.71970410  0.24136237  0.74840956  1
  O  O81  1  0.38390599  0.57484777  0.08164659  1
  O  O82  1  0.63317894  0.08457933  0.42846596  1
  O  O83  1  0.29825296  0.42757488  0.76333282  1
  O  O84  1  0.96439230  0.75908389  0.09816647  1
  O  O85  1  0.57559039  0.76152773  0.70031585  1
  O  O86  1  0.24445585  0.09952353  0.03498476  1
  O  O87  1  0.91526089  0.42664537  0.36560540  1
  O  O88  1  0.89972492  0.03496277  0.75604768  1
  O  O89  1  0.57091691  0.36588721  0.08550660  1
  O  O90  1  0.23715981  0.70142411  0.42417691  1
  O  O91  1  0.83110581  0.89023906  0.82546368  1
  O  O92  1  0.50348601  0.22009258  0.15879990  1
  O  O93  1  0.17127246  0.55691482  0.49558419  1
  O  O94  1  0.50363234  0.82885336  0.55644427  1
  O  O95  1  0.17625984  0.16765456  0.88919671  1
  O  O96  1  0.84980588  0.49784805  0.21703193  1
  O  O97  1  0.77765189  0.15534350  0.49961138  1
  O  O98  1  0.43946635  0.49672676  0.83478989  1
  O  O99  1  0.10827793  0.82561335  0.16774332  1
  O  O100  1  0.61080329  0.66765456  0.32374016  1
  O  O101  1  0.28296807  0.99784805  0.65019412  1
  O  O102  1  0.94355573  0.32885336  0.99636766  1
  O  O103  1  0.66521011  0.99672676  0.06053365  1
  O  O104  1  0.33225668  0.32561335  0.39172207  1
  O  O105  1  0.00038862  0.65534350  0.72234811  1
  O  O106  1  0.34120010  0.72009258  0.99651399  1
  O  O107  1  0.00441581  0.05691482  0.32872754  1
  O  O108  1  0.67453632  0.39023906  0.66889419  1
  O  O109  1  0.41449340  0.86588721  0.92908309  1
  O  O110  1  0.07582309  0.20142411  0.26284019  1
  O  O111  1  0.74395232  0.53496277  0.60027508  1
  O  O112  1  0.73666718  0.92757488  0.20174704  1
  O  O113  1  0.40183353  0.25908389  0.53560770  1
  O  O114  1  0.07153404  0.58457933  0.86682106  1
  O  O115  1  0.46501524  0.59952353  0.25554415  1
  O  O116  1  0.13439460  0.92664537  0.58473911  1
  O  O117  1  0.79968415  0.26152773  0.92440961  1
  O  O118  1  0.95830425  0.96717452  0.11489319  1
  O  O119  1  0.62845680  0.29900801  0.44292195  1
  O  O120  1  0.29203429  0.63748925  0.77613885  1
  O  O121  1  0.70144242  0.43987661  0.36730858  1
  O  O122  1  0.36295362  0.77214762  0.70647703  1
  O  O123  1  0.03057579  0.11873624  0.04535344  1
  O  O124  1  0.22498458  0.70535763  0.63784432  1
  O  O125  1  0.87996430  0.04038705  0.97009080  1
  O  O126  1  0.55881648  0.37050574  0.30127949  1
  O  O127  1  0.45464656  0.61873624  0.46942421  1
  O  O128  1  0.13269142  0.93987661  0.79855758  1
  O  O129  1  0.79352297  0.27214762  0.13704638  1
  O  O130  1  0.72386115  0.13748925  0.20796571  1
  O  O131  1  0.38510681  0.46717452  0.54169575  1
  O  O132  1  0.05707805  0.79900801  0.87154320  1
  O  O133  1  0.19872051  0.87050574  0.94118352  1
  O  O134  1  0.86215568  0.20535763  0.27501542  1
  O  O135  1  0.52990920  0.54038705  0.62003570  1
  O  O136  1  0.68649738  0.71951843  0.12169705  1
  O  O137  1  0.34937037  0.05446023  0.45694128  1
  O  O138  1  0.01411898  0.38894900  0.79679577  1
  O  O139  1  0.61479053  0.79159516  0.98291820  1
  O  O140  1  0.27401959  0.12942063  0.31877694  1
  O  O141  1  0.94127936  0.46233028  0.65452115  1
  O  O142  1  0.54093725  0.65153025  0.05562888  1
  O  O143  1  0.20400353  0.98725925  0.38787914  1
  O  O144  1  0.87548888  0.31601471  0.72297584  1
  O  O145  1  0.70320423  0.88894900  0.48588102  1
  O  O146  1  0.37830295  0.21951843  0.81350262  1
  O  O147  1  0.04305872  0.55446023  0.15062963  1
  O  O148  1  0.77702416  0.81601471  0.62451112  1
  O  O149  1  0.44437112  0.15153025  0.95906275  1
  O  O150  1  0.11212086  0.48725925  0.29599647  1
  O  O151  1  0.84547885  0.96233028  0.55872064  1
  O  O152  1  0.51708180  0.29159516  0.88520947  1
  O  O153  1  0.18122306  0.62942063  0.22598041  1
  O  O154  1  0.95098217  0.71168224  0.38084479  1
  O  O155  1  0.61708984  0.04242960  0.71403166  1
  O  O156  1  0.28840938  0.37902309  0.04514909  1
  O  O157  1  0.45485091  0.87902309  0.21159062  1
  O  O158  1  0.11915521  0.21168224  0.54901783  1
  O  O159  1  0.78596834  0.54242960  0.88291016  1
  O  O160  1  0.87844528  0.92774923  0.31564408  1
  O  O161  1  0.54669722  0.26333365  0.64065389  1
  O  O162  1  0.20598307  0.60085236  0.98024841  1
  O  O163  1  0.73827043  0.63390920  0.44671213  1
  O  O164  1  0.39901326  0.97374126  0.78624649  1
  O  O165  1  0.07464095  0.31238570  0.11825497  1
  O  O166  1  0.02193903  0.78545860  0.60069570  1
  O  O167  1  0.68442332  0.11834860  0.92759983  1
  O  O168  1  0.36212441  0.44851258  0.26469181  1
  O  O169  1  0.38174503  0.81238570  0.42535905  1
  O  O170  1  0.05328787  0.13390920  0.76172957  1
  O  O171  1  0.71375351  0.47374126  0.10098674  1
  O  O172  1  0.51975159  0.10085236  0.29401693  1
  O  O173  1  0.18435592  0.42774923  0.62155472  1
  O  O174  1  0.85934611  0.76333365  0.95330278  1
  O  O175  1  0.23530819  0.94851258  0.13787559  1
  O  O176  1  0.89930430  0.28545860  0.47806097  1
  O  O177  1  0.57240017  0.61834860  0.81557668  1
