# generated using pymatgen
data_Ce2MgS4
_symmetry_space_group_name_H-M   'P 1'
_cell_length_a   14.06618500
_cell_length_b   8.34107500
_cell_length_c   6.64134100
_cell_angle_alpha   90.00000000
_cell_angle_beta   90.00000000
_cell_angle_gamma   90.00000000
_symmetry_Int_Tables_number   1
_chemical_formula_structural   Ce2MgS4
_chemical_formula_sum   'Ce8 Mg4 S16'
_cell_volume   779.20930653
_cell_formula_units_Z   4
loop_
 _symmetry_equiv_pos_site_id
 _symmetry_equiv_pos_as_xyz
  1  'x, y, z'
loop_
 _atom_site_type_symbol
 _atom_site_label
 _atom_site_symmetry_multiplicity
 _atom_site_fract_x
 _atom_site_fract_y
 _atom_site_fract_z
 _atom_site_occupancy
  Ce  Ce0  1  0.00000000  0.00000000  0.50000000  1
  Ce  Ce1  1  0.50000000  0.00000000  0.00000000  1
  Ce  Ce2  1  0.50000000  0.50000000  0.00000000  1
  Ce  Ce3  1  0.00000000  0.50000000  0.50000000  1
  Ce  Ce4  1  0.23069000  0.75000000  0.99857500  1
  Ce  Ce5  1  0.76931000  0.25000000  0.00142500  1
  Ce  Ce6  1  0.26931000  0.25000000  0.49857500  1
  Ce  Ce7  1  0.73069000  0.75000000  0.50142500  1
  Mg  Mg8  1  0.09273000  0.25000000  0.92248800  1
  Mg  Mg9  1  0.90727000  0.75000000  0.07751200  1
  Mg  Mg10  1  0.40727000  0.75000000  0.42248800  1
  Mg  Mg11  1  0.59273000  0.25000000  0.57751200  1
  S  S12  1  0.16679000  0.01852100  0.74918400  1
  S  S13  1  0.83321000  0.98147900  0.25081600  1
  S  S14  1  0.33321000  0.98147900  0.24918400  1
  S  S15  1  0.66679000  0.01852100  0.75081600  1
  S  S16  1  0.66679000  0.48147900  0.75081600  1
  S  S17  1  0.33321000  0.51852100  0.24918400  1
  S  S18  1  0.83321000  0.51852100  0.25081600  1
  S  S19  1  0.16679000  0.48147900  0.74918400  1
  S  S20  1  0.06543600  0.75000000  0.24304600  1
  S  S21  1  0.93456400  0.25000000  0.75695400  1
  S  S22  1  0.43456400  0.25000000  0.74304600  1
  S  S23  1  0.56543600  0.75000000  0.25695400  1
  S  S24  1  0.09253900  0.25000000  0.28696700  1
  S  S25  1  0.90746100  0.75000000  0.71303300  1
  S  S26  1  0.40746100  0.75000000  0.78696700  1
  S  S27  1  0.59253900  0.25000000  0.21303300  1
