# generated using pymatgen
data_Pr2MgSe4
_symmetry_space_group_name_H-M   'P 1'
_cell_length_a   7.78403400
_cell_length_b   9.07612009
_cell_length_c   13.71492395
_cell_angle_alpha   99.60161152
_cell_angle_beta   96.00031957
_cell_angle_gamma   90.16157015
_symmetry_Int_Tables_number   1
_chemical_formula_structural   Pr2MgSe4
_chemical_formula_sum   'Pr8 Mg4 Se16'
_cell_volume   949.93279608
_cell_formula_units_Z   4
loop_
 _symmetry_equiv_pos_site_id
 _symmetry_equiv_pos_as_xyz
  1  'x, y, z'
loop_
 _atom_site_type_symbol
 _atom_site_label
 _atom_site_symmetry_multiplicity
 _atom_site_fract_x
 _atom_site_fract_y
 _atom_site_fract_z
 _atom_site_occupancy
  Pr  Pr0  1  0.86672400  0.30032500  0.68947300  1
  Pr  Pr1  1  0.13327600  0.69967500  0.31052700  1
  Pr  Pr2  1  0.75578600  0.13215700  0.00066400  1
  Pr  Pr3  1  0.24421400  0.86784300  0.99933600  1
  Pr  Pr4  1  0.63151700  0.44328900  0.30778800  1
  Pr  Pr5  1  0.36848300  0.55671100  0.69221200  1
  Pr  Pr6  1  0.63536900  0.96004600  0.31172500  1
  Pr  Pr7  1  0.36463100  0.03995400  0.68827500  1
  Mg  Mg8  1  0.86454500  0.79957800  0.70328300  1
  Mg  Mg9  1  0.13545500  0.20042200  0.29671700  1
  Mg  Mg10  1  0.75138000  0.62041700  0.99415500  1
  Mg  Mg11  1  0.24862000  0.37958300  0.00584500  1
  Se  Se12  1  0.91434300  0.35971100  0.89811200  1
  Se  Se13  1  0.08565700  0.64028900  0.10188800  1
  Se  Se14  1  0.88399200  0.83875300  0.89285400  1
  Se  Se15  1  0.11600800  0.16124700  0.10714600  1
  Se  Se16  1  0.84449700  0.22051600  0.37621800  1
  Se  Se17  1  0.15550300  0.77948400  0.62378200  1
  Se  Se18  1  0.80540700  0.71947000  0.38390100  1
  Se  Se19  1  0.19459300  0.28053000  0.61609900  1
  Se  Se20  1  0.70235900  0.01388300  0.62758900  1
  Se  Se21  1  0.29764100  0.98611700  0.37241100  1
  Se  Se22  1  0.69917300  0.55003600  0.62333300  1
  Se  Se23  1  0.30082700  0.44996400  0.37666700  1
  Se  Se24  1  0.61457900  0.89017200  0.10335400  1
  Se  Se25  1  0.38542100  0.10982800  0.89664600  1
  Se  Se26  1  0.58995000  0.41289200  0.09966900  1
  Se  Se27  1  0.41005000  0.58710800  0.90033100  1
