# generated using pymatgen
data_SmMgSe3
_symmetry_space_group_name_H-M   'P 1'
_cell_length_a   8.59045850
_cell_length_b   11.93686800
_cell_length_c   7.77177893
_cell_angle_alpha   90.00000000
_cell_angle_beta   135.29838521
_cell_angle_gamma   90.00000000
_symmetry_Int_Tables_number   1
_chemical_formula_structural   SmMgSe3
_chemical_formula_sum   'Sm4 Mg4 Se12'
_cell_volume   560.58133760
_cell_formula_units_Z   4
loop_
 _symmetry_equiv_pos_site_id
 _symmetry_equiv_pos_as_xyz
  1  'x, y, z'
loop_
 _atom_site_type_symbol
 _atom_site_label
 _atom_site_symmetry_multiplicity
 _atom_site_fract_x
 _atom_site_fract_y
 _atom_site_fract_z
 _atom_site_occupancy
  Sm  Sm0  1  0.95043400  0.00000000  0.17750900  1
  Sm  Sm1  1  0.04956600  0.00000000  0.82249100  1
  Sm  Sm2  1  0.45043400  0.50000000  0.17750900  1
  Sm  Sm3  1  0.54956600  0.50000000  0.82249100  1
  Mg  Mg4  1  0.00000000  0.32752100  0.00000000  1
  Mg  Mg5  1  0.00000000  0.67247900  0.00000000  1
  Mg  Mg6  1  0.50000000  0.82752100  0.00000000  1
  Mg  Mg7  1  0.50000000  0.17247900  0.00000000  1
  Se  Se8  1  0.26092800  0.15658700  0.24118700  1
  Se  Se9  1  0.73907200  0.84341300  0.75881300  1
  Se  Se10  1  0.73907200  0.15658700  0.75881300  1
  Se  Se11  1  0.26092800  0.84341300  0.24118700  1
  Se  Se12  1  0.76092800  0.65658700  0.24118700  1
  Se  Se13  1  0.23907200  0.34341300  0.75881300  1
  Se  Se14  1  0.23907200  0.65658700  0.75881300  1
  Se  Se15  1  0.76092800  0.34341300  0.24118700  1
  Se  Se16  1  0.29990300  0.00000000  0.69765200  1
  Se  Se17  1  0.70009700  0.00000000  0.30234800  1
  Se  Se18  1  0.79990300  0.50000000  0.69765200  1
  Se  Se19  1  0.20009700  0.50000000  0.30234800  1
