# generated using pymatgen
data_Pm2Se3
_symmetry_space_group_name_H-M   'P 1'
_cell_length_a   14.74888761
_cell_length_b   14.74888761
_cell_length_c   14.74888761
_cell_angle_alpha   144.89517165
_cell_angle_beta   144.89517165
_cell_angle_gamma   50.49076994
_symmetry_Int_Tables_number   1
_chemical_formula_structural   Pm2Se3
_chemical_formula_sum   'Pm16 Se24'
_cell_volume   1055.70120883
_cell_formula_units_Z   8
loop_
 _symmetry_equiv_pos_site_id
 _symmetry_equiv_pos_as_xyz
  1  'x, y, z'
loop_
 _atom_site_type_symbol
 _atom_site_label
 _atom_site_symmetry_multiplicity
 _atom_site_fract_x
 _atom_site_fract_y
 _atom_site_fract_z
 _atom_site_occupancy
  Pm  Pm0  1  0.84358900  0.95231500  0.37543800  1
  Pm  Pm1  1  0.57687700  0.46815100  0.62456200  1
  Pm  Pm2  1  0.16685600  0.16685600  0.00000000  1
  Pm  Pm3  1  0.87500000  0.50600600  0.13100600  1
  Pm  Pm4  1  0.17312300  0.29768500  0.39127300  1
  Pm  Pm5  1  0.58314400  0.08314400  0.50000000  1
  Pm  Pm6  1  0.90641100  0.78184900  0.60872700  1
  Pm  Pm7  1  0.37500000  0.74399400  0.86899400  1
  Pm  Pm8  1  0.21815100  0.82687700  0.12456200  1
  Pm  Pm9  1  0.91685600  0.41685600  0.50000000  1
  Pm  Pm10  1  0.49399400  0.62500000  0.36899400  1
  Pm  Pm11  1  0.25600600  0.12500000  0.63100600  1
  Pm  Pm12  1  0.70231500  0.09358900  0.87543800  1
  Pm  Pm13  1  0.83314400  0.83314400  0.00000000  1
  Pm  Pm14  1  0.53184900  0.15641100  0.10872700  1
  Pm  Pm15  1  0.04768500  0.42312300  0.89127300  1
  Se  Se16  1  0.50767900  0.11232300  0.25339700  1
  Se  Se17  1  0.07333100  0.82645600  0.60772700  1
  Se  Se18  1  0.85892600  0.25428200  0.74660300  1
  Se  Se19  1  0.89107400  0.13767700  0.89535600  1
  Se  Se20  1  0.24232100  0.99571800  0.10464400  1
  Se  Se21  1  0.67666900  0.78439600  0.25312400  1
  Se  Se22  1  0.21872800  0.46560400  0.39227300  1
  Se  Se23  1  0.84261100  0.43625600  0.24632500  1
  Se  Se24  1  0.53127200  0.42354400  0.74687600  1
  Se  Se25  1  0.40371400  0.15738900  0.59364500  1
  Se  Se26  1  0.18993100  0.59628600  0.75367500  1
  Se  Se27  1  0.21560400  0.46872800  0.89227300  1
  Se  Se28  1  0.57645600  0.32333100  0.10772700  1
  Se  Se29  1  0.00428200  0.10892600  0.24660300  1
  Se  Se30  1  0.56374400  0.81006900  0.40635500  1
  Se  Se31  1  0.17354400  0.78127200  0.24687600  1
  Se  Se32  1  0.86232300  0.75767900  0.75339700  1
  Se  Se33  1  0.74571800  0.49232100  0.60464400  1
  Se  Se34  1  0.53439600  0.92666900  0.75312400  1
  Se  Se35  1  0.56006900  0.81374400  0.90635500  1
  Se  Se36  1  0.90738900  0.65371400  0.09364500  1
  Se  Se37  1  0.34628600  0.43993100  0.25367500  1
  Se  Se38  1  0.88767700  0.14107400  0.39535600  1
  Se  Se39  1  0.18625600  0.09261100  0.74632500  1
