# generated using pymatgen
data_EuS2
_symmetry_space_group_name_H-M   'P 1'
_cell_length_a   5.62051153
_cell_length_b   5.62540015
_cell_length_c   5.62680691
_cell_angle_alpha   60.02947132
_cell_angle_beta   60.00061292
_cell_angle_gamma   59.99055594
_symmetry_Int_Tables_number   1
_chemical_formula_structural   EuS2
_chemical_formula_sum   'Eu2 S4'
_cell_volume   125.81832712
_cell_formula_units_Z   2
loop_
 _symmetry_equiv_pos_site_id
 _symmetry_equiv_pos_as_xyz
  1  'x, y, z'
loop_
 _atom_site_type_symbol
 _atom_site_label
 _atom_site_symmetry_multiplicity
 _atom_site_fract_x
 _atom_site_fract_y
 _atom_site_fract_z
 _atom_site_occupancy
  Eu  Eu0  1  0.75000000  0.74999700  0.74999900  1
  Eu  Eu1  1  0.00000000  0.00000300  0.00000100  1
  S  S2  1  0.87500000  0.37500000  0.37500000  1
  S  S3  1  0.37500000  0.87500000  0.37500000  1
  S  S4  1  0.37500000  0.37500000  0.87500000  1
  S  S5  1  0.37500000  0.37500000  0.37500000  1
