# generated using pymatgen
data_TmMgSe3
_symmetry_space_group_name_H-M   'P 1'
_cell_length_a   7.34258747
_cell_length_b   7.34258747
_cell_length_c   6.91944988
_cell_angle_alpha   76.46676671
_cell_angle_beta   76.46676671
_cell_angle_gamma   120.12718103
_symmetry_Int_Tables_number   1
_chemical_formula_structural   TmMgSe3
_chemical_formula_sum   'Tm2 Mg2 Se6'
_cell_volume   284.98460758
_cell_formula_units_Z   2
loop_
 _symmetry_equiv_pos_site_id
 _symmetry_equiv_pos_as_xyz
  1  'x, y, z'
loop_
 _atom_site_type_symbol
 _atom_site_label
 _atom_site_symmetry_multiplicity
 _atom_site_fract_x
 _atom_site_fract_y
 _atom_site_fract_z
 _atom_site_occupancy
  Tm  Tm0  1  0.80419700  0.80419700  0.31761600  1
  Tm  Tm1  1  0.19580300  0.19580300  0.68238400  1
  Mg  Mg2  1  0.33586200  0.66413800  0.00000000  1
  Mg  Mg3  1  0.66413800  0.33586200  0.00000000  1
  Se  Se4  1  0.21962600  0.87746900  0.21629100  1
  Se  Se5  1  0.78037400  0.12253100  0.78370900  1
  Se  Se6  1  0.12253100  0.78037400  0.78370900  1
  Se  Se7  1  0.87746900  0.21962600  0.21629100  1
  Se  Se8  1  0.53224200  0.53224200  0.74533400  1
  Se  Se9  1  0.46775800  0.46775800  0.25466600  1
