# generated using pymatgen
data_NaSm2IrO6
_symmetry_space_group_name_H-M   'P 1'
_cell_length_a   5.93747600
_cell_length_b   5.50502400
_cell_length_c   9.59390285
_cell_angle_alpha   56.25371218
_cell_angle_beta   90.00000000
_cell_angle_gamma   90.00000000
_symmetry_Int_Tables_number   1
_chemical_formula_structural   NaSm2IrO6
_chemical_formula_sum   'Na2 Sm4 Ir2 O12'
_cell_volume   260.74835764
_cell_formula_units_Z   2
loop_
 _symmetry_equiv_pos_site_id
 _symmetry_equiv_pos_as_xyz
  1  'x, y, z'
loop_
 _atom_site_type_symbol
 _atom_site_label
 _atom_site_symmetry_multiplicity
 _atom_site_fract_x
 _atom_site_fract_y
 _atom_site_fract_z
 _atom_site_occupancy
  Na  Na0  1  0.50000000  0.00000000  0.50000000  1
  Na  Na1  1  0.00000000  0.00000000  0.00000000  1
  Sm  Sm2  1  0.07474500  0.77834700  0.74489200  1
  Sm  Sm3  1  0.57474500  0.22165300  0.75510800  1
  Sm  Sm4  1  0.42525500  0.77834700  0.24489200  1
  Sm  Sm5  1  0.92525500  0.22165300  0.25510800  1
  Ir  Ir6  1  0.50000000  0.50000000  0.00000000  1
  Ir  Ir7  1  0.00000000  0.50000000  0.50000000  1
  O  O8  1  0.71731000  0.73414000  0.42617500  1
  O  O9  1  0.21731000  0.26586000  0.07382500  1
  O  O10  1  0.28269000  0.26586000  0.57382500  1
  O  O11  1  0.78269000  0.73414000  0.92617500  1
  O  O12  1  0.05699800  0.60177900  0.26795000  1
  O  O13  1  0.55699800  0.39822100  0.23205000  1
  O  O14  1  0.94300200  0.39822100  0.73205000  1
  O  O15  1  0.44300200  0.60177900  0.76795000  1
  O  O16  1  0.32656700  0.85373800  0.94489400  1
  O  O17  1  0.82656700  0.14626200  0.55510600  1
  O  O18  1  0.67343300  0.14626200  0.05510600  1
  O  O19  1  0.17343300  0.85373800  0.44489400  1
