# generated using pymatgen
data_ErMgS3
_symmetry_space_group_name_H-M   'P 1'
_cell_length_a   6.96213729
_cell_length_b   6.96213729
_cell_length_c   6.65008326
_cell_angle_alpha   76.93160931
_cell_angle_beta   76.93160931
_cell_angle_gamma   119.28046621
_symmetry_Int_Tables_number   1
_chemical_formula_structural   ErMgS3
_chemical_formula_sum   'Er2 Mg2 S6'
_cell_volume   251.45078727
_cell_formula_units_Z   2
loop_
 _symmetry_equiv_pos_site_id
 _symmetry_equiv_pos_as_xyz
  1  'x, y, z'
loop_
 _atom_site_type_symbol
 _atom_site_label
 _atom_site_symmetry_multiplicity
 _atom_site_fract_x
 _atom_site_fract_y
 _atom_site_fract_z
 _atom_site_occupancy
  Er  Er0  1  0.19755600  0.19755600  0.67768800  1
  Er  Er1  1  0.80244400  0.80244400  0.32231200  1
  Mg  Mg2  1  0.33789900  0.66210100  0.00000000  1
  Mg  Mg3  1  0.66210100  0.33789900  0.00000000  1
  S  S4  1  0.11446600  0.77744800  0.80039300  1
  S  S5  1  0.88553400  0.22255200  0.19960700  1
  S  S6  1  0.22255200  0.88553400  0.19960700  1
  S  S7  1  0.77744800  0.11446600  0.80039300  1
  S  S8  1  0.46766900  0.46766900  0.25696100  1
  S  S9  1  0.53233100  0.53233100  0.74303900  1
