# generated using pymatgen
data_Sm2MgS4
_symmetry_space_group_name_H-M   'P 1'
_cell_length_a   3.93149500
_cell_length_b   12.83882700
_cell_length_c   13.81245000
_cell_angle_alpha   90.00000000
_cell_angle_beta   90.00000000
_cell_angle_gamma   90.00000000
_symmetry_Int_Tables_number   1
_chemical_formula_structural   Sm2MgS4
_chemical_formula_sum   'Sm8 Mg4 S16'
_cell_volume   697.19424487
_cell_formula_units_Z   4
loop_
 _symmetry_equiv_pos_site_id
 _symmetry_equiv_pos_as_xyz
  1  'x, y, z'
loop_
 _atom_site_type_symbol
 _atom_site_label
 _atom_site_symmetry_multiplicity
 _atom_site_fract_x
 _atom_site_fract_y
 _atom_site_fract_z
 _atom_site_occupancy
  Sm  Sm0  1  0.25000000  0.12062200  0.07447800  1
  Sm  Sm1  1  0.75000000  0.87937800  0.92552200  1
  Sm  Sm2  1  0.75000000  0.37937800  0.57447800  1
  Sm  Sm3  1  0.25000000  0.62062200  0.42552200  1
  Sm  Sm4  1  0.25000000  0.13399900  0.70689500  1
  Sm  Sm5  1  0.75000000  0.86600100  0.29310500  1
  Sm  Sm6  1  0.75000000  0.36600100  0.20689500  1
  Sm  Sm7  1  0.25000000  0.63399900  0.79310500  1
  Mg  Mg8  1  0.75000000  0.10789200  0.45938700  1
  Mg  Mg9  1  0.25000000  0.89210800  0.54061300  1
  Mg  Mg10  1  0.25000000  0.39210800  0.95938700  1
  Mg  Mg11  1  0.75000000  0.60789200  0.04061300  1
  S  S12  1  0.75000000  0.00320900  0.61430200  1
  S  S13  1  0.25000000  0.99679100  0.38569800  1
  S  S14  1  0.25000000  0.49679100  0.11430200  1
  S  S15  1  0.75000000  0.50320900  0.88569800  1
  S  S16  1  0.25000000  0.02538900  0.88475600  1
  S  S17  1  0.75000000  0.97461100  0.11524400  1
  S  S18  1  0.75000000  0.47461100  0.38475600  1
  S  S19  1  0.25000000  0.52538900  0.61524400  1
  S  S20  1  0.25000000  0.22862900  0.24598200  1
  S  S21  1  0.75000000  0.77137100  0.75401800  1
  S  S22  1  0.75000000  0.27137100  0.74598200  1
  S  S23  1  0.25000000  0.72862900  0.25401800  1
  S  S24  1  0.75000000  0.26711300  0.01628000  1
  S  S25  1  0.25000000  0.73288700  0.98372000  1
  S  S26  1  0.25000000  0.23288700  0.51628000  1
  S  S27  1  0.75000000  0.76711300  0.48372000  1
