# generated using pymatgen
data_Sm2MgS4
_symmetry_space_group_name_H-M   'P 1'
_cell_length_a   8.12326200
_cell_length_b   7.27660800
_cell_length_c   11.64681400
_cell_angle_alpha   90.00000000
_cell_angle_beta   90.00000000
_cell_angle_gamma   90.00000000
_symmetry_Int_Tables_number   1
_chemical_formula_structural   Sm2MgS4
_chemical_formula_sum   'Sm8 Mg4 S16'
_cell_volume   688.44076762
_cell_formula_units_Z   4
loop_
 _symmetry_equiv_pos_site_id
 _symmetry_equiv_pos_as_xyz
  1  'x, y, z'
loop_
 _atom_site_type_symbol
 _atom_site_label
 _atom_site_symmetry_multiplicity
 _atom_site_fract_x
 _atom_site_fract_y
 _atom_site_fract_z
 _atom_site_occupancy
  Sm  Sm0  1  0.03492400  0.75000000  0.31160100  1
  Sm  Sm1  1  0.96507600  0.25000000  0.68839900  1
  Sm  Sm2  1  0.46507600  0.25000000  0.81160100  1
  Sm  Sm3  1  0.53492400  0.75000000  0.18839900  1
  Sm  Sm4  1  0.08044400  0.25000000  0.02834500  1
  Sm  Sm5  1  0.91955600  0.75000000  0.97165500  1
  Sm  Sm6  1  0.41955600  0.75000000  0.52834500  1
  Sm  Sm7  1  0.58044400  0.25000000  0.47165500  1
  Mg  Mg8  1  0.18698100  0.25000000  0.41257000  1
  Mg  Mg9  1  0.81301900  0.75000000  0.58743000  1
  Mg  Mg10  1  0.31301900  0.75000000  0.91257000  1
  Mg  Mg11  1  0.68698100  0.25000000  0.08743000  1
  S  S12  1  0.13743100  0.49831000  0.84471600  1
  S  S13  1  0.86256900  0.50169000  0.15528400  1
  S  S14  1  0.36256900  0.50169000  0.34471600  1
  S  S15  1  0.63743100  0.49831000  0.65528400  1
  S  S16  1  0.63743100  0.00169000  0.65528400  1
  S  S17  1  0.36256900  0.99831000  0.34471600  1
  S  S18  1  0.86256900  0.99831000  0.15528400  1
  S  S19  1  0.13743100  0.00169000  0.84471600  1
  S  S20  1  0.90497500  0.25000000  0.45046900  1
  S  S21  1  0.09502500  0.75000000  0.54953100  1
  S  S22  1  0.59502500  0.75000000  0.95046900  1
  S  S23  1  0.40497500  0.25000000  0.04953100  1
  S  S24  1  0.21211000  0.75000000  0.10901800  1
  S  S25  1  0.78789000  0.25000000  0.89098200  1
  S  S26  1  0.28789000  0.25000000  0.60901800  1
  S  S27  1  0.71211000  0.75000000  0.39098200  1
