# generated using pymatgen
data_La2MgS4
_symmetry_space_group_name_H-M   'P 1'
_cell_length_a   7.77313141
_cell_length_b   9.06138367
_cell_length_c   11.97803270
_cell_angle_alpha   78.88309158
_cell_angle_beta   82.98438206
_cell_angle_gamma   90.38030735
_symmetry_Int_Tables_number   1
_chemical_formula_structural   La2MgS4
_chemical_formula_sum   'La8 Mg4 S16'
_cell_volume   821.25274177
_cell_formula_units_Z   4
loop_
 _symmetry_equiv_pos_site_id
 _symmetry_equiv_pos_as_xyz
  1  'x, y, z'
loop_
 _atom_site_type_symbol
 _atom_site_label
 _atom_site_symmetry_multiplicity
 _atom_site_fract_x
 _atom_site_fract_y
 _atom_site_fract_z
 _atom_site_occupancy
  La  La0  1  0.13368600  0.70366100  0.65990900  1
  La  La1  1  0.86631400  0.29633900  0.34009100  1
  La  La2  1  0.24758100  0.86600000  0.99933100  1
  La  La3  1  0.75241900  0.13400000  0.00066900  1
  La  La4  1  0.36713000  0.55076100  0.33734600  1
  La  La5  1  0.63287000  0.44923900  0.66265400  1
  La  La6  1  0.35843400  0.03084700  0.34256300  1
  La  La7  1  0.64156600  0.96915300  0.65743700  1
  Mg  Mg8  1  0.14221600  0.20550600  0.68586500  1
  Mg  Mg9  1  0.85778400  0.79449400  0.31413500  1
  Mg  Mg10  1  0.24720100  0.37645600  0.98973900  1
  Mg  Mg11  1  0.75279900  0.62354400  0.01026100  1
  S  S12  1  0.09481300  0.63923100  0.89202400  1
  S  S13  1  0.90518700  0.36076900  0.10797600  1
  S  S14  1  0.11824200  0.16664000  0.89226000  1
  S  S15  1  0.88175800  0.83336000  0.10774000  1
  S  S16  1  0.14696300  0.77596000  0.38546200  1
  S  S17  1  0.85303700  0.22404000  0.61453800  1
  S  S18  1  0.19846600  0.27894400  0.38598400  1
  S  S19  1  0.80153400  0.72105600  0.61401600  1
  S  S20  1  0.29650100  0.98913000  0.61815700  1
  S  S21  1  0.70349900  0.01087000  0.38184300  1
  S  S22  1  0.29912100  0.45137000  0.60373100  1
  S  S23  1  0.70087900  0.54863000  0.39626900  1
  S  S24  1  0.38932500  0.09966600  0.11003600  1
  S  S25  1  0.61067500  0.90033400  0.88996400  1
  S  S26  1  0.40839300  0.58849900  0.10526700  1
  S  S27  1  0.59160700  0.41150100  0.89473300  1
