# generated using pymatgen
data_La2MgS4
_symmetry_space_group_name_H-M   'P 1'
_cell_length_a   4.04206300
_cell_length_b   13.24787300
_cell_length_c   14.14277200
_cell_angle_alpha   90.00000000
_cell_angle_beta   90.00000000
_cell_angle_gamma   90.00000000
_symmetry_Int_Tables_number   1
_chemical_formula_structural   La2MgS4
_chemical_formula_sum   'La8 Mg4 S16'
_cell_volume   757.32758227
_cell_formula_units_Z   4
loop_
 _symmetry_equiv_pos_site_id
 _symmetry_equiv_pos_as_xyz
  1  'x, y, z'
loop_
 _atom_site_type_symbol
 _atom_site_label
 _atom_site_symmetry_multiplicity
 _atom_site_fract_x
 _atom_site_fract_y
 _atom_site_fract_z
 _atom_site_occupancy
  La  La0  1  0.25000000  0.12428800  0.07546700  1
  La  La1  1  0.75000000  0.87571200  0.92453300  1
  La  La2  1  0.75000000  0.37571200  0.57546700  1
  La  La3  1  0.25000000  0.62428800  0.42453300  1
  La  La4  1  0.25000000  0.12821300  0.71004700  1
  La  La5  1  0.75000000  0.87178700  0.28995300  1
  La  La6  1  0.75000000  0.37178700  0.21004700  1
  La  La7  1  0.25000000  0.62821300  0.78995300  1
  Mg  Mg8  1  0.75000000  0.10461500  0.46496100  1
  Mg  Mg9  1  0.25000000  0.89538500  0.53503900  1
  Mg  Mg10  1  0.25000000  0.39538500  0.96496100  1
  Mg  Mg11  1  0.75000000  0.60461500  0.03503900  1
  S  S12  1  0.75000000  0.99901400  0.61320200  1
  S  S13  1  0.25000000  0.00098600  0.38679800  1
  S  S14  1  0.25000000  0.50098600  0.11320200  1
  S  S15  1  0.75000000  0.49901400  0.88679800  1
  S  S16  1  0.25000000  0.02250000  0.88889100  1
  S  S17  1  0.75000000  0.97750000  0.11110900  1
  S  S18  1  0.75000000  0.47750000  0.38889100  1
  S  S19  1  0.25000000  0.52250000  0.61110900  1
  S  S20  1  0.25000000  0.23442900  0.24571100  1
  S  S21  1  0.75000000  0.76557100  0.75428900  1
  S  S22  1  0.75000000  0.26557100  0.74571100  1
  S  S23  1  0.25000000  0.73442900  0.25428900  1
  S  S24  1  0.75000000  0.27316100  0.01873500  1
  S  S25  1  0.25000000  0.72683900  0.98126500  1
  S  S26  1  0.25000000  0.22683900  0.51873500  1
  S  S27  1  0.75000000  0.77316100  0.48126500  1
