# generated using pymatgen
data_Tb2MgSe4
_symmetry_space_group_name_H-M   'P 1'
_cell_length_a   7.93759700
_cell_length_b   13.28663500
_cell_length_c   13.48762000
_cell_angle_alpha   90.00000000
_cell_angle_beta   90.00000000
_cell_angle_gamma   90.00000000
_symmetry_Int_Tables_number   1
_chemical_formula_structural   Tb2MgSe4
_chemical_formula_sum   'Tb16 Mg8 Se32'
_cell_volume   1422.45773682
_cell_formula_units_Z   8
loop_
 _symmetry_equiv_pos_site_id
 _symmetry_equiv_pos_as_xyz
  1  'x, y, z'
loop_
 _atom_site_type_symbol
 _atom_site_label
 _atom_site_symmetry_multiplicity
 _atom_site_fract_x
 _atom_site_fract_y
 _atom_site_fract_z
 _atom_site_occupancy
  Tb  Tb0  1  0.88240300  0.10776300  0.68587700  1
  Tb  Tb1  1  0.11759700  0.89223700  0.18587700  1
  Tb  Tb2  1  0.88240300  0.39223700  0.18587700  1
  Tb  Tb3  1  0.11759700  0.60776300  0.68587700  1
  Tb  Tb4  1  0.38095600  0.12771800  0.32634700  1
  Tb  Tb5  1  0.61904400  0.87228200  0.82634700  1
  Tb  Tb6  1  0.38095600  0.37228200  0.82634700  1
  Tb  Tb7  1  0.61904400  0.62771800  0.32634700  1
  Tb  Tb8  1  0.62836700  0.13321300  0.99079200  1
  Tb  Tb9  1  0.37163300  0.86678700  0.49079200  1
  Tb  Tb10  1  0.62836700  0.36678700  0.49079200  1
  Tb  Tb11  1  0.37163300  0.63321300  0.99079200  1
  Tb  Tb12  1  0.12873900  0.13334300  0.99145700  1
  Tb  Tb13  1  0.87126100  0.86665700  0.49145700  1
  Tb  Tb14  1  0.12873900  0.36665700  0.49145700  1
  Tb  Tb15  1  0.87126100  0.63334300  0.99145700  1
  Mg  Mg16  1  0.38165600  0.11083100  0.69076600  1
  Mg  Mg17  1  0.61834400  0.88916900  0.19076600  1
  Mg  Mg18  1  0.38165600  0.38916900  0.19076600  1
  Mg  Mg19  1  0.61834400  0.61083100  0.69076600  1
  Mg  Mg20  1  0.87811200  0.12646400  0.32079900  1
  Mg  Mg21  1  0.12188800  0.87353600  0.82079900  1
  Mg  Mg22  1  0.87811200  0.37353600  0.82079900  1
  Mg  Mg23  1  0.12188800  0.62646400  0.32079900  1
  Se  Se24  1  0.87769700  0.01262700  0.87817000  1
  Se  Se25  1  0.12230300  0.98737300  0.37817000  1
  Se  Se26  1  0.87769700  0.48737300  0.37817000  1
  Se  Se27  1  0.12230300  0.51262700  0.87817000  1
  Se  Se28  1  0.37747600  0.03390900  0.12977300  1
  Se  Se29  1  0.62252400  0.96609100  0.62977300  1
  Se  Se30  1  0.37747600  0.46609100  0.62977300  1
  Se  Se31  1  0.62252400  0.53390900  0.12977300  1
  Se  Se32  1  0.37251900  0.02157800  0.86852500  1
  Se  Se33  1  0.62748100  0.97842200  0.36852500  1
  Se  Se34  1  0.37251900  0.47842200  0.36852500  1
  Se  Se35  1  0.62748100  0.52157800  0.86852500  1
  Se  Se36  1  0.87218800  0.04264100  0.13667700  1
  Se  Se37  1  0.12781200  0.95735900  0.63667700  1
  Se  Se38  1  0.87218800  0.45735900  0.63667700  1
  Se  Se39  1  0.12781200  0.54264100  0.13667700  1
  Se  Se40  1  0.87929300  0.21127800  0.50235200  1
  Se  Se41  1  0.12070700  0.78872200  0.00235200  1
  Se  Se42  1  0.87929300  0.28872200  0.00235200  1
  Se  Se43  1  0.12070700  0.71127800  0.50235200  1
  Se  Se44  1  0.37958800  0.21196000  0.51951100  1
  Se  Se45  1  0.62041200  0.78804000  0.01951100  1
  Se  Se46  1  0.37958800  0.28804000  0.01951100  1
  Se  Se47  1  0.62041200  0.71196000  0.51951100  1
  Se  Se48  1  0.12761200  0.23166600  0.77751100  1
  Se  Se49  1  0.87238800  0.76833400  0.27751100  1
  Se  Se50  1  0.12761200  0.26833400  0.27751100  1
  Se  Se51  1  0.87238800  0.73166600  0.77751100  1
  Se  Se52  1  0.63158300  0.23035100  0.77844400  1
  Se  Se53  1  0.36841700  0.76964900  0.27844400  1
  Se  Se54  1  0.63158300  0.26964900  0.27844400  1
  Se  Se55  1  0.36841700  0.73035100  0.77844400  1
