# generated using pymatgen
data_Tm2MgS4
_symmetry_space_group_name_H-M   'P 1'
_cell_length_a   7.14770600
_cell_length_b   8.26201347
_cell_length_c   12.86334967
_cell_angle_alpha   99.39390819
_cell_angle_beta   95.51769166
_cell_angle_gamma   90.01932741
_symmetry_Int_Tables_number   1
_chemical_formula_structural   Tm2MgS4
_chemical_formula_sum   'Tm8 Mg4 S16'
_cell_volume   745.87889449
_cell_formula_units_Z   4
loop_
 _symmetry_equiv_pos_site_id
 _symmetry_equiv_pos_as_xyz
  1  'x, y, z'
loop_
 _atom_site_type_symbol
 _atom_site_label
 _atom_site_symmetry_multiplicity
 _atom_site_fract_x
 _atom_site_fract_y
 _atom_site_fract_z
 _atom_site_occupancy
  Tm  Tm0  1  0.86450900  0.29966300  0.69535900  1
  Tm  Tm1  1  0.13549100  0.70033700  0.30464100  1
  Tm  Tm2  1  0.75844100  0.12684000  0.00065600  1
  Tm  Tm3  1  0.24155900  0.87316000  0.99934400  1
  Tm  Tm4  1  0.63205500  0.44522100  0.30301800  1
  Tm  Tm5  1  0.36794500  0.55477900  0.69698200  1
  Tm  Tm6  1  0.63303200  0.95640100  0.30613200  1
  Tm  Tm7  1  0.36696800  0.04359900  0.69386800  1
  Mg  Mg8  1  0.86657800  0.79992000  0.70062400  1
  Mg  Mg9  1  0.13342200  0.20008000  0.29937600  1
  Mg  Mg10  1  0.75085300  0.62318700  0.99649100  1
  Mg  Mg11  1  0.24914700  0.37681300  0.00350900  1
  S  S12  1  0.90376600  0.35252100  0.89582700  1
  S  S13  1  0.09623400  0.64747900  0.10417300  1
  S  S14  1  0.89465300  0.84639000  0.89303300  1
  S  S15  1  0.10534700  0.15361000  0.10696700  1
  S  S16  1  0.82670600  0.21856800  0.37202100  1
  S  S17  1  0.17329400  0.78143200  0.62797900  1
  S  S18  1  0.80916300  0.71800700  0.37417800  1
  S  S19  1  0.19083700  0.28199300  0.62582200  1
  S  S20  1  0.69455800  0.02318700  0.62905000  1
  S  S21  1  0.30544200  0.97681300  0.37095000  1
  S  S22  1  0.69329700  0.54139900  0.62926800  1
  S  S23  1  0.30670300  0.45860100  0.37073200  1
  S  S24  1  0.60336600  0.89926700  0.10501400  1
  S  S25  1  0.39663400  0.10073300  0.89498600  1
  S  S26  1  0.59789500  0.40518200  0.10278700  1
  S  S27  1  0.40210500  0.59481800  0.89721300  1
