# generated using pymatgen
data_Mg(ScS2)2
_symmetry_space_group_name_H-M   'P 1'
_cell_length_a   12.81033700
_cell_length_b   7.47664300
_cell_length_c   6.32674100
_cell_angle_alpha   90.00000000
_cell_angle_beta   90.00000000
_cell_angle_gamma   90.00000000
_symmetry_Int_Tables_number   1
_chemical_formula_structural   Mg(ScS2)2
_chemical_formula_sum   'Mg4 Sc8 S16'
_cell_volume   605.96460165
_cell_formula_units_Z   4
loop_
 _symmetry_equiv_pos_site_id
 _symmetry_equiv_pos_as_xyz
  1  'x, y, z'
loop_
 _atom_site_type_symbol
 _atom_site_label
 _atom_site_symmetry_multiplicity
 _atom_site_fract_x
 _atom_site_fract_y
 _atom_site_fract_z
 _atom_site_occupancy
  Mg  Mg0  1  0.09411000  0.25000000  0.92625300  1
  Mg  Mg1  1  0.90589000  0.75000000  0.07374700  1
  Mg  Mg2  1  0.40589000  0.75000000  0.42625300  1
  Mg  Mg3  1  0.59411000  0.25000000  0.57374700  1
  Sc  Sc4  1  0.00000000  0.00000000  0.50000000  1
  Sc  Sc5  1  0.50000000  0.00000000  0.00000000  1
  Sc  Sc6  1  0.50000000  0.50000000  0.00000000  1
  Sc  Sc7  1  0.00000000  0.50000000  0.50000000  1
  Sc  Sc8  1  0.23407900  0.75000000  0.00280200  1
  Sc  Sc9  1  0.76592100  0.25000000  0.99719800  1
  Sc  Sc10  1  0.26592100  0.25000000  0.50280200  1
  Sc  Sc11  1  0.73407900  0.75000000  0.49719800  1
  S  S12  1  0.16966800  0.99851400  0.73438900  1
  S  S13  1  0.83033200  0.00148600  0.26561100  1
  S  S14  1  0.33033200  0.00148600  0.23438900  1
  S  S15  1  0.66966800  0.99851400  0.76561100  1
  S  S16  1  0.66966800  0.50148600  0.76561100  1
  S  S17  1  0.33033200  0.49851400  0.23438900  1
  S  S18  1  0.83033200  0.49851400  0.26561100  1
  S  S19  1  0.16966800  0.50148600  0.73438900  1
  S  S20  1  0.07662300  0.75000000  0.25496300  1
  S  S21  1  0.92337700  0.25000000  0.74503700  1
  S  S22  1  0.42337700  0.25000000  0.75496300  1
  S  S23  1  0.57662300  0.75000000  0.24503700  1
  S  S24  1  0.09127500  0.25000000  0.30229400  1
  S  S25  1  0.90872500  0.75000000  0.69770600  1
  S  S26  1  0.40872500  0.75000000  0.80229400  1
  S  S27  1  0.59127500  0.25000000  0.19770600  1
