# generated using pymatgen
data_Yb2MgSe4
_symmetry_space_group_name_H-M   'P 1'
_cell_length_a   14.64105300
_cell_length_b   4.07669700
_cell_length_c   12.29522400
_cell_angle_alpha   90.00000000
_cell_angle_beta   90.00000000
_cell_angle_gamma   90.00000000
_symmetry_Int_Tables_number   1
_chemical_formula_structural   Yb2MgSe4
_chemical_formula_sum   'Yb8 Mg4 Se16'
_cell_volume   733.86671739
_cell_formula_units_Z   4
loop_
 _symmetry_equiv_pos_site_id
 _symmetry_equiv_pos_as_xyz
  1  'x, y, z'
loop_
 _atom_site_type_symbol
 _atom_site_label
 _atom_site_symmetry_multiplicity
 _atom_site_fract_x
 _atom_site_fract_y
 _atom_site_fract_z
 _atom_site_occupancy
  Yb  Yb0  1  0.11752000  0.25000000  0.07276900  1
  Yb  Yb1  1  0.88248000  0.75000000  0.92723100  1
  Yb  Yb2  1  0.38248000  0.75000000  0.57276900  1
  Yb  Yb3  1  0.61752000  0.25000000  0.42723100  1
  Yb  Yb4  1  0.13107300  0.25000000  0.70726300  1
  Yb  Yb5  1  0.86892700  0.75000000  0.29273700  1
  Yb  Yb6  1  0.36892700  0.75000000  0.20726300  1
  Yb  Yb7  1  0.63107300  0.25000000  0.79273700  1
  Mg  Mg8  1  0.10084600  0.75000000  0.43831700  1
  Mg  Mg9  1  0.89915400  0.25000000  0.56168300  1
  Mg  Mg10  1  0.39915500  0.25000000  0.93831700  1
  Mg  Mg11  1  0.60084600  0.75000000  0.06168300  1
  Se  Se12  1  0.00693800  0.75000000  0.62592400  1
  Se  Se13  1  0.99306200  0.25000000  0.37407600  1
  Se  Se14  1  0.49306200  0.25000000  0.12592400  1
  Se  Se15  1  0.50693800  0.75000000  0.87407600  1
  Se  Se16  1  0.00964500  0.25000000  0.88047600  1
  Se  Se17  1  0.99035500  0.75000000  0.11952400  1
  Se  Se18  1  0.49035500  0.75000000  0.38047600  1
  Se  Se19  1  0.50964500  0.25000000  0.61952400  1
  Se  Se20  1  0.23559400  0.25000000  0.27267400  1
  Se  Se21  1  0.76440600  0.75000000  0.72732600  1
  Se  Se22  1  0.26440600  0.75000000  0.77267400  1
  Se  Se23  1  0.73559400  0.25000000  0.22732600  1
  Se  Se24  1  0.26417100  0.75000000  0.98828100  1
  Se  Se25  1  0.73582900  0.25000000  0.01171900  1
  Se  Se26  1  0.23582900  0.25000000  0.48828100  1
  Se  Se27  1  0.76417100  0.75000000  0.51171900  1
