# generated using pymatgen
data_MgScS3
_symmetry_space_group_name_H-M   'P 1'
_cell_length_a   6.45091000
_cell_length_b   6.45091005
_cell_length_c   17.54988000
_cell_angle_alpha   90.00000000
_cell_angle_beta   90.00000000
_cell_angle_gamma   119.99999972
_symmetry_Int_Tables_number   1
_chemical_formula_structural   MgScS3
_chemical_formula_sum   'Mg6 Sc6 S18'
_cell_volume   632.47993672
_cell_formula_units_Z   6
loop_
 _symmetry_equiv_pos_site_id
 _symmetry_equiv_pos_as_xyz
  1  'x, y, z'
loop_
 _atom_site_type_symbol
 _atom_site_label
 _atom_site_symmetry_multiplicity
 _atom_site_fract_x
 _atom_site_fract_y
 _atom_site_fract_z
 _atom_site_occupancy
  Mg  Mg0  1  0.00000000  0.00000000  0.15029300  1
  Mg  Mg1  1  0.00000000  0.00000000  0.84970700  1
  Mg  Mg2  1  0.66666700  0.33333300  0.48362600  1
  Mg  Mg3  1  0.66666700  0.33333300  0.18304000  1
  Mg  Mg4  1  0.33333300  0.66666700  0.81696000  1
  Mg  Mg5  1  0.33333300  0.66666700  0.51637400  1
  Sc  Sc6  1  0.00000000  0.00000000  0.34119400  1
  Sc  Sc7  1  0.00000000  0.00000000  0.65880600  1
  Sc  Sc8  1  0.66666700  0.33333300  0.67452700  1
  Sc  Sc9  1  0.66666700  0.33333300  0.99213900  1
  Sc  Sc10  1  0.33333300  0.66666700  0.00786100  1
  Sc  Sc11  1  0.33333300  0.66666700  0.32547300  1
  S  S12  1  0.97698300  0.32559400  0.58296100  1
  S  S13  1  0.02301700  0.67440600  0.41703900  1
  S  S14  1  0.67440600  0.65138900  0.58296100  1
  S  S15  1  0.32559400  0.34861100  0.41703900  1
  S  S16  1  0.34861100  0.02301700  0.58296100  1
  S  S17  1  0.65138900  0.97698300  0.41703900  1
  S  S18  1  0.64365000  0.65892700  0.91629400  1
  S  S19  1  0.68968400  0.00773900  0.75037200  1
  S  S20  1  0.34107300  0.98472200  0.91629400  1
  S  S21  1  0.99226100  0.68194400  0.75037200  1
  S  S22  1  0.01527800  0.35635000  0.91629400  1
  S  S23  1  0.31805600  0.31031600  0.75037200  1
  S  S24  1  0.31031600  0.99226100  0.24962800  1
  S  S25  1  0.35635000  0.34107300  0.08370600  1
  S  S26  1  0.00773900  0.31805600  0.24962800  1
  S  S27  1  0.65892700  0.01527800  0.08370600  1
  S  S28  1  0.68194400  0.68968400  0.24962800  1
  S  S29  1  0.98472200  0.64365000  0.08370600  1
