# generated using pymatgen
data_Pm2MgSe4
_symmetry_space_group_name_H-M   'P 1'
_cell_length_a   13.40231600
_cell_length_b   4.10934400
_cell_length_c   14.52664900
_cell_angle_alpha   90.00000000
_cell_angle_beta   90.00000000
_cell_angle_gamma   90.00000000
_symmetry_Int_Tables_number   1
_chemical_formula_structural   Pm2MgSe4
_chemical_formula_sum   'Pm8 Mg4 Se16'
_cell_volume   800.05122559
_cell_formula_units_Z   4
loop_
 _symmetry_equiv_pos_site_id
 _symmetry_equiv_pos_as_xyz
  1  'x, y, z'
loop_
 _atom_site_type_symbol
 _atom_site_label
 _atom_site_symmetry_multiplicity
 _atom_site_fract_x
 _atom_site_fract_y
 _atom_site_fract_z
 _atom_site_occupancy
  Pm  Pm0  1  0.11815400  0.25000000  0.07347900  1
  Pm  Pm1  1  0.88184600  0.75000000  0.92652100  1
  Pm  Pm2  1  0.38184600  0.75000000  0.57347900  1
  Pm  Pm3  1  0.61815400  0.25000000  0.42652100  1
  Pm  Pm4  1  0.13772300  0.25000000  0.70434500  1
  Pm  Pm5  1  0.86227700  0.75000000  0.29565500  1
  Pm  Pm6  1  0.36227700  0.75000000  0.20434500  1
  Pm  Pm7  1  0.63772300  0.25000000  0.79565500  1
  Mg  Mg8  1  0.10774000  0.75000000  0.46022600  1
  Mg  Mg9  1  0.89226000  0.25000000  0.53977400  1
  Mg  Mg10  1  0.39226000  0.25000000  0.96022600  1
  Mg  Mg11  1  0.60774000  0.75000000  0.03977400  1
  Se  Se12  1  0.00179200  0.75000000  0.61569200  1
  Se  Se13  1  0.99820800  0.25000000  0.38430800  1
  Se  Se14  1  0.49820800  0.25000000  0.11569200  1
  Se  Se15  1  0.50179200  0.75000000  0.88430800  1
  Se  Se16  1  0.02807800  0.25000000  0.88284700  1
  Se  Se17  1  0.97192200  0.75000000  0.11715300  1
  Se  Se18  1  0.47192200  0.75000000  0.38284700  1
  Se  Se19  1  0.52807800  0.25000000  0.61715300  1
  Se  Se20  1  0.22434300  0.25000000  0.24688200  1
  Se  Se21  1  0.77565700  0.75000000  0.75311800  1
  Se  Se22  1  0.27565700  0.75000000  0.74688200  1
  Se  Se23  1  0.72434300  0.25000000  0.25311800  1
  Se  Se24  1  0.26508300  0.75000000  0.01438600  1
  Se  Se25  1  0.73491700  0.25000000  0.98561400  1
  Se  Se26  1  0.23491700  0.25000000  0.51438600  1
  Se  Se27  1  0.76508300  0.75000000  0.48561400  1
