# generated using pymatgen
data_Mg2VP3O11
_symmetry_space_group_name_H-M   'P 1'
_cell_length_a   7.17623100
_cell_length_b   6.32767100
_cell_length_c   18.50883722
_cell_angle_alpha   81.21145506
_cell_angle_beta   90.00000000
_cell_angle_gamma   90.00000000
_symmetry_Int_Tables_number   1
_chemical_formula_structural   Mg2VP3O11
_chemical_formula_sum   'Mg8 V4 P12 O44'
_cell_volume   830.59668159
_cell_formula_units_Z   4
loop_
 _symmetry_equiv_pos_site_id
 _symmetry_equiv_pos_as_xyz
  1  'x, y, z'
loop_
 _atom_site_type_symbol
 _atom_site_label
 _atom_site_symmetry_multiplicity
 _atom_site_fract_x
 _atom_site_fract_y
 _atom_site_fract_z
 _atom_site_occupancy
  Mg  Mg0  1  0.09621800  0.39421400  0.57597600  1
  Mg  Mg1  1  0.59621800  0.60578600  0.92402400  1
  Mg  Mg2  1  0.90378200  0.60578600  0.42402400  1
  Mg  Mg3  1  0.40378200  0.39421400  0.07597600  1
  Mg  Mg4  1  0.45650000  0.34848700  0.72775600  1
  Mg  Mg5  1  0.95650000  0.65151300  0.77224400  1
  Mg  Mg6  1  0.54350000  0.65151300  0.27224400  1
  Mg  Mg7  1  0.04350000  0.34848700  0.22775600  1
  V  V8  1  0.66085300  0.06117900  0.62483400  1
  V  V9  1  0.16085300  0.93882100  0.87516600  1
  V  V10  1  0.33914700  0.93882100  0.37516600  1
  V  V11  1  0.83914700  0.06117900  0.12483400  1
  P  P12  1  0.68420500  0.59247100  0.58788300  1
  P  P13  1  0.18420500  0.40752900  0.91211700  1
  P  P14  1  0.31579500  0.40752900  0.41211700  1
  P  P15  1  0.81579500  0.59247100  0.08788300  1
  P  P16  1  0.33119600  0.82292000  0.55395500  1
  P  P17  1  0.83119600  0.17708000  0.94604500  1
  P  P18  1  0.66880400  0.17708000  0.44604500  1
  P  P19  1  0.16880400  0.82292000  0.05395500  1
  P  P20  1  0.53156400  0.81081900  0.78352500  1
  P  P21  1  0.03156400  0.18918100  0.71647500  1
  P  P22  1  0.46843600  0.18918100  0.21647500  1
  P  P23  1  0.96843600  0.81081900  0.28352500  1
  O  O24  1  0.40064500  0.00058000  0.59522300  1
  O  O25  1  0.90064500  0.99942000  0.90477700  1
  O  O26  1  0.59935500  0.99942000  0.40477700  1
  O  O27  1  0.09935500  0.00058000  0.09522300  1
  O  O28  1  0.73979600  0.74527300  0.64089800  1
  O  O29  1  0.23979600  0.25472700  0.85910200  1
  O  O30  1  0.26020400  0.25472700  0.35910200  1
  O  O31  1  0.76020400  0.74527300  0.14089800  1
  O  O32  1  0.20121400  0.66618700  0.59792400  1
  O  O33  1  0.70121400  0.33381300  0.90207600  1
  O  O34  1  0.79878600  0.33381300  0.40207600  1
  O  O35  1  0.29878600  0.66618700  0.09792400  1
  O  O36  1  0.60463300  0.38357200  0.63155200  1
  O  O37  1  0.10463300  0.61642800  0.86844800  1
  O  O38  1  0.39536700  0.61642800  0.36844800  1
  O  O39  1  0.89536700  0.38357200  0.13155200  1
  O  O40  1  0.84237600  0.54937900  0.53586000  1
  O  O41  1  0.34237600  0.45062100  0.96414000  1
  O  O42  1  0.15762400  0.45062100  0.46414000  1
  O  O43  1  0.65762400  0.54937900  0.03586000  1
  O  O44  1  0.74648200  0.08965600  0.52144100  1
  O  O45  1  0.24648200  0.91034400  0.97855900  1
  O  O46  1  0.25351800  0.91034400  0.47855900  1
  O  O47  1  0.75351800  0.08965600  0.02144100  1
  O  O48  1  0.52037900  0.69334300  0.53556500  1
  O  O49  1  0.02037900  0.30665700  0.96443500  1
  O  O50  1  0.47962100  0.30665700  0.46443500  1
  O  O51  1  0.97962100  0.69334300  0.03556500  1
  O  O52  1  0.56067500  0.03156500  0.73277800  1
  O  O53  1  0.06067500  0.96843500  0.76722200  1
  O  O54  1  0.43932500  0.96843500  0.26722200  1
  O  O55  1  0.93932500  0.03156500  0.23277800  1
  O  O56  1  0.42677700  0.64549900  0.74697000  1
  O  O57  1  0.92677700  0.35450100  0.75303000  1
  O  O58  1  0.57322300  0.35450100  0.25303000  1
  O  O59  1  0.07322300  0.64549900  0.24697000  1
  O  O60  1  0.92953400  0.14748300  0.64487200  1
  O  O61  1  0.42953400  0.85251700  0.85512800  1
  O  O62  1  0.07046600  0.85251700  0.35512800  1
  O  O63  1  0.57046600  0.14748300  0.14487200  1
  O  O64  1  0.71863500  0.71815800  0.81514300  1
  O  O65  1  0.21863500  0.28184200  0.68485700  1
  O  O66  1  0.28136500  0.28184200  0.18485700  1
  O  O67  1  0.78136500  0.71815800  0.31514300  1
