# generated using pymatgen
data_YbMgSe3
_symmetry_space_group_name_H-M   'P 1'
_cell_length_a   7.68366790
_cell_length_b   12.55097900
_cell_length_c   6.64730883
_cell_angle_alpha   90.00000000
_cell_angle_beta   112.24727618
_cell_angle_gamma   90.00000000
_symmetry_Int_Tables_number   1
_chemical_formula_structural   YbMgSe3
_chemical_formula_sum   'Yb4 Mg4 Se12'
_cell_volume   593.32947069
_cell_formula_units_Z   4
loop_
 _symmetry_equiv_pos_site_id
 _symmetry_equiv_pos_as_xyz
  1  'x, y, z'
loop_
 _atom_site_type_symbol
 _atom_site_label
 _atom_site_symmetry_multiplicity
 _atom_site_fract_x
 _atom_site_fract_y
 _atom_site_fract_z
 _atom_site_occupancy
  Yb  Yb0  1  0.10881700  0.00000000  0.27798300  1
  Yb  Yb1  1  0.89118300  0.00000000  0.72201700  1
  Yb  Yb2  1  0.60881700  0.50000000  0.27798300  1
  Yb  Yb3  1  0.39118300  0.50000000  0.72201700  1
  Mg  Mg4  1  0.00000000  0.36648400  0.00000000  1
  Mg  Mg5  1  0.00000000  0.63351600  0.00000000  1
  Mg  Mg6  1  0.50000000  0.86648400  0.00000000  1
  Mg  Mg7  1  0.50000000  0.13351600  0.00000000  1
  Se  Se8  1  0.28171300  0.20845200  0.17995900  1
  Se  Se9  1  0.71828700  0.79154800  0.82004100  1
  Se  Se10  1  0.71828700  0.20845200  0.82004100  1
  Se  Se11  1  0.28171300  0.79154800  0.17995900  1
  Se  Se12  1  0.78171300  0.70845200  0.17995900  1
  Se  Se13  1  0.21828700  0.29154800  0.82004100  1
  Se  Se14  1  0.21828700  0.70845200  0.82004100  1
  Se  Se15  1  0.78171300  0.29154800  0.17995900  1
  Se  Se16  1  0.26941300  0.00000000  0.72221700  1
  Se  Se17  1  0.73058700  0.00000000  0.27778300  1
  Se  Se18  1  0.76941300  0.50000000  0.72221700  1
  Se  Se19  1  0.23058700  0.50000000  0.27778300  1
