# generated using pymatgen
data_Tm2MgSe4
_symmetry_space_group_name_H-M   'P 1'
_cell_length_a   8.06502200
_cell_length_b   7.72480500
_cell_length_c   11.94541300
_cell_angle_alpha   90.00000000
_cell_angle_beta   90.00000000
_cell_angle_gamma   90.00000000
_symmetry_Int_Tables_number   1
_chemical_formula_structural   Tm2MgSe4
_chemical_formula_sum   'Tm8 Mg4 Se16'
_cell_volume   744.20785772
_cell_formula_units_Z   4
loop_
 _symmetry_equiv_pos_site_id
 _symmetry_equiv_pos_as_xyz
  1  'x, y, z'
loop_
 _atom_site_type_symbol
 _atom_site_label
 _atom_site_symmetry_multiplicity
 _atom_site_fract_x
 _atom_site_fract_y
 _atom_site_fract_z
 _atom_site_occupancy
  Tm  Tm0  1  0.05963800  0.75000000  0.30967000  1
  Tm  Tm1  1  0.94036200  0.25000000  0.69033000  1
  Tm  Tm2  1  0.44036200  0.25000000  0.80967000  1
  Tm  Tm3  1  0.55963800  0.75000000  0.19033000  1
  Tm  Tm4  1  0.05082100  0.25000000  0.01651200  1
  Tm  Tm5  1  0.94917900  0.75000000  0.98348800  1
  Tm  Tm6  1  0.44917900  0.75000000  0.51651200  1
  Tm  Tm7  1  0.55082100  0.25000000  0.48348800  1
  Mg  Mg8  1  0.17189600  0.25000000  0.40090200  1
  Mg  Mg9  1  0.82810400  0.75000000  0.59909800  1
  Mg  Mg10  1  0.32810400  0.75000000  0.90090200  1
  Mg  Mg11  1  0.67189600  0.25000000  0.09909800  1
  Se  Se12  1  0.12062200  0.50520400  0.84099100  1
  Se  Se13  1  0.87937800  0.49479600  0.15900900  1
  Se  Se14  1  0.37937800  0.49479600  0.34099100  1
  Se  Se15  1  0.62062200  0.50520400  0.65900900  1
  Se  Se16  1  0.62062200  0.99479600  0.65900900  1
  Se  Se17  1  0.37937800  0.00520400  0.34099100  1
  Se  Se18  1  0.87937800  0.00520400  0.15900900  1
  Se  Se19  1  0.12062200  0.99479600  0.84099100  1
  Se  Se20  1  0.87959400  0.25000000  0.46009500  1
  Se  Se21  1  0.12040600  0.75000000  0.53990500  1
  Se  Se22  1  0.62040600  0.75000000  0.96009500  1
  Se  Se23  1  0.37959400  0.25000000  0.03990500  1
  Se  Se24  1  0.23737200  0.75000000  0.11322900  1
  Se  Se25  1  0.76262800  0.25000000  0.88677100  1
  Se  Se26  1  0.26262800  0.25000000  0.61322900  1
  Se  Se27  1  0.73737200  0.75000000  0.38677100  1
