# generated using pymatgen
data_La7SmMn4(FeO6)4
_symmetry_space_group_name_H-M   'P 1'
_cell_length_a   7.91599100
_cell_length_b   7.91599100
_cell_length_c   7.85112600
_cell_angle_alpha   90.00000000
_cell_angle_beta   90.00000000
_cell_angle_gamma   90.00000000
_symmetry_Int_Tables_number   1
_chemical_formula_structural   La7SmMn4(FeO6)4
_chemical_formula_sum   'La7 Sm1 Mn4 Fe4 O24'
_cell_volume   491.97442951
_cell_formula_units_Z   1
loop_
 _symmetry_equiv_pos_site_id
 _symmetry_equiv_pos_as_xyz
  1  'x, y, z'
loop_
 _atom_site_type_symbol
 _atom_site_label
 _atom_site_symmetry_multiplicity
 _atom_site_fract_x
 _atom_site_fract_y
 _atom_site_fract_z
 _atom_site_occupancy
  La  La0  1  0.50000000  0.00000000  0.74824100  1
  La  La1  1  0.00000000  0.00000000  0.74821100  1
  La  La2  1  0.50000000  0.00000000  0.25174900  1
  La  La3  1  0.00000000  0.00000000  0.25176700  1
  La  La4  1  0.00000000  0.50000000  0.74824100  1
  La  La5  1  0.50000000  0.50000000  0.25180800  1
  La  La6  1  0.00000000  0.50000000  0.25174900  1
  Sm  Sm7  1  0.50000000  0.50000000  0.74818700  1
  Mn  Mn8  1  0.74977400  0.25022600  0.50020800  1
  Mn  Mn9  1  0.25022600  0.25022600  0.50020800  1
  Mn  Mn10  1  0.74977400  0.74977400  0.50020800  1
  Mn  Mn11  1  0.25022600  0.74977400  0.50020800  1
  Fe  Fe12  1  0.74974400  0.25025600  0.99973900  1
  Fe  Fe13  1  0.25025600  0.25025600  0.99973900  1
  Fe  Fe14  1  0.74974400  0.74974400  0.99973900  1
  Fe  Fe15  1  0.25025600  0.74974400  0.99973900  1
  O  O16  1  0.74996400  0.00000000  0.99995900  1
  O  O17  1  0.25003600  0.00000000  0.99995900  1
  O  O18  1  0.74995400  0.00000000  0.50004200  1
  O  O19  1  0.25004600  0.00000000  0.50004200  1
  O  O20  1  0.74896600  0.50000000  0.99897600  1
  O  O21  1  0.25103400  0.50000000  0.99897600  1
  O  O22  1  0.74887400  0.50000000  0.50112400  1
  O  O23  1  0.25112600  0.50000000  0.50112400  1
  O  O24  1  0.74894500  0.25105500  0.75018900  1
  O  O25  1  0.25105500  0.25105500  0.75018900  1
  O  O26  1  0.74996300  0.25003700  0.24977600  1
  O  O27  1  0.25003700  0.25003700  0.24977600  1
  O  O28  1  0.74894500  0.74894500  0.75018900  1
  O  O29  1  0.25105500  0.74894500  0.75018900  1
  O  O30  1  0.74996300  0.74996300  0.24977600  1
  O  O31  1  0.25003700  0.74996300  0.24977600  1
  O  O32  1  0.50000000  0.25103400  0.99897600  1
  O  O33  1  0.00000000  0.25003600  0.99995900  1
  O  O34  1  0.50000000  0.25112600  0.50112400  1
  O  O35  1  0.00000000  0.25004600  0.50004200  1
  O  O36  1  0.50000000  0.74896600  0.99897600  1
  O  O37  1  0.00000000  0.74996400  0.99995900  1
  O  O38  1  0.50000000  0.74887400  0.50112400  1
  O  O39  1  0.00000000  0.74995400  0.50004200  1
