# generated using pymatgen
data_Sm2MgS4
_symmetry_space_group_name_H-M   'P 1'
_cell_length_a   7.53023622
_cell_length_b   8.81291349
_cell_length_c   11.82886089
_cell_angle_alpha   79.92530034
_cell_angle_beta   83.66231054
_cell_angle_gamma   91.34176534
_symmetry_Int_Tables_number   1
_chemical_formula_structural   Sm2MgS4
_chemical_formula_sum   'Sm8 Mg4 S16'
_cell_volume   767.44205441
_cell_formula_units_Z   4
loop_
 _symmetry_equiv_pos_site_id
 _symmetry_equiv_pos_as_xyz
  1  'x, y, z'
loop_
 _atom_site_type_symbol
 _atom_site_label
 _atom_site_symmetry_multiplicity
 _atom_site_fract_x
 _atom_site_fract_y
 _atom_site_fract_z
 _atom_site_occupancy
  Sm  Sm0  1  0.13649900  0.70677900  0.65785700  1
  Sm  Sm1  1  0.86350100  0.29322100  0.34214300  1
  Sm  Sm2  1  0.24849000  0.87083000  0.99729600  1
  Sm  Sm3  1  0.75151000  0.12917000  0.00270400  1
  Sm  Sm4  1  0.36842000  0.55254400  0.33420000  1
  Sm  Sm5  1  0.63158000  0.44745600  0.66580000  1
  Sm  Sm6  1  0.36120000  0.02727500  0.34694600  1
  Sm  Sm7  1  0.63880000  0.97272500  0.65305400  1
  Mg  Mg8  1  0.13923000  0.20705700  0.68737100  1
  Mg  Mg9  1  0.86077000  0.79294300  0.31262900  1
  Mg  Mg10  1  0.24601500  0.39207400  0.99271700  1
  Mg  Mg11  1  0.75398500  0.60792600  0.00728300  1
  S  S12  1  0.10097800  0.64144000  0.88641500  1
  S  S13  1  0.89902200  0.35856000  0.11358500  1
  S  S14  1  0.11388700  0.16432200  0.89482800  1
  S  S15  1  0.88611300  0.83567800  0.10517200  1
  S  S16  1  0.15131400  0.77018800  0.39388100  1
  S  S17  1  0.84868600  0.22981200  0.60611900  1
  S  S18  1  0.20145000  0.28062700  0.37618200  1
  S  S19  1  0.79855000  0.71937300  0.62381800  1
  S  S20  1  0.29676700  0.99368800  0.60800000  1
  S  S21  1  0.70323300  0.00631200  0.39200000  1
  S  S22  1  0.30115900  0.45647600  0.60372800  1
  S  S23  1  0.69884100  0.54352400  0.39627200  1
  S  S24  1  0.39994600  0.08003300  0.11949900  1
  S  S25  1  0.60005400  0.91996700  0.88050100  1
  S  S26  1  0.40301200  0.59071900  0.10532600  1
  S  S27  1  0.59698800  0.40928100  0.89467400  1
