# generated using pymatgen
data_Eu2MgSe4
_symmetry_space_group_name_H-M   'P 1'
_cell_length_a   6.95367500
_cell_length_b   8.54432200
_cell_length_c   14.53954700
_cell_angle_alpha   90.00000000
_cell_angle_beta   90.00000000
_cell_angle_gamma   90.00000000
_symmetry_Int_Tables_number   1
_chemical_formula_structural   Eu2MgSe4
_chemical_formula_sum   'Eu8 Mg4 Se16'
_cell_volume   863.85901790
_cell_formula_units_Z   4
loop_
 _symmetry_equiv_pos_site_id
 _symmetry_equiv_pos_as_xyz
  1  'x, y, z'
loop_
 _atom_site_type_symbol
 _atom_site_label
 _atom_site_symmetry_multiplicity
 _atom_site_fract_x
 _atom_site_fract_y
 _atom_site_fract_z
 _atom_site_occupancy
  Eu  Eu0  1  0.50000000  0.00000000  0.00000000  1
  Eu  Eu1  1  0.00000000  0.00000000  0.50000000  1
  Eu  Eu2  1  0.00000000  0.50000000  0.50000000  1
  Eu  Eu3  1  0.50000000  0.50000000  0.00000000  1
  Eu  Eu4  1  0.00040900  0.75000000  0.23233800  1
  Eu  Eu5  1  0.99959100  0.25000000  0.76766200  1
  Eu  Eu6  1  0.50040900  0.25000000  0.26766200  1
  Eu  Eu7  1  0.49959100  0.75000000  0.73233800  1
  Mg  Mg8  1  0.92446200  0.25000000  0.09144800  1
  Mg  Mg9  1  0.07553800  0.75000000  0.90855200  1
  Mg  Mg10  1  0.42446200  0.75000000  0.40855200  1
  Mg  Mg11  1  0.57553800  0.25000000  0.59144800  1
  Se  Se12  1  0.75034300  0.01301000  0.16694400  1
  Se  Se13  1  0.24965700  0.98699000  0.83305600  1
  Se  Se14  1  0.25034300  0.98699000  0.33305600  1
  Se  Se15  1  0.74965700  0.01301000  0.66694400  1
  Se  Se16  1  0.74965700  0.48699000  0.66694400  1
  Se  Se17  1  0.25034300  0.51301000  0.33305600  1
  Se  Se18  1  0.24965700  0.51301000  0.83305600  1
  Se  Se19  1  0.75034300  0.48699000  0.16694400  1
  Se  Se20  1  0.24456300  0.75000000  0.06835900  1
  Se  Se21  1  0.75543700  0.25000000  0.93164100  1
  Se  Se22  1  0.74456300  0.25000000  0.43164100  1
  Se  Se23  1  0.25543700  0.75000000  0.56835900  1
  Se  Se24  1  0.28975600  0.25000000  0.09185700  1
  Se  Se25  1  0.71024400  0.75000000  0.90814300  1
  Se  Se26  1  0.78975600  0.75000000  0.40814300  1
  Se  Se27  1  0.21024400  0.25000000  0.59185700  1
