# generated using pymatgen
data_Pm2MgSe4
_symmetry_space_group_name_H-M   'P 1'
_cell_length_a   7.67051900
_cell_length_b   8.91036111
_cell_length_c   13.90936368
_cell_angle_alpha   99.45261420
_cell_angle_beta   95.63815003
_cell_angle_gamma   90.00915666
_symmetry_Int_Tables_number   1
_chemical_formula_structural   Pm2MgSe4
_chemical_formula_sum   'Pm8 Mg4 Se16'
_cell_volume   933.09099003
_cell_formula_units_Z   4
loop_
 _symmetry_equiv_pos_site_id
 _symmetry_equiv_pos_as_xyz
  1  'x, y, z'
loop_
 _atom_site_type_symbol
 _atom_site_label
 _atom_site_symmetry_multiplicity
 _atom_site_fract_x
 _atom_site_fract_y
 _atom_site_fract_z
 _atom_site_occupancy
  Pm  Pm0  1  0.86544100  0.30045000  0.69597400  1
  Pm  Pm1  1  0.13455900  0.69955000  0.30402600  1
  Pm  Pm2  1  0.75778800  0.12903400  0.00083800  1
  Pm  Pm3  1  0.24221200  0.87096600  0.99916200  1
  Pm  Pm4  1  0.63162900  0.44344200  0.30209100  1
  Pm  Pm5  1  0.36837100  0.55655800  0.69790900  1
  Pm  Pm6  1  0.63360400  0.95776200  0.30604100  1
  Pm  Pm7  1  0.36639600  0.04223800  0.69395900  1
  Mg  Mg8  1  0.86584200  0.80012000  0.70344700  1
  Mg  Mg9  1  0.13415800  0.19988000  0.29655300  1
  Mg  Mg10  1  0.75092900  0.62120300  0.99465100  1
  Mg  Mg11  1  0.24907100  0.37879700  0.00534900  1
  Se  Se12  1  0.91110800  0.35881300  0.89884400  1
  Se  Se13  1  0.08889200  0.64118700  0.10115600  1
  Se  Se14  1  0.88806100  0.84081200  0.89166000  1
  Se  Se15  1  0.11193900  0.15918800  0.10834000  1
  Se  Se16  1  0.83757300  0.21975900  0.37446200  1
  Se  Se17  1  0.16242700  0.78024100  0.62553800  1
  Se  Se18  1  0.80810900  0.71887500  0.37964300  1
  Se  Se19  1  0.19189100  0.28112500  0.62035700  1
  Se  Se20  1  0.69972600  0.01619600  0.62730000  1
  Se  Se21  1  0.30027400  0.98380400  0.37270000  1
  Se  Se22  1  0.69701900  0.54688200  0.62634000  1
  Se  Se23  1  0.30298100  0.45311800  0.37366000  1
  Se  Se24  1  0.61026100  0.89152800  0.10298500  1
  Se  Se25  1  0.38973900  0.10847200  0.89701500  1
  Se  Se26  1  0.59187000  0.41050800  0.09977300  1
  Se  Se27  1  0.40813000  0.58949200  0.90022700  1
