# generated using pymatgen
data_Ho2MgSe4
_symmetry_space_group_name_H-M   'P 1'
_cell_length_a   4.00565800
_cell_length_b   13.10396100
_cell_length_c   14.04556500
_cell_angle_alpha   90.00000000
_cell_angle_beta   90.00000000
_cell_angle_gamma   90.00000000
_symmetry_Int_Tables_number   1
_chemical_formula_structural   Ho2MgSe4
_chemical_formula_sum   'Ho8 Mg4 Se16'
_cell_volume   737.25151318
_cell_formula_units_Z   4
loop_
 _symmetry_equiv_pos_site_id
 _symmetry_equiv_pos_as_xyz
  1  'x, y, z'
loop_
 _atom_site_type_symbol
 _atom_site_label
 _atom_site_symmetry_multiplicity
 _atom_site_fract_x
 _atom_site_fract_y
 _atom_site_fract_z
 _atom_site_occupancy
  Ho  Ho0  1  0.25000000  0.11529700  0.07426900  1
  Ho  Ho1  1  0.75000000  0.88470300  0.92573100  1
  Ho  Ho2  1  0.75000000  0.38470300  0.57426900  1
  Ho  Ho3  1  0.25000000  0.61529700  0.42573100  1
  Ho  Ho4  1  0.25000000  0.14321000  0.70285900  1
  Ho  Ho5  1  0.75000000  0.85679000  0.29714100  1
  Ho  Ho6  1  0.75000000  0.35679000  0.20285900  1
  Ho  Ho7  1  0.25000000  0.64321000  0.79714100  1
  Mg  Mg8  1  0.75000000  0.11297300  0.45266800  1
  Mg  Mg9  1  0.25000000  0.88702700  0.54733200  1
  Mg  Mg10  1  0.25000000  0.38702700  0.95266800  1
  Mg  Mg11  1  0.75000000  0.61297300  0.04733200  1
  Se  Se12  1  0.75000000  0.01091400  0.61711900  1
  Se  Se13  1  0.25000000  0.98908600  0.38288100  1
  Se  Se14  1  0.25000000  0.48908600  0.11711900  1
  Se  Se15  1  0.75000000  0.51091400  0.88288100  1
  Se  Se16  1  0.25000000  0.02902600  0.88107000  1
  Se  Se17  1  0.75000000  0.97097400  0.11893000  1
  Se  Se18  1  0.75000000  0.47097400  0.38107000  1
  Se  Se19  1  0.25000000  0.52902600  0.61893000  1
  Se  Se20  1  0.25000000  0.22065800  0.24958200  1
  Se  Se21  1  0.75000000  0.77934200  0.75041800  1
  Se  Se22  1  0.75000000  0.27934200  0.74958200  1
  Se  Se23  1  0.25000000  0.72065800  0.25041800  1
  Se  Se24  1  0.75000000  0.25903700  0.01401100  1
  Se  Se25  1  0.25000000  0.74096300  0.98598900  1
  Se  Se26  1  0.25000000  0.24096300  0.51401100  1
  Se  Se27  1  0.75000000  0.75903700  0.48598900  1
