# generated using pymatgen
data_Na3CuP2H6NO13
_symmetry_space_group_name_H-M   'P 1'
_cell_length_a   7.42363233
_cell_length_b   8.47174800
_cell_length_c   10.10589173
_cell_angle_alpha   90.00000000
_cell_angle_beta   107.51688745
_cell_angle_gamma   90.00000000
_symmetry_Int_Tables_number   1
_chemical_formula_structural   Na3CuP2H6NO13
_chemical_formula_sum   'Na6 Cu2 P4 H12 N2 O26'
_cell_volume   606.09855069
_cell_formula_units_Z   2
loop_
 _symmetry_equiv_pos_site_id
 _symmetry_equiv_pos_as_xyz
  1  'x, y, z'
loop_
 _atom_site_type_symbol
 _atom_site_label
 _atom_site_symmetry_multiplicity
 _atom_site_fract_x
 _atom_site_fract_y
 _atom_site_fract_z
 _atom_site_occupancy
  Na  Na0  1  0.96169900  0.46577600  0.17737700  1
  Na  Na1  1  0.03830100  0.96577600  0.82262300  1
  Na  Na2  1  0.03830100  0.53422400  0.82262300  1
  Na  Na3  1  0.96169900  0.03422400  0.17737700  1
  Na  Na4  1  0.15719000  0.75000000  0.42786200  1
  Na  Na5  1  0.84281000  0.25000000  0.57213800  1
  Cu  Cu6  1  0.50000000  0.50000000  0.00000000  1
  Cu  Cu7  1  0.50000000  0.00000000  0.00000000  1
  P  P8  1  0.67199700  0.75000000  0.24067200  1
  P  P9  1  0.32800300  0.25000000  0.75932800  1
  P  P10  1  0.27420200  0.75000000  0.12293300  1
  P  P11  1  0.72579800  0.25000000  0.87706700  1
  H  H12  1  0.19634400  0.39812400  0.47751900  1
  H  H13  1  0.80365600  0.89812400  0.52248100  1
  H  H14  1  0.80365600  0.60187600  0.52248100  1
  H  H15  1  0.19634400  0.10187600  0.47751900  1
  H  H16  1  0.32038400  0.43812300  0.38302400  1
  H  H17  1  0.67961600  0.93812300  0.61697600  1
  H  H18  1  0.67961600  0.56187700  0.61697600  1
  H  H19  1  0.32038400  0.06187700  0.38302400  1
  H  H20  1  0.26353400  0.25000000  0.13990200  1
  H  H21  1  0.73646600  0.75000000  0.86009800  1
  H  H22  1  0.08600800  0.25000000  0.00881200  1
  H  H23  1  0.91399200  0.75000000  0.99118800  1
  N  N24  1  0.62039500  0.25000000  0.27986300  1
  N  N25  1  0.37960500  0.75000000  0.72013700  1
  O  O26  1  0.81170500  0.75000000  0.38626300  1
  O  O27  1  0.18829500  0.25000000  0.61373700  1
  O  O28  1  0.68521100  0.59927300  0.15923400  1
  O  O29  1  0.31478900  0.09927300  0.84076600  1
  O  O30  1  0.31478900  0.40072700  0.84076600  1
  O  O31  1  0.68521100  0.90072700  0.15923400  1
  O  O32  1  0.46069100  0.75000000  0.26010600  1
  O  O33  1  0.53930900  0.25000000  0.73989400  1
  O  O34  1  0.28188900  0.59753400  0.04157800  1
  O  O35  1  0.71811100  0.09753300  0.95842200  1
  O  O36  1  0.71811100  0.40246700  0.95842200  1
  O  O37  1  0.28188900  0.90246600  0.04157800  1
  O  O38  1  0.10429100  0.75000000  0.17765100  1
  O  O39  1  0.89570900  0.25000000  0.82234900  1
  O  O40  1  0.79918500  0.25000000  0.30733600  1
  O  O41  1  0.20081500  0.75000000  0.69266400  1
  O  O42  1  0.54695100  0.25000000  0.37867700  1
  O  O43  1  0.45304900  0.75000000  0.62132300  1
  O  O44  1  0.51459200  0.25000000  0.15549800  1
  O  O45  1  0.48540800  0.75000000  0.84450200  1
  O  O46  1  0.20334700  0.46947800  0.40163000  1
  O  O47  1  0.79665300  0.96947800  0.59837000  1
  O  O48  1  0.79665300  0.53052200  0.59837000  1
  O  O49  1  0.20334700  0.03052200  0.40163000  1
  O  O50  1  0.12354000  0.25000000  0.11079000  1
  O  O51  1  0.87646000  0.75000000  0.88921000  1
