# generated using pymatgen
data_H3PbCI3N2
_symmetry_space_group_name_H-M   'P 1'
_cell_length_a   8.14602300
_cell_length_b   9.44857600
_cell_length_c   12.97071400
_cell_angle_alpha   90.00000000
_cell_angle_beta   90.00000000
_cell_angle_gamma   90.00000000
_symmetry_Int_Tables_number   1
_chemical_formula_structural   H3PbCI3N2
_chemical_formula_sum   'H12 Pb4 C4 I12 N8'
_cell_volume   998.33403223
_cell_formula_units_Z   4
loop_
 _symmetry_equiv_pos_site_id
 _symmetry_equiv_pos_as_xyz
  1  'x, y, z'
loop_
 _atom_site_type_symbol
 _atom_site_label
 _atom_site_symmetry_multiplicity
 _atom_site_fract_x
 _atom_site_fract_y
 _atom_site_fract_z
 _atom_site_occupancy
  H  H0  1  0.85706300  0.05549300  0.75000000  1
  H  H1  1  0.02405800  0.12550400  0.68290200  1
  H  H2  1  0.02405800  0.12550400  0.81709800  1
  H  H3  1  0.52405800  0.37449600  0.81709800  1
  H  H4  1  0.52405800  0.37449600  0.68290200  1
  H  H5  1  0.35706300  0.44450700  0.75000000  1
  H  H6  1  0.64293700  0.55549300  0.25000000  1
  H  H7  1  0.47594200  0.62550400  0.18290200  1
  H  H8  1  0.47594200  0.62550400  0.31709800  1
  H  H9  1  0.97594200  0.87449600  0.31709800  1
  H  H10  1  0.97594200  0.87449600  0.18290200  1
  H  H11  1  0.14293700  0.94450700  0.25000000  1
  Pb  Pb12  1  0.00000000  0.50000000  0.00000000  1
  Pb  Pb13  1  0.00000000  0.50000000  0.50000000  1
  Pb  Pb14  1  0.50000000  0.00000000  0.00000000  1
  Pb  Pb15  1  0.50000000  0.00000000  0.50000000  1
  C  C16  1  0.92867800  0.06127100  0.25000000  1
  C  C17  1  0.42867800  0.43872900  0.25000000  1
  C  C18  1  0.57132200  0.56127100  0.75000000  1
  C  C19  1  0.07132200  0.93872900  0.75000000  1
  I  I20  1  0.56505100  0.04771400  0.75000000  1
  I  I21  1  0.15616700  0.17757800  0.98942600  1
  I  I22  1  0.15616700  0.17757800  0.51057400  1
  I  I23  1  0.65616700  0.32242200  0.98942600  1
  I  I24  1  0.65616700  0.32242200  0.51057400  1
  I  I25  1  0.06505100  0.45228600  0.75000000  1
  I  I26  1  0.93494900  0.54771400  0.25000000  1
  I  I27  1  0.34383300  0.67757800  0.48942600  1
  I  I28  1  0.34383300  0.67757800  0.01057400  1
  I  I29  1  0.84383300  0.82242200  0.01057400  1
  I  I30  1  0.84383300  0.82242200  0.48942600  1
  I  I31  1  0.43494900  0.95228600  0.25000000  1
  N  N32  1  0.98939300  0.06750700  0.75000000  1
  N  N33  1  0.85243900  0.16504700  0.25000000  1
  N  N34  1  0.35243900  0.33495300  0.25000000  1
  N  N35  1  0.48939300  0.43249300  0.75000000  1
  N  N36  1  0.51060700  0.56750700  0.25000000  1
  N  N37  1  0.64756100  0.66504700  0.75000000  1
  N  N38  1  0.14756100  0.83495300  0.75000000  1
  N  N39  1  0.01060700  0.93249300  0.25000000  1
