# generated using pymatgen
data_K5Na3Nb8O20
_symmetry_space_group_name_H-M   'P 1'
_cell_length_a   11.55691252
_cell_length_b   11.65780946
_cell_length_c   17.74566814
_cell_angle_alpha   109.30344987
_cell_angle_beta   108.86128665
_cell_angle_gamma   90.22271710
_symmetry_Int_Tables_number   1
_chemical_formula_structural   K5Na3Nb8O20
_chemical_formula_sum   'K20 Na12 Nb32 O80'
_cell_volume   2118.78915262
_cell_formula_units_Z   4
loop_
 _symmetry_equiv_pos_site_id
 _symmetry_equiv_pos_as_xyz
  1  'x, y, z'
loop_
 _atom_site_type_symbol
 _atom_site_label
 _atom_site_symmetry_multiplicity
 _atom_site_fract_x
 _atom_site_fract_y
 _atom_site_fract_z
 _atom_site_occupancy
  K  K0  1  0.30442800  0.06136300  0.11814600  1
  K  K1  1  0.30581500  0.56274500  0.11042600  1
  K  K2  1  0.79938300  0.06073100  0.10610000  1
  K  K3  1  0.81111800  0.56207500  0.11955300  1
  K  K4  1  0.81365500  0.57019900  0.62151000  1
  K  K5  1  0.20363700  0.93370700  0.38973800  1
  K  K6  1  0.19338500  0.93021100  0.87900200  1
  K  K7  1  0.69547400  0.44259900  0.38684800  1
  K  K8  1  0.68636300  0.42749600  0.88222200  1
  K  K9  1  0.69377700  0.93383600  0.38156000  1
  K  K10  1  0.68975500  0.91879600  0.87471000  1
  K  K11  1  0.04680000  0.29308000  0.10919800  1
  K  K12  1  0.06341500  0.79578800  0.11409800  1
  K  K13  1  0.55544400  0.30735300  0.11680600  1
  K  K14  1  0.56151900  0.80389700  0.12023600  1
  K  K15  1  0.44002300  0.19460300  0.38316500  1
  K  K16  1  0.45308400  0.70856700  0.39512300  1
  K  K17  1  0.44693600  0.70436400  0.88979600  1
  K  K18  1  0.94823900  0.69446900  0.38310100  1
  K  K19  1  0.93932800  0.69463400  0.87831200  1
  Na  Na20  1  0.29752800  0.07815200  0.60425300  1
  Na  Na21  1  0.30335200  0.57073500  0.60332900  1
  Na  Na22  1  0.80282300  0.06702600  0.59851600  1
  Na  Na23  1  0.20272700  0.44051300  0.40553000  1
  Na  Na24  1  0.19790000  0.42743500  0.89567000  1
  Na  Na25  1  0.04843300  0.27874600  0.60489200  1
  Na  Na26  1  0.05953200  0.79275100  0.60825700  1
  Na  Na27  1  0.55194000  0.28751900  0.60227500  1
  Na  Na28  1  0.55699600  0.79035600  0.61011600  1
  Na  Na29  1  0.44265700  0.21348300  0.89663700  1
  Na  Na30  1  0.95703100  0.21928500  0.40577400  1
  Na  Na31  1  0.94723300  0.21473800  0.89765000  1
  Nb  Nb32  1  0.99858000  0.99560000  0.99640600  1
  Nb  Nb33  1  0.00525100  0.00056200  0.50136700  1
  Nb  Nb34  1  0.99990600  0.49716000  0.99838700  1
  Nb  Nb35  1  0.00839100  0.50287800  0.50439600  1
  Nb  Nb36  1  0.50139100  0.99787500  0.99836900  1
  Nb  Nb37  1  0.50854400  0.00417900  0.50736900  1
  Nb  Nb38  1  0.49871500  0.49908300  0.99781400  1
  Nb  Nb39  1  0.50696600  0.50246600  0.50378900  1
  Nb  Nb40  1  0.24881100  0.24723800  0.99877500  1
  Nb  Nb41  1  0.25570400  0.25366600  0.50297800  1
  Nb  Nb42  1  0.25078800  0.74813900  0.99775700  1
  Nb  Nb43  1  0.25869800  0.75266700  0.50474200  1
  Nb  Nb44  1  0.74641300  0.24479100  0.99522800  1
  Nb  Nb45  1  0.75652500  0.25015900  0.50106100  1
  Nb  Nb46  1  0.75220700  0.74637100  0.99986900  1
  Nb  Nb47  1  0.75873200  0.75280800  0.50458800  1
  Nb  Nb48  1  0.09804000  0.08675300  0.25239900  1
  Nb  Nb49  1  0.08459900  0.08682200  0.74619900  1
  Nb  Nb50  1  0.14731500  0.57830600  0.25364200  1
  Nb  Nb51  1  0.13785300  0.56603900  0.74788500  1
  Nb  Nb52  1  0.62647100  0.10697600  0.25025700  1
  Nb  Nb53  1  0.58212500  0.08211400  0.74553500  1
  Nb  Nb54  1  0.60503800  0.60591500  0.25160300  1
  Nb  Nb55  1  0.59084300  0.56958300  0.74483800  1
  Nb  Nb56  1  0.34346100  0.41485800  0.25392900  1
  Nb  Nb57  1  0.34078300  0.42374600  0.74616100  1
  Nb  Nb58  1  0.37204300  0.89072200  0.25189300  1
  Nb  Nb59  1  0.37108400  0.92831900  0.74471400  1
  Nb  Nb60  1  0.86913500  0.39841000  0.25141600  1
  Nb  Nb61  1  0.86322800  0.39121300  0.74645500  1
  Nb  Nb62  1  0.89769400  0.93103000  0.25355900  1
  Nb  Nb63  1  0.87507200  0.93564400  0.74690100  1
  O  O64  1  0.12569300  0.12592000  0.49992800  1
  O  O65  1  0.11977500  0.11978200  0.99498000  1
  O  O66  1  0.13230000  0.62389600  0.50028800  1
  O  O67  1  0.12158700  0.61368400  0.98751700  1
  O  O68  1  0.63018600  0.12726000  0.50215700  1
  O  O69  1  0.61618500  0.12031400  0.98903400  1
  O  O70  1  0.63266500  0.63115400  0.50669000  1
  O  O71  1  0.62723100  0.62297400  0.00085500  1
  O  O72  1  0.12291500  0.36754500  0.99605300  1
  O  O73  1  0.13450000  0.38052600  0.50891900  1
  O  O74  1  0.12400700  0.87100100  0.99734200  1
  O  O75  1  0.13907300  0.88068400  0.51419100  1
  O  O76  1  0.62007300  0.37002500  0.99685700  1
  O  O77  1  0.63401600  0.37982100  0.51169200  1
  O  O78  1  0.62585700  0.87553200  0.00114200  1
  O  O79  1  0.64088100  0.88767400  0.51935700  1
  O  O80  1  0.37769300  0.12774000  0.50225900  1
  O  O81  1  0.36950300  0.12420300  0.99211800  1
  O  O82  1  0.38015900  0.62262600  0.50186800  1
  O  O83  1  0.37162200  0.62024800  0.99280400  1
  O  O84  1  0.87650700  0.12120800  0.49072000  1
  O  O85  1  0.86841600  0.11755300  0.98774000  1
  O  O86  1  0.88432200  0.62653800  0.50225900  1
  O  O87  1  0.87741800  0.61800700  0.99685300  1
  O  O88  1  0.37031600  0.37128600  0.99494600  1
  O  O89  1  0.38051400  0.37907300  0.50802000  1
  O  O90  1  0.37531200  0.87672100  0.00007100  1
  O  O91  1  0.38917400  0.88324700  0.51653800  1
  O  O92  1  0.87349100  0.37012400  0.99933800  1
  O  O93  1  0.88989400  0.37899900  0.51333500  1
  O  O94  1  0.87310300  0.86925800  0.99467800  1
  O  O95  1  0.88485200  0.87963500  0.50721500  1
  O  O96  1  0.05559300  0.06326300  0.13133400  1
  O  O97  1  0.05951100  0.08976600  0.63393900  1
  O  O98  1  0.07916200  0.56233700  0.13241000  1
  O  O99  1  0.09163900  0.59228600  0.64234100  1
  O  O100  1  0.56317000  0.07395500  0.12632500  1
  O  O101  1  0.56624300  0.10540200  0.64143300  1
  O  O102  1  0.55724600  0.56229200  0.12725500  1
  O  O103  1  0.57077000  0.58382400  0.63710800  1
  O  O104  1  0.44203100  0.43070100  0.37121200  1
  O  O105  1  0.42990400  0.43140000  0.85993100  1
  O  O106  1  0.44324900  0.93232100  0.37823200  1
  O  O107  1  0.43465700  0.91742500  0.85446400  1
  O  O108  1  0.94050700  0.42059100  0.37332300  1
  O  O109  1  0.92979800  0.40534300  0.86381800  1
  O  O110  1  0.94953400  0.91702000  0.36519500  1
  O  O111  1  0.93651600  0.91649000  0.85463900  1
  O  O112  1  0.30964100  0.31543200  0.13313900  1
  O  O113  1  0.31677300  0.30370600  0.63558200  1
  O  O114  1  0.31234500  0.80798900  0.12609900  1
  O  O115  1  0.33864300  0.79476400  0.64164800  1
  O  O116  1  0.81155200  0.30249300  0.12786000  1
  O  O117  1  0.83468200  0.28155400  0.63378900  1
  O  O118  1  0.83342200  0.81498800  0.13709800  1
  O  O119  1  0.85098600  0.80596000  0.64480900  1
  O  O120  1  0.18531800  0.19379400  0.37127000  1
  O  O121  1  0.17530400  0.18769200  0.86040800  1
  O  O122  1  0.19903000  0.69064200  0.37264300  1
  O  O123  1  0.19437900  0.69014200  0.85673800  1
  O  O124  1  0.68869400  0.20211700  0.37321500  1
  O  O125  1  0.67302400  0.18442700  0.85904300  1
  O  O126  1  0.68607500  0.69269600  0.37748900  1
  O  O127  1  0.67600600  0.67091000  0.86248900  1
  O  O128  1  0.48353300  0.01791400  0.25054500  1
  O  O129  1  0.40933100  0.09813300  0.74684200  1
  O  O130  1  0.45312600  0.54759600  0.25308800  1
  O  O131  1  0.41797400  0.57194200  0.73644000  1
  O  O132  1  0.93382200  0.10662700  0.26492000  1
  O  O133  1  0.91149400  0.10511000  0.74743300  1
  O  O134  1  0.98321000  0.51801800  0.25052200  1
  O  O135  1  0.96905700  0.51983200  0.74839400  1
  O  O136  1  0.18213100  0.41233700  0.26572000  1
  O  O137  1  0.16781400  0.39471300  0.74786100  1
  O  O138  1  0.22784200  0.97570500  0.25311000  1
  O  O139  1  0.19652500  0.95547300  0.73494100  1
  O  O140  1  0.74142200  0.50137700  0.25340700  1
  O  O141  1  0.69864700  0.43619700  0.73507900  1
  O  O142  1  0.73244100  0.98247700  0.25026800  1
  O  O143  1  0.69885200  0.95522500  0.73456200  1
