# generated using pymatgen
data_Tm2MgS4
_symmetry_space_group_name_H-M   'P 1'
_cell_length_a   7.83688600
_cell_length_b   7.29728600
_cell_length_c   11.30322700
_cell_angle_alpha   90.00000000
_cell_angle_beta   90.00000000
_cell_angle_gamma   90.00000000
_symmetry_Int_Tables_number   1
_chemical_formula_structural   Tm2MgS4
_chemical_formula_sum   'Tm8 Mg4 S16'
_cell_volume   646.40892862
_cell_formula_units_Z   4
loop_
 _symmetry_equiv_pos_site_id
 _symmetry_equiv_pos_as_xyz
  1  'x, y, z'
loop_
 _atom_site_type_symbol
 _atom_site_label
 _atom_site_symmetry_multiplicity
 _atom_site_fract_x
 _atom_site_fract_y
 _atom_site_fract_z
 _atom_site_occupancy
  Tm  Tm0  1  0.04503100  0.75000000  0.30609600  1
  Tm  Tm1  1  0.95496900  0.25000000  0.69390400  1
  Tm  Tm2  1  0.45496900  0.25000000  0.80609600  1
  Tm  Tm3  1  0.54503100  0.75000000  0.19390400  1
  Tm  Tm4  1  0.06428700  0.25000000  0.01520500  1
  Tm  Tm5  1  0.93571300  0.75000000  0.98479500  1
  Tm  Tm6  1  0.43571300  0.75000000  0.51520500  1
  Tm  Tm7  1  0.56428700  0.25000000  0.48479500  1
  Mg  Mg8  1  0.17496000  0.25000000  0.40158500  1
  Mg  Mg9  1  0.82504000  0.75000000  0.59841500  1
  Mg  Mg10  1  0.32504000  0.75000000  0.90158500  1
  Mg  Mg11  1  0.67496000  0.25000000  0.09841500  1
  S  S12  1  0.12067000  0.50474300  0.84112300  1
  S  S13  1  0.87933000  0.49525700  0.15887700  1
  S  S14  1  0.37933000  0.49525700  0.34112300  1
  S  S15  1  0.62067000  0.50474300  0.65887700  1
  S  S16  1  0.62067000  0.99525700  0.65887700  1
  S  S17  1  0.37933000  0.00474300  0.34112300  1
  S  S18  1  0.87933000  0.00474300  0.15887700  1
  S  S19  1  0.12067000  0.99525700  0.84112300  1
  S  S20  1  0.88805900  0.25000000  0.46125500  1
  S  S21  1  0.11194100  0.75000000  0.53874500  1
  S  S22  1  0.61194100  0.75000000  0.96125500  1
  S  S23  1  0.38805900  0.25000000  0.03874500  1
  S  S24  1  0.22912600  0.75000000  0.10923600  1
  S  S25  1  0.77087400  0.25000000  0.89076400  1
  S  S26  1  0.27087400  0.25000000  0.60923600  1
  S  S27  1  0.72912600  0.75000000  0.39076400  1
