# generated using pymatgen
data_Mg19Ge5
_symmetry_space_group_name_H-M   'P 1'
_cell_length_a   8.15263600
_cell_length_b   8.15263600
_cell_length_c   8.15263600
_cell_angle_alpha   90.00000000
_cell_angle_beta   90.00000000
_cell_angle_gamma   90.00000000
_symmetry_Int_Tables_number   1
_chemical_formula_structural   Mg19Ge5
_chemical_formula_sum   'Mg19 Ge5'
_cell_volume   541.86881404
_cell_formula_units_Z   1
loop_
 _symmetry_equiv_pos_site_id
 _symmetry_equiv_pos_as_xyz
  1  'x, y, z'
loop_
 _atom_site_type_symbol
 _atom_site_label
 _atom_site_symmetry_multiplicity
 _atom_site_fract_x
 _atom_site_fract_y
 _atom_site_fract_z
 _atom_site_occupancy
  Mg  Mg0  1  0.00000000  0.00000000  0.50000000  1
  Mg  Mg1  1  0.00000000  0.50000000  0.00000000  1
  Mg  Mg2  1  0.50000000  0.00000000  0.00000000  1
  Mg  Mg3  1  0.37549800  0.87372000  0.37549800  1
  Mg  Mg4  1  0.37549800  0.37549800  0.87372000  1
  Mg  Mg5  1  0.87372000  0.37549800  0.37549800  1
  Mg  Mg6  1  0.87481300  0.87481300  0.87481300  1
  Mg  Mg7  1  0.37549800  0.12628000  0.62450200  1
  Mg  Mg8  1  0.37549800  0.62450200  0.12628000  1
  Mg  Mg9  1  0.87372000  0.62450200  0.62450200  1
  Mg  Mg10  1  0.87481300  0.12518700  0.12518700  1
  Mg  Mg11  1  0.62450200  0.87372000  0.62450200  1
  Mg  Mg12  1  0.62450200  0.37549800  0.12628000  1
  Mg  Mg13  1  0.12628000  0.37549800  0.62450200  1
  Mg  Mg14  1  0.12518700  0.87481300  0.12518700  1
  Mg  Mg15  1  0.62450200  0.12628000  0.37549800  1
  Mg  Mg16  1  0.62450200  0.62450200  0.87372000  1
  Mg  Mg17  1  0.12628000  0.62450200  0.37549800  1
  Mg  Mg18  1  0.12518700  0.12518700  0.87481300  1
  Ge  Ge19  1  0.75035100  0.75035100  0.24964900  1
  Ge  Ge20  1  0.24964900  0.24964900  0.24964900  1
  Ge  Ge21  1  0.50000000  0.50000000  0.50000000  1
  Ge  Ge22  1  0.24964900  0.75035100  0.75035100  1
  Ge  Ge23  1  0.75035100  0.24964900  0.75035100  1
