# generated using pymatgen
data_K4Na4Nb3(WO4)5
_symmetry_space_group_name_H-M   'P 1'
_cell_length_a   11.55711663
_cell_length_b   11.79452809
_cell_length_c   17.58839161
_cell_angle_alpha   109.78000549
_cell_angle_beta   109.31671291
_cell_angle_gamma   89.64928715
_symmetry_Int_Tables_number   1
_chemical_formula_structural   K4Na4Nb3(WO4)5
_chemical_formula_sum   'K16 Na16 Nb12 W20 O80'
_cell_volume   2113.85743886
_cell_formula_units_Z   4
loop_
 _symmetry_equiv_pos_site_id
 _symmetry_equiv_pos_as_xyz
  1  'x, y, z'
loop_
 _atom_site_type_symbol
 _atom_site_label
 _atom_site_symmetry_multiplicity
 _atom_site_fract_x
 _atom_site_fract_y
 _atom_site_fract_z
 _atom_site_occupancy
  K  K0  1  0.30495200  0.06364400  0.10626900  1
  K  K1  1  0.30082200  0.56276600  0.10934100  1
  K  K2  1  0.79946800  0.06323800  0.10735000  1
  K  K3  1  0.80174500  0.55466200  0.10853300  1
  K  K4  1  0.19613900  0.93486700  0.39074200  1
  K  K5  1  0.19463100  0.92494300  0.87836500  1
  K  K6  1  0.70503800  0.43548100  0.39548500  1
  K  K7  1  0.68508200  0.42424500  0.88320700  1
  K  K8  1  0.69363800  0.94063000  0.39131500  1
  K  K9  1  0.05307200  0.30270300  0.11054600  1
  K  K10  1  0.05662400  0.79640400  0.11218300  1
  K  K11  1  0.55653900  0.29438900  0.10764500  1
  K  K12  1  0.55517100  0.80200600  0.11118900  1
  K  K13  1  0.44930200  0.70870100  0.39670000  1
  K  K14  1  0.44511500  0.69933700  0.87926100  1
  K  K15  1  0.94475500  0.70070800  0.87932900  1
  Na  Na16  1  0.29861100  0.07376000  0.60112700  1
  Na  Na17  1  0.31092400  0.56516300  0.60682900  1
  Na  Na18  1  0.80030000  0.07078200  0.60110800  1
  Na  Na19  1  0.81367500  0.56789600  0.60681000  1
  Na  Na20  1  0.19759600  0.44075300  0.40000800  1
  Na  Na21  1  0.19822100  0.43147700  0.89508600  1
  Na  Na22  1  0.70109500  0.93324200  0.89563400  1
  Na  Na23  1  0.05195500  0.28126800  0.60155700  1
  Na  Na24  1  0.06353100  0.78691600  0.60441600  1
  Na  Na25  1  0.55061000  0.27697100  0.59901100  1
  Na  Na26  1  0.55665200  0.78734000  0.60449500  1
  Na  Na27  1  0.45448600  0.21568400  0.40453600  1
  Na  Na28  1  0.44603500  0.21778300  0.89543600  1
  Na  Na29  1  0.94560200  0.21668400  0.40718900  1
  Na  Na30  1  0.94876600  0.21733600  0.89648400  1
  Na  Na31  1  0.95482300  0.70503000  0.40417800  1
  Nb  Nb32  1  0.09103800  0.08415200  0.74381100  1
  Nb  Nb33  1  0.12668400  0.57130900  0.74505200  1
  Nb  Nb34  1  0.57698200  0.07234000  0.74493600  1
  Nb  Nb35  1  0.61787800  0.59120800  0.25330900  1
  Nb  Nb36  1  0.62443100  0.57476500  0.74299900  1
  Nb  Nb37  1  0.35983700  0.40882500  0.25607100  1
  Nb  Nb38  1  0.33409100  0.41441300  0.74451100  1
  Nb  Nb39  1  0.35782300  0.93196400  0.25574300  1
  Nb  Nb40  1  0.37359900  0.92088600  0.74363300  1
  Nb  Nb41  1  0.83754200  0.41795400  0.74289900  1
  Nb  Nb42  1  0.86329600  0.91090000  0.25582300  1
  Nb  Nb43  1  0.85903100  0.92322400  0.74661200  1
  W  W44  1  0.00148500  0.99842900  0.99479400  1
  W  W45  1  0.00928100  0.00013900  0.50479000  1
  W  W46  1  0.99878700  0.49757000  0.99488000  1
  W  W47  1  0.01532800  0.50264500  0.50842100  1
  W  W48  1  0.50007700  0.99665200  0.99284700  1
  W  W49  1  0.50831000  0.00251200  0.50735100  1
  W  W50  1  0.49841000  0.49816900  0.99488600  1
  W  W51  1  0.51339200  0.50181300  0.50790500  1
  W  W52  1  0.24842600  0.24553800  0.99212000  1
  W  W53  1  0.26021300  0.25483000  0.50483400  1
  W  W54  1  0.25143500  0.74752000  0.99609600  1
  W  W55  1  0.26136100  0.74982000  0.50464500  1
  W  W56  1  0.74803300  0.24185800  0.99068100  1
  W  W57  1  0.76134100  0.25422800  0.50810700  1
  W  W58  1  0.75169100  0.74701000  0.99495200  1
  W  W59  1  0.76326600  0.75326800  0.50800600  1
  W  W60  1  0.09531200  0.12928900  0.25510400  1
  W  W61  1  0.08881400  0.61046300  0.25521300  1
  W  W62  1  0.62163700  0.13720800  0.25187000  1
  W  W63  1  0.87090200  0.38263800  0.25395900  1
  O  O64  1  0.12272600  0.12136800  0.48854800  1
  O  O65  1  0.11658000  0.11779200  0.98002400  1
  O  O66  1  0.12750700  0.61624800  0.48887000  1
  O  O67  1  0.12233400  0.61812500  0.98609000  1
  O  O68  1  0.62631900  0.12278700  0.49859800  1
  O  O69  1  0.61658500  0.11380400  0.97797200  1
  O  O70  1  0.63221700  0.62465000  0.49772700  1
  O  O71  1  0.62176600  0.61959600  0.98906700  1
  O  O72  1  0.12445800  0.37125000  0.99418700  1
  O  O73  1  0.14705100  0.38748200  0.52271400  1
  O  O74  1  0.13018100  0.87704700  0.00413500  1
  O  O75  1  0.14351000  0.88369300  0.52022800  1
  O  O76  1  0.62297700  0.37108000  0.99878600  1
  O  O77  1  0.64679500  0.38950600  0.52477000  1
  O  O78  1  0.62943200  0.87342500  0.99873400  1
  O  O79  1  0.64541800  0.88665300  0.52511600  1
  O  O80  1  0.37836700  0.12230600  0.49353100  1
  O  O81  1  0.36987900  0.11917100  0.98005100  1
  O  O82  1  0.37962200  0.61678200  0.49639100  1
  O  O83  1  0.36868400  0.61621900  0.98750000  1
  O  O84  1  0.88062800  0.11864500  0.49590100  1
  O  O85  1  0.86669600  0.11066100  0.97599800  1
  O  O86  1  0.88432000  0.62566500  0.49636400  1
  O  O87  1  0.87212700  0.62003500  0.98883900  1
  O  O88  1  0.37543800  0.37560800  0.99988000  1
  O  O89  1  0.39877700  0.38546100  0.52426200  1
  O  O90  1  0.37727800  0.87275900  0.00039800  1
  O  O91  1  0.39443800  0.88897600  0.52547100  1
  O  O92  1  0.87620700  0.36864300  0.99657300  1
  O  O93  1  0.89852100  0.38955600  0.52669900  1
  O  O94  1  0.87777400  0.87778200  0.00207300  1
  O  O95  1  0.89628900  0.88562200  0.52484000  1
  O  O96  1  0.06745200  0.08491800  0.13167900  1
  O  O97  1  0.07676000  0.10775300  0.64119400  1
  O  O98  1  0.07095300  0.56753400  0.13188300  1
  O  O99  1  0.09845000  0.61284600  0.64644400  1
  O  O100  1  0.56050200  0.07071500  0.12326200  1
  O  O101  1  0.57329800  0.09597800  0.64345400  1
  O  O102  1  0.56952800  0.58075100  0.13615700  1
  O  O103  1  0.59246400  0.61335600  0.64359600  1
  O  O104  1  0.44711600  0.39422200  0.36440700  1
  O  O105  1  0.42407800  0.41382200  0.85617100  1
  O  O106  1  0.43712100  0.90631100  0.36084900  1
  O  O107  1  0.43866500  0.90820000  0.85240200  1
  O  O108  1  0.94299300  0.39474100  0.37456900  1
  O  O109  1  0.92231700  0.41779600  0.85537700  1
  O  O110  1  0.93747800  0.88729800  0.36262200  1
  O  O111  1  0.93859600  0.90780300  0.85274300  1
  O  O112  1  0.31984800  0.30116400  0.13936000  1
  O  O113  1  0.31689900  0.28662900  0.63978200  1
  O  O114  1  0.33012400  0.80936100  0.14571600  1
  O  O115  1  0.33801000  0.78451200  0.64164200  1
  O  O116  1  0.81970600  0.29844300  0.12784400  1
  O  O117  1  0.82857200  0.28632400  0.64132100  1
  O  O118  1  0.83099200  0.80217100  0.14141900  1
  O  O119  1  0.84368300  0.78994400  0.64749100  1
  O  O120  1  0.20850500  0.22703900  0.36980600  1
  O  O121  1  0.18083900  0.19911800  0.85240600  1
  O  O122  1  0.20113900  0.70518400  0.37275300  1
  O  O123  1  0.18800700  0.69164400  0.85588900  1
  O  O124  1  0.69942900  0.20357300  0.37922900  1
  O  O125  1  0.67379500  0.18497300  0.85161500  1
  O  O126  1  0.69155100  0.70404600  0.36902800  1
  O  O127  1  0.68534100  0.69839100  0.85406600  1
  O  O128  1  0.44736700  0.06914200  0.26398800  1
  O  O129  1  0.40611800  0.09054700  0.74617600  1
  O  O130  1  0.45382300  0.54400200  0.25579800  1
  O  O131  1  0.45242600  0.53095000  0.73608000  1
  O  O132  1  0.95218000  0.05878300  0.26942300  1
  O  O133  1  0.91597600  0.07991600  0.74531300  1
  O  O134  1  0.93950400  0.55143000  0.26539000  1
  O  O135  1  0.95141600  0.53376300  0.73263100  1
  O  O136  1  0.20971800  0.45328500  0.26549900  1
  O  O137  1  0.16111900  0.40407600  0.74527500  1
  O  O138  1  0.20101000  0.97582500  0.25488500  1
  O  O139  1  0.19585100  0.95391100  0.73400100  1
  O  O140  1  0.71220700  0.45641300  0.25339900  1
  O  O141  1  0.66006400  0.40417900  0.73054400  1
  O  O142  1  0.71159900  0.95818000  0.25376300  1
  O  O143  1  0.69180500  0.94029100  0.74309800  1
