# generated using pymatgen
data_Mg(ScSe2)2
_symmetry_space_group_name_H-M   'P 1'
_cell_length_a   8.16945400
_cell_length_b   7.71829200
_cell_length_c   11.31957600
_cell_angle_alpha   90.00000000
_cell_angle_beta   90.00000000
_cell_angle_gamma   90.00000000
_symmetry_Int_Tables_number   1
_chemical_formula_structural   Mg(ScSe2)2
_chemical_formula_sum   'Mg4 Sc8 Se16'
_cell_volume   713.74716505
_cell_formula_units_Z   4
loop_
 _symmetry_equiv_pos_site_id
 _symmetry_equiv_pos_as_xyz
  1  'x, y, z'
loop_
 _atom_site_type_symbol
 _atom_site_label
 _atom_site_symmetry_multiplicity
 _atom_site_fract_x
 _atom_site_fract_y
 _atom_site_fract_z
 _atom_site_occupancy
  Mg  Mg0  1  0.17128100  0.25000000  0.39737100  1
  Mg  Mg1  1  0.82871900  0.75000000  0.60262900  1
  Mg  Mg2  1  0.32871900  0.75000000  0.89737100  1
  Mg  Mg3  1  0.67128100  0.25000000  0.10262900  1
  Sc  Sc4  1  0.00073800  0.75000000  0.29361100  1
  Sc  Sc5  1  0.99926200  0.25000000  0.70638900  1
  Sc  Sc6  1  0.49926200  0.25000000  0.79361100  1
  Sc  Sc7  1  0.50073800  0.75000000  0.20638900  1
  Sc  Sc8  1  0.06247600  0.25000000  0.01022300  1
  Sc  Sc9  1  0.93752400  0.75000000  0.98977700  1
  Sc  Sc10  1  0.43752400  0.75000000  0.51022300  1
  Sc  Sc11  1  0.56247600  0.25000000  0.48977700  1
  Se  Se12  1  0.09811400  0.52369000  0.84152500  1
  Se  Se13  1  0.90188600  0.47631000  0.15847500  1
  Se  Se14  1  0.40188600  0.47631000  0.34152500  1
  Se  Se15  1  0.59811400  0.52369000  0.65847500  1
  Se  Se16  1  0.59811400  0.97631000  0.65847500  1
  Se  Se17  1  0.40188600  0.02369000  0.34152500  1
  Se  Se18  1  0.90188600  0.02369000  0.15847500  1
  Se  Se19  1  0.09811400  0.97631000  0.84152500  1
  Se  Se20  1  0.88511100  0.25000000  0.48914500  1
  Se  Se21  1  0.11488900  0.75000000  0.51085500  1
  Se  Se22  1  0.61488900  0.75000000  0.98914500  1
  Se  Se23  1  0.38511100  0.25000000  0.01085500  1
  Se  Se24  1  0.21434200  0.75000000  0.11771100  1
  Se  Se25  1  0.78565800  0.25000000  0.88228900  1
  Se  Se26  1  0.28565800  0.25000000  0.61771100  1
  Se  Se27  1  0.71434200  0.75000000  0.38228900  1
