# generated using pymatgen
data_Sr5Ca3Mn4(FeO6)4
_symmetry_space_group_name_H-M   'P 1'
_cell_length_a   7.77046218
_cell_length_b   7.77046218
_cell_length_c   7.75429701
_cell_angle_alpha   89.99841165
_cell_angle_beta   89.99841165
_cell_angle_gamma   89.99832113
_symmetry_Int_Tables_number   1
_chemical_formula_structural   Sr5Ca3Mn4(FeO6)4
_chemical_formula_sum   'Sr5 Ca3 Mn4 Fe4 O24'
_cell_volume   468.20509234
_cell_formula_units_Z   1
loop_
 _symmetry_equiv_pos_site_id
 _symmetry_equiv_pos_as_xyz
  1  'x, y, z'
loop_
 _atom_site_type_symbol
 _atom_site_label
 _atom_site_symmetry_multiplicity
 _atom_site_fract_x
 _atom_site_fract_y
 _atom_site_fract_z
 _atom_site_occupancy
  Sr  Sr0  1  0.74905900  0.25101500  0.25073400  1
  Sr  Sr1  1  0.25095400  0.25095400  0.25066400  1
  Sr  Sr2  1  0.74903800  0.74903800  0.25060300  1
  Sr  Sr3  1  0.25101500  0.74905900  0.25073400  1
  Sr  Sr4  1  0.74898900  0.74898900  0.74931300  1
  Ca  Ca5  1  0.74861500  0.25128900  0.74898500  1
  Ca  Ca6  1  0.25137300  0.25137300  0.74904300  1
  Ca  Ca7  1  0.25128900  0.74861500  0.74898500  1
  Mn  Mn8  1  0.49942200  0.00079900  0.50172200  1
  Mn  Mn9  1  0.49938700  0.49938700  0.99763200  1
  Mn  Mn10  1  0.00079900  0.49942200  0.50172200  1
  Mn  Mn11  1  0.49949400  0.49949400  0.50154500  1
  Fe  Fe12  1  0.00078200  0.00078200  0.99779600  1
  Fe  Fe13  1  0.49946900  0.00060000  0.99808700  1
  Fe  Fe14  1  0.00060900  0.00060900  0.50173100  1
  Fe  Fe15  1  0.00060000  0.49946900  0.99808700  1
  O  O16  1  0.00076500  0.24698200  0.99388900  1
  O  O17  1  0.49932100  0.25372500  0.99367400  1
  O  O18  1  0.00066500  0.25376200  0.50645300  1
  O  O19  1  0.49955300  0.25093800  0.50719500  1
  O  O20  1  0.00276700  0.75323900  0.99572800  1
  O  O21  1  0.49706400  0.74615200  0.99578600  1
  O  O22  1  0.00292100  0.74618300  0.50417800  1
  O  O23  1  0.49655500  0.74898900  0.50434600  1
  O  O24  1  0.00073200  0.00073200  0.24659100  1
  O  O25  1  0.49946600  0.00062700  0.25390300  1
  O  O26  1  0.00256400  0.00256400  0.75286800  1
  O  O27  1  0.49717300  0.00272800  0.74633600  1
  O  O28  1  0.00062700  0.49946600  0.25390300  1
  O  O29  1  0.49957500  0.49957500  0.25109300  1
  O  O30  1  0.00272800  0.49717300  0.74633600  1
  O  O31  1  0.49666200  0.49666200  0.74909200  1
  O  O32  1  0.75323900  0.00276700  0.99572800  1
  O  O33  1  0.24698200  0.00076500  0.99388900  1
  O  O34  1  0.74618300  0.00292100  0.50417800  1
  O  O35  1  0.25376200  0.00066500  0.50645300  1
  O  O36  1  0.74615200  0.49706400  0.99578600  1
  O  O37  1  0.25372500  0.49932100  0.99367400  1
  O  O38  1  0.74898900  0.49655500  0.50434600  1
  O  O39  1  0.25093800  0.49955300  0.50719500  1
