# generated using pymatgen
data_Mg(AlSb)2
_symmetry_space_group_name_H-M   'P 1'
_cell_length_a   4.60384189
_cell_length_b   4.60384189
_cell_length_c   7.08632400
_cell_angle_alpha   90.00000000
_cell_angle_beta   90.00000000
_cell_angle_gamma   119.99999842
_symmetry_Int_Tables_number   1
_chemical_formula_structural   Mg(AlSb)2
_chemical_formula_sum   'Mg1 Al2 Sb2'
_cell_volume   130.07458359
_cell_formula_units_Z   1
loop_
 _symmetry_equiv_pos_site_id
 _symmetry_equiv_pos_as_xyz
  1  'x, y, z'
loop_
 _atom_site_type_symbol
 _atom_site_label
 _atom_site_symmetry_multiplicity
 _atom_site_fract_x
 _atom_site_fract_y
 _atom_site_fract_z
 _atom_site_occupancy
  Mg  Mg0  1  0.00000000  0.00000000  0.00000000  1
  Al  Al1  1  0.66666700  0.33333300  0.37078800  1
  Al  Al2  1  0.33333300  0.66666700  0.62921200  1
  Sb  Sb3  1  0.66666700  0.33333300  0.76968900  1
  Sb  Sb4  1  0.33333300  0.66666700  0.23031100  1
