# generated using pymatgen
data_CaHf8(N2O)4
_symmetry_space_group_name_H-M   'P 1'
_cell_length_a   5.44820589
_cell_length_b   5.61504974
_cell_length_c   11.51118734
_cell_angle_alpha   102.57139565
_cell_angle_beta   76.28926342
_cell_angle_gamma   60.68958468
_symmetry_Int_Tables_number   1
_chemical_formula_structural   CaHf8(N2O)4
_chemical_formula_sum   'Ca1 Hf8 N8 O4'
_cell_volume   274.19936337
_cell_formula_units_Z   1
loop_
 _symmetry_equiv_pos_site_id
 _symmetry_equiv_pos_as_xyz
  1  'x, y, z'
loop_
 _atom_site_type_symbol
 _atom_site_label
 _atom_site_symmetry_multiplicity
 _atom_site_fract_x
 _atom_site_fract_y
 _atom_site_fract_z
 _atom_site_occupancy
  Ca  Ca0  1  0.74572300  0.37606800  0.14226100  1
  Hf  Hf1  1  0.25386200  0.21482100  0.29606200  1
  Hf  Hf2  1  0.11221100  0.01971800  0.77345400  1
  Hf  Hf3  1  0.26630200  0.55392700  0.96854000  1
  Hf  Hf4  1  0.65154700  0.18534500  0.55700000  1
  Hf  Hf5  1  0.47593500  0.70961200  0.46554900  1
  Hf  Hf6  1  0.95501600  0.81587900  0.26727600  1
  Hf  Hf7  1  0.55800000  0.93841700  0.00135800  1
  Hf  Hf8  1  0.85988200  0.60935000  0.70743200  1
  N  N9  1  0.50474600  0.02586400  0.40252700  1
  N  N10  1  0.20892200  0.36074400  0.12232200  1
  N  N11  1  0.26322400  0.60463400  0.63283100  1
  N  N12  1  0.86841900  0.23660600  0.39444900  1
  N  N13  1  0.40310200  0.77731800  0.86692600  1
  N  N14  1  0.79687100  0.91671900  0.12220900  1
  N  N15  1  0.98302900  0.18541200  0.62801300  1
  N  N16  1  0.69740800  0.11190100  0.87610300  1
  O  O17  1  0.35437000  0.78586900  0.12640100  1
  O  O18  1  0.30697200  0.58000300  0.34085000  1
  O  O19  1  0.02811900  0.46763900  0.86311800  1
  O  O20  1  0.60868000  0.86453500  0.62059000  1
