# generated using pymatgen
data_SiO2
_symmetry_space_group_name_H-M   'P 1'
_cell_length_a   10.81340641
_cell_length_b   10.81340641
_cell_length_c   10.81340641
_cell_angle_alpha   60.00000000
_cell_angle_beta   60.00000000
_cell_angle_gamma   60.00000000
_symmetry_Int_Tables_number   1
_chemical_formula_structural   SiO2
_chemical_formula_sum   'Si8 O16'
_cell_volume   894.07217568
_cell_formula_units_Z   8
loop_
 _symmetry_equiv_pos_site_id
 _symmetry_equiv_pos_as_xyz
  1  'x, y, z'
loop_
 _atom_site_type_symbol
 _atom_site_label
 _atom_site_symmetry_multiplicity
 _atom_site_fract_x
 _atom_site_fract_y
 _atom_site_fract_z
 _atom_site_occupancy
  Si  Si0  1  0.30625300  0.56458200  0.56458200  1
  Si  Si1  1  0.68541800  0.68541800  0.68541800  1
  Si  Si2  1  0.68541800  0.68541800  0.94374700  1
  Si  Si3  1  0.68541800  0.94374700  0.68541800  1
  Si  Si4  1  0.56458200  0.30625300  0.56458200  1
  Si  Si5  1  0.56458200  0.56458200  0.56458200  1
  Si  Si6  1  0.56458200  0.56458200  0.30625300  1
  Si  Si7  1  0.94374700  0.68541800  0.68541800  1
  O  O8  1  0.62500000  0.12500000  0.62500000  1
  O  O9  1  0.62500000  0.62500000  0.62500000  1
  O  O10  1  0.62500000  0.62500000  0.12500000  1
  O  O11  1  0.12500000  0.62500000  0.62500000  1
  O  O12  1  0.87293600  0.62706400  0.62706400  1
  O  O13  1  0.62293600  0.37706400  0.37706400  1
  O  O14  1  0.62706400  0.87293600  0.62706400  1
  O  O15  1  0.62706400  0.62706400  0.87293600  1
  O  O16  1  0.62706400  0.87293600  0.87293600  1
  O  O17  1  0.62293600  0.37706400  0.62293600  1
  O  O18  1  0.37706400  0.62293600  0.37706400  1
  O  O19  1  0.37706400  0.37706400  0.62293600  1
  O  O20  1  0.62293600  0.62293600  0.37706400  1
  O  O21  1  0.37706400  0.62293600  0.62293600  1
  O  O22  1  0.87293600  0.62706400  0.87293600  1
  O  O23  1  0.87293600  0.87293600  0.62706400  1
