# generated using pymatgen
data_Rb2Ba8Mg(Sb3O)2
_symmetry_space_group_name_H-M   'P 1'
_cell_length_a   9.86387811
_cell_length_b   9.37211160
_cell_length_c   11.30360143
_cell_angle_alpha   119.88675446
_cell_angle_beta   123.07623482
_cell_angle_gamma   82.67632129
_symmetry_Int_Tables_number   1
_chemical_formula_structural   Rb2Ba8Mg(Sb3O)2
_chemical_formula_sum   'Rb2 Ba8 Mg1 Sb6 O2'
_cell_volume   744.01517062
_cell_formula_units_Z   1
loop_
 _symmetry_equiv_pos_site_id
 _symmetry_equiv_pos_as_xyz
  1  'x, y, z'
loop_
 _atom_site_type_symbol
 _atom_site_label
 _atom_site_symmetry_multiplicity
 _atom_site_fract_x
 _atom_site_fract_y
 _atom_site_fract_z
 _atom_site_occupancy
  Rb  Rb0  1  0.00145500  0.99742300  0.99350700  1
  Rb  Rb1  1  0.49068100  0.51339000  0.01152000  1
  Ba  Ba2  1  0.47849500  0.69397200  0.73323300  1
  Ba  Ba3  1  0.18346100  0.00951000  0.71524400  1
  Ba  Ba4  1  0.85950400  0.01829800  0.26064900  1
  Ba  Ba5  1  0.98784300  0.47318200  0.69477200  1
  Ba  Ba6  1  0.51001800  0.30598200  0.26033300  1
  Ba  Ba7  1  0.67514900  0.20683100  0.73578000  1
  Ba  Ba8  1  0.98961700  0.50329200  0.30470200  1
  Ba  Ba9  1  0.29687600  0.80455700  0.34923500  1
  Mg  Mg10  1  0.60810600  0.98247600  0.34326300  1
  Sb  Sb11  1  0.88457400  0.61836800  0.99424900  1
  Sb  Sb12  1  0.64013000  0.14562500  0.98838500  1
  Sb  Sb13  1  0.10737700  0.38415000  0.00854100  1
  Sb  Sb14  1  0.35174400  0.86979400  0.01165400  1
  Sb  Sb15  1  0.24764200  0.26489100  0.52919400  1
  Sb  Sb16  1  0.73798000  0.77743600  0.49074100  1
  O  O17  1  0.74217100  0.20122300  0.44319400  1
  O  O18  1  0.23574900  0.75103000  0.51930500  1
