# generated using pymatgen
data_Hf8Mg(N2O)4
_symmetry_space_group_name_H-M   'P 1'
_cell_length_a   5.50403997
_cell_length_b   5.43951048
_cell_length_c   11.55829086
_cell_angle_alpha   78.56694863
_cell_angle_beta   64.45967761
_cell_angle_gamma   59.32724991
_symmetry_Int_Tables_number   1
_chemical_formula_structural   Hf8Mg(N2O)4
_chemical_formula_sum   'Hf8 Mg1 N8 O4'
_cell_volume   268.44394493
_cell_formula_units_Z   1
loop_
 _symmetry_equiv_pos_site_id
 _symmetry_equiv_pos_as_xyz
  1  'x, y, z'
loop_
 _atom_site_type_symbol
 _atom_site_label
 _atom_site_symmetry_multiplicity
 _atom_site_fract_x
 _atom_site_fract_y
 _atom_site_fract_z
 _atom_site_occupancy
  Hf  Hf0  1  0.05180500  0.43697300  0.27970600  1
  Hf  Hf1  1  0.16003400  0.07534000  0.80250000  1
  Hf  Hf2  1  0.35408800  0.42649200  0.97851300  1
  Hf  Hf3  1  0.53636500  0.05579900  0.50729100  1
  Hf  Hf4  1  0.25165200  0.76715900  0.45239100  1
  Hf  Hf5  1  0.75928000  0.11781300  0.21778600  1
  Hf  Hf6  1  0.62661100  0.76254900  0.04985800  1
  Hf  Hf7  1  0.94111500  0.71281500  0.74648700  1
  Mg  Mg8  1  0.69191700  0.41801800  0.65683700  1
  N  N9  1  0.35590300  0.09953100  0.35963200  1
  N  N10  1  0.50109600  0.43077300  0.12103200  1
  N  N11  1  0.36006100  0.32759900  0.66427200  1
  N  N12  1  0.65251800  0.38911900  0.37715800  1
  N  N13  1  0.49552200  0.69020100  0.83979100  1
  N  N14  1  0.90246100  0.72670100  0.13038600  1
  N  N15  1  0.16456900  0.95850100  0.62982200  1
  N  N16  1  0.73902700  0.03555300  0.89325000  1
  O  O17  1  0.19389600  0.12362800  0.13008900  1
  O  O18  1  0.98485500  0.80117200  0.34882000  1
  O  O19  1  0.02778500  0.43857300  0.91278200  1
  O  O20  1  0.85416100  0.71274100  0.58311800  1
