# generated using pymatgen
data_MgCdTe2
_symmetry_space_group_name_H-M   'P 1'
_cell_length_a   8.04921127
_cell_length_b   8.04921127
_cell_length_c   8.04921127
_cell_angle_alpha   131.89176705
_cell_angle_beta   131.89176705
_cell_angle_gamma   70.40002286
_symmetry_Int_Tables_number   1
_chemical_formula_structural   MgCdTe2
_chemical_formula_sum   'Mg2 Cd2 Te4'
_cell_volume   283.19519126
_cell_formula_units_Z   2
loop_
 _symmetry_equiv_pos_site_id
 _symmetry_equiv_pos_as_xyz
  1  'x, y, z'
loop_
 _atom_site_type_symbol
 _atom_site_label
 _atom_site_symmetry_multiplicity
 _atom_site_fract_x
 _atom_site_fract_y
 _atom_site_fract_z
 _atom_site_occupancy
  Mg  Mg0  1  0.75000000  0.25000000  0.50000000  1
  Mg  Mg1  1  0.00000000  0.00000000  0.00000000  1
  Cd  Cd2  1  0.25000000  0.75000000  0.50000000  1
  Cd  Cd3  1  0.50000000  0.50000000  0.00000000  1
  Te  Te4  1  0.63175600  0.62500000  0.50675600  1
  Te  Te5  1  0.11824400  0.12500000  0.49324400  1
  Te  Te6  1  0.87500000  0.36824400  0.99324400  1
  Te  Te7  1  0.37500000  0.88175600  0.00675600  1
