# generated using pymatgen
data_SbS2NF6
_symmetry_space_group_name_H-M   'P 1'
_cell_length_a   6.00662568
_cell_length_b   6.00662568
_cell_length_c   5.51234555
_cell_angle_alpha   88.63127762
_cell_angle_beta   88.63127762
_cell_angle_gamma   70.50109522
_symmetry_Int_Tables_number   1
_chemical_formula_structural   SbS2NF6
_chemical_formula_sum   'Sb1 S2 N1 F6'
_cell_volume   187.39638206
_cell_formula_units_Z   1
loop_
 _symmetry_equiv_pos_site_id
 _symmetry_equiv_pos_as_xyz
  1  'x, y, z'
loop_
 _atom_site_type_symbol
 _atom_site_label
 _atom_site_symmetry_multiplicity
 _atom_site_fract_x
 _atom_site_fract_y
 _atom_site_fract_z
 _atom_site_occupancy
  Sb  Sb0  1  0.00000000  0.00000000  0.00000000  1
  S  S1  1  0.64017200  0.64017200  0.38659300  1
  S  S2  1  0.35982800  0.35982800  0.61340700  1
  N  N3  1  0.50000000  0.50000000  0.50000000  1
  F  F4  1  0.11324800  0.11324800  0.27807700  1
  F  F5  1  0.88675200  0.88675200  0.72192300  1
  F  F6  1  0.91804000  0.30943400  0.85109900  1
  F  F7  1  0.69056600  0.08196000  0.14890100  1
  F  F8  1  0.08196000  0.69056600  0.14890100  1
  F  F9  1  0.30943400  0.91804000  0.85109900  1
