# generated using pymatgen
data_Y2V10O53
_symmetry_space_group_name_H-M   'P 1'
_cell_length_a   8.75421700
_cell_length_b   10.04518857
_cell_length_c   12.44859451
_cell_angle_alpha   111.42743436
_cell_angle_beta   103.78289003
_cell_angle_gamma   91.98660492
_symmetry_Int_Tables_number   1
_chemical_formula_structural   Y2V10O53
_chemical_formula_sum   'Y2 V10 O53'
_cell_volume   980.68605027
_cell_formula_units_Z   1
loop_
 _symmetry_equiv_pos_site_id
 _symmetry_equiv_pos_as_xyz
  1  'x, y, z'
loop_
 _atom_site_type_symbol
 _atom_site_label
 _atom_site_symmetry_multiplicity
 _atom_site_fract_x
 _atom_site_fract_y
 _atom_site_fract_z
 _atom_site_occupancy
  Y  Y0  1  0.88365300  0.83204300  0.13538200  1
  Y  Y1  1  0.10289100  0.19224000  0.86253400  1
  V  V2  1  0.53298500  0.79212700  0.61104500  1
  V  V3  1  0.46942300  0.20574000  0.38784200  1
  V  V4  1  0.63279200  0.65503100  0.81057000  1
  V  V5  1  0.36616100  0.34330900  0.18756700  1
  V  V6  1  0.72209100  0.33829100  0.31072500  1
  V  V7  1  0.27761000  0.66160600  0.68886700  1
  V  V8  1  0.39319100  0.36493200  0.62853900  1
  V  V9  1  0.60598700  0.63264300  0.36841400  1
  V  V10  1  0.70131500  0.49207700  0.56304000  1
  V  V11  1  0.29957700  0.50667000  0.43622500  1
  O  O12  1  0.44628900  0.57253100  0.60299600  1
  O  O13  1  0.55567200  0.42529400  0.39611400  1
  O  O14  1  0.93657800  0.99647800  0.35239400  1
  O  O15  1  0.06369200  0.00971900  0.65049900  1
  O  O16  1  0.46733200  0.84036300  0.11714600  1
  O  O17  1  0.50231400  0.13880400  0.86329200  1
  O  O18  1  0.58745200  0.94715800  0.61034600  1
  O  O19  1  0.41455100  0.05013600  0.38725500  1
  O  O20  1  0.17171600  0.88102500  0.42330100  1
  O  O21  1  0.82513500  0.12098100  0.58557000  1
  O  O22  1  0.33727900  0.21740600  0.64277000  1
  O  O23  1  0.66004500  0.77953200  0.35217400  1
  O  O24  1  0.41180700  0.71173200  0.82522500  1
  O  O25  1  0.58991500  0.28733600  0.17406100  1
  O  O26  1  0.53363400  0.47429600  0.77756800  1
  O  O27  1  0.46581900  0.52234900  0.22102000  1
  O  O28  1  0.83611100  0.57551600  0.13585700  1
  O  O29  1  0.12893900  0.43522100  0.87398900  1
  O  O30  1  0.12855500  0.85969700  0.11591100  1
  O  O31  1  0.85546600  0.15783300  0.87818500  1
  O  O32  1  0.69699700  0.67348700  0.54662200  1
  O  O33  1  0.30402700  0.32461000  0.45194300  1
  O  O34  1  0.85041900  0.42440200  0.51048700  1
  O  O35  1  0.15097100  0.57471400  0.48947900  1
  O  O36  1  0.06658400  0.06534400  0.41876100  1
  O  O37  1  0.93314200  0.94337200  0.58306500  1
  O  O38  1  0.64346200  0.80432800  0.76532800  1
  O  O39  1  0.35811100  0.19443500  0.23354000  1
  O  O40  1  0.89144800  0.18725300  0.15017200  1
  O  O41  1  0.12255600  0.83577700  0.85253600  1
  O  O42  1  0.91399400  0.25685100  0.27563700  1
  O  O43  1  0.08986800  0.74488800  0.72766700  1
  O  O44  1  0.58547900  0.91587400  0.12346200  1
  O  O45  1  0.45006900  0.05914100  0.90557200  1
  O  O46  1  0.89943900  0.46493500  0.11065200  1
  O  O47  1  0.26471700  0.52681400  0.93059300  1
  O  O48  1  0.05379500  0.79479800  0.35900600  1
  O  O49  1  0.93819800  0.21181100  0.65455200  1
  O  O50  1  0.58174900  0.32482500  0.56087100  1
  O  O51  1  0.41909900  0.67273400  0.43785300  1
  O  O52  1  0.74247100  0.71898800  0.95904300  1
  O  O53  1  0.25433900  0.27924700  0.03935700  1
  O  O54  1  0.34312400  0.81192500  0.65094800  1
  O  O55  1  0.65902600  0.18596900  0.34816400  1
  O  O56  1  0.10651000  0.72985600  0.12075400  1
  O  O57  1  0.87784200  0.29174800  0.88310300  1
  O  O58  1  0.76997000  0.56908900  0.72497600  1
  O  O59  1  0.22921900  0.42876200  0.27443800  1
  O  O60  1  0.22996200  0.47274900  0.66388600  1
  O  O61  1  0.77113000  0.52688900  0.33571400  1
  O  O62  1  0.90732000  0.04939500  0.11604400  1
  O  O63  1  0.06959600  0.95978500  0.86945300  1
  O  O64  1  0.39209300  0.47148800  0.94529900  1
