# generated using pymatgen
data_NaMg2(SO4)3
_symmetry_space_group_name_H-M   'P 1'
_cell_length_a   8.69757795
_cell_length_b   8.69757795
_cell_length_c   9.07122016
_cell_angle_alpha   61.11378895
_cell_angle_beta   61.11378895
_cell_angle_gamma   59.34991670
_symmetry_Int_Tables_number   1
_chemical_formula_structural   NaMg2(SO4)3
_chemical_formula_sum   'Na2 Mg4 S6 O24'
_cell_volume   490.69322259
_cell_formula_units_Z   2
loop_
 _symmetry_equiv_pos_site_id
 _symmetry_equiv_pos_as_xyz
  1  'x, y, z'
loop_
 _atom_site_type_symbol
 _atom_site_label
 _atom_site_symmetry_multiplicity
 _atom_site_fract_x
 _atom_site_fract_y
 _atom_site_fract_z
 _atom_site_occupancy
  Na  Na0  1  0.50000000  0.00000000  0.00000000  1
  Na  Na1  1  0.00000000  0.50000000  0.50000000  1
  Mg  Mg2  1  0.65480800  0.14548700  0.55280100  1
  Mg  Mg3  1  0.34519200  0.85451300  0.44719900  1
  Mg  Mg4  1  0.85451300  0.34519200  0.94719900  1
  Mg  Mg5  1  0.14548700  0.65480800  0.05280100  1
  S  S6  1  0.94811000  0.05189000  0.75000000  1
  S  S7  1  0.05189000  0.94811000  0.25000000  1
  S  S8  1  0.53715200  0.75281300  0.75096800  1
  S  S9  1  0.46284800  0.24718700  0.24903200  1
  S  S10  1  0.24718700  0.46284800  0.74903200  1
  S  S11  1  0.75281300  0.53715200  0.25096800  1
  O  O12  1  0.41140600  0.28364000  0.73541600  1
  O  O13  1  0.58859400  0.71636000  0.26458400  1
  O  O14  1  0.71636000  0.58859400  0.76458400  1
  O  O15  1  0.28364000  0.41140600  0.23541600  1
  O  O16  1  0.76776200  0.07683300  0.74366200  1
  O  O17  1  0.23223800  0.92316700  0.25633800  1
  O  O18  1  0.92316700  0.23223800  0.75633800  1
  O  O19  1  0.07683300  0.76776200  0.24366200  1
  O  O20  1  0.56543600  0.91816500  0.73135900  1
  O  O21  1  0.43456400  0.08183500  0.26864100  1
  O  O22  1  0.08183500  0.43456400  0.76864100  1
  O  O23  1  0.91816500  0.56543600  0.23135900  1
  O  O24  1  0.50388400  0.78205900  0.59371100  1
  O  O25  1  0.49611600  0.21794100  0.40628900  1
  O  O26  1  0.21794100  0.49611600  0.90628900  1
  O  O27  1  0.78205900  0.50388400  0.09371100  1
  O  O28  1  0.27683100  0.61962900  0.58599000  1
  O  O29  1  0.72316900  0.38037100  0.41401000  1
  O  O30  1  0.38037100  0.72316900  0.91401000  1
  O  O31  1  0.61962900  0.27683100  0.08599000  1
  O  O32  1  0.10299900  0.01882900  0.58798900  1
  O  O33  1  0.89700100  0.98117100  0.41201100  1
  O  O34  1  0.98117100  0.89700100  0.91201100  1
  O  O35  1  0.01882900  0.10299900  0.08798900  1
