# generated using pymatgen
data_CaSiBHO5
_symmetry_space_group_name_H-M   'P 1'
_cell_length_a   8.44445300
_cell_length_b   5.85243100
_cell_length_c   8.25563367
_cell_angle_alpha   89.31985100
_cell_angle_beta   90.00000000
_cell_angle_gamma   90.00000000
_symmetry_Int_Tables_number   1
_chemical_formula_structural   CaSiBHO5
_chemical_formula_sum   'Ca4 Si4 B4 H4 O20'
_cell_volume   407.96944551
_cell_formula_units_Z   4
loop_
 _symmetry_equiv_pos_site_id
 _symmetry_equiv_pos_as_xyz
  1  'x, y, z'
loop_
 _atom_site_type_symbol
 _atom_site_label
 _atom_site_symmetry_multiplicity
 _atom_site_fract_x
 _atom_site_fract_y
 _atom_site_fract_z
 _atom_site_occupancy
  Ca  Ca0  1  0.20482300  0.10686600  0.68117100  1
  Ca  Ca1  1  0.70482300  0.89313400  0.81882900  1
  Ca  Ca2  1  0.79517700  0.89313400  0.31882900  1
  Ca  Ca3  1  0.29517700  0.10686600  0.18117100  1
  Si  Si4  1  0.54487000  0.43929900  0.85168400  1
  Si  Si5  1  0.04487000  0.56070100  0.64831600  1
  Si  Si6  1  0.45513000  0.56070100  0.14831600  1
  Si  Si7  1  0.95513000  0.43929900  0.35168400  1
  B  B8  1  0.63185700  0.32792800  0.38535400  1
  B  B9  1  0.13185700  0.67207200  0.11464600  1
  B  B10  1  0.36814300  0.67207200  0.61464600  1
  B  B11  1  0.86814300  0.32792800  0.88535400  1
  H  H12  1  0.45220500  0.82147000  0.36692500  1
  H  H13  1  0.95220500  0.17853000  0.13307500  1
  H  H14  1  0.54779500  0.17853000  0.63307500  1
  H  H15  1  0.04779500  0.82147000  0.86692500  1
  O  O16  1  0.97775800  0.68999700  0.47559100  1
  O  O17  1  0.47775800  0.31000300  0.02440900  1
  O  O18  1  0.02224200  0.31000300  0.52440900  1
  O  O19  1  0.52224200  0.68999700  0.97559100  1
  O  O20  1  0.65746400  0.14019200  0.47831100  1
  O  O21  1  0.15746400  0.85980800  0.02168900  1
  O  O22  1  0.34253600  0.85980800  0.52168900  1
  O  O23  1  0.84253600  0.14019200  0.97831100  1
  O  O24  1  0.74407400  0.47331200  0.83891400  1
  O  O25  1  0.24407400  0.52668800  0.66108600  1
  O  O26  1  0.25592600  0.52668800  0.16108600  1
  O  O27  1  0.75592600  0.47331200  0.33891400  1
  O  O28  1  0.51390200  0.61624000  0.68267700  1
  O  O29  1  0.01390200  0.38376000  0.81732300  1
  O  O30  1  0.48609800  0.38376000  0.31732300  1
  O  O31  1  0.98609800  0.61624000  0.18267700  1
  O  O32  1  0.49394100  0.81552600  0.25110200  1
  O  O33  1  0.99394100  0.18447400  0.24889800  1
  O  O34  1  0.50605900  0.18447400  0.74889800  1
  O  O35  1  0.00605900  0.81552600  0.75110200  1
