# generated using pymatgen
data_SrH4Ir(OF3)2
_symmetry_space_group_name_H-M   'P 1'
_cell_length_a   10.19687000
_cell_length_b   6.61440400
_cell_length_c   11.76981026
_cell_angle_alpha   69.88644597
_cell_angle_beta   90.00000000
_cell_angle_gamma   90.00000000
_symmetry_Int_Tables_number   1
_chemical_formula_structural   SrH4Ir(OF3)2
_chemical_formula_sum   'Sr4 H16 Ir4 O8 F24'
_cell_volume   745.41586798
_cell_formula_units_Z   4
loop_
 _symmetry_equiv_pos_site_id
 _symmetry_equiv_pos_as_xyz
  1  'x, y, z'
loop_
 _atom_site_type_symbol
 _atom_site_label
 _atom_site_symmetry_multiplicity
 _atom_site_fract_x
 _atom_site_fract_y
 _atom_site_fract_z
 _atom_site_occupancy
  Sr  Sr0  1  0.70809000  0.25225000  0.95248500  1
  Sr  Sr1  1  0.79191000  0.25225000  0.45248500  1
  Sr  Sr2  1  0.29191000  0.74775000  0.04751500  1
  Sr  Sr3  1  0.20809000  0.74775000  0.54751500  1
  H  H4  1  0.80987400  0.71189800  0.95727700  1
  H  H5  1  0.69012600  0.71189800  0.45727700  1
  H  H6  1  0.19012600  0.28810200  0.04272300  1
  H  H7  1  0.30987400  0.28810200  0.54272300  1
  H  H8  1  0.71971700  0.60404500  0.07185100  1
  H  H9  1  0.78028300  0.60404500  0.57185100  1
  H  H10  1  0.28028300  0.39595500  0.92814900  1
  H  H11  1  0.21971700  0.39595500  0.42814900  1
  H  H12  1  0.47657200  0.66048000  0.34942100  1
  H  H13  1  0.02342800  0.66048000  0.84942100  1
  H  H14  1  0.52342800  0.33952000  0.65057900  1
  H  H15  1  0.97657200  0.33952000  0.15057900  1
  H  H16  1  0.93338400  0.43648000  0.13450600  1
  H  H17  1  0.56661600  0.43648000  0.63450600  1
  H  H18  1  0.06661600  0.56352000  0.86549400  1
  H  H19  1  0.43338400  0.56352000  0.36549400  1
  Ir  Ir20  1  0.03855000  0.15791600  0.76115700  1
  Ir  Ir21  1  0.46145000  0.15791600  0.26115700  1
  Ir  Ir22  1  0.96145000  0.84208400  0.23884300  1
  Ir  Ir23  1  0.53855000  0.84208400  0.73884300  1
  O  O24  1  0.75985400  0.58330600  0.00178200  1
  O  O25  1  0.74014600  0.58330600  0.50178200  1
  O  O26  1  0.24014600  0.41669400  0.99821800  1
  O  O27  1  0.25985400  0.41669400  0.49821800  1
  O  O28  1  0.53339400  0.92509000  0.03940300  1
  O  O29  1  0.96660600  0.92509000  0.53940300  1
  O  O30  1  0.46660600  0.07491000  0.96059700  1
  O  O31  1  0.03339400  0.07491000  0.46059700  1
  F  F32  1  0.15659400  0.40527100  0.72571900  1
  F  F33  1  0.34340600  0.40527100  0.22571900  1
  F  F34  1  0.84340600  0.59472900  0.27428100  1
  F  F35  1  0.65659400  0.59472900  0.77428100  1
  F  F36  1  0.91593100  0.29607000  0.83977200  1
  F  F37  1  0.58406900  0.29607000  0.33977200  1
  F  F38  1  0.08406900  0.70393000  0.16022800  1
  F  F39  1  0.41593100  0.70393000  0.66022800  1
  F  F40  1  0.91371800  0.92829800  0.79890400  1
  F  F41  1  0.58628200  0.92829800  0.29890400  1
  F  F42  1  0.08628200  0.07170200  0.20109600  1
  F  F43  1  0.41371800  0.07170200  0.70109600  1
  F  F44  1  0.15405200  0.01019900  0.68286300  1
  F  F45  1  0.34594800  0.01019900  0.18286300  1
  F  F46  1  0.84594800  0.98980100  0.31713700  1
  F  F47  1  0.65405200  0.98980100  0.81713700  1
  F  F48  1  0.93693200  0.30669100  0.61170900  1
  F  F49  1  0.56306800  0.30669100  0.11170900  1
  F  F50  1  0.06306800  0.69330900  0.38829100  1
  F  F51  1  0.43693200  0.69330900  0.88829100  1
  F  F52  1  0.14177800  0.01906600  0.91233000  1
  F  F53  1  0.35822200  0.01906600  0.41233000  1
  F  F54  1  0.85822200  0.98093400  0.08767000  1
  F  F55  1  0.64177800  0.98093400  0.58767000  1
