# generated using pymatgen
data_YbMgSe3
_symmetry_space_group_name_H-M   'P 1'
_cell_length_a   5.88789073
_cell_length_b   5.88789073
_cell_length_c   7.57070570
_cell_angle_alpha   80.29697890
_cell_angle_beta   80.29697890
_cell_angle_gamma   100.81878621
_symmetry_Int_Tables_number   1
_chemical_formula_structural   YbMgSe3
_chemical_formula_sum   'Yb2 Mg2 Se6'
_cell_volume   248.61226441
_cell_formula_units_Z   2
loop_
 _symmetry_equiv_pos_site_id
 _symmetry_equiv_pos_as_xyz
  1  'x, y, z'
loop_
 _atom_site_type_symbol
 _atom_site_label
 _atom_site_symmetry_multiplicity
 _atom_site_fract_x
 _atom_site_fract_y
 _atom_site_fract_z
 _atom_site_occupancy
  Yb  Yb0  1  0.18714100  0.18714100  0.60349000  1
  Yb  Yb1  1  0.81285900  0.81285900  0.39651000  1
  Mg  Mg2  1  0.29644600  0.70355400  0.00000000  1
  Mg  Mg3  1  0.70355400  0.29644600  0.00000000  1
  Se  Se4  1  0.04290700  0.61978200  0.73639800  1
  Se  Se5  1  0.95709300  0.38021800  0.26360200  1
  Se  Se6  1  0.38021800  0.95709300  0.26360200  1
  Se  Se7  1  0.61978200  0.04290700  0.73639800  1
  Se  Se8  1  0.47552700  0.47552700  0.26333800  1
  Se  Se9  1  0.52447300  0.52447300  0.73666200  1
