# generated using pymatgen
data_Sr3RhF12
_symmetry_space_group_name_H-M   'P 1'
_cell_length_a   6.28649478
_cell_length_b   7.83460817
_cell_length_c   7.84378789
_cell_angle_alpha   119.96129620
_cell_angle_beta   90.32928156
_cell_angle_gamma   89.34064555
_symmetry_Int_Tables_number   1
_chemical_formula_structural   Sr3RhF12
_chemical_formula_sum   'Sr3 Rh1 F12'
_cell_volume   334.67463655
_cell_formula_units_Z   1
loop_
 _symmetry_equiv_pos_site_id
 _symmetry_equiv_pos_as_xyz
  1  'x, y, z'
loop_
 _atom_site_type_symbol
 _atom_site_label
 _atom_site_symmetry_multiplicity
 _atom_site_fract_x
 _atom_site_fract_y
 _atom_site_fract_z
 _atom_site_occupancy
  Sr  Sr0  1  0.50000000  0.00000000  0.00000000  1
  Sr  Sr1  1  0.00000000  0.50000000  0.50000000  1
  Sr  Sr2  1  0.00000000  0.00000000  0.50000000  1
  Rh  Rh3  1  0.00000000  0.00000000  0.00000000  1
  F  F4  1  0.79103400  0.29557900  0.58694200  1
  F  F5  1  0.20896600  0.70442100  0.41305800  1
  F  F6  1  0.81192200  0.76614200  0.82841600  1
  F  F7  1  0.20896600  0.29136300  0.58694200  1
  F  F8  1  0.18807800  0.23385800  0.17158400  1
  F  F9  1  0.79103400  0.70863700  0.41305800  1
  F  F10  1  0.18968200  0.93512900  0.17099700  1
  F  F11  1  0.18807800  0.06227500  0.82841600  1
  F  F12  1  0.81031800  0.06487100  0.82900300  1
  F  F13  1  0.81192200  0.93772500  0.17158400  1
  F  F14  1  0.81031800  0.23586800  0.17099700  1
  F  F15  1  0.18968200  0.76413200  0.82900300  1
