# generated using pymatgen
data_La7SmCo6(AgO10)2
_symmetry_space_group_name_H-M   'P 1'
_cell_length_a   10.78768201
_cell_length_b   11.43909463
_cell_length_c   18.07450709
_cell_angle_alpha   108.45005177
_cell_angle_beta   107.36512398
_cell_angle_gamma   90.13149198
_symmetry_Int_Tables_number   1
_chemical_formula_structural   La7SmCo6(AgO10)2
_chemical_formula_sum   'La28 Sm4 Co24 Ag8 O80'
_cell_volume   2007.77841637
_cell_formula_units_Z   4
loop_
 _symmetry_equiv_pos_site_id
 _symmetry_equiv_pos_as_xyz
  1  'x, y, z'
loop_
 _atom_site_type_symbol
 _atom_site_label
 _atom_site_symmetry_multiplicity
 _atom_site_fract_x
 _atom_site_fract_y
 _atom_site_fract_z
 _atom_site_occupancy
  La  La0  1  0.30600000  0.06442200  0.11282900  1
  La  La1  1  0.31044100  0.06184700  0.61318100  1
  La  La2  1  0.31074400  0.56178500  0.61327900  1
  La  La3  1  0.80694800  0.06245700  0.61112400  1
  La  La4  1  0.80900100  0.56493000  0.11165800  1
  La  La5  1  0.81152900  0.56455500  0.61340200  1
  La  La6  1  0.19798600  0.43401900  0.38678900  1
  La  La7  1  0.19525000  0.43524900  0.88766100  1
  La  La8  1  0.19610500  0.93541600  0.38526700  1
  La  La9  1  0.19581300  0.93640700  0.88760600  1
  La  La10  1  0.69957300  0.43538200  0.38836600  1
  La  La11  1  0.69814300  0.93459400  0.38578100  1
  La  La12  1  0.69565600  0.93694700  0.88781700  1
  La  La13  1  0.06191000  0.29921000  0.11430000  1
  La  La14  1  0.05933600  0.29738700  0.61199100  1
  La  La15  1  0.05835900  0.79833500  0.61285800  1
  La  La16  1  0.55996000  0.29762800  0.11292900  1
  La  La17  1  0.56110500  0.30130800  0.61588700  1
  La  La18  1  0.55954800  0.79864900  0.11305300  1
  La  La19  1  0.55836700  0.79835000  0.61212800  1
  La  La20  1  0.44809200  0.20323500  0.38905500  1
  La  La21  1  0.44820300  0.19995800  0.88692200  1
  La  La22  1  0.44442200  0.70149000  0.38326500  1
  La  La23  1  0.44760900  0.69721600  0.88672500  1
  La  La24  1  0.94635400  0.20139700  0.38499000  1
  La  La25  1  0.94375700  0.20097800  0.88826600  1
  La  La26  1  0.94558300  0.70279700  0.38714200  1
  La  La27  1  0.94697900  0.70045700  0.88658100  1
  Sm  Sm28  1  0.30627500  0.56881400  0.10978800  1
  Sm  Sm29  1  0.80858900  0.06837500  0.11157500  1
  Sm  Sm30  1  0.69576800  0.43616000  0.89139600  1
  Sm  Sm31  1  0.06093800  0.79444700  0.10960300  1
  Co  Co32  1  0.00742300  0.00082600  0.00292700  1
  Co  Co33  1  0.00769100  0.00063500  0.50119800  1
  Co  Co34  1  0.00851100  0.50118800  0.00389200  1
  Co  Co35  1  0.00504900  0.49806800  0.49484400  1
  Co  Co36  1  0.50969800  0.00189700  0.00517500  1
  Co  Co37  1  0.50351600  0.99729600  0.49414400  1
  Co  Co38  1  0.50917000  0.50172000  0.00443100  1
  Co  Co39  1  0.50654000  0.50016500  0.49786200  1
  Co  Co40  1  0.25649200  0.25094500  0.99953300  1
  Co  Co41  1  0.25537000  0.24701200  0.49656400  1
  Co  Co42  1  0.25986800  0.75387700  0.00556100  1
  Co  Co43  1  0.25454600  0.74728200  0.49570800  1
  Co  Co44  1  0.76009200  0.25336000  0.00614400  1
  Co  Co45  1  0.75467200  0.24712400  0.49633100  1
  Co  Co46  1  0.76089900  0.75295700  0.00336000  1
  Co  Co47  1  0.75557900  0.74938900  0.49833300  1
  Co  Co48  1  0.10651300  0.09455800  0.24738000  1
  Co  Co49  1  0.10857000  0.09958400  0.75017100  1
  Co  Co50  1  0.10373800  0.59717300  0.24827500  1
  Co  Co51  1  0.60402300  0.09618900  0.24969200  1
  Co  Co52  1  0.60750000  0.59690400  0.24837700  1
  Co  Co53  1  0.35959900  0.90378000  0.24841700  1
  Co  Co54  1  0.86241800  0.40429000  0.24947500  1
  Co  Co55  1  0.86749100  0.90044500  0.75050800  1
  Ag  Ag56  1  0.12752400  0.61714000  0.75027400  1
  Ag  Ag57  1  0.62160900  0.12157300  0.75041300  1
  Ag  Ag58  1  0.62480100  0.61538800  0.75121100  1
  Ag  Ag59  1  0.37057300  0.38551900  0.24939400  1
  Ag  Ag60  1  0.37759700  0.37804200  0.75088700  1
  Ag  Ag61  1  0.36831600  0.88022300  0.75071000  1
  Ag  Ag62  1  0.87281900  0.38318500  0.75037000  1
  Ag  Ag63  1  0.87043900  0.88550700  0.24854300  1
  O  O64  1  0.12328600  0.11943700  0.48225200  1
  O  O65  1  0.11892600  0.11632700  0.98290900  1
  O  O66  1  0.12039700  0.61684200  0.47576700  1
  O  O67  1  0.12315500  0.62333800  0.99311200  1
  O  O68  1  0.62127100  0.11492600  0.47644000  1
  O  O69  1  0.62513300  0.12068600  0.99167800  1
  O  O70  1  0.62392500  0.62209300  0.48152100  1
  O  O71  1  0.62402500  0.61564200  0.98651800  1
  O  O72  1  0.14382900  0.39083900  0.02395700  1
  O  O73  1  0.13531400  0.37357700  0.50790200  1
  O  O74  1  0.13702200  0.88419400  0.02064600  1
  O  O75  1  0.13992000  0.87784100  0.51717900  1
  O  O76  1  0.64111600  0.38654800  0.02215900  1
  O  O77  1  0.63937800  0.37655400  0.51507300  1
  O  O78  1  0.64635500  0.89276900  0.02801300  1
  O  O79  1  0.63567800  0.87469600  0.51019200  1
  O  O80  1  0.36767500  0.11423200  0.47725000  1
  O  O81  1  0.37337000  0.11129900  0.98246000  1
  O  O82  1  0.36773200  0.61487300  0.47497900  1
  O  O83  1  0.37562200  0.61588200  0.99286100  1
  O  O84  1  0.86993500  0.11500100  0.47939300  1
  O  O85  1  0.87374000  0.11388600  0.99080400  1
  O  O86  1  0.87014400  0.61912500  0.48222400  1
  O  O87  1  0.87115800  0.60642800  0.98124300  1
  O  O88  1  0.38979600  0.39165400  0.02002000  1
  O  O89  1  0.38484600  0.37918400  0.51225200  1
  O  O90  1  0.39410700  0.89137300  0.02426600  1
  O  O91  1  0.38280300  0.87975100  0.50901300  1
  O  O92  1  0.89430400  0.38948100  0.02271000  1
  O  O93  1  0.88302900  0.38047600  0.50957100  1
  O  O94  1  0.89547100  0.89296900  0.02509300  1
  O  O95  1  0.88564500  0.88153400  0.51593300  1
  O  O96  1  0.09123700  0.10963200  0.13919000  1
  O  O97  1  0.07955100  0.10083300  0.63486600  1
  O  O98  1  0.09369400  0.61234900  0.14103700  1
  O  O99  1  0.07728400  0.59639800  0.61975300  1
  O  O100  1  0.59621400  0.11140300  0.14317100  1
  O  O101  1  0.57831000  0.09646100  0.62001900  1
  O  O102  1  0.58998900  0.60756100  0.13898100  1
  O  O103  1  0.57363700  0.59630300  0.61940500  1
  O  O104  1  0.45840600  0.40197000  0.37628900  1
  O  O105  1  0.46356200  0.40273200  0.87984200  1
  O  O106  1  0.44250400  0.89708500  0.36067900  1
  O  O107  1  0.46359800  0.89673600  0.87865400  1
  O  O108  1  0.94227500  0.39743500  0.36211600  1
  O  O109  1  0.96040900  0.39725400  0.87897300  1
  O  O110  1  0.95707300  0.90037700  0.37596400  1
  O  O111  1  0.95000000  0.89636700  0.86505600  1
  O  O112  1  0.33277900  0.27096000  0.12364300  1
  O  O113  1  0.32747700  0.27252000  0.62157100  1
  O  O114  1  0.33047500  0.78329100  0.13692200  1
  O  O115  1  0.33528000  0.77031200  0.62231100  1
  O  O116  1  0.83495500  0.28289600  0.13843600  1
  O  O117  1  0.82719200  0.26954300  0.62134600  1
  O  O118  1  0.84320200  0.77179900  0.12320500  1
  O  O119  1  0.83777600  0.78219000  0.63645000  1
  O  O120  1  0.19639600  0.21387700  0.35855300  1
  O  O121  1  0.19620100  0.21741100  0.86502300  1
  O  O122  1  0.19492000  0.72013500  0.35688900  1
  O  O123  1  0.20664100  0.72706600  0.88081400  1
  O  O124  1  0.69512100  0.21762700  0.35929500  1
  O  O125  1  0.70880000  0.22973800  0.88052300  1
  O  O126  1  0.69920900  0.71711400  0.35918300  1
  O  O127  1  0.70595800  0.73096500  0.88268300  1
  O  O128  1  0.41489200  0.07327000  0.25010200  1
  O  O129  1  0.38908000  0.09226900  0.75033400  1
  O  O130  1  0.41857100  0.59272300  0.24402000  1
  O  O131  1  0.39348200  0.59251800  0.75006000  1
  O  O132  1  0.91879900  0.09290700  0.24576700  1
  O  O133  1  0.91682600  0.07424800  0.74999500  1
  O  O134  1  0.91527700  0.57334400  0.24948400  1
  O  O135  1  0.88990000  0.59578300  0.75001600  1
  O  O136  1  0.14064800  0.42875400  0.25058600  1
  O  O137  1  0.14211000  0.40159400  0.74998100  1
  O  O138  1  0.16682300  0.92490600  0.24340900  1
  O  O139  1  0.13679300  0.92794800  0.75049900  1
  O  O140  1  0.67303500  0.43114300  0.25060500  1
  O  O141  1  0.64402500  0.40551400  0.75586700  1
  O  O142  1  0.64090200  0.92688300  0.24970100  1
  O  O143  1  0.67961500  0.90695700  0.75002300  1
