# generated using pymatgen
data_SmMgSe3
_symmetry_space_group_name_H-M   'P 1'
_cell_length_a   7.36534590
_cell_length_b   7.36534590
_cell_length_c   6.89311034
_cell_angle_alpha   76.29442333
_cell_angle_beta   76.29442333
_cell_angle_gamma   116.97139841
_symmetry_Int_Tables_number   1
_chemical_formula_structural   SmMgSe3
_chemical_formula_sum   'Sm2 Mg2 Se6'
_cell_volume   297.06455386
_cell_formula_units_Z   2
loop_
 _symmetry_equiv_pos_site_id
 _symmetry_equiv_pos_as_xyz
  1  'x, y, z'
loop_
 _atom_site_type_symbol
 _atom_site_label
 _atom_site_symmetry_multiplicity
 _atom_site_fract_x
 _atom_site_fract_y
 _atom_site_fract_z
 _atom_site_occupancy
  Sm  Sm0  1  0.80387000  0.80387000  0.31243600  1
  Sm  Sm1  1  0.19613000  0.19613000  0.68756400  1
  Mg  Mg2  1  0.33337900  0.66662100  0.00000000  1
  Mg  Mg3  1  0.66662100  0.33337900  0.00000000  1
  Se  Se4  1  0.23278200  0.88815400  0.21696800  1
  Se  Se5  1  0.76721800  0.11184600  0.78303200  1
  Se  Se6  1  0.11184600  0.76721800  0.78303200  1
  Se  Se7  1  0.88815400  0.23278200  0.21696800  1
  Se  Se8  1  0.53169800  0.53169800  0.74754700  1
  Se  Se9  1  0.46830200  0.46830200  0.25245300  1
