# generated using pymatgen
data_TeS3N2
_symmetry_space_group_name_H-M   'P 1'
_cell_length_a   7.01993200
_cell_length_b   7.63832000
_cell_length_c   11.54287300
_cell_angle_alpha   90.00000000
_cell_angle_beta   90.00000000
_cell_angle_gamma   90.00000000
_symmetry_Int_Tables_number   1
_chemical_formula_structural   TeS3N2
_chemical_formula_sum   'Te4 S12 N8'
_cell_volume   618.93447157
_cell_formula_units_Z   4
loop_
 _symmetry_equiv_pos_site_id
 _symmetry_equiv_pos_as_xyz
  1  'x, y, z'
loop_
 _atom_site_type_symbol
 _atom_site_label
 _atom_site_symmetry_multiplicity
 _atom_site_fract_x
 _atom_site_fract_y
 _atom_site_fract_z
 _atom_site_occupancy
  Te  Te0  1  0.10936800  0.80507500  0.25000000  1
  Te  Te1  1  0.39063200  0.30507500  0.25000000  1
  Te  Te2  1  0.89063200  0.19492500  0.75000000  1
  Te  Te3  1  0.60936800  0.69492500  0.75000000  1
  S  S4  1  0.64281000  0.04152600  0.25000000  1
  S  S5  1  0.85719000  0.54152600  0.25000000  1
  S  S6  1  0.35719000  0.95847400  0.75000000  1
  S  S7  1  0.14281000  0.45847400  0.75000000  1
  S  S8  1  0.38138100  0.50935700  0.04120600  1
  S  S9  1  0.11861900  0.00935700  0.45879400  1
  S  S10  1  0.61861900  0.49064300  0.54120600  1
  S  S11  1  0.88138100  0.99064300  0.95879400  1
  S  S12  1  0.61861900  0.49064300  0.95879400  1
  S  S13  1  0.88138100  0.99064300  0.54120600  1
  S  S14  1  0.38138100  0.50935700  0.45879400  1
  S  S15  1  0.11861900  0.00935700  0.04120600  1
  N  N16  1  0.94190300  0.63706600  0.14081500  1
  N  N17  1  0.55809700  0.13706600  0.35918500  1
  N  N18  1  0.05809700  0.36293400  0.64081500  1
  N  N19  1  0.44190300  0.86293400  0.85918500  1
  N  N20  1  0.05809700  0.36293400  0.85918500  1
  N  N21  1  0.44190300  0.86293400  0.64081500  1
  N  N22  1  0.94190300  0.63706600  0.35918500  1
  N  N23  1  0.55809700  0.13706600  0.14081500  1
