# generated using pymatgen
data_BiOs3(CO)9
_symmetry_space_group_name_H-M   'P 1'
_cell_length_a   7.64721200
_cell_length_b   9.56696210
_cell_length_c   13.05828228
_cell_angle_alpha   91.27177363
_cell_angle_beta   105.28645933
_cell_angle_gamma   105.00422860
_symmetry_Int_Tables_number   1
_chemical_formula_structural   BiOs3(CO)9
_chemical_formula_sum   'Bi2 Os6 C18 O18'
_cell_volume   885.92810762
_cell_formula_units_Z   2
loop_
 _symmetry_equiv_pos_site_id
 _symmetry_equiv_pos_as_xyz
  1  'x, y, z'
loop_
 _atom_site_type_symbol
 _atom_site_label
 _atom_site_symmetry_multiplicity
 _atom_site_fract_x
 _atom_site_fract_y
 _atom_site_fract_z
 _atom_site_occupancy
  Bi  Bi0  1  0.49865500  0.20699100  0.58237500  1
  Bi  Bi1  1  0.50134500  0.79300900  0.41762500  1
  Os  Os2  1  0.68664000  0.24660000  0.82493700  1
  Os  Os3  1  0.31336000  0.75340000  0.17506300  1
  Os  Os4  1  0.53299000  0.44573800  0.72111900  1
  Os  Os5  1  0.46701000  0.55426200  0.27888100  1
  Os  Os6  1  0.32543800  0.10495200  0.74061900  1
  Os  Os7  1  0.67456200  0.89504800  0.25938100  1
  C  C8  1  0.89967800  0.36759300  0.79070700  1
  C  C9  1  0.10032200  0.63240700  0.20929300  1
  C  C10  1  0.81843800  0.27252900  0.97175500  1
  C  C11  1  0.18156200  0.72747100  0.02824500  1
  C  C12  1  0.71451300  0.05594900  0.80801000  1
  C  C13  1  0.28548700  0.94405100  0.19199000  1
  C  C14  1  0.69942200  0.60364100  0.68455900  1
  C  C15  1  0.30057800  0.39635900  0.31544100  1
  C  C16  1  0.33071000  0.48351100  0.61503100  1
  C  C17  1  0.66929000  0.51648900  0.38496900  1
  C  C18  1  0.51443500  0.54691000  0.84519700  1
  C  C19  1  0.48556500  0.45309000  0.15480300  1
  C  C20  1  0.09442400  0.11169200  0.64450900  1
  C  C21  1  0.90557600  0.88830800  0.35549100  1
  C  C22  1  0.26160200  0.10225500  0.87348000  1
  C  C23  1  0.73839800  0.89774500  0.12652000  1
  C  C24  1  0.26513100  0.90248400  0.71155400  1
  C  C25  1  0.73486900  0.09751600  0.28844600  1
  O  O26  1  0.03122800  0.42784200  0.76401100  1
  O  O27  1  0.96877200  0.57215800  0.23598900  1
  O  O28  1  0.90012000  0.28913700  0.06214400  1
  O  O29  1  0.09988000  0.71086300  0.93785600  1
  O  O30  1  0.74244400  0.94514000  0.78979800  1
  O  O31  1  0.25755600  0.05486000  0.21020200  1
  O  O32  1  0.80938300  0.69889000  0.66270000  1
  O  O33  1  0.19061700  0.30111000  0.33730000  1
  O  O34  1  0.20929000  0.50851100  0.54974600  1
  O  O35  1  0.79071000  0.49148900  0.45025400  1
  O  O36  1  0.49393100  0.61607500  0.91304200  1
  O  O37  1  0.50606900  0.38392500  0.08695800  1
  O  O38  1  0.95194800  0.11910300  0.58721500  1
  O  O39  1  0.04805200  0.88089700  0.41278500  1
  O  O40  1  0.20431200  0.09414500  0.94793700  1
  O  O41  1  0.79568800  0.90585500  0.05206300  1
  O  O42  1  0.24445200  0.77810000  0.69709100  1
  O  O43  1  0.75554800  0.22190000  0.30290900  1
