# generated using pymatgen
data_Hg3H4(IO6)2
_symmetry_space_group_name_H-M   'P 1'
_cell_length_a   13.88812900
_cell_length_b   9.30627500
_cell_length_c   10.05904061
_cell_angle_alpha   87.94051095
_cell_angle_beta   90.00000000
_cell_angle_gamma   90.00000000
_symmetry_Int_Tables_number   1
_chemical_formula_structural   Hg3H4(IO6)2
_chemical_formula_sum   'Hg12 H16 I8 O48'
_cell_volume   1299.25848896
_cell_formula_units_Z   4
loop_
 _symmetry_equiv_pos_site_id
 _symmetry_equiv_pos_as_xyz
  1  'x, y, z'
loop_
 _atom_site_type_symbol
 _atom_site_label
 _atom_site_symmetry_multiplicity
 _atom_site_fract_x
 _atom_site_fract_y
 _atom_site_fract_z
 _atom_site_occupancy
  Hg  Hg0  1  0.08202200  0.03663100  0.64359700  1
  Hg  Hg1  1  0.58202200  0.96336900  0.85640300  1
  Hg  Hg2  1  0.91797800  0.96336900  0.35640300  1
  Hg  Hg3  1  0.41797800  0.03663100  0.14359700  1
  Hg  Hg4  1  0.47175800  0.20541300  0.48536600  1
  Hg  Hg5  1  0.97175800  0.79458700  0.01463400  1
  Hg  Hg6  1  0.52824200  0.79458700  0.51463400  1
  Hg  Hg7  1  0.02824200  0.20541300  0.98536600  1
  Hg  Hg8  1  0.40655700  0.65242800  0.93510800  1
  Hg  Hg9  1  0.90655700  0.34757200  0.56489200  1
  Hg  Hg10  1  0.59344300  0.34757200  0.06489200  1
  Hg  Hg11  1  0.09344300  0.65242800  0.43510800  1
  H  H12  1  0.74554800  0.90724500  0.50088300  1
  H  H13  1  0.24554800  0.09275500  0.99911700  1
  H  H14  1  0.25445200  0.09275500  0.49911700  1
  H  H15  1  0.75445200  0.90724500  0.00088300  1
  H  H16  1  0.34336800  0.21176200  0.81711600  1
  H  H17  1  0.84336800  0.78823800  0.68288400  1
  H  H18  1  0.65663200  0.78823800  0.18288400  1
  H  H19  1  0.15663200  0.21176200  0.31711600  1
  H  H20  1  0.27824200  0.64234200  0.49818900  1
  H  H21  1  0.77824200  0.35765800  0.00181100  1
  H  H22  1  0.72175800  0.35765800  0.50181100  1
  H  H23  1  0.22175800  0.64234200  0.99818900  1
  H  H24  1  0.16157600  0.84390000  0.95797900  1
  H  H25  1  0.66157600  0.15610000  0.54202100  1
  H  H26  1  0.83842400  0.15610000  0.04202100  1
  H  H27  1  0.33842400  0.84390000  0.45797900  1
  I  I28  1  0.84030700  0.03346300  0.79461000  1
  I  I29  1  0.34030700  0.96653700  0.70539000  1
  I  I30  1  0.15969300  0.96653700  0.20539000  1
  I  I31  1  0.65969300  0.03346300  0.29461000  1
  I  I32  1  0.11960900  0.51634800  0.77865400  1
  I  I33  1  0.61960900  0.48365200  0.72134600  1
  I  I34  1  0.88039100  0.48365200  0.22134600  1
  I  I35  1  0.38039100  0.51634800  0.27865400  1
  O  O36  1  0.46888000  0.04015800  0.65637900  1
  O  O37  1  0.96888000  0.95984200  0.84362100  1
  O  O38  1  0.53112000  0.95984200  0.34362100  1
  O  O39  1  0.03112000  0.04015800  0.15637900  1
  O  O40  1  0.30696900  0.11392200  0.56297600  1
  O  O41  1  0.80696900  0.88607800  0.93702400  1
  O  O42  1  0.69303100  0.88607800  0.43702400  1
  O  O43  1  0.19303100  0.11392200  0.06297600  1
  O  O44  1  0.69978400  0.07925800  0.78621600  1
  O  O45  1  0.19978400  0.92074200  0.71378400  1
  O  O46  1  0.30021600  0.92074200  0.21378400  1
  O  O47  1  0.80021600  0.07925800  0.28621600  1
  O  O48  1  0.95064400  0.12833800  0.59699100  1
  O  O49  1  0.45064400  0.87166200  0.90300900  1
  O  O50  1  0.04935600  0.87166200  0.40300900  1
  O  O51  1  0.54935600  0.12833800  0.09699100  1
  O  O52  1  0.31963500  0.11603800  0.84501300  1
  O  O53  1  0.81963500  0.88396200  0.65498700  1
  O  O54  1  0.68036500  0.88396200  0.15498700  1
  O  O55  1  0.18036500  0.11603800  0.34501300  1
  O  O56  1  0.85794200  0.19466600  0.95379600  1
  O  O57  1  0.35794200  0.80533400  0.54620400  1
  O  O58  1  0.14205800  0.80533400  0.04620400  1
  O  O59  1  0.64205800  0.19466600  0.45379600  1
  O  O60  1  0.11879900  0.32356900  0.83219500  1
  O  O61  1  0.61879900  0.67643100  0.66780500  1
  O  O62  1  0.88120100  0.67643100  0.16780500  1
  O  O63  1  0.38120100  0.32356900  0.33219500  1
  O  O64  1  0.04223400  0.50321800  0.62708800  1
  O  O65  1  0.54223400  0.49678200  0.87291200  1
  O  O66  1  0.95776600  0.49678200  0.37291200  1
  O  O67  1  0.45776600  0.50321800  0.12708800  1
  O  O68  1  0.28537900  0.39825000  0.63501900  1
  O  O69  1  0.78537900  0.60175000  0.86498100  1
  O  O70  1  0.71462100  0.60175000  0.36498100  1
  O  O71  1  0.21462100  0.39825000  0.13501900  1
  O  O72  1  0.03216100  0.59078600  0.88915900  1
  O  O73  1  0.53216100  0.40921400  0.61084100  1
  O  O74  1  0.96783900  0.40921400  0.11084100  1
  O  O75  1  0.46783900  0.59078600  0.38915900  1
  O  O76  1  0.25475900  0.57922500  0.93564100  1
  O  O77  1  0.75475900  0.42077500  0.56435900  1
  O  O78  1  0.74524100  0.42077500  0.06435900  1
  O  O79  1  0.24524100  0.57922500  0.43564100  1
  O  O80  1  0.14997700  0.40929900  0.21920100  1
  O  O81  1  0.64997700  0.59070100  0.28079900  1
  O  O82  1  0.85002300  0.59070100  0.78079900  1
  O  O83  1  0.35002300  0.40929900  0.71920100  1
