# generated using pymatgen
data_NiSn3(ClO)6
_symmetry_space_group_name_H-M   'P 1'
_cell_length_a   9.08516664
_cell_length_b   6.87862579
_cell_length_c   11.83803330
_cell_angle_alpha   76.74006058
_cell_angle_beta   108.71998834
_cell_angle_gamma   120.56467482
_symmetry_Int_Tables_number   1
_chemical_formula_structural   NiSn3(ClO)6
_chemical_formula_sum   'Ni1 Sn3 Cl6 O6'
_cell_volume   601.32088693
_cell_formula_units_Z   1
loop_
 _symmetry_equiv_pos_site_id
 _symmetry_equiv_pos_as_xyz
  1  'x, y, z'
loop_
 _atom_site_type_symbol
 _atom_site_label
 _atom_site_symmetry_multiplicity
 _atom_site_fract_x
 _atom_site_fract_y
 _atom_site_fract_z
 _atom_site_occupancy
  Ni  Ni0  1  0.00000000  0.00000000  0.00000000  1
  Sn  Sn1  1  0.00000000  0.00000000  0.50000000  1
  Sn  Sn2  1  0.50000000  0.50000000  0.00000000  1
  Sn  Sn3  1  0.00000000  0.50000000  0.00000000  1
  Cl  Cl4  1  0.75520300  0.99093000  0.56021400  1
  Cl  Cl5  1  0.24479700  0.00907000  0.43978600  1
  Cl  Cl6  1  0.47600100  0.67775400  0.78811700  1
  Cl  Cl7  1  0.52399900  0.32224600  0.21188300  1
  Cl  Cl8  1  0.82765900  0.26349000  0.79795300  1
  Cl  Cl9  1  0.17234100  0.73651000  0.20204700  1
  O  O10  1  0.02191100  0.27693900  0.88297900  1
  O  O11  1  0.97808900  0.72306100  0.11702100  1
  O  O12  1  0.04638400  0.86176500  0.88357200  1
  O  O13  1  0.95361600  0.13823500  0.11642800  1
  O  O14  1  0.80983100  0.97634800  0.04443800  1
  O  O15  1  0.19016900  0.02365200  0.95556200  1
