# generated using pymatgen
data_H9C3SN4O3
_symmetry_space_group_name_H-M   'P 1'
_cell_length_a   7.09377100
_cell_length_b   7.37772210
_cell_length_c   7.95299394
_cell_angle_alpha   111.38519331
_cell_angle_beta   90.89207286
_cell_angle_gamma   91.14654006
_symmetry_Int_Tables_number   1
_chemical_formula_structural   H9C3SN4O3
_chemical_formula_sum   'H18 C6 S2 N8 O6'
_cell_volume   387.37519152
_cell_formula_units_Z   2
loop_
 _symmetry_equiv_pos_site_id
 _symmetry_equiv_pos_as_xyz
  1  'x, y, z'
loop_
 _atom_site_type_symbol
 _atom_site_label
 _atom_site_symmetry_multiplicity
 _atom_site_fract_x
 _atom_site_fract_y
 _atom_site_fract_z
 _atom_site_occupancy
  H  H0  1  0.15445400  0.26485500  0.59992800  1
  H  H1  1  0.84554600  0.73514500  0.40007200  1
  H  H2  1  0.11507300  0.34777800  0.41554500  1
  H  H3  1  0.88492600  0.65222200  0.58445500  1
  H  H4  1  0.92647800  0.40136500  0.13231700  1
  H  H5  1  0.07352200  0.59863500  0.86768300  1
  H  H6  1  0.26418600  0.92409200  0.08092600  1
  H  H7  1  0.73581400  0.07590800  0.91907400  1
  H  H8  1  0.61942900  0.30196300  0.34219500  1
  H  H9  1  0.38057100  0.69803700  0.65780500  1
  H  H10  1  0.39164600  0.63439700  0.42209500  1
  H  H11  1  0.60835400  0.36560300  0.57790500  1
  H  H12  1  0.13650000  0.48620100  0.14834700  1
  H  H13  1  0.86350000  0.51379900  0.85165300  1
  H  H14  1  0.30078500  0.80416600  0.28196000  1
  H  H15  1  0.69921500  0.19583400  0.71804000  1
  H  H16  1  0.17737600  0.16282900  0.13626400  1
  H  H17  1  0.82262400  0.83717100  0.86373600  1
  C  C18  1  0.70888700  0.09275800  0.43926400  1
  C  C19  1  0.29111300  0.90724200  0.56073600  1
  C  C20  1  0.56243900  0.44870500  0.05166300  1
  C  C21  1  0.43756100  0.55129500  0.94833700  1
  C  C22  1  0.21676400  0.07898700  0.34788000  1
  C  C23  1  0.78323600  0.92101300  0.65212000  1
  S  S24  1  0.24582300  0.08234500  0.75920300  1
  S  S25  1  0.75417700  0.91765500  0.24079700  1
  N  N26  1  0.64668400  0.26794200  0.45424600  1
  N  N27  1  0.35331600  0.73205800  0.54575400  1
  N  N28  1  0.72948500  0.07484100  0.60643900  1
  N  N29  1  0.27051500  0.92515900  0.39356100  1
  N  N30  1  0.15865200  0.24586500  0.46607700  1
  N  N31  1  0.84134800  0.75413500  0.53392300  1
  N  N32  1  0.22676000  0.05414800  0.17465300  1
  N  N33  1  0.77324000  0.94585200  0.82534700  1
  O  O34  1  0.50627800  0.44799000  0.20069100  1
  O  O35  1  0.49372200  0.55201000  0.79930900  1
  O  O36  1  0.28529400  0.62810800  0.02532600  1
  O  O37  1  0.71470600  0.37189200  0.97467400  1
  O  O38  1  0.04651600  0.42143200  0.20318300  1
  O  O39  1  0.95348400  0.57856800  0.79681700  1
