# generated using pymatgen
data_MnZn3F6
_symmetry_space_group_name_H-M   'P 1'
_cell_length_a   5.41845537
_cell_length_b   5.90630509
_cell_length_c   6.76999509
_cell_angle_alpha   75.45388177
_cell_angle_beta   131.89815805
_cell_angle_gamma   111.96071142
_symmetry_Int_Tables_number   1
_chemical_formula_structural   MnZn3F6
_chemical_formula_sum   'Mn1 Zn3 F6'
_cell_volume   149.56575203
_cell_formula_units_Z   1
loop_
 _symmetry_equiv_pos_site_id
 _symmetry_equiv_pos_as_xyz
  1  'x, y, z'
loop_
 _atom_site_type_symbol
 _atom_site_label
 _atom_site_symmetry_multiplicity
 _atom_site_fract_x
 _atom_site_fract_y
 _atom_site_fract_z
 _atom_site_occupancy
  Mn  Mn0  1  0.00000000  0.00000000  0.00000000  1
  Zn  Zn1  1  0.00000000  0.00000000  0.50000000  1
  Zn  Zn2  1  0.50000000  0.50000000  0.00000000  1
  Zn  Zn3  1  0.00000000  0.50000000  0.00000000  1
  F  F4  1  0.08172500  0.28014000  0.71207900  1
  F  F5  1  0.91827500  0.71986000  0.28792100  1
  F  F6  1  0.81634600  0.79742200  0.67450400  1
  F  F7  1  0.18365400  0.20257800  0.32549600  1
  F  F8  1  0.46501000  0.86175200  0.81493700  1
  F  F9  1  0.53499000  0.13824800  0.18506300  1
