# generated using pymatgen
data_K4P4H6WO14
_symmetry_space_group_name_H-M   'P 1'
_cell_length_a   11.81315951
_cell_length_b   11.81315951
_cell_length_c   14.25402534
_cell_angle_alpha   62.43021957
_cell_angle_beta   62.43021957
_cell_angle_gamma   37.01368127
_symmetry_Int_Tables_number   1
_chemical_formula_structural   K4P4H6WO14
_chemical_formula_sum   'K8 P8 H12 W2 O28'
_cell_volume   1045.17163661
_cell_formula_units_Z   2
loop_
 _symmetry_equiv_pos_site_id
 _symmetry_equiv_pos_as_xyz
  1  'x, y, z'
loop_
 _atom_site_type_symbol
 _atom_site_label
 _atom_site_symmetry_multiplicity
 _atom_site_fract_x
 _atom_site_fract_y
 _atom_site_fract_z
 _atom_site_occupancy
  K  K0  1  0.77970000  0.24920100  0.94092900  1
  K  K1  1  0.22030000  0.75079900  0.05907100  1
  K  K2  1  0.75079900  0.22030000  0.55907100  1
  K  K3  1  0.24920100  0.77970000  0.44092900  1
  K  K4  1  0.58628700  0.98981800  0.84550000  1
  K  K5  1  0.41371300  0.01018200  0.15450000  1
  K  K6  1  0.01018200  0.41371300  0.65450000  1
  K  K7  1  0.98981800  0.58628700  0.34550000  1
  P  P8  1  0.80649500  0.87825900  0.54681000  1
  P  P9  1  0.19350500  0.12174100  0.45319000  1
  P  P10  1  0.12174100  0.19350500  0.95319000  1
  P  P11  1  0.87825900  0.80649500  0.04681000  1
  P  P12  1  0.47191800  0.73515000  0.75730300  1
  P  P13  1  0.52808200  0.26485000  0.24269700  1
  P  P14  1  0.26485000  0.52808200  0.74269700  1
  P  P15  1  0.73515000  0.47191800  0.25730300  1
  H  H16  1  0.31445400  0.90667500  0.88286000  1
  H  H17  1  0.68554600  0.09332500  0.11714000  1
  H  H18  1  0.09332500  0.68554600  0.61714000  1
  H  H19  1  0.90667500  0.31445400  0.38286000  1
  H  H20  1  0.60936100  0.86395000  0.66086000  1
  H  H21  1  0.39063900  0.13605000  0.33914000  1
  H  H22  1  0.13605000  0.39063900  0.83914000  1
  H  H23  1  0.86395000  0.60936100  0.16086000  1
  H  H24  1  0.40431000  0.90433700  0.56466100  1
  H  H25  1  0.59569000  0.09566300  0.43533900  1
  H  H26  1  0.09566300  0.59569000  0.93533900  1
  H  H27  1  0.90433700  0.40431000  0.06466100  1
  W  W28  1  0.44153900  0.55846100  0.75000000  1
  W  W29  1  0.55846100  0.44153900  0.25000000  1
  O  O30  1  0.91710400  0.88535100  0.56774100  1
  O  O31  1  0.08289600  0.11464900  0.43225900  1
  O  O32  1  0.11464900  0.08289600  0.93225900  1
  O  O33  1  0.88535100  0.91710400  0.06774100  1
  O  O34  1  0.72231500  0.92199500  0.98915900  1
  O  O35  1  0.27768500  0.07800500  0.01084100  1
  O  O36  1  0.07800500  0.27768500  0.51084100  1
  O  O37  1  0.92199500  0.72231500  0.48915900  1
  O  O38  1  0.70055300  0.85794600  0.66372200  1
  O  O39  1  0.29944700  0.14205400  0.33627800  1
  O  O40  1  0.14205400  0.29944700  0.83627800  1
  O  O41  1  0.85794600  0.70055300  0.16372200  1
  O  O42  1  0.64223300  0.08743100  0.48505400  1
  O  O43  1  0.35776700  0.91256900  0.51494600  1
  O  O44  1  0.91256900  0.35776700  0.01494600  1
  O  O45  1  0.08743100  0.64223300  0.98505400  1
  O  O46  1  0.48927000  0.33348700  0.74000000  1
  O  O47  1  0.51073000  0.66651300  0.26000000  1
  O  O48  1  0.66651300  0.51073000  0.76000000  1
  O  O49  1  0.33348700  0.48927000  0.24000000  1
  O  O50  1  0.48283500  0.86240000  0.66088400  1
  O  O51  1  0.51716500  0.13760000  0.33911600  1
  O  O52  1  0.13760000  0.51716500  0.83911600  1
  O  O53  1  0.86240000  0.48283500  0.16088400  1
  O  O54  1  0.44495200  0.77072900  0.86641300  1
  O  O55  1  0.55504800  0.22927100  0.13358700  1
  O  O56  1  0.22927100  0.55504800  0.63358700  1
  O  O57  1  0.77072900  0.44495200  0.36641300  1
