# generated using pymatgen
data_Cr3(PO4)2
_symmetry_space_group_name_H-M   'P 1'
_cell_length_a   10.62229900
_cell_length_b   4.72628900
_cell_length_c   7.91222967
_cell_angle_alpha   54.89750060
_cell_angle_beta   90.00000000
_cell_angle_gamma   90.00000000
_symmetry_Int_Tables_number   1
_chemical_formula_structural   Cr3(PO4)2
_chemical_formula_sum   'Cr6 P4 O16'
_cell_volume   324.98038626
_cell_formula_units_Z   2
loop_
 _symmetry_equiv_pos_site_id
 _symmetry_equiv_pos_as_xyz
  1  'x, y, z'
loop_
 _atom_site_type_symbol
 _atom_site_label
 _atom_site_symmetry_multiplicity
 _atom_site_fract_x
 _atom_site_fract_y
 _atom_site_fract_z
 _atom_site_occupancy
  Cr  Cr0  1  0.36487400  0.18103400  0.92489000  1
  Cr  Cr1  1  0.13512600  0.18103400  0.42489000  1
  Cr  Cr2  1  0.63512600  0.81896600  0.07511000  1
  Cr  Cr3  1  0.86487400  0.81896600  0.57511000  1
  Cr  Cr4  1  0.00000000  0.00000000  0.00000000  1
  Cr  Cr5  1  0.50000000  0.00000000  0.50000000  1
  P  P6  1  0.17859500  0.62965700  0.92226800  1
  P  P7  1  0.32140500  0.62965700  0.42226800  1
  P  P8  1  0.82140500  0.37034300  0.07773200  1
  P  P9  1  0.67859500  0.37034300  0.57773200  1
  O  O10  1  0.16680000  0.28789000  0.93800800  1
  O  O11  1  0.33320000  0.28789000  0.43800800  1
  O  O12  1  0.83320000  0.71211000  0.06199200  1
  O  O13  1  0.66680000  0.71211000  0.56199200  1
  O  O14  1  0.11110000  0.57095300  0.11691900  1
  O  O15  1  0.38890000  0.57095300  0.61691900  1
  O  O16  1  0.88890000  0.42904700  0.88308100  1
  O  O17  1  0.61110000  0.42904700  0.38308100  1
  O  O18  1  0.10399700  0.92418900  0.73300700  1
  O  O19  1  0.39600300  0.92418900  0.23300700  1
  O  O20  1  0.89600300  0.07581100  0.26699300  1
  O  O21  1  0.60399700  0.07581100  0.76699300  1
  O  O22  1  0.31936600  0.71501900  0.92190000  1
  O  O23  1  0.18063400  0.71501900  0.42190000  1
  O  O24  1  0.68063400  0.28498100  0.07810000  1
  O  O25  1  0.81936600  0.28498100  0.57810000  1
