# generated using pymatgen
data_MnH8(ClO2)2
_symmetry_space_group_name_H-M   'P 1'
_cell_length_a   10.16539500
_cell_length_b   7.09456700
_cell_length_c   11.63952772
_cell_angle_alpha   66.56837150
_cell_angle_beta   90.00000000
_cell_angle_gamma   90.00000000
_symmetry_Int_Tables_number   1
_chemical_formula_structural   MnH8(ClO2)2
_chemical_formula_sum   'Mn4 H32 Cl8 O16'
_cell_volume   770.20843625
_cell_formula_units_Z   4
loop_
 _symmetry_equiv_pos_site_id
 _symmetry_equiv_pos_as_xyz
  1  'x, y, z'
loop_
 _atom_site_type_symbol
 _atom_site_label
 _atom_site_symmetry_multiplicity
 _atom_site_fract_x
 _atom_site_fract_y
 _atom_site_fract_z
 _atom_site_occupancy
  Mn  Mn0  1  0.26864700  0.22237700  0.24717200  1
  Mn  Mn1  1  0.23135300  0.22237700  0.74717200  1
  Mn  Mn2  1  0.73135300  0.77762300  0.75282800  1
  Mn  Mn3  1  0.76864700  0.77762300  0.25282800  1
  H  H4  1  0.35741800  0.98239500  0.11788300  1
  H  H5  1  0.14258200  0.98239500  0.61788300  1
  H  H6  1  0.64258200  0.01760500  0.88211700  1
  H  H7  1  0.85741800  0.01760500  0.38211700  1
  H  H8  1  0.45082100  0.90887500  0.23810500  1
  H  H9  1  0.04917900  0.90887500  0.73810500  1
  H  H10  1  0.54917900  0.09112500  0.76189500  1
  H  H11  1  0.95082100  0.09112500  0.26189500  1
  H  H12  1  0.30425300  0.39702400  0.43516400  1
  H  H13  1  0.19574700  0.39702400  0.93516400  1
  H  H14  1  0.69574700  0.60297600  0.56483600  1
  H  H15  1  0.80425300  0.60297600  0.06483600  1
  H  H16  1  0.25487100  0.75168300  0.29173900  1
  H  H17  1  0.24512900  0.75168300  0.79173900  1
  H  H18  1  0.74512900  0.24831700  0.70826100  1
  H  H19  1  0.75487100  0.24831700  0.20826100  1
  H  H20  1  0.63656600  0.39436300  0.41146200  1
  H  H21  1  0.86343400  0.39436300  0.91146200  1
  H  H22  1  0.36343400  0.60563700  0.58853800  1
  H  H23  1  0.13656600  0.60563700  0.08853800  1
  H  H24  1  0.32041900  0.69882700  0.57160200  1
  H  H25  1  0.17958100  0.69882700  0.07160200  1
  H  H26  1  0.67958100  0.30117300  0.42839800  1
  H  H27  1  0.82041900  0.30117300  0.92839800  1
  H  H28  1  0.42190700  0.55569600  0.09201800  1
  H  H29  1  0.07809300  0.55569600  0.59201800  1
  H  H30  1  0.57809300  0.44430400  0.90798200  1
  H  H31  1  0.92190700  0.44430400  0.40798200  1
  H  H32  1  0.52852800  0.38699500  0.16418600  1
  H  H33  1  0.97147200  0.38699500  0.66418600  1
  H  H34  1  0.47147200  0.61300500  0.83581400  1
  H  H35  1  0.02852800  0.61300500  0.33581400  1
  Cl  Cl36  1  0.16223600  0.99681400  0.43520500  1
  Cl  Cl37  1  0.33776400  0.99681400  0.93520500  1
  Cl  Cl38  1  0.83776400  0.00318600  0.56479500  1
  Cl  Cl39  1  0.66223600  0.00318600  0.06479500  1
  Cl  Cl40  1  0.09857100  0.22963600  0.10318000  1
  Cl  Cl41  1  0.40142900  0.22963600  0.60318000  1
  Cl  Cl42  1  0.90142900  0.77036400  0.89682000  1
  Cl  Cl43  1  0.59857100  0.77036400  0.39682000  1
  O  O44  1  0.36056300  0.95561800  0.20912400  1
  O  O45  1  0.13943700  0.95561800  0.70912400  1
  O  O46  1  0.63943700  0.04438200  0.79087600  1
  O  O47  1  0.86056300  0.04438200  0.29087600  1
  O  O48  1  0.27271700  0.45715400  0.34600600  1
  O  O49  1  0.22728300  0.45715400  0.84600600  1
  O  O50  1  0.72728300  0.54284600  0.65399400  1
  O  O51  1  0.77271700  0.54284600  0.15399400  1
  O  O52  1  0.69569700  0.36607100  0.15862100  1
  O  O53  1  0.80430300  0.36607100  0.65862100  1
  O  O54  1  0.30430300  0.63392900  0.84137900  1
  O  O55  1  0.19569700  0.63392900  0.34137900  1
  O  O56  1  0.43240100  0.41162300  0.14812800  1
  O  O57  1  0.06759900  0.41162300  0.64812800  1
  O  O58  1  0.56759900  0.58837700  0.85187200  1
  O  O59  1  0.93240100  0.58837700  0.35187200  1
