# generated using pymatgen
data_PmMgSe3
_symmetry_space_group_name_H-M   'P 1'
_cell_length_a   7.36174893
_cell_length_b   7.36174893
_cell_length_c   6.83844875
_cell_angle_alpha   76.32880960
_cell_angle_beta   76.32880960
_cell_angle_gamma   116.40606698
_symmetry_Int_Tables_number   1
_chemical_formula_structural   PmMgSe3
_chemical_formula_sum   'Pm2 Mg2 Se6'
_cell_volume   296.67648174
_cell_formula_units_Z   2
loop_
 _symmetry_equiv_pos_site_id
 _symmetry_equiv_pos_as_xyz
  1  'x, y, z'
loop_
 _atom_site_type_symbol
 _atom_site_label
 _atom_site_symmetry_multiplicity
 _atom_site_fract_x
 _atom_site_fract_y
 _atom_site_fract_z
 _atom_site_occupancy
  Pm  Pm0  1  0.80358700  0.80358700  0.30927800  1
  Pm  Pm1  1  0.19641300  0.19641300  0.69072200  1
  Mg  Mg2  1  0.33288400  0.66711600  0.00000000  1
  Mg  Mg3  1  0.66711600  0.33288400  0.00000000  1
  Se  Se4  1  0.23311800  0.89033400  0.21608500  1
  Se  Se5  1  0.76688200  0.10966600  0.78391500  1
  Se  Se6  1  0.10966600  0.76688200  0.78391500  1
  Se  Se7  1  0.89033400  0.23311800  0.21608500  1
  Se  Se8  1  0.53241500  0.53241500  0.74698700  1
  Se  Se9  1  0.46758500  0.46758500  0.25301300  1
