# generated using pymatgen
data_Na4NiH38(W3O20)2
_symmetry_space_group_name_H-M   'P 1'
_cell_length_a   8.02240200
_cell_length_b   10.62125008
_cell_length_c   12.41604411
_cell_angle_alpha   109.82929354
_cell_angle_beta   108.41740966
_cell_angle_gamma   84.49274721
_symmetry_Int_Tables_number   1
_chemical_formula_structural   Na4NiH38(W3O20)2
_chemical_formula_sum   'Na4 Ni1 H38 W6 O40'
_cell_volume   944.16791735
_cell_formula_units_Z   1
loop_
 _symmetry_equiv_pos_site_id
 _symmetry_equiv_pos_as_xyz
  1  'x, y, z'
loop_
 _atom_site_type_symbol
 _atom_site_label
 _atom_site_symmetry_multiplicity
 _atom_site_fract_x
 _atom_site_fract_y
 _atom_site_fract_z
 _atom_site_occupancy
  Na  Na0  1  0.21984100  0.13522000  0.41920500  1
  Na  Na1  1  0.78015900  0.86478000  0.58079500  1
  Na  Na2  1  0.39341800  0.12651200  0.19056000  1
  Na  Na3  1  0.60658200  0.87348800  0.80944000  1
  Ni  Ni4  1  0.00000000  0.50000000  0.00000000  1
  H  H5  1  0.21071100  0.45788000  0.20624500  1
  H  H6  1  0.78928900  0.54212000  0.79375500  1
  H  H7  1  0.94333500  0.76520300  0.05036500  1
  H  H8  1  0.05666500  0.23479700  0.94963500  1
  H  H9  1  0.32884300  0.43872100  0.97554300  1
  H  H10  1  0.67115700  0.56127900  0.02445700  1
  H  H11  1  0.23931300  0.18861100  0.66039000  1
  H  H12  1  0.76068700  0.81138900  0.33961000  1
  H  H13  1  0.43404900  0.21531100  0.67614100  1
  H  H14  1  0.56595100  0.78468900  0.32385900  1
  H  H15  1  0.88383400  0.29745800  0.47466000  1
  H  H16  1  0.11616600  0.70254200  0.52534000  1
  H  H17  1  0.84499300  0.19775000  0.34610100  1
  H  H18  1  0.15500700  0.80225000  0.65389900  1
  H  H19  1  0.01941500  0.10055400  0.16000300  1
  H  H20  1  0.98058500  0.89944600  0.83999700  1
  H  H21  1  0.08370400  0.24550900  0.22831000  1
  H  H22  1  0.91629600  0.75449100  0.77169000  1
  H  H23  1  0.58063900  0.16678800  0.44733900  1
  H  H24  1  0.41936100  0.83321200  0.55266100  1
  H  H25  1  0.56503300  0.01126500  0.37939000  1
  H  H26  1  0.43496700  0.98873500  0.62061000  1
  H  H27  1  0.35455300  0.40049500  0.55728600  1
  H  H28  1  0.64544700  0.59950500  0.44271400  1
  H  H29  1  0.20420500  0.41480300  0.44516200  1
  H  H30  1  0.79579500  0.58519700  0.55483800  1
  H  H31  1  0.34771400  0.20771600  0.97122000  1
  H  H32  1  0.65228600  0.79228400  0.02878000  1
  H  H33  1  0.30855400  0.06008600  0.96070700  1
  H  H34  1  0.69144600  0.93991400  0.03929300  1
  H  H35  1  0.74562200  0.17839400  0.15814400  1
  H  H36  1  0.25437800  0.82160600  0.84185600  1
  H  H37  1  0.77630700  0.04500000  0.19392700  1
  H  H38  1  0.22369300  0.95500000  0.80607300  1
  H  H39  1  0.49135100  0.42364500  0.26094300  1
  H  H40  1  0.50864900  0.57635500  0.73905700  1
  H  H41  1  0.40871400  0.39027400  0.34971100  1
  H  H42  1  0.59128600  0.60972600  0.65028900  1
  W  W43  1  0.15136500  0.73522100  0.27720200  1
  W  W44  1  0.84863500  0.26477900  0.72279800  1
  W  W45  1  0.30230800  0.72609800  0.04796400  1
  W  W46  1  0.69769200  0.27390200  0.95203600  1
  W  W47  1  0.13659900  0.50027400  0.76804000  1
  W  W48  1  0.86340100  0.49972600  0.23196000  1
  O  O49  1  0.10693900  0.51203900  0.17745500  1
  O  O50  1  0.89306100  0.48796100  0.82254500  1
  O  O51  1  0.04302400  0.70666300  0.07325900  1
  O  O52  1  0.95697600  0.29333700  0.92674100  1
  O  O53  1  0.23432200  0.50572000  0.96242300  1
  O  O54  1  0.76567800  0.49428000  0.03757700  1
  O  O55  1  0.34881800  0.71354000  0.20787800  1
  O  O56  1  0.65118200  0.28646000  0.79212200  1
  O  O57  1  0.16662700  0.69075800  0.87471300  1
  O  O58  1  0.83337300  0.30924200  0.12528700  1
  O  O59  1  0.08768400  0.30970600  0.73252000  1
  O  O60  1  0.91231600  0.69029400  0.26748000  1
  O  O61  1  0.27864600  0.71352100  0.41532200  1
  O  O62  1  0.72135400  0.28647900  0.58467800  1
  O  O63  1  0.11964700  0.91054700  0.31408900  1
  O  O64  1  0.88035300  0.08945300  0.68591100  1
  O  O65  1  0.29379500  0.90190200  0.07776400  1
  O  O66  1  0.70620500  0.09809800  0.92223600  1
  O  O67  1  0.52054300  0.68705400  0.03536100  1
  O  O68  1  0.47945700  0.31294600  0.96463900  1
  O  O69  1  0.34237500  0.47917100  0.73718200  1
  O  O70  1  0.65762500  0.52082900  0.26281800  1
  O  O71  1  0.98852500  0.53013400  0.63973100  1
  O  O72  1  0.01147500  0.46986600  0.36026900  1
  O  O73  1  0.33564500  0.15183400  0.62550800  1
  O  O74  1  0.66435500  0.84816600  0.37449200  1
  O  O75  1  0.94033700  0.23145900  0.42064100  1
  O  O76  1  0.05966300  0.76854100  0.57935900  1
  O  O77  1  0.11889800  0.15291500  0.22120000  1
  O  O78  1  0.88110200  0.84708500  0.77880000  1
  O  O79  1  0.50308300  0.09661500  0.38004100  1
  O  O80  1  0.49691700  0.90338500  0.61995900  1
  O  O81  1  0.31798200  0.37059000  0.46930200  1
  O  O82  1  0.68201800  0.62941000  0.53069800  1
  O  O83  1  0.26626500  0.15199900  0.98428800  1
  O  O84  1  0.73373500  0.84800100  0.01571200  1
  O  O85  1  0.69137800  0.11511500  0.18116200  1
  O  O86  1  0.30862200  0.88488500  0.81883800  1
  O  O87  1  0.39609800  0.37258700  0.26381000  1
  O  O88  1  0.60390200  0.62741300  0.73619000  1
