# generated using pymatgen
data_Hf3CoF6
_symmetry_space_group_name_H-M   'P 1'
_cell_length_a   7.10146877
_cell_length_b   5.03339843
_cell_length_c   12.50746122
_cell_angle_alpha   92.05826461
_cell_angle_beta   88.85684093
_cell_angle_gamma   134.76619777
_symmetry_Int_Tables_number   1
_chemical_formula_structural   Hf3CoF6
_chemical_formula_sum   'Hf3 Co1 F6'
_cell_volume   317.20208902
_cell_formula_units_Z   1
loop_
 _symmetry_equiv_pos_site_id
 _symmetry_equiv_pos_as_xyz
  1  'x, y, z'
loop_
 _atom_site_type_symbol
 _atom_site_label
 _atom_site_symmetry_multiplicity
 _atom_site_fract_x
 _atom_site_fract_y
 _atom_site_fract_z
 _atom_site_occupancy
  Hf  Hf0  1  0.00000000  0.00000000  0.50000000  1
  Hf  Hf1  1  0.50000000  0.50000000  0.00000000  1
  Hf  Hf2  1  0.00000000  0.50000000  0.00000000  1
  Co  Co3  1  0.00000000  0.00000000  0.00000000  1
  F  F4  1  0.01958700  0.51157700  0.84614100  1
  F  F5  1  0.98041300  0.48842300  0.15385900  1
  F  F6  1  0.92093100  0.93808500  0.64848100  1
  F  F7  1  0.07906900  0.06191500  0.35151900  1
  F  F8  1  0.49657500  0.49181800  0.84589100  1
  F  F9  1  0.50342500  0.50818200  0.15410900  1
