# generated using pymatgen
data_Rb2U(BrO)4
_symmetry_space_group_name_H-M   'P 1'
_cell_length_a   6.91452500
_cell_length_b   6.93498440
_cell_length_c   7.94097171
_cell_angle_alpha   91.71738867
_cell_angle_beta   102.04913240
_cell_angle_gamma   115.96495499
_symmetry_Int_Tables_number   1
_chemical_formula_structural   Rb2U(BrO)4
_chemical_formula_sum   'Rb2 U1 Br4 O4'
_cell_volume   331.60344379
_cell_formula_units_Z   1
loop_
 _symmetry_equiv_pos_site_id
 _symmetry_equiv_pos_as_xyz
  1  'x, y, z'
loop_
 _atom_site_type_symbol
 _atom_site_label
 _atom_site_symmetry_multiplicity
 _atom_site_fract_x
 _atom_site_fract_y
 _atom_site_fract_z
 _atom_site_occupancy
  Rb  Rb0  1  0.67132500  0.41937000  0.75987100  1
  Rb  Rb1  1  0.32867500  0.58063000  0.24012900  1
  U  U2  1  0.00000000  0.00000000  0.50000000  1
  Br  Br3  1  0.27756400  0.81816900  0.65627000  1
  Br  Br4  1  0.72243600  0.18183100  0.34373000  1
  Br  Br5  1  0.90613100  0.76776700  0.16547700  1
  Br  Br6  1  0.09386900  0.23223300  0.83452300  1
  O  O7  1  0.24243000  0.22348700  0.46080000  1
  O  O8  1  0.75757000  0.77651300  0.53920000  1
  O  O9  1  0.40722300  0.62380600  0.88321000  1
  O  O10  1  0.59277700  0.37619400  0.11679000  1
