# generated using pymatgen
data_CeSe2
_symmetry_space_group_name_H-M   'P 1'
_cell_length_a   19.61175100
_cell_length_b   8.61213500
_cell_length_c   9.07308284
_cell_angle_alpha   84.83841846
_cell_angle_beta   90.00000000
_cell_angle_gamma   90.00000000
_symmetry_Int_Tables_number   1
_chemical_formula_structural   CeSe2
_chemical_formula_sum   'Ce16 Se32'
_cell_volume   1526.22094011
_cell_formula_units_Z   16
loop_
 _symmetry_equiv_pos_site_id
 _symmetry_equiv_pos_as_xyz
  1  'x, y, z'
loop_
 _atom_site_type_symbol
 _atom_site_label
 _atom_site_symmetry_multiplicity
 _atom_site_fract_x
 _atom_site_fract_y
 _atom_site_fract_z
 _atom_site_occupancy
  Ce  Ce0  1  0.31878200  0.31312900  0.64019400  1
  Ce  Ce1  1  0.81878200  0.18687100  0.35980600  1
  Ce  Ce2  1  0.68121800  0.68687100  0.35980600  1
  Ce  Ce3  1  0.18121800  0.81312900  0.64019400  1
  Ce  Ce4  1  0.38403300  0.73071700  0.80991300  1
  Ce  Ce5  1  0.88403300  0.76928300  0.19008700  1
  Ce  Ce6  1  0.61596700  0.26928300  0.19008700  1
  Ce  Ce7  1  0.11596700  0.23071700  0.80991300  1
  Ce  Ce8  1  0.48258200  0.84369500  0.19469800  1
  Ce  Ce9  1  0.98258200  0.65630500  0.80530200  1
  Ce  Ce10  1  0.51741800  0.15630500  0.80530200  1
  Ce  Ce11  1  0.01741800  0.34369500  0.19469800  1
  Ce  Ce12  1  0.22776700  0.14177700  0.23030700  1
  Ce  Ce13  1  0.72776700  0.35822300  0.76969300  1
  Ce  Ce14  1  0.77223300  0.85822300  0.76969300  1
  Ce  Ce15  1  0.27223300  0.64177700  0.23030700  1
  Se  Se16  1  0.33382500  0.33349000  0.32995000  1
  Se  Se17  1  0.83382500  0.16651000  0.67005000  1
  Se  Se18  1  0.66617500  0.66651000  0.67005000  1
  Se  Se19  1  0.16617500  0.83349000  0.32995000  1
  Se  Se20  1  0.44342500  0.44619400  0.72433800  1
  Se  Se21  1  0.94342500  0.05380600  0.27566200  1
  Se  Se22  1  0.55657500  0.55380600  0.27566200  1
  Se  Se23  1  0.05657500  0.94619400  0.72433800  1
  Se  Se24  1  0.39824000  0.03746400  0.66065200  1
  Se  Se25  1  0.89824000  0.46253600  0.33934800  1
  Se  Se26  1  0.60176000  0.96253600  0.33934800  1
  Se  Se27  1  0.10176000  0.53746400  0.66065200  1
  Se  Se28  1  0.25021900  0.29406100  0.92220900  1
  Se  Se29  1  0.75021900  0.20593900  0.07779100  1
  Se  Se30  1  0.74978100  0.70593900  0.07779100  1
  Se  Se31  1  0.24978100  0.79406100  0.92220900  1
  Se  Se32  1  0.19903900  0.14581000  0.56096900  1
  Se  Se33  1  0.69903900  0.35419000  0.43903100  1
  Se  Se34  1  0.80096100  0.85419000  0.43903100  1
  Se  Se35  1  0.30096100  0.64581000  0.56096900  1
  Se  Se36  1  0.09794100  0.09250800  0.09760600  1
  Se  Se37  1  0.59794100  0.40749200  0.90239400  1
  Se  Se38  1  0.90205900  0.90749200  0.90239400  1
  Se  Se39  1  0.40205900  0.59250800  0.09760600  1
  Se  Se40  1  0.15404000  0.43125200  0.25835400  1
  Se  Se41  1  0.65404000  0.06874800  0.74164600  1
  Se  Se42  1  0.84596000  0.56874800  0.74164600  1
  Se  Se43  1  0.34596000  0.93125200  0.25835400  1
  Se  Se44  1  0.98127000  0.32903500  0.89765700  1
  Se  Se45  1  0.48127000  0.17096500  0.10234300  1
  Se  Se46  1  0.01873000  0.67096500  0.10234300  1
  Se  Se47  1  0.51873000  0.82903500  0.89765700  1
