# generated using pymatgen
data_CeH12N5F4
_symmetry_space_group_name_H-M   'P 1'
_cell_length_a   9.67211500
_cell_length_b   9.67211500
_cell_length_c   10.59737700
_cell_angle_alpha   90.00000000
_cell_angle_beta   90.00000000
_cell_angle_gamma   90.00000000
_symmetry_Int_Tables_number   1
_chemical_formula_structural   CeH12N5F4
_chemical_formula_sum   'Ce4 H48 N20 F16'
_cell_volume   991.38258973
_cell_formula_units_Z   4
loop_
 _symmetry_equiv_pos_site_id
 _symmetry_equiv_pos_as_xyz
  1  'x, y, z'
loop_
 _atom_site_type_symbol
 _atom_site_label
 _atom_site_symmetry_multiplicity
 _atom_site_fract_x
 _atom_site_fract_y
 _atom_site_fract_z
 _atom_site_occupancy
  Ce  Ce0  1  0.00000000  0.00000000  0.25000000  1
  Ce  Ce1  1  0.00000000  0.00000000  0.75000000  1
  Ce  Ce2  1  0.50000000  0.50000000  0.75000000  1
  Ce  Ce3  1  0.50000000  0.50000000  0.25000000  1
  H  H4  1  0.75740900  0.08227500  0.66594400  1
  H  H5  1  0.24259100  0.08227500  0.16594400  1
  H  H6  1  0.75740900  0.91772500  0.16594400  1
  H  H7  1  0.24259100  0.91772500  0.66594400  1
  H  H8  1  0.58227500  0.25740900  0.16594400  1
  H  H9  1  0.41772500  0.25740900  0.66594400  1
  H  H10  1  0.58227500  0.74259100  0.66594400  1
  H  H11  1  0.41772500  0.74259100  0.16594400  1
  H  H12  1  0.74259100  0.41772500  0.33405600  1
  H  H13  1  0.25740900  0.41772500  0.83405600  1
  H  H14  1  0.74259100  0.58227500  0.83405600  1
  H  H15  1  0.25740900  0.58227500  0.33405600  1
  H  H16  1  0.91772500  0.24259100  0.83405600  1
  H  H17  1  0.08227500  0.24259100  0.33405600  1
  H  H18  1  0.91772500  0.75740900  0.33405600  1
  H  H19  1  0.08227500  0.75740900  0.83405600  1
  H  H20  1  0.74950500  0.75631500  0.35729000  1
  H  H21  1  0.25049500  0.75631500  0.85729000  1
  H  H22  1  0.74950500  0.24368500  0.85729000  1
  H  H23  1  0.25049500  0.24368500  0.35729000  1
  H  H24  1  0.25631500  0.24950500  0.85729000  1
  H  H25  1  0.74368500  0.24950500  0.35729000  1
  H  H26  1  0.25631500  0.75049500  0.35729000  1
  H  H27  1  0.74368500  0.75049500  0.85729000  1
  H  H28  1  0.75049500  0.74368500  0.64271000  1
  H  H29  1  0.24950500  0.74368500  0.14271000  1
  H  H30  1  0.75049500  0.25631500  0.14271000  1
  H  H31  1  0.24950500  0.25631500  0.64271000  1
  H  H32  1  0.24368500  0.25049500  0.14271000  1
  H  H33  1  0.75631500  0.25049500  0.64271000  1
  H  H34  1  0.24368500  0.74950500  0.64271000  1
  H  H35  1  0.75631500  0.74950500  0.14271000  1
  H  H36  1  0.60591400  0.98697600  0.30483100  1
  H  H37  1  0.39408600  0.98697600  0.80483100  1
  H  H38  1  0.60591400  0.01302400  0.80483100  1
  H  H39  1  0.39408600  0.01302400  0.30483100  1
  H  H40  1  0.48697600  0.10591400  0.80483100  1
  H  H41  1  0.51302400  0.10591400  0.30483100  1
  H  H42  1  0.48697600  0.89408600  0.30483100  1
  H  H43  1  0.51302400  0.89408600  0.80483100  1
  H  H44  1  0.89408600  0.51302400  0.69516900  1
  H  H45  1  0.10591400  0.51302400  0.19516900  1
  H  H46  1  0.89408600  0.48697600  0.19516900  1
  H  H47  1  0.10591400  0.48697600  0.69516900  1
  H  H48  1  0.01302400  0.39408600  0.19516900  1
  H  H49  1  0.98697600  0.39408600  0.69516900  1
  H  H50  1  0.01302400  0.60591400  0.69516900  1
  H  H51  1  0.98697600  0.60591400  0.19516900  1
  N  N52  1  0.81333800  0.82921000  0.18254500  1
  N  N53  1  0.18666200  0.82921000  0.68254500  1
  N  N54  1  0.81333800  0.17079000  0.68254500  1
  N  N55  1  0.18666200  0.17079000  0.18254500  1
  N  N56  1  0.32921000  0.31333800  0.68254500  1
  N  N57  1  0.67079000  0.31333800  0.18254500  1
  N  N58  1  0.32921000  0.68666200  0.18254500  1
  N  N59  1  0.67079000  0.68666200  0.68254500  1
  N  N60  1  0.68666200  0.67079000  0.81745500  1
  N  N61  1  0.31333800  0.67079000  0.31745500  1
  N  N62  1  0.68666200  0.32921000  0.31745500  1
  N  N63  1  0.31333800  0.32921000  0.81745500  1
  N  N64  1  0.17079000  0.18666200  0.31745500  1
  N  N65  1  0.82921000  0.18666200  0.81745500  1
  N  N66  1  0.17079000  0.81333800  0.81745500  1
  N  N67  1  0.82921000  0.81333800  0.31745500  1
  N  N68  1  0.00000000  0.50000000  0.22923800  1
  N  N69  1  0.00000000  0.50000000  0.72923800  1
  N  N70  1  0.50000000  0.00000000  0.77076200  1
  N  N71  1  0.50000000  0.00000000  0.27076200  1
  F  F72  1  0.87206900  0.13113500  0.37939400  1
  F  F73  1  0.12793100  0.13113500  0.87939400  1
  F  F74  1  0.87206900  0.86886500  0.87939400  1
  F  F75  1  0.12793100  0.86886500  0.37939400  1
  F  F76  1  0.63113500  0.37206900  0.87939400  1
  F  F77  1  0.36886500  0.37206900  0.37939400  1
  F  F78  1  0.63113500  0.62793100  0.37939400  1
  F  F79  1  0.36886500  0.62793100  0.87939400  1
  F  F80  1  0.62793100  0.36886500  0.62060600  1
  F  F81  1  0.37206900  0.36886500  0.12060600  1
  F  F82  1  0.62793100  0.63113500  0.12060600  1
  F  F83  1  0.37206900  0.63113500  0.62060600  1
  F  F84  1  0.86886500  0.12793100  0.12060600  1
  F  F85  1  0.13113500  0.12793100  0.62060600  1
  F  F86  1  0.86886500  0.87206900  0.62060600  1
  F  F87  1  0.13113500  0.87206900  0.12060600  1
