# generated using pymatgen
data_Sm2Ag2O5
_symmetry_space_group_name_H-M   'P 1'
_cell_length_a   9.09207578
_cell_length_b   9.09207578
_cell_length_c   9.09207578
_cell_angle_alpha   143.41509584
_cell_angle_beta   141.86354720
_cell_angle_gamma   53.87727171
_symmetry_Int_Tables_number   1
_chemical_formula_structural   Sm2Ag2O5
_chemical_formula_sum   'Sm4 Ag4 O10'
_cell_volume   274.82346063
_cell_formula_units_Z   2
loop_
 _symmetry_equiv_pos_site_id
 _symmetry_equiv_pos_as_xyz
  1  'x, y, z'
loop_
 _atom_site_type_symbol
 _atom_site_label
 _atom_site_symmetry_multiplicity
 _atom_site_fract_x
 _atom_site_fract_y
 _atom_site_fract_z
 _atom_site_occupancy
  Sm  Sm0  1  0.87477000  0.39979700  0.51696800  1
  Sm  Sm1  1  0.12523000  0.64219800  0.52502600  1
  Sm  Sm2  1  0.38282800  0.89979700  0.52502600  1
  Sm  Sm3  1  0.61717200  0.14219800  0.51696800  1
  Ag  Ag4  1  0.00000000  0.98919900  0.98919900  1
  Ag  Ag5  1  0.50000000  0.48919900  0.98919900  1
  Ag  Ag6  1  0.76521100  0.77564600  0.04085700  1
  Ag  Ag7  1  0.23478900  0.27564600  0.01043500  1
  O  O8  1  0.77853400  0.79603900  0.48648600  1
  O  O9  1  0.22146600  0.70795300  0.01750600  1
  O  O10  1  0.80955300  0.29603900  0.01750600  1
  O  O11  1  0.19044700  0.20795300  0.48648600  1
  O  O12  1  0.74673400  0.78558300  0.78652900  1
  O  O13  1  0.25326600  0.03979500  0.03884900  1
  O  O14  1  0.49905400  0.28558300  0.03884900  1
  O  O15  1  0.50094600  0.53979500  0.78652900  1
  O  O16  1  0.83798700  0.19979000  0.53777700  1
  O  O17  1  0.16201300  0.69979000  0.36180400  1
