# generated using pymatgen
data_Rb3BiF6
_symmetry_space_group_name_H-M   'P 1'
_cell_length_a   7.26496800
_cell_length_b   7.28458351
_cell_length_c   7.53038553
_cell_angle_alpha   100.33264075
_cell_angle_beta   111.10586587
_cell_angle_gamma   102.79012338
_symmetry_Int_Tables_number   1
_chemical_formula_structural   Rb3BiF6
_chemical_formula_sum   'Rb3 Bi1 F6'
_cell_volume   347.55330031
_cell_formula_units_Z   1
loop_
 _symmetry_equiv_pos_site_id
 _symmetry_equiv_pos_as_xyz
  1  'x, y, z'
loop_
 _atom_site_type_symbol
 _atom_site_label
 _atom_site_symmetry_multiplicity
 _atom_site_fract_x
 _atom_site_fract_y
 _atom_site_fract_z
 _atom_site_occupancy
  Rb  Rb0  1  0.00000000  0.50000000  0.00000000  1
  Rb  Rb1  1  0.50000000  0.00000000  0.00000000  1
  Rb  Rb2  1  0.00000000  0.00000000  0.50000000  1
  Bi  Bi3  1  0.00000000  0.00000000  0.00000000  1
  F  F4  1  0.01931400  0.77048600  0.76267300  1
  F  F5  1  0.98068600  0.22951400  0.23732700  1
  F  F6  1  0.78963400  0.78235800  0.08472400  1
  F  F7  1  0.21036600  0.21764200  0.91527600  1
  F  F8  1  0.73973900  0.08545500  0.79067100  1
  F  F9  1  0.26026100  0.91454500  0.20932900  1
