# generated using pymatgen
data_NaO2
_symmetry_space_group_name_H-M   'P 1'
_cell_length_a   4.32870400
_cell_length_b   4.32870400
_cell_length_c   4.57850500
_cell_angle_alpha   90.00000000
_cell_angle_beta   90.00000000
_cell_angle_gamma   90.00000000
_symmetry_Int_Tables_number   1
_chemical_formula_structural   NaO2
_chemical_formula_sum   'Na2 O4'
_cell_volume   85.79055387
_cell_formula_units_Z   2
loop_
 _symmetry_equiv_pos_site_id
 _symmetry_equiv_pos_as_xyz
  1  'x, y, z'
loop_
 _atom_site_type_symbol
 _atom_site_label
 _atom_site_symmetry_multiplicity
 _atom_site_fract_x
 _atom_site_fract_y
 _atom_site_fract_z
 _atom_site_occupancy
  Na  Na0  1  0.50000000  0.50000000  0.50000000  1
  Na  Na1  1  0.00000000  0.00000000  0.00000000  1
  O  O2  1  0.11067300  0.88932700  0.50000000  1
  O  O3  1  0.88932700  0.11067300  0.50000000  1
  O  O4  1  0.38932700  0.38932700  0.00000000  1
  O  O5  1  0.61067300  0.61067300  0.00000000  1
