# generated using pymatgen
data_TiCrAgS4
_symmetry_space_group_name_H-M   'P 1'
_cell_length_a   5.83918800
_cell_length_b   9.30936500
_cell_length_c   11.63449700
_cell_angle_alpha   90.00000000
_cell_angle_beta   90.00000000
_cell_angle_gamma   90.00000000
_symmetry_Int_Tables_number   1
_chemical_formula_structural   TiCrAgS4
_chemical_formula_sum   'Ti4 Cr4 Ag4 S16'
_cell_volume   632.44116278
_cell_formula_units_Z   4
loop_
 _symmetry_equiv_pos_site_id
 _symmetry_equiv_pos_as_xyz
  1  'x, y, z'
loop_
 _atom_site_type_symbol
 _atom_site_label
 _atom_site_symmetry_multiplicity
 _atom_site_fract_x
 _atom_site_fract_y
 _atom_site_fract_z
 _atom_site_occupancy
  Ti  Ti0  1  0.00674200  0.00000000  0.48870500  1
  Ti  Ti1  1  0.50674200  0.00000000  0.51129500  1
  Ti  Ti2  1  0.14175500  0.00000000  0.72296400  1
  Ti  Ti3  1  0.64175500  0.00000000  0.27703600  1
  Cr  Cr4  1  0.98446000  0.50000000  0.01022100  1
  Cr  Cr5  1  0.48446000  0.50000000  0.98977900  1
  Cr  Cr6  1  0.87044700  0.50000000  0.78551000  1
  Cr  Cr7  1  0.37044700  0.50000000  0.21449000  1
  Ag  Ag8  1  0.19536000  0.00000000  0.11742600  1
  Ag  Ag9  1  0.80943000  0.50000000  0.38875600  1
  Ag  Ag10  1  0.30943000  0.50000000  0.61124400  1
  Ag  Ag11  1  0.69536000  0.00000000  0.88257400  1
  S  S12  1  0.24977400  0.17979400  0.59482700  1
  S  S13  1  0.74474500  0.33304700  0.90676100  1
  S  S14  1  0.24474500  0.33304700  0.09323900  1
  S  S15  1  0.74977400  0.17979400  0.40517300  1
  S  S16  1  0.74977400  0.82020600  0.40517300  1
  S  S17  1  0.24474500  0.66695300  0.09323900  1
  S  S18  1  0.74474500  0.66695300  0.90676100  1
  S  S19  1  0.24977400  0.82020600  0.59482700  1
  S  S20  1  0.75790700  0.00000000  0.09631600  1
  S  S21  1  0.24976900  0.50000000  0.38896900  1
  S  S22  1  0.74976900  0.50000000  0.61103100  1
  S  S23  1  0.25790700  0.00000000  0.90368400  1
  S  S24  1  0.23340100  0.50000000  0.82916600  1
  S  S25  1  0.76168900  0.00000000  0.67121900  1
  S  S26  1  0.26168900  0.00000000  0.32878100  1
  S  S27  1  0.73340100  0.50000000  0.17083400  1
