# generated using pymatgen
data_AlSeO10
_symmetry_space_group_name_H-M   'P 1'
_cell_length_a   8.96171546
_cell_length_b   7.68633709
_cell_length_c   11.78437900
_cell_angle_alpha   90.00000000
_cell_angle_beta   90.00000000
_cell_angle_gamma   85.12099127
_symmetry_Int_Tables_number   1
_chemical_formula_structural   AlSeO10
_chemical_formula_sum   'Al4 Se4 O40'
_cell_volume   808.79929786
_cell_formula_units_Z   4
loop_
 _symmetry_equiv_pos_site_id
 _symmetry_equiv_pos_as_xyz
  1  'x, y, z'
loop_
 _atom_site_type_symbol
 _atom_site_label
 _atom_site_symmetry_multiplicity
 _atom_site_fract_x
 _atom_site_fract_y
 _atom_site_fract_z
 _atom_site_occupancy
  Al  Al0  1  0.87720700  0.49808100  0.92737100  1
  Al  Al1  1  0.37720700  0.99808100  0.57262900  1
  Al  Al2  1  0.12279300  0.50191900  0.07262900  1
  Al  Al3  1  0.62279300  0.00191900  0.42737100  1
  Se  Se4  1  0.73556200  0.36192000  0.29214500  1
  Se  Se5  1  0.23556200  0.86192000  0.20785500  1
  Se  Se6  1  0.26443800  0.63808000  0.70785500  1
  Se  Se7  1  0.76443800  0.13808000  0.79214500  1
  O  O8  1  0.46846000  0.51135700  0.04606300  1
  O  O9  1  0.96846000  0.01135700  0.45393700  1
  O  O10  1  0.53154000  0.48864300  0.95393700  1
  O  O11  1  0.03154000  0.98864300  0.54606300  1
  O  O12  1  0.80542600  0.82100000  0.03780400  1
  O  O13  1  0.30542600  0.32100000  0.46219600  1
  O  O14  1  0.19457400  0.17900000  0.96219600  1
  O  O15  1  0.69457400  0.67900000  0.53780400  1
  O  O16  1  0.81468600  0.65256200  0.76411800  1
  O  O17  1  0.31468600  0.15256200  0.73588200  1
  O  O18  1  0.18531400  0.34743800  0.23588200  1
  O  O19  1  0.68531400  0.84743800  0.26411800  1
  O  O20  1  0.93637300  0.43971600  0.06806400  1
  O  O21  1  0.43637300  0.93971600  0.43193600  1
  O  O22  1  0.06362700  0.56028400  0.93193600  1
  O  O23  1  0.56362700  0.06028400  0.56806400  1
  O  O24  1  0.75347100  0.78952800  0.47743500  1
  O  O25  1  0.25347100  0.28952800  0.02256500  1
  O  O26  1  0.24652900  0.21047200  0.52256500  1
  O  O27  1  0.74652900  0.71047200  0.97743500  1
  O  O28  1  0.20952700  0.71000300  0.83901100  1
  O  O29  1  0.70952700  0.21000300  0.66098900  1
  O  O30  1  0.79047300  0.28999700  0.16098900  1
  O  O31  1  0.29047300  0.78999700  0.33901100  1
  O  O32  1  0.12602000  0.56660200  0.63270500  1
  O  O33  1  0.62602000  0.06660200  0.86729500  1
  O  O34  1  0.87398000  0.43339800  0.36729500  1
  O  O35  1  0.37398000  0.93339800  0.13270500  1
  O  O36  1  0.30514100  0.83620200  0.64852200  1
  O  O37  1  0.80514100  0.33620200  0.85147800  1
  O  O38  1  0.69485900  0.16379800  0.35147800  1
  O  O39  1  0.19485900  0.66379800  0.14852200  1
  O  O40  1  0.41990700  0.50877800  0.70583900  1
  O  O41  1  0.91990700  0.00877800  0.79416100  1
  O  O42  1  0.58009300  0.49122200  0.29416000  1
  O  O43  1  0.08009300  0.99122200  0.20584000  1
  O  O44  1  0.86279200  0.59391800  0.67210600  1
  O  O45  1  0.36279200  0.09391800  0.82789400  1
  O  O46  1  0.13720800  0.40608200  0.32789400  1
  O  O47  1  0.63720800  0.90608200  0.17210600  1
