# generated using pymatgen
data_Sr3CaTi2Mn2O10
_symmetry_space_group_name_H-M   'P 1'
_cell_length_a   11.15113638
_cell_length_b   11.35222140
_cell_length_c   17.69256987
_cell_angle_alpha   108.64967404
_cell_angle_beta   108.55425968
_cell_angle_gamma   89.98707443
_symmetry_Int_Tables_number   1
_chemical_formula_structural   Sr3CaTi2Mn2O10
_chemical_formula_sum   'Sr24 Ca8 Ti16 Mn16 O80'
_cell_volume   1998.90810844
_cell_formula_units_Z   8
loop_
 _symmetry_equiv_pos_site_id
 _symmetry_equiv_pos_as_xyz
  1  'x, y, z'
loop_
 _atom_site_type_symbol
 _atom_site_label
 _atom_site_symmetry_multiplicity
 _atom_site_fract_x
 _atom_site_fract_y
 _atom_site_fract_z
 _atom_site_occupancy
  Sr  Sr0  1  0.30714200  0.06202900  0.61227800  1
  Sr  Sr1  1  0.30691300  0.56229500  0.61307600  1
  Sr  Sr2  1  0.80725200  0.06283900  0.61307700  1
  Sr  Sr3  1  0.80817300  0.56238600  0.61498600  1
  Sr  Sr4  1  0.19368400  0.43661200  0.38651000  1
  Sr  Sr5  1  0.19457300  0.43814200  0.88878000  1
  Sr  Sr6  1  0.19319400  0.93671700  0.38480300  1
  Sr  Sr7  1  0.69338100  0.43697000  0.38512700  1
  Sr  Sr8  1  0.69524200  0.43874400  0.88887100  1
  Sr  Sr9  1  0.69367600  0.93636700  0.38646000  1
  Sr  Sr10  1  0.69542800  0.93773600  0.88878500  1
  Sr  Sr11  1  0.05675200  0.29905400  0.11313200  1
  Sr  Sr12  1  0.05744700  0.29976000  0.61277900  1
  Sr  Sr13  1  0.05824500  0.80219800  0.61489000  1
  Sr  Sr14  1  0.55680600  0.30019200  0.61227700  1
  Sr  Sr15  1  0.55648600  0.79964500  0.11294900  1
  Sr  Sr16  1  0.55681900  0.80069300  0.61290700  1
  Sr  Sr17  1  0.44248900  0.19781100  0.38376100  1
  Sr  Sr18  1  0.44447500  0.20011500  0.88837500  1
  Sr  Sr19  1  0.44204300  0.69766700  0.38382000  1
  Sr  Sr20  1  0.44393000  0.70029400  0.88870700  1
  Sr  Sr21  1  0.94191200  0.19776300  0.38373600  1
  Sr  Sr22  1  0.94488200  0.19990500  0.88872800  1
  Sr  Sr23  1  0.94258700  0.69784100  0.38410300  1
  Ca  Ca24  1  0.30364500  0.06552600  0.10975600  1
  Ca  Ca25  1  0.30240400  0.56608000  0.11036100  1
  Ca  Ca26  1  0.80219400  0.06571700  0.11006000  1
  Ca  Ca27  1  0.80318700  0.56622200  0.11041300  1
  Ca  Ca28  1  0.19374700  0.93461800  0.89097000  1
  Ca  Ca29  1  0.05443700  0.79397200  0.11035700  1
  Ca  Ca30  1  0.55432300  0.29402200  0.11092700  1
  Ca  Ca31  1  0.94498600  0.70583600  0.89054500  1
  Ti  Ti32  1  0.00306600  0.99929400  0.00286000  1
  Ti  Ti33  1  0.99973400  0.99930200  0.49947700  1
  Ti  Ti34  1  0.00062800  0.50283500  0.00160700  1
  Ti  Ti35  1  0.99906400  0.50030100  0.49984900  1
  Ti  Ti36  1  0.49985300  0.00189800  0.00185100  1
  Ti  Ti37  1  0.49932800  0.99963200  0.49943200  1
  Ti  Ti38  1  0.50148200  0.50064900  0.00361500  1
  Ti  Ti39  1  0.49996400  0.49991600  0.49955900  1
  Ti  Ti40  1  0.25208700  0.24979800  0.00185600  1
  Ti  Ti41  1  0.24916800  0.24925100  0.49932300  1
  Ti  Ti42  1  0.24871000  0.75181000  0.00195200  1
  Ti  Ti43  1  0.24885500  0.74957100  0.49948000  1
  Ti  Ti44  1  0.74983500  0.25137500  0.00302200  1
  Ti  Ti45  1  0.74949200  0.25014500  0.49963200  1
  Ti  Ti46  1  0.75390200  0.75114100  0.00233500  1
  Ti  Ti47  1  0.74974700  0.74898500  0.49990600  1
  Mn  Mn48  1  0.10789800  0.09156500  0.24559000  1
  Mn  Mn49  1  0.11371100  0.09510800  0.75304000  1
  Mn  Mn50  1  0.10837300  0.59746800  0.24687600  1
  Mn  Mn51  1  0.11060800  0.60136500  0.75312400  1
  Mn  Mn52  1  0.60836400  0.09732900  0.24711500  1
  Mn  Mn53  1  0.61277800  0.09718800  0.75118100  1
  Mn  Mn54  1  0.60796200  0.59180300  0.24598800  1
  Mn  Mn55  1  0.61517200  0.59781400  0.75150500  1
  Mn  Mn56  1  0.36142500  0.40339900  0.24654200  1
  Mn  Mn57  1  0.36266900  0.40384300  0.75127900  1
  Mn  Mn58  1  0.35563100  0.90200200  0.24547900  1
  Mn  Mn59  1  0.36046400  0.90342800  0.75257800  1
  Mn  Mn60  1  0.85622700  0.40207200  0.24588700  1
  Mn  Mn61  1  0.86372500  0.40744600  0.75298000  1
  Mn  Mn62  1  0.86175800  0.90354400  0.24660100  1
  Mn  Mn63  1  0.86557300  0.90148100  0.75216800  1
  O  O64  1  0.12648500  0.12272600  0.49028800  1
  O  O65  1  0.13010200  0.11832600  0.98827400  1
  O  O66  1  0.12632200  0.62279200  0.49040400  1
  O  O67  1  0.12399800  0.62523000  0.98736700  1
  O  O68  1  0.62674400  0.12330400  0.49041300  1
  O  O69  1  0.62743900  0.12436300  0.99137000  1
  O  O70  1  0.62679900  0.62259200  0.49023000  1
  O  O71  1  0.63033500  0.62346700  0.99152200  1
  O  O72  1  0.14261300  0.38084600  0.01491000  1
  O  O73  1  0.13544600  0.37660900  0.50825600  1
  O  O74  1  0.14107400  0.87983600  0.01561000  1
  O  O75  1  0.13573900  0.87683100  0.50880300  1
  O  O76  1  0.64062000  0.37908200  0.01599500  1
  O  O77  1  0.63618300  0.37746700  0.50899100  1
  O  O78  1  0.64318200  0.88107900  0.01451700  1
  O  O79  1  0.63561900  0.87636200  0.50815900  1
  O  O80  1  0.37635500  0.11752800  0.48982500  1
  O  O81  1  0.37687100  0.11652600  0.98982200  1
  O  O82  1  0.37661500  0.61804100  0.49026900  1
  O  O83  1  0.37688900  0.61606800  0.99119700  1
  O  O84  1  0.87704200  0.11783700  0.49056600  1
  O  O85  1  0.87883600  0.11473100  0.99078900  1
  O  O86  1  0.87663400  0.61794700  0.49002800  1
  O  O87  1  0.88111700  0.62071600  0.98966600  1
  O  O88  1  0.39218800  0.38431700  0.01673700  1
  O  O89  1  0.38547300  0.38154100  0.50783400  1
  O  O90  1  0.38747300  0.88879700  0.01491600  1
  O  O91  1  0.38564900  0.88162700  0.50832500  1
  O  O92  1  0.88761400  0.38986000  0.01520900  1
  O  O93  1  0.88575900  0.38204800  0.50840300  1
  O  O94  1  0.89295200  0.88345200  0.01575000  1
  O  O95  1  0.88582100  0.88135800  0.50820300  1
  O  O96  1  0.08484900  0.08711700  0.12415300  1
  O  O97  1  0.07655600  0.08140400  0.62533300  1
  O  O98  1  0.08327200  0.59369100  0.12422600  1
  O  O99  1  0.07320600  0.58377300  0.62478300  1
  O  O100  1  0.58172400  0.09315300  0.12465400  1
  O  O101  1  0.57474000  0.08297300  0.62396300  1
  O  O102  1  0.58366000  0.58822000  0.12473700  1
  O  O103  1  0.57564300  0.58331200  0.62412000  1
  O  O104  1  0.45096500  0.41763300  0.37426300  1
  O  O105  1  0.45237500  0.41544400  0.87784600  1
  O  O106  1  0.44794000  0.91765800  0.37349500  1
  O  O107  1  0.45406900  0.91581200  0.87817700  1
  O  O108  1  0.94786400  0.41779800  0.37373500  1
  O  O109  1  0.95235400  0.41361900  0.87778200  1
  O  O110  1  0.95093000  0.91757900  0.37449400  1
  O  O111  1  0.95722400  0.90694800  0.87740100  1
  O  O112  1  0.33027500  0.27897500  0.12490400  1
  O  O113  1  0.32477000  0.29091200  0.62408600  1
  O  O114  1  0.32579500  0.77924500  0.12418300  1
  O  O115  1  0.32342700  0.79165800  0.62509800  1
  O  O116  1  0.82828100  0.27892300  0.12491000  1
  O  O117  1  0.82670800  0.29375000  0.62528400  1
  O  O118  1  0.83283500  0.77963700  0.12525400  1
  O  O119  1  0.82565700  0.78995500  0.62396200  1
  O  O120  1  0.19819400  0.20526200  0.37331900  1
  O  O121  1  0.20299800  0.21378100  0.87773700  1
  O  O122  1  0.19769300  0.70879600  0.37464700  1
  O  O123  1  0.20342200  0.71989900  0.87783300  1
  O  O124  1  0.69815300  0.20895400  0.37474300  1
  O  O125  1  0.70210700  0.21119600  0.87791500  1
  O  O126  1  0.69854100  0.70525200  0.37342100  1
  O  O127  1  0.70820700  0.71136100  0.87758700  1
  O  O128  1  0.41951500  0.07061000  0.24070700  1
  O  O129  1  0.42917500  0.07084100  0.75053300  1
  O  O130  1  0.42007600  0.57306000  0.24077100  1
  O  O131  1  0.43191100  0.57241700  0.75132500  1
  O  O132  1  0.92024600  0.07316300  0.24074200  1
  O  O133  1  0.93015900  0.07146300  0.75109200  1
  O  O134  1  0.91970500  0.57076900  0.24079300  1
  O  O135  1  0.92883800  0.58262800  0.75896300  1
  O  O136  1  0.17947000  0.43030000  0.24952300  1
  O  O137  1  0.17955100  0.43162400  0.75105200  1
  O  O138  1  0.16822500  0.91764500  0.24180900  1
  O  O139  1  0.17881000  0.92594500  0.75919000  1
  O  O140  1  0.66853800  0.41769700  0.24184200  1
  O  O141  1  0.67975500  0.42732000  0.75041300  1
  O  O142  1  0.67975800  0.93018000  0.24953100  1
  O  O143  1  0.68214200  0.92881500  0.75102300  1
