# generated using pymatgen
data_MnAl2P2(H5O4)4
_symmetry_space_group_name_H-M   'P 1'
_cell_length_a   7.01698300
_cell_length_b   10.35454634
_cell_length_c   10.73542625
_cell_angle_alpha   107.79855412
_cell_angle_beta   89.47638825
_cell_angle_gamma   109.66239806
_symmetry_Int_Tables_number   1
_chemical_formula_structural   MnAl2P2(H5O4)4
_chemical_formula_sum   'Mn2 Al4 P4 H40 O32'
_cell_volume   695.54270197
_cell_formula_units_Z   2
loop_
 _symmetry_equiv_pos_site_id
 _symmetry_equiv_pos_as_xyz
  1  'x, y, z'
loop_
 _atom_site_type_symbol
 _atom_site_label
 _atom_site_symmetry_multiplicity
 _atom_site_fract_x
 _atom_site_fract_y
 _atom_site_fract_z
 _atom_site_occupancy
  Mn  Mn0  1  0.85503500  0.22833800  0.49055700  1
  Mn  Mn1  1  0.14496500  0.77166200  0.50944300  1
  Al  Al2  1  0.98968200  0.24808900  0.99741500  1
  Al  Al3  1  0.01031800  0.75191100  0.00258500  1
  Al  Al4  1  0.50000000  0.50000000  0.00000000  1
  Al  Al5  1  0.50000000  0.00000000  0.00000000  1
  P  P6  1  0.84772800  0.41071800  0.82416200  1
  P  P7  1  0.15227200  0.58928200  0.17583800  1
  P  P8  1  0.90416400  0.04171100  0.17082300  1
  P  P9  1  0.09583600  0.95828900  0.82917700  1
  H  H10  1  0.45780600  0.16645400  0.52688900  1
  H  H11  1  0.54219400  0.83354600  0.47311100  1
  H  H12  1  0.72946500  0.95007900  0.83109500  1
  H  H13  1  0.27053500  0.04992100  0.16890500  1
  H  H14  1  0.69142300  0.68909900  0.74383700  1
  H  H15  1  0.30857700  0.31090100  0.25616300  1
  H  H16  1  0.27999800  0.34275000  0.60514100  1
  H  H17  1  0.72000200  0.65725000  0.39485900  1
  H  H18  1  0.45709000  0.58300200  0.80835000  1
  H  H19  1  0.54291000  0.41699800  0.19165000  1
  H  H20  1  0.82672000  0.45249800  0.39003700  1
  H  H21  1  0.17328000  0.54750200  0.60996300  1
  H  H22  1  0.22846400  0.09030800  0.62582800  1
  H  H23  1  0.77153600  0.90969200  0.37417200  1
  H  H24  1  0.64045900  0.22228400  0.95141900  1
  H  H25  1  0.35954100  0.77771600  0.04858100  1
  H  H26  1  0.94383200  0.03584100  0.61985700  1
  H  H27  1  0.05616800  0.96415900  0.38014300  1
  H  H28  1  0.32211300  0.23854900  0.96813900  1
  H  H29  1  0.67788700  0.76145100  0.03186100  1
  H  H30  1  0.90737300  0.34740600  0.28049400  1
  H  H31  1  0.09262700  0.65259400  0.71950600  1
  H  H32  1  0.49643100  0.14574200  0.24793700  1
  H  H33  1  0.50356900  0.85425800  0.75206300  1
  H  H34  1  0.23795900  0.53796700  0.86030800  1
  H  H35  1  0.76204100  0.46203300  0.13969200  1
  H  H36  1  0.66492800  0.46169800  0.60120500  1
  H  H37  1  0.33507200  0.53830200  0.39879500  1
  H  H38  1  0.72288100  0.62546300  0.53021000  1
  H  H39  1  0.27711900  0.37453700  0.46979000  1
  H  H40  1  0.35286100  0.21562100  0.68505700  1
  H  H41  1  0.64713900  0.78437900  0.31494300  1
  H  H42  1  0.44186600  0.29343200  0.71481000  1
  H  H43  1  0.55813400  0.70656800  0.28519000  1
  H  H44  1  0.66870200  0.61175300  0.69537800  1
  H  H45  1  0.33129800  0.38824700  0.30462200  1
  H  H46  1  0.40881200  0.03257500  0.40382700  1
  H  H47  1  0.59118800  0.96742500  0.59617300  1
  H  H48  1  0.89420400  0.16865300  0.71518200  1
  H  H49  1  0.10579600  0.83134700  0.28481800  1
  O  O50  1  0.90709600  0.07978400  0.32302300  1
  O  O51  1  0.09290400  0.92021600  0.67697700  1
  O  O52  1  0.51361800  0.13004300  0.44522800  1
  O  O53  1  0.48638200  0.86995700  0.55477200  1
  O  O54  1  0.83287900  0.35418700  0.35921100  1
  O  O55  1  0.16712100  0.64581300  0.64078900  1
  O  O56  1  0.97039000  0.06015400  0.87298900  1
  O  O57  1  0.02961000  0.93984600  0.12701100  1
  O  O58  1  0.28221100  0.32468900  0.99423700  1
  O  O59  1  0.71778900  0.67531100  0.00576300  1
  O  O60  1  0.94316700  0.30318600  0.84766800  1
  O  O61  1  0.05683300  0.69681400  0.15233200  1
  O  O62  1  0.36323400  0.51117000  0.84279300  1
  O  O63  1  0.63676600  0.48883000  0.15720700  1
  O  O64  1  0.31450400  0.03833300  0.90052700  1
  O  O65  1  0.68549600  0.96166700  0.09947300  1
  O  O66  1  0.69863300  0.17325400  0.99651400  1
  O  O67  1  0.30136700  0.82674600  0.00348600  1
  O  O68  1  0.99240900  0.81525100  0.85856500  1
  O  O69  1  0.00759100  0.18474900  0.14143500  1
  O  O70  1  0.65191400  0.39700100  0.89479100  1
  O  O71  1  0.34808600  0.60299900  0.10520900  1
  O  O72  1  0.85726200  0.09472700  0.62291800  1
  O  O73  1  0.14273800  0.90527300  0.37708200  1
  O  O74  1  0.80044100  0.36746600  0.67318800  1
  O  O75  1  0.19955900  0.63253400  0.32681200  1
  O  O76  1  0.58480700  0.88915900  0.83673100  1
  O  O77  1  0.41519300  0.11084100  0.16326900  1
  O  O78  1  0.00804700  0.56698500  0.87921400  1
  O  O79  1  0.99195300  0.43301500  0.12078600  1
  O  O80  1  0.80090800  0.63643600  0.45548200  1
  O  O81  1  0.19909200  0.36356400  0.54451800  1
