# generated using pymatgen
data_Er2V10O53
_symmetry_space_group_name_H-M   'P 1'
_cell_length_a   8.98119400
_cell_length_b   10.24495981
_cell_length_c   12.17827451
_cell_angle_alpha   112.42636066
_cell_angle_beta   105.56364940
_cell_angle_gamma   92.27201705
_symmetry_Int_Tables_number   1
_chemical_formula_structural   Er2V10O53
_chemical_formula_sum   'Er2 V10 O53'
_cell_volume   985.05204646
_cell_formula_units_Z   1
loop_
 _symmetry_equiv_pos_site_id
 _symmetry_equiv_pos_as_xyz
  1  'x, y, z'
loop_
 _atom_site_type_symbol
 _atom_site_label
 _atom_site_symmetry_multiplicity
 _atom_site_fract_x
 _atom_site_fract_y
 _atom_site_fract_z
 _atom_site_occupancy
  Er  Er0  1  0.57914600  0.14150100  0.85619800  1
  Er  Er1  1  0.42085400  0.85849900  0.14380200  1
  V  V2  1  0.97303600  0.20794600  0.38497800  1
  V  V3  1  0.02696400  0.79205400  0.61502200  1
  V  V4  1  0.90071500  0.36706400  0.63291800  1
  V  V5  1  0.09928500  0.63293600  0.36708200  1
  V  V6  1  0.86931800  0.33440000  0.17413800  1
  V  V7  1  0.13068200  0.66560000  0.82586200  1
  V  V8  1  0.80125100  0.49803500  0.42791200  1
  V  V9  1  0.19874900  0.50196500  0.57208800  1
  V  V10  1  0.21865000  0.34711200  0.31197500  1
  V  V11  1  0.78135000  0.65288800  0.68802500  1
  O  O12  1  0.92120200  0.05422100  0.38369700  1
  O  O13  1  0.07879800  0.94577900  0.61630300  1
  O  O14  1  0.86012000  0.18987700  0.22207900  1
  O  O15  1  0.13988000  0.81012300  0.77792100  1
  O  O16  1  0.15974800  0.19644800  0.34867300  1
  O  O17  1  0.84025200  0.80355200  0.65132700  1
  O  O18  1  0.80971000  0.32115600  0.44607900  1
  O  O19  1  0.19029000  0.67884400  0.55392100  1
  O  O20  1  0.08520500  0.33393600  0.56661700  1
  O  O21  1  0.91479500  0.66606400  0.43338300  1
  O  O22  1  0.05309500  0.42711100  0.39363400  1
  O  O23  1  0.94690500  0.57288900  0.60636600  1
  O  O24  1  0.85195500  0.21830600  0.64202900  1
  O  O25  1  0.14804500  0.78169400  0.35797100  1
  O  O26  1  0.73679200  0.46720800  0.66245700  1
  O  O27  1  0.26320800  0.53279200  0.33754300  1
  O  O28  1  0.03899100  0.48324300  0.79092900  1
  O  O29  1  0.96100900  0.51675700  0.20907100  1
  O  O30  1  0.75788100  0.26449200  0.01821200  1
  O  O31  1  0.24211900  0.73550800  0.98178800  1
  O  O32  1  0.08657100  0.28829700  0.16680800  1
  O  O33  1  0.91342900  0.71170300  0.83319200  1
  O  O34  1  0.73209600  0.41697800  0.25956500  1
  O  O35  1  0.26790400  0.58302200  0.74043500  1
  O  O36  1  0.34625300  0.43983300  0.52088400  1
  O  O37  1  0.65374700  0.56016700  0.47911600  1
  O  O38  1  0.41247800  0.27076000  0.28282100  1
  O  O39  1  0.58752200  0.72924000  0.71717900  1
  O  O40  1  0.37959900  0.20576000  0.91761500  1
  O  O41  1  0.62040100  0.79424000  0.08238500  1
  O  O42  1  0.47554700  0.25064900  0.64805300  1
  O  O43  1  0.52445300  0.74935100  0.35194700  1
  O  O44  1  0.58093800  0.93309800  0.87810200  1
  O  O45  1  0.41906200  0.06690200  0.12189800  1
  O  O46  1  0.57961300  0.97562300  0.64044400  1
  O  O47  1  0.42038700  0.02437700  0.35955600  1
  O  O48  1  0.35082800  0.16643800  0.62406600  1
  O  O49  1  0.64917200  0.83356200  0.37593400  1
  O  O50  1  0.33921200  0.34235900  0.91903500  1
  O  O51  1  0.66078800  0.65764100  0.08096500  1
  O  O52  1  0.56460100  0.06487600  0.40739100  1
  O  O53  1  0.43539900  0.93512400  0.59260900  1
  O  O54  1  0.57542000  0.29965700  0.77106900  1
  O  O55  1  0.42458000  0.70034300  0.22893100  1
  O  O56  1  0.40083300  0.20403200  0.15709600  1
  O  O57  1  0.59916700  0.79596800  0.84290400  1
  O  O58  1  0.03217900  0.93693600  0.10178400  1
  O  O59  1  0.96782100  0.06306400  0.89821600  1
  O  O60  1  0.28585500  0.41062400  0.00628100  1
  O  O61  1  0.71414500  0.58937600  0.99371900  1
  O  O62  1  0.01572600  0.15528200  0.86827900  1
  O  O63  1  0.98427400  0.84471800  0.13172100  1
  O  O64  1  0.00000000  0.50000000  0.00000000  1
