# generated using pymatgen
data_OF
_symmetry_space_group_name_H-M   'P 1'
_cell_length_a   3.04260969
_cell_length_b   3.04261013
_cell_length_c   7.27354746
_cell_angle_alpha   77.92711282
_cell_angle_beta   77.92711950
_cell_angle_gamma   59.99999595
_symmetry_Int_Tables_number   1
_chemical_formula_structural   OF
_chemical_formula_sum   'O2 F2'
_cell_volume   56.58733316
_cell_formula_units_Z   2
loop_
 _symmetry_equiv_pos_site_id
 _symmetry_equiv_pos_as_xyz
  1  'x, y, z'
loop_
 _atom_site_type_symbol
 _atom_site_label
 _atom_site_symmetry_multiplicity
 _atom_site_fract_x
 _atom_site_fract_y
 _atom_site_fract_z
 _atom_site_occupancy
  O  O0  1  0.39292300  0.39292300  0.82123100  1
  O  O1  1  0.60707700  0.60707700  0.17876900  1
  F  F2  1  0.89057400  0.89057400  0.32827800  1
  F  F3  1  0.10942600  0.10942600  0.67172200  1
