# generated using pymatgen
data_TiCrAgS4
_symmetry_space_group_name_H-M   'P 1'
_cell_length_a   6.47561500
_cell_length_b   7.69109295
_cell_length_c   12.85135469
_cell_angle_alpha   98.47946294
_cell_angle_beta   95.52817443
_cell_angle_gamma   89.94978950
_symmetry_Int_Tables_number   1
_chemical_formula_structural   TiCrAgS4
_chemical_formula_sum   'Ti4 Cr4 Ag4 S16'
_cell_volume   630.05728552
_cell_formula_units_Z   4
loop_
 _symmetry_equiv_pos_site_id
 _symmetry_equiv_pos_as_xyz
  1  'x, y, z'
loop_
 _atom_site_type_symbol
 _atom_site_label
 _atom_site_symmetry_multiplicity
 _atom_site_fract_x
 _atom_site_fract_y
 _atom_site_fract_z
 _atom_site_occupancy
  Ti  Ti0  1  0.85132000  0.29611400  0.71206200  1
  Ti  Ti1  1  0.15238900  0.71124100  0.29262200  1
  Ti  Ti2  1  0.22238600  0.90142500  0.00173100  1
  Ti  Ti3  1  0.63501700  0.43871100  0.28276500  1
  Cr  Cr4  1  0.75678400  0.10990800  0.99786300  1
  Cr  Cr5  1  0.35866500  0.55475800  0.71671800  1
  Cr  Cr6  1  0.61365000  0.94430800  0.28071300  1
  Cr  Cr7  1  0.36626600  0.05020800  0.71339600  1
  Ag  Ag8  1  0.89578900  0.80249000  0.69715800  1
  Ag  Ag9  1  0.12230200  0.19110300  0.30052600  1
  Ag  Ag10  1  0.74543200  0.62583600  0.99554800  1
  Ag  Ag11  1  0.25156100  0.37412300  0.99819000  1
  S  S12  1  0.87552900  0.32404300  0.88922800  1
  S  S13  1  0.14180100  0.68030800  0.11554000  1
  S  S14  1  0.90780500  0.86609500  0.89879500  1
  S  S15  1  0.08676600  0.14297400  0.09948100  1
  S  S16  1  0.76675000  0.21127000  0.35875300  1
  S  S17  1  0.24989100  0.78189700  0.64090100  1
  S  S18  1  0.80744700  0.71288400  0.33946700  1
  S  S19  1  0.19133800  0.28970700  0.65835500  1
  S  S20  1  0.67087800  0.04553900  0.63942300  1
  S  S21  1  0.32852800  0.95419200  0.37672900  1
  S  S22  1  0.67218100  0.52776800  0.65421700  1
  S  S23  1  0.32061300  0.47837500  0.35532200  1
  S  S24  1  0.59464100  0.92269900  0.10091600  1
  S  S25  1  0.42110000  0.07102100  0.89143700  1
  S  S26  1  0.62528900  0.37466800  0.10498000  1
  S  S27  1  0.36788300  0.61633400  0.88716600  1
