# generated using pymatgen
data_TiCrAgS4
_symmetry_space_group_name_H-M   'P 1'
_cell_length_a   7.26312951
_cell_length_b   7.26312951
_cell_length_c   7.36626441
_cell_angle_alpha   59.62609451
_cell_angle_beta   59.62609451
_cell_angle_gamma   60.00248214
_symmetry_Int_Tables_number   1
_chemical_formula_structural   TiCrAgS4
_chemical_formula_sum   'Ti2 Cr2 Ag2 S8'
_cell_volume   273.21857689
_cell_formula_units_Z   2
loop_
 _symmetry_equiv_pos_site_id
 _symmetry_equiv_pos_as_xyz
  1  'x, y, z'
loop_
 _atom_site_type_symbol
 _atom_site_label
 _atom_site_symmetry_multiplicity
 _atom_site_fract_x
 _atom_site_fract_y
 _atom_site_fract_z
 _atom_site_occupancy
  Ti  Ti0  1  0.51860900  0.96697200  0.01325400  1
  Ti  Ti1  1  0.03302800  0.48139100  0.98674600  1
  Cr  Cr2  1  0.49500200  0.50499800  0.00000000  1
  Cr  Cr3  1  0.49374600  0.50625400  0.50000000  1
  Ag  Ag4  1  0.86407600  0.89319000  0.37322200  1
  Ag  Ag5  1  0.10681000  0.13592400  0.62677800  1
  S  S6  1  0.74396900  0.73110900  0.24153000  1
  S  S7  1  0.26618100  0.25834500  0.21397100  1
  S  S8  1  0.69383300  0.27389200  0.76558000  1
  S  S9  1  0.26539800  0.71693500  0.75902500  1
  S  S10  1  0.28306500  0.73460200  0.24097500  1
  S  S11  1  0.72610800  0.30616700  0.23442000  1
  S  S12  1  0.26889100  0.25603100  0.75847000  1
  S  S13  1  0.74165500  0.73381900  0.78602900  1
