# generated using pymatgen
data_Be2Tl2Co(O3F4)2
_symmetry_space_group_name_H-M   'P 1'
_cell_length_a   10.15434800
_cell_length_b   5.82514000
_cell_length_c   9.29613317
_cell_angle_alpha   78.23024987
_cell_angle_beta   90.00000000
_cell_angle_gamma   90.00000000
_symmetry_Int_Tables_number   1
_chemical_formula_structural   Be2Tl2Co(O3F4)2
_chemical_formula_sum   'Be4 Tl4 Co2 O12 F16'
_cell_volume   538.30999719
_cell_formula_units_Z   2
loop_
 _symmetry_equiv_pos_site_id
 _symmetry_equiv_pos_as_xyz
  1  'x, y, z'
loop_
 _atom_site_type_symbol
 _atom_site_label
 _atom_site_symmetry_multiplicity
 _atom_site_fract_x
 _atom_site_fract_y
 _atom_site_fract_z
 _atom_site_occupancy
  Be  Be0  1  0.36724100  0.76615300  0.93070700  1
  Be  Be1  1  0.63275900  0.23384700  0.06929300  1
  Be  Be2  1  0.86724100  0.23384700  0.56929300  1
  Be  Be3  1  0.13275900  0.76615300  0.43070700  1
  Tl  Tl4  1  0.70632800  0.82805700  0.87322500  1
  Tl  Tl5  1  0.29367200  0.17194300  0.12677500  1
  Tl  Tl6  1  0.20632800  0.17194300  0.62677500  1
  Tl  Tl7  1  0.79367200  0.82805700  0.37322500  1
  Co  Co8  1  0.50000000  0.50000000  0.50000000  1
  Co  Co9  1  0.00000000  0.50000000  0.00000000  1
  O  O10  1  0.45637200  0.80341800  0.48241600  1
  O  O11  1  0.54362800  0.19658200  0.51758400  1
  O  O12  1  0.95637200  0.19658200  0.01758400  1
  O  O13  1  0.04362800  0.80341800  0.98241600  1
  O  O14  1  0.10091900  0.41118400  0.86889700  1
  O  O15  1  0.89908100  0.58881600  0.13110300  1
  O  O16  1  0.60091900  0.58881600  0.63110300  1
  O  O17  1  0.39908100  0.41118400  0.36889700  1
  O  O18  1  0.39230100  0.31713300  0.65087800  1
  O  O19  1  0.60769900  0.68286700  0.34912200  1
  O  O20  1  0.89230100  0.68286700  0.84912200  1
  O  O21  1  0.10769900  0.31713300  0.15087800  1
  F  F22  1  0.25620900  0.93364100  0.85113800  1
  F  F23  1  0.74379100  0.06635900  0.14886200  1
  F  F24  1  0.75620900  0.06635900  0.64886200  1
  F  F25  1  0.24379100  0.93364100  0.35113800  1
  F  F26  1  0.49578300  0.81944000  0.83455200  1
  F  F27  1  0.50421700  0.18056000  0.16544800  1
  F  F28  1  0.99578300  0.18056000  0.66544800  1
  F  F29  1  0.00421700  0.81944000  0.33455200  1
  F  F30  1  0.12698200  0.83493700  0.58752100  1
  F  F31  1  0.87301800  0.16506300  0.41247900  1
  F  F32  1  0.62698200  0.16506300  0.91247900  1
  F  F33  1  0.37301800  0.83493700  0.08752100  1
  F  F34  1  0.34314900  0.49877000  0.94984200  1
  F  F35  1  0.65685100  0.50123000  0.05015800  1
  F  F36  1  0.84314900  0.50123000  0.55015800  1
  F  F37  1  0.15685100  0.49877000  0.44984200  1
