# generated using pymatgen
data_TmMgS3
_symmetry_space_group_name_H-M   'P 1'
_cell_length_a   6.96529322
_cell_length_b   6.96529322
_cell_length_c   6.62172083
_cell_angle_alpha   76.52364243
_cell_angle_beta   76.52364243
_cell_angle_gamma   118.69260436
_symmetry_Int_Tables_number   1
_chemical_formula_structural   TmMgS3
_chemical_formula_sum   'Tm2 Mg2 S6'
_cell_volume   250.64586918
_cell_formula_units_Z   2
loop_
 _symmetry_equiv_pos_site_id
 _symmetry_equiv_pos_as_xyz
  1  'x, y, z'
loop_
 _atom_site_type_symbol
 _atom_site_label
 _atom_site_symmetry_multiplicity
 _atom_site_fract_x
 _atom_site_fract_y
 _atom_site_fract_z
 _atom_site_occupancy
  Tm  Tm0  1  0.20029500  0.20029500  0.68640600  1
  Tm  Tm1  1  0.79970500  0.79970500  0.31359400  1
  Mg  Mg2  1  0.33696300  0.66303700  0.00000000  1
  Mg  Mg3  1  0.66303700  0.33696300  0.00000000  1
  S  S4  1  0.11100800  0.77888900  0.80385900  1
  S  S5  1  0.88899200  0.22111100  0.19614100  1
  S  S6  1  0.22111100  0.88899200  0.19614100  1
  S  S7  1  0.77888900  0.11100800  0.80385900  1
  S  S8  1  0.46195900  0.46195900  0.25989000  1
  S  S9  1  0.53804100  0.53804100  0.74011000  1
