# generated using pymatgen
data_K5Na3Nb5W3O20
_symmetry_space_group_name_H-M   'P 1'
_cell_length_a   11.59476941
_cell_length_b   11.85031432
_cell_length_c   17.68190760
_cell_angle_alpha   109.73621081
_cell_angle_beta   109.11167454
_cell_angle_gamma   89.99268170
_symmetry_Int_Tables_number   1
_chemical_formula_structural   K5Na3Nb5W3O20
_chemical_formula_sum   'K20 Na12 Nb20 W12 O80'
_cell_volume   2144.04032473
_cell_formula_units_Z   4
loop_
 _symmetry_equiv_pos_site_id
 _symmetry_equiv_pos_as_xyz
  1  'x, y, z'
loop_
 _atom_site_type_symbol
 _atom_site_label
 _atom_site_symmetry_multiplicity
 _atom_site_fract_x
 _atom_site_fract_y
 _atom_site_fract_z
 _atom_site_occupancy
  K  K0  1  0.30174533  0.06610608  0.11026206  1
  K  K1  1  0.30493445  0.56662972  0.10759579  1
  K  K2  1  0.79883745  0.06128957  0.10343969  1
  K  K3  1  0.80973013  0.56334542  0.11428108  1
  K  K4  1  0.81973856  0.57516765  0.62034231  1
  K  K5  1  0.20656717  0.93588529  0.39626747  1
  K  K6  1  0.19364365  0.92859638  0.87855876  1
  K  K7  1  0.69845782  0.43998626  0.39329438  1
  K  K8  1  0.68473554  0.42264700  0.88619856  1
  K  K9  1  0.69623585  0.93683269  0.38826805  1
  K  K10  1  0.69219308  0.92346897  0.87784127  1
  K  K11  1  0.04758116  0.28839449  0.10558981  1
  K  K12  1  0.05980490  0.79148015  0.10679858  1
  K  K13  1  0.55368087  0.29949426  0.11354780  1
  K  K14  1  0.55968827  0.79567522  0.11224579  1
  K  K15  1  0.44927978  0.20731177  0.39181389  1
  K  K16  1  0.45207653  0.71388477  0.39769257  1
  K  K17  1  0.44787430  0.70148042  0.87950343  1
  K  K18  1  0.95181467  0.70153115  0.38798978  1
  K  K19  1  0.94407343  0.70115816  0.87899996  1
  Na  Na20  1  0.29897411  0.07471486  0.60432662  1
  Na  Na21  1  0.31291586  0.56990036  0.61008965  1
  Na  Na22  1  0.80015942  0.07777144  0.60313559  1
  Na  Na23  1  0.21143876  0.44103228  0.40990905  1
  Na  Na24  1  0.19708693  0.42646630  0.89564096  1
  Na  Na25  1  0.04465407  0.27970446  0.60660049  1
  Na  Na26  1  0.06199333  0.79251480  0.60878403  1
  Na  Na27  1  0.55166567  0.27866326  0.59579129  1
  Na  Na28  1  0.55189551  0.79135220  0.60749649  1
  Na  Na29  1  0.44054056  0.21678861  0.89585357  1
  Na  Na30  1  0.95291192  0.22089976  0.40739594  1
  Na  Na31  1  0.94455356  0.21904525  0.89702819  1
  Nb  Nb32  1  0.00708388  0.00258468  0.50406238  1
  Nb  Nb33  1  0.01108446  0.50237828  0.50486244  1
  Nb  Nb34  1  0.25468453  0.25289954  0.50457037  1
  Nb  Nb35  1  0.76269541  0.75634608  0.50636630  1
  Nb  Nb36  1  0.09095168  0.08428516  0.25373108  1
  Nb  Nb37  1  0.08401549  0.08540342  0.74663821  1
  Nb  Nb38  1  0.14047235  0.57603143  0.25343582  1
  Nb  Nb39  1  0.13126599  0.56551862  0.74841271  1
  Nb  Nb40  1  0.62114979  0.09509399  0.25028273  1
  Nb  Nb41  1  0.58137789  0.07831885  0.74577207  1
  Nb  Nb42  1  0.60790733  0.59720087  0.25235432  1
  Nb  Nb43  1  0.62472306  0.56642715  0.74375409  1
  Nb  Nb44  1  0.33906147  0.42098756  0.25489268  1
  Nb  Nb45  1  0.33672935  0.41146153  0.74658870  1
  Nb  Nb46  1  0.36142942  0.90956409  0.25104706  1
  Nb  Nb47  1  0.37010828  0.92629220  0.74497919  1
  Nb  Nb48  1  0.87209196  0.40079345  0.25238265  1
  Nb  Nb49  1  0.83755278  0.40961165  0.74607107  1
  Nb  Nb50  1  0.89233752  0.92768288  0.25259169  1
  Nb  Nb51  1  0.87496768  0.93583675  0.74773406  1
  W  W52  1  0.99885702  0.99616487  0.99469554  1
  W  W53  1  0.99907667  0.49646724  0.99513672  1
  W  W54  1  0.49953263  0.99792868  0.99505222  1
  W  W55  1  0.50922487  0.00554734  0.50884979  1
  W  W56  1  0.49876052  0.49791247  0.99605072  1
  W  W57  1  0.51071111  0.50602869  0.50701150  1
  W  W58  1  0.24704827  0.24703169  0.99540454  1
  W  W59  1  0.25162850  0.74669339  0.99377039  1
  W  W60  1  0.25981818  0.75284661  0.50648684  1
  W  W61  1  0.74641985  0.24421996  0.99524025  1
  W  W62  1  0.75938677  0.25404268  0.50440875  1
  W  W63  1  0.75316874  0.74627652  0.99727005  1
  O  O64  1  0.12831752  0.12999282  0.49721762  1
  O  O65  1  0.11738018  0.11997214  0.98757668  1
  O  O66  1  0.12674907  0.61572124  0.49678811  1
  O  O67  1  0.12000739  0.61227043  0.98109440  1
  O  O68  1  0.62724787  0.12191948  0.49930838  1
  O  O69  1  0.61692533  0.11807127  0.98632908  1
  O  O70  1  0.63381111  0.63350563  0.50307230  1
  O  O71  1  0.62360964  0.61921557  0.99120209  1
  O  O72  1  0.12291048  0.37191888  0.99602384  1
  O  O73  1  0.13932503  0.37800269  0.50834439  1
  O  O74  1  0.12832314  0.87583349  0.00066641  1
  O  O75  1  0.13278282  0.89079243  0.51628311  1
  O  O76  1  0.62467671  0.37327523  0.00458376  1
  O  O77  1  0.63535548  0.38800017  0.51744771  1
  O  O78  1  0.62914413  0.87405662  0.00272966  1
  O  O79  1  0.64442844  0.88433340  0.51909989  1
  O  O80  1  0.37652102  0.12891135  0.50042582  1
  O  O81  1  0.37052200  0.12106265  0.98781124  1
  O  O82  1  0.37872222  0.61668974  0.49762545  1
  O  O83  1  0.36947137  0.61666543  0.98568467  1
  O  O84  1  0.88480882  0.11728153  0.49270656  1
  O  O85  1  0.86898757  0.11586792  0.98389959  1
  O  O86  1  0.88323670  0.63089712  0.50117958  1
  O  O87  1  0.87363060  0.61917067  0.99226302  1
  O  O88  1  0.37462589  0.37567272  0.00108375  1
  O  O89  1  0.38401300  0.38087782  0.51455046  1
  O  O90  1  0.37932331  0.87749764  0.00320431  1
  O  O91  1  0.39389471  0.89203145  0.52364944  1
  O  O92  1  0.87787544  0.37453741  0.00414435  1
  O  O93  1  0.90040268  0.38701532  0.51568403  1
  O  O94  1  0.87808247  0.87406367  0.00087247  1
  O  O95  1  0.88388438  0.87991748  0.50977777  1
  O  O96  1  0.05918698  0.07445192  0.13834894  1
  O  O97  1  0.06326058  0.09687472  0.63762180  1
  O  O98  1  0.08711711  0.57886909  0.13967132  1
  O  O99  1  0.09454706  0.59436842  0.64420185  1
  O  O100  1  0.57175745  0.08371092  0.13257845  1
  O  O101  1  0.56902034  0.10342400  0.64369982  1
  O  O102  1  0.57106452  0.57858147  0.13481316  1
  O  O103  1  0.59097576  0.60761219  0.64572381  1
  O  O104  1  0.43649732  0.42108468  0.36535512  1
  O  O105  1  0.42610375  0.41224178  0.85825032  1
  O  O106  1  0.44031916  0.92322227  0.36818618  1
  O  O107  1  0.43345417  0.91329593  0.85411211  1
  O  O108  1  0.93963787  0.40919410  0.36987133  1
  O  O109  1  0.91530541  0.40776383  0.85832044  1
  O  O110  1  0.95397842  0.91072389  0.36114309  1
  O  O111  1  0.93747020  0.91470518  0.85430955  1
  O  O112  1  0.30954934  0.31317292  0.14010272  1
  O  O113  1  0.31154173  0.29195637  0.63647844  1
  O  O114  1  0.31825488  0.80788631  0.13187723  1
  O  O115  1  0.33721002  0.78888075  0.64486673  1
  O  O116  1  0.82017056  0.29673584  0.13449143  1
  O  O117  1  0.83097097  0.29109944  0.64103568  1
  O  O118  1  0.83875037  0.80745157  0.14061375  1
  O  O119  1  0.85121442  0.80709045  0.64397733  1
  O  O120  1  0.18805409  0.19787563  0.36541177  1
  O  O121  1  0.17928431  0.19298511  0.85785122  1
  O  O122  1  0.19796173  0.70081765  0.36213074  1
  O  O123  1  0.19359808  0.69372754  0.85444421  1
  O  O124  1  0.69413933  0.20594874  0.36496714  1
  O  O125  1  0.67277182  0.18439478  0.85839504  1
  O  O126  1  0.69244682  0.69925849  0.37219954  1
  O  O127  1  0.68649308  0.68429189  0.85570695  1
  O  O128  1  0.46122469  0.04544996  0.25114295  1
  O  O129  1  0.40886215  0.09238509  0.74659167  1
  O  O130  1  0.45174055  0.55005636  0.25380006  1
  O  O131  1  0.45219937  0.52647611  0.73598163  1
  O  O132  1  0.92711374  0.10263630  0.26518294  1
  O  O133  1  0.91181105  0.10165040  0.74868325  1
  O  O134  1  0.97413119  0.52890373  0.25218574  1
  O  O135  1  0.96580668  0.52558490  0.74780829  1
  O  O136  1  0.17522090  0.41387199  0.26568272  1
  O  O137  1  0.16547731  0.39884018  0.74727744  1
  O  O138  1  0.20087273  0.95202183  0.25275398  1
  O  O139  1  0.19505821  0.95529722  0.73386431  1
  O  O140  1  0.72087945  0.47295523  0.25567441  1
  O  O141  1  0.65902074  0.39737915  0.73151200  1
  O  O142  1  0.72521993  0.96848559  0.25125456  1
  O  O143  1  0.69945105  0.95416935  0.73502710  1
