# generated using pymatgen
data_Cr2HgS4
_symmetry_space_group_name_H-M   'P 1'
_cell_length_a   12.46220200
_cell_length_b   3.55909200
_cell_length_c   11.73648400
_cell_angle_alpha   90.00000000
_cell_angle_beta   90.00000000
_cell_angle_gamma   90.00000000
_symmetry_Int_Tables_number   1
_chemical_formula_structural   Cr2HgS4
_chemical_formula_sum   'Cr8 Hg4 S16'
_cell_volume   520.56146009
_cell_formula_units_Z   4
loop_
 _symmetry_equiv_pos_site_id
 _symmetry_equiv_pos_as_xyz
  1  'x, y, z'
loop_
 _atom_site_type_symbol
 _atom_site_label
 _atom_site_symmetry_multiplicity
 _atom_site_fract_x
 _atom_site_fract_y
 _atom_site_fract_z
 _atom_site_occupancy
  Cr  Cr0  1  0.09035400  0.25000000  0.08372300  1
  Cr  Cr1  1  0.90964600  0.75000000  0.91627700  1
  Cr  Cr2  1  0.40964600  0.75000000  0.58372300  1
  Cr  Cr3  1  0.59035400  0.25000000  0.41627700  1
  Cr  Cr4  1  0.17447300  0.25000000  0.70779000  1
  Cr  Cr5  1  0.82552700  0.75000000  0.29221000  1
  Cr  Cr6  1  0.32552700  0.75000000  0.20779000  1
  Cr  Cr7  1  0.67447300  0.25000000  0.79221000  1
  Hg  Hg8  1  0.13330400  0.75000000  0.41996800  1
  Hg  Hg9  1  0.86669600  0.25000000  0.58003200  1
  Hg  Hg10  1  0.36669600  0.25000000  0.91996800  1
  Hg  Hg11  1  0.63330400  0.75000000  0.08003200  1
  S  S12  1  0.07328400  0.75000000  0.62380800  1
  S  S13  1  0.92671600  0.25000000  0.37619200  1
  S  S14  1  0.42671600  0.25000000  0.12380800  1
  S  S15  1  0.57328400  0.75000000  0.87619200  1
  S  S16  1  0.03942100  0.25000000  0.88012800  1
  S  S17  1  0.96057900  0.75000000  0.11987200  1
  S  S18  1  0.46057900  0.75000000  0.38012800  1
  S  S19  1  0.53942100  0.25000000  0.61987200  1
  S  S20  1  0.19380000  0.25000000  0.26250000  1
  S  S21  1  0.80620000  0.75000000  0.73750000  1
  S  S22  1  0.30620000  0.75000000  0.76250000  1
  S  S23  1  0.69380000  0.25000000  0.23750000  1
  S  S24  1  0.21094500  0.75000000  0.04722900  1
  S  S25  1  0.78905500  0.25000000  0.95277100  1
  S  S26  1  0.28905500  0.25000000  0.54722900  1
  S  S27  1  0.71094500  0.75000000  0.45277100  1
