# generated using pymatgen
data_Rb(CrS2)2
_symmetry_space_group_name_H-M   'P 1'
_cell_length_a   7.35773490
_cell_length_b   7.35773490
_cell_length_c   7.35773490
_cell_angle_alpha   111.40626429
_cell_angle_beta   111.40626429
_cell_angle_gamma   105.66681648
_symmetry_Int_Tables_number   1
_chemical_formula_structural   Rb(CrS2)2
_chemical_formula_sum   'Rb2 Cr4 S8'
_cell_volume   305.62189776
_cell_formula_units_Z   2
loop_
 _symmetry_equiv_pos_site_id
 _symmetry_equiv_pos_as_xyz
  1  'x, y, z'
loop_
 _atom_site_type_symbol
 _atom_site_label
 _atom_site_symmetry_multiplicity
 _atom_site_fract_x
 _atom_site_fract_y
 _atom_site_fract_z
 _atom_site_occupancy
  Rb  Rb0  1  0.00000000  0.00000000  0.00000000  1
  Rb  Rb1  1  0.75000000  0.25000000  0.50000000  1
  Cr  Cr2  1  0.87500000  0.62500000  0.25000000  1
  Cr  Cr3  1  0.37500000  0.12500000  0.75000000  1
  Cr  Cr4  1  0.37500000  0.62500000  0.75000000  1
  Cr  Cr5  1  0.37500000  0.62500000  0.25000000  1
  S  S6  1  0.53437100  0.36549300  0.16887700  1
  S  S7  1  0.63450700  0.46562900  0.83112300  1
  S  S8  1  0.19661600  0.36549300  0.83112300  1
  S  S9  1  0.63450700  0.80338400  0.16887700  1
  S  S10  1  0.21562900  0.88450700  0.33112300  1
  S  S11  1  0.11549300  0.44661600  0.33112300  1
  S  S12  1  0.55338400  0.88450700  0.66887700  1
  S  S13  1  0.11549300  0.78437100  0.66887700  1
