# generated using pymatgen
data_Cr2HgS4
_symmetry_space_group_name_H-M   'P 1'
_cell_length_a   3.58445500
_cell_length_b   6.03099800
_cell_length_c   6.88749112
_cell_angle_alpha   77.54766876
_cell_angle_beta   90.00000000
_cell_angle_gamma   90.00000000
_symmetry_Int_Tables_number   1
_chemical_formula_structural   Cr2HgS4
_chemical_formula_sum   'Cr2 Hg1 S4'
_cell_volume   145.39009744
_cell_formula_units_Z   1
loop_
 _symmetry_equiv_pos_site_id
 _symmetry_equiv_pos_as_xyz
  1  'x, y, z'
loop_
 _atom_site_type_symbol
 _atom_site_label
 _atom_site_symmetry_multiplicity
 _atom_site_fract_x
 _atom_site_fract_y
 _atom_site_fract_z
 _atom_site_occupancy
  Cr  Cr0  1  0.50000000  0.00000000  0.50000000  1
  Cr  Cr1  1  0.00000000  0.50000000  0.50000000  1
  Hg  Hg2  1  0.00000000  0.50000000  0.00000000  1
  S  S3  1  0.00000000  0.79115900  0.68663100  1
  S  S4  1  0.50000000  0.29092700  0.69349500  1
  S  S5  1  0.50000000  0.70907300  0.30650500  1
  S  S6  1  0.00000000  0.20884100  0.31336900  1
