# generated using pymatgen
data_La4Al2O9
_symmetry_space_group_name_H-M   'P 1'
_cell_length_a   5.58864085
_cell_length_b   6.42034342
_cell_length_c   7.47866254
_cell_angle_alpha   88.65554546
_cell_angle_beta   94.41328356
_cell_angle_gamma   91.01122460
_symmetry_Int_Tables_number   1
_chemical_formula_structural   La4Al2O9
_chemical_formula_sum   'La4 Al2 O9'
_cell_volume   267.43875059
_cell_formula_units_Z   1
loop_
 _symmetry_equiv_pos_site_id
 _symmetry_equiv_pos_as_xyz
  1  'x, y, z'
loop_
 _atom_site_type_symbol
 _atom_site_label
 _atom_site_symmetry_multiplicity
 _atom_site_fract_x
 _atom_site_fract_y
 _atom_site_fract_z
 _atom_site_occupancy
  La  La0  1  0.15647700  0.86032100  0.70747700  1
  La  La1  1  0.12940300  0.67293200  0.22697600  1
  La  La2  1  0.72979600  0.41508800  0.87241700  1
  La  La3  1  0.69237100  0.16278200  0.36716900  1
  Al  Al4  1  0.22452800  0.34010000  0.66019200  1
  Al  Al5  1  0.22126200  0.21192700  0.08947100  1
  O  O6  1  0.12707600  0.20406000  0.85706200  1
  O  O7  1  0.94196600  0.39146100  0.55499100  1
  O  O8  1  0.39370300  0.57221900  0.69996300  1
  O  O9  1  0.34855900  0.97807500  0.17429900  1
  O  O10  1  0.43537900  0.15149900  0.60855700  1
  O  O11  1  0.44087200  0.41040700  0.13902000  1
  O  O12  1  0.94386400  0.87630900  0.43610700  1
  O  O13  1  0.94990700  0.31356300  0.15775200  1
  O  O14  1  0.94212800  0.70577900  0.93882200  1
