# generated using pymatgen
data_CsTiH10C4O13
_symmetry_space_group_name_H-M   'P 1'
_cell_length_a   11.51839900
_cell_length_b   6.76698400
_cell_length_c   8.04980540
_cell_angle_alpha   84.87087810
_cell_angle_beta   90.00000000
_cell_angle_gamma   90.00000000
_symmetry_Int_Tables_number   1
_chemical_formula_structural   CsTiH10C4O13
_chemical_formula_sum   'Cs2 Ti2 H20 C8 O26'
_cell_volume   624.92822032
_cell_formula_units_Z   2
loop_
 _symmetry_equiv_pos_site_id
 _symmetry_equiv_pos_as_xyz
  1  'x, y, z'
loop_
 _atom_site_type_symbol
 _atom_site_label
 _atom_site_symmetry_multiplicity
 _atom_site_fract_x
 _atom_site_fract_y
 _atom_site_fract_z
 _atom_site_occupancy
  Cs  Cs0  1  0.25000000  0.95329500  0.71666200  1
  Cs  Cs1  1  0.75000000  0.04670500  0.28333800  1
  Ti  Ti2  1  0.75000000  0.34218200  0.77597100  1
  Ti  Ti3  1  0.25000000  0.65781800  0.22402900  1
  H  H4  1  0.67886300  0.66129500  0.56884900  1
  H  H5  1  0.17886300  0.33870500  0.43115100  1
  H  H6  1  0.32113700  0.33870500  0.43115100  1
  H  H7  1  0.82113700  0.66129500  0.56884900  1
  H  H8  1  0.67770000  0.96626300  0.86844800  1
  H  H9  1  0.17770000  0.03373700  0.13155200  1
  H  H10  1  0.32230000  0.03373700  0.13155200  1
  H  H11  1  0.82230000  0.96626300  0.86844800  1
  H  H12  1  0.68126900  0.53005300  0.05803400  1
  H  H13  1  0.18126900  0.46994700  0.94196600  1
  H  H14  1  0.31873100  0.46994700  0.94196600  1
  H  H15  1  0.81873100  0.53005300  0.05803400  1
  H  H16  1  0.53625900  0.82655800  0.72455700  1
  H  H17  1  0.03625900  0.17344200  0.27544300  1
  H  H18  1  0.46374100  0.17344200  0.27544300  1
  H  H19  1  0.96374100  0.82655800  0.72455700  1
  H  H20  1  0.52193200  0.76083600  0.91630500  1
  H  H21  1  0.02193200  0.23916400  0.08369500  1
  H  H22  1  0.47806800  0.23916400  0.08369500  1
  H  H23  1  0.97806800  0.76083600  0.91630500  1
  C  C24  1  0.49054700  0.34076500  0.75873100  1
  C  C25  1  0.99054700  0.65923500  0.24126900  1
  C  C26  1  0.50945300  0.65923500  0.24126900  1
  C  C27  1  0.00945300  0.34076500  0.75873100  1
  C  C28  1  0.53039600  0.27316600  0.59223000  1
  C  C29  1  0.03039600  0.72683400  0.40777000  1
  C  C30  1  0.46960400  0.72683400  0.40777000  1
  C  C31  1  0.96960400  0.27316600  0.59223000  1
  O  O32  1  0.75000000  0.61706100  0.63258400  1
  O  O33  1  0.25000000  0.38293900  0.36741600  1
  O  O34  1  0.75000000  0.04726400  0.88271400  1
  O  O35  1  0.25000000  0.95273600  0.11728600  1
  O  O36  1  0.75000000  0.47208400  0.00272700  1
  O  O37  1  0.25000000  0.52791600  0.99727300  1
  O  O38  1  0.57611800  0.37763000  0.85476500  1
  O  O39  1  0.07611800  0.62237000  0.14523500  1
  O  O40  1  0.42388200  0.62237000  0.14523500  1
  O  O41  1  0.92388200  0.37763000  0.85476500  1
  O  O42  1  0.64062800  0.25052800  0.58279600  1
  O  O43  1  0.14062800  0.74947200  0.41720400  1
  O  O44  1  0.35937200  0.74947200  0.41720400  1
  O  O45  1  0.85937200  0.25052800  0.58279600  1
  O  O46  1  0.38504500  0.35383100  0.79257400  1
  O  O47  1  0.88504500  0.64616900  0.20742600  1
  O  O48  1  0.61495500  0.64616900  0.20742600  1
  O  O49  1  0.11495500  0.35383100  0.79257400  1
  O  O50  1  0.45829100  0.24436000  0.47845700  1
  O  O51  1  0.95829100  0.75564000  0.52154300  1
  O  O52  1  0.54170900  0.75564000  0.52154300  1
  O  O53  1  0.04170900  0.24436000  0.47845700  1
  O  O54  1  0.54188800  0.87441500  0.83758500  1
  O  O55  1  0.04188800  0.12558500  0.16241500  1
  O  O56  1  0.45811200  0.12558500  0.16241500  1
  O  O57  1  0.95811200  0.87441500  0.83758500  1
