# generated using pymatgen
data_K3TiFeH4S4O19
_symmetry_space_group_name_H-M   'P 1'
_cell_length_a   9.72503442
_cell_length_b   9.72503442
_cell_length_c   12.84722648
_cell_angle_alpha   88.47851688
_cell_angle_beta   88.47851688
_cell_angle_gamma   132.10857862
_symmetry_Int_Tables_number   1
_chemical_formula_structural   K3TiFeH4S4O19
_chemical_formula_sum   'K6 Ti2 Fe2 H8 S8 O38'
_cell_volume   899.47968883
_cell_formula_units_Z   2
loop_
 _symmetry_equiv_pos_site_id
 _symmetry_equiv_pos_as_xyz
  1  'x, y, z'
loop_
 _atom_site_type_symbol
 _atom_site_label
 _atom_site_symmetry_multiplicity
 _atom_site_fract_x
 _atom_site_fract_y
 _atom_site_fract_z
 _atom_site_occupancy
  K  K0  1  0.86883600  0.12905500  0.75114900  1
  K  K1  1  0.12905500  0.86883600  0.25114900  1
  K  K2  1  0.00063900  0.49989200  0.00004000  1
  K  K3  1  0.49989200  0.00063900  0.50004000  1
  K  K4  1  0.48303900  0.51474000  0.75113800  1
  K  K5  1  0.51474000  0.48303900  0.25113800  1
  Ti  Ti6  1  0.98919200  0.76026600  0.64264600  1
  Ti  Ti7  1  0.76026600  0.98919200  0.14264600  1
  Fe  Fe8  1  0.24933200  0.01094300  0.85873000  1
  Fe  Fe9  1  0.01094300  0.24933200  0.35873000  1
  H  H10  1  0.52830500  0.14460700  0.94557700  1
  H  H11  1  0.86798000  0.47409200  0.55023600  1
  H  H12  1  0.47409200  0.86798000  0.05023600  1
  H  H13  1  0.14460700  0.52830500  0.44557700  1
  H  H14  1  0.39082400  0.15939300  0.07415600  1
  H  H15  1  0.84119600  0.61144300  0.42901400  1
  H  H16  1  0.61144300  0.84119600  0.92901400  1
  H  H17  1  0.15939300  0.39082400  0.57415600  1
  S  S18  1  0.68171700  0.32081100  0.74785800  1
  S  S19  1  0.32081100  0.68171700  0.24785800  1
  S  S20  1  0.27263800  0.72616000  0.75049900  1
  S  S21  1  0.72616000  0.27263800  0.25049900  1
  S  S22  1  0.83713900  0.70344000  0.04012300  1
  S  S23  1  0.29277100  0.15760200  0.46044900  1
  S  S24  1  0.15760200  0.29277100  0.96044900  1
  S  S25  1  0.70344000  0.83713900  0.54012300  1
  O  O26  1  0.68800600  0.53657500  0.98817000  1
  O  O27  1  0.46094800  0.30207400  0.51346300  1
  O  O28  1  0.30207400  0.46094800  0.01346300  1
  O  O29  1  0.53657500  0.68800600  0.48817000  1
  O  O30  1  0.01304200  0.84179500  0.97511400  1
  O  O31  1  0.15076200  0.98037800  0.52642800  1
  O  O32  1  0.98037800  0.15076200  0.02642800  1
  O  O33  1  0.84179500  0.01304200  0.47511400  1
  O  O34  1  0.47894900  0.22350600  0.75957300  1
  O  O35  1  0.78771300  0.52899500  0.73457200  1
  O  O36  1  0.52899500  0.78771300  0.23457200  1
  O  O37  1  0.22350600  0.47894900  0.25957300  1
  O  O38  1  0.25135300  0.80094300  0.84475100  1
  O  O39  1  0.18803800  0.74502100  0.65904900  1
  O  O40  1  0.74502100  0.18803800  0.15904900  1
  O  O41  1  0.80094300  0.25135300  0.34475100  1
  O  O42  1  0.46959500  0.83495900  0.71958900  1
  O  O43  1  0.16981400  0.52874100  0.77619500  1
  O  O44  1  0.52874100  0.16981400  0.27619500  1
  O  O45  1  0.83495900  0.46959500  0.21958900  1
  O  O46  1  0.73923800  0.28794600  0.84278900  1
  O  O47  1  0.71806700  0.26308100  0.65417200  1
  O  O48  1  0.26308100  0.71806700  0.15417200  1
  O  O49  1  0.28794600  0.73923800  0.34278900  1
  O  O50  1  0.07920700  0.91033300  0.74834700  1
  O  O51  1  0.91033300  0.07920700  0.24834700  1
  O  O52  1  0.64591500  0.80772200  0.86391600  1
  O  O53  1  0.19030500  0.35391500  0.63935800  1
  O  O54  1  0.35391500  0.19030500  0.13935800  1
  O  O55  1  0.80772200  0.64591500  0.36391600  1
  O  O56  1  0.22112200  0.21141300  0.90293800  1
  O  O57  1  0.79008700  0.77731000  0.59846700  1
  O  O58  1  0.77731000  0.79008700  0.09846700  1
  O  O59  1  0.21141300  0.22112200  0.40293800  1
  O  O60  1  0.40205500  0.08446800  0.97168800  1
  O  O61  1  0.92044200  0.60011400  0.52980800  1
  O  O62  1  0.60011400  0.92044200  0.02980800  1
  O  O63  1  0.08446800  0.40205500  0.47168800  1
