# generated using pymatgen
data_NbCr3(CuS4)2
_symmetry_space_group_name_H-M   'P 1'
_cell_length_a   7.00774900
_cell_length_b   7.14351700
_cell_length_c   9.90916400
_cell_angle_alpha   90.00000000
_cell_angle_beta   90.00000000
_cell_angle_gamma   90.00000000
_symmetry_Int_Tables_number   1
_chemical_formula_structural   NbCr3(CuS4)2
_chemical_formula_sum   'Nb2 Cr6 Cu4 S16'
_cell_volume   496.05249332
_cell_formula_units_Z   2
loop_
 _symmetry_equiv_pos_site_id
 _symmetry_equiv_pos_as_xyz
  1  'x, y, z'
loop_
 _atom_site_type_symbol
 _atom_site_label
 _atom_site_symmetry_multiplicity
 _atom_site_fract_x
 _atom_site_fract_y
 _atom_site_fract_z
 _atom_site_occupancy
  Nb  Nb0  1  0.50000000  0.73340300  0.25000000  1
  Nb  Nb1  1  0.50000000  0.26659700  0.75000000  1
  Cr  Cr2  1  0.00000000  0.75222500  0.25000000  1
  Cr  Cr3  1  0.74017500  0.50000000  0.50000000  1
  Cr  Cr4  1  0.25982500  0.50000000  0.00000000  1
  Cr  Cr5  1  0.74261600  0.00000000  0.50000000  1
  Cr  Cr6  1  0.00000000  0.24777500  0.75000000  1
  Cr  Cr7  1  0.25738400  0.00000000  0.00000000  1
  Cu  Cu8  1  0.76890600  0.75685400  0.87808500  1
  Cu  Cu9  1  0.23109400  0.24314600  0.37808500  1
  Cu  Cu10  1  0.76890600  0.24314600  0.12191500  1
  Cu  Cu11  1  0.23109400  0.75685400  0.62191500  1
  S  S12  1  0.96939800  0.74961300  0.48991200  1
  S  S13  1  0.75883300  0.50515400  0.25539800  1
  S  S14  1  0.50684300  0.75188000  0.49933900  1
  S  S15  1  0.24116700  0.49484600  0.75539800  1
  S  S16  1  0.50684300  0.24812000  0.50066100  1
  S  S17  1  0.75295100  0.01464700  0.74386400  1
  S  S18  1  0.96939800  0.25038700  0.51008800  1
  S  S19  1  0.75883300  0.49484600  0.74460200  1
  S  S20  1  0.49315700  0.24812000  0.99933900  1
  S  S21  1  0.24704900  0.01464700  0.75613600  1
  S  S22  1  0.03060200  0.25038700  0.98991200  1
  S  S23  1  0.75295100  0.98535300  0.25613600  1
  S  S24  1  0.03060200  0.74961300  0.01008800  1
  S  S25  1  0.24116700  0.50515400  0.24460200  1
  S  S26  1  0.49315700  0.75188000  0.00066100  1
  S  S27  1  0.24704900  0.98535300  0.24386400  1
