# generated using pymatgen
data_MnSeO5
_symmetry_space_group_name_H-M   'P 1'
_cell_length_a   5.61382064
_cell_length_b   5.61382064
_cell_length_c   7.34199736
_cell_angle_alpha   77.28110941
_cell_angle_beta   77.28110941
_cell_angle_gamma   114.95046537
_symmetry_Int_Tables_number   1
_chemical_formula_structural   MnSeO5
_chemical_formula_sum   'Mn2 Se2 O10'
_cell_volume   191.39324942
_cell_formula_units_Z   2
loop_
 _symmetry_equiv_pos_site_id
 _symmetry_equiv_pos_as_xyz
  1  'x, y, z'
loop_
 _atom_site_type_symbol
 _atom_site_label
 _atom_site_symmetry_multiplicity
 _atom_site_fract_x
 _atom_site_fract_y
 _atom_site_fract_z
 _atom_site_occupancy
  Mn  Mn0  1  0.00000000  0.00000000  0.50000000  1
  Mn  Mn1  1  0.00000000  0.00000000  0.00000000  1
  Se  Se2  1  0.43804200  0.56195800  0.25000000  1
  Se  Se3  1  0.56195800  0.43804200  0.75000000  1
  O  O4  1  0.57517500  0.90531900  0.21100600  1
  O  O5  1  0.09468100  0.42482600  0.28899400  1
  O  O6  1  0.42482600  0.09468100  0.78899400  1
  O  O7  1  0.90531900  0.57517400  0.71100600  1
  O  O8  1  0.40319300  0.28246600  0.43088500  1
  O  O9  1  0.71753400  0.59680700  0.06911500  1
  O  O10  1  0.59680700  0.71753400  0.56911500  1
  O  O11  1  0.28246600  0.40319300  0.93088500  1
  O  O12  1  0.06749400  0.93250600  0.25000000  1
  O  O13  1  0.93250600  0.06749400  0.75000000  1
