# generated using pymatgen
data_TaCr3(AgS4)2
_symmetry_space_group_name_H-M   'P 1'
_cell_length_a   6.02363700
_cell_length_b   6.92795900
_cell_length_c   14.95795983
_cell_angle_alpha   62.36883374
_cell_angle_beta   90.00000000
_cell_angle_gamma   90.00000000
_symmetry_Int_Tables_number   1
_chemical_formula_structural   TaCr3(AgS4)2
_chemical_formula_sum   'Ta2 Cr6 Ag4 S16'
_cell_volume   553.02705775
_cell_formula_units_Z   2
loop_
 _symmetry_equiv_pos_site_id
 _symmetry_equiv_pos_as_xyz
  1  'x, y, z'
loop_
 _atom_site_type_symbol
 _atom_site_label
 _atom_site_symmetry_multiplicity
 _atom_site_fract_x
 _atom_site_fract_y
 _atom_site_fract_z
 _atom_site_occupancy
  Ta  Ta0  1  0.50000000  0.00000000  0.50000000  1
  Ta  Ta1  1  0.50000000  0.00000000  0.00000000  1
  Cr  Cr2  1  0.00074400  0.24894200  0.50233600  1
  Cr  Cr3  1  0.00074400  0.75105800  0.99766400  1
  Cr  Cr4  1  0.99925600  0.75105800  0.49766400  1
  Cr  Cr5  1  0.99925600  0.24894200  0.00233600  1
  Cr  Cr6  1  0.50000000  0.50000000  0.50000000  1
  Cr  Cr7  1  0.50000000  0.50000000  0.00000000  1
  Ag  Ag8  1  0.65946300  0.00000000  0.75000000  1
  Ag  Ag9  1  0.34053700  0.00000000  0.25000000  1
  Ag  Ag10  1  0.97891500  0.50000000  0.25000000  1
  Ag  Ag11  1  0.02108500  0.50000000  0.75000000  1
  S  S12  1  0.16121900  0.10471400  0.39444700  1
  S  S13  1  0.16121900  0.89528600  0.10555300  1
  S  S14  1  0.83158700  0.39683600  0.60088400  1
  S  S15  1  0.83158700  0.60316400  0.89911600  1
  S  S16  1  0.83878100  0.89528600  0.60555300  1
  S  S17  1  0.83878100  0.10471400  0.89444700  1
  S  S18  1  0.16841300  0.60316400  0.39911600  1
  S  S19  1  0.16841300  0.39683600  0.10088400  1
  S  S20  1  0.33364000  0.15106000  0.60443100  1
  S  S21  1  0.33364000  0.84894000  0.89556900  1
  S  S22  1  0.66636000  0.84894000  0.39556900  1
  S  S23  1  0.66636000  0.15106000  0.10443100  1
  S  S24  1  0.67028700  0.35770200  0.39691500  1
  S  S25  1  0.67028700  0.64229800  0.10308500  1
  S  S26  1  0.32971300  0.64229800  0.60308500  1
  S  S27  1  0.32971300  0.35770200  0.89691500  1
