# generated using pymatgen
data_MgCrBiO5
_symmetry_space_group_name_H-M   'P 1'
_cell_length_a   5.27636100
_cell_length_b   10.68100000
_cell_length_c   15.34938800
_cell_angle_alpha   90.00000000
_cell_angle_beta   90.00000000
_cell_angle_gamma   90.00000000
_symmetry_Int_Tables_number   1
_chemical_formula_structural   MgCrBiO5
_chemical_formula_sum   'Mg8 Cr8 Bi8 O40'
_cell_volume   865.04257139
_cell_formula_units_Z   8
loop_
 _symmetry_equiv_pos_site_id
 _symmetry_equiv_pos_as_xyz
  1  'x, y, z'
loop_
 _atom_site_type_symbol
 _atom_site_label
 _atom_site_symmetry_multiplicity
 _atom_site_fract_x
 _atom_site_fract_y
 _atom_site_fract_z
 _atom_site_occupancy
  Mg  Mg0  1  0.50301300  0.35957800  0.45057100  1
  Mg  Mg1  1  0.00301300  0.14042200  0.45057100  1
  Mg  Mg2  1  0.00301300  0.64042200  0.04943000  1
  Mg  Mg3  1  0.99698700  0.35957800  0.95057000  1
  Mg  Mg4  1  0.49698700  0.14042200  0.95057000  1
  Mg  Mg5  1  0.99698700  0.85957800  0.54943000  1
  Mg  Mg6  1  0.49698700  0.64042200  0.54943000  1
  Mg  Mg7  1  0.50301300  0.85957800  0.04943000  1
  Cr  Cr8  1  0.97943700  0.39948700  0.59034700  1
  Cr  Cr9  1  0.52056300  0.89948700  0.40965300  1
  Cr  Cr10  1  0.02056300  0.60051300  0.40965300  1
  Cr  Cr11  1  0.47943700  0.10051300  0.59034700  1
  Cr  Cr12  1  0.02056300  0.10051300  0.09034700  1
  Cr  Cr13  1  0.97943700  0.89948700  0.90965300  1
  Cr  Cr14  1  0.52056300  0.39948700  0.09034700  1
  Cr  Cr15  1  0.47943700  0.60051300  0.90965300  1
  Bi  Bi16  1  0.97118700  0.85376700  0.22810100  1
  Bi  Bi17  1  0.02881300  0.14623300  0.77189900  1
  Bi  Bi18  1  0.52881300  0.35376700  0.77189900  1
  Bi  Bi19  1  0.02881300  0.64623300  0.72810100  1
  Bi  Bi20  1  0.47118700  0.14623300  0.27189900  1
  Bi  Bi21  1  0.47118700  0.64623300  0.22810100  1
  Bi  Bi22  1  0.52881300  0.85376700  0.72810100  1
  Bi  Bi23  1  0.97118700  0.35376700  0.27189900  1
  O  O24  1  0.93440500  0.33268400  0.69495300  1
  O  O25  1  0.30762600  0.03996100  0.05798300  1
  O  O26  1  0.19237400  0.53996100  0.94201700  1
  O  O27  1  0.27516300  0.77735300  0.14544300  1
  O  O28  1  0.22483700  0.27735300  0.85455700  1
  O  O29  1  0.93440500  0.83268400  0.80504700  1
  O  O30  1  0.22483700  0.77735300  0.64544300  1
  O  O31  1  0.56559500  0.83268400  0.30504700  1
  O  O32  1  0.30762600  0.53996100  0.44201700  1
  O  O33  1  0.06559500  0.66731600  0.30504700  1
  O  O34  1  0.56559500  0.33268400  0.19495300  1
  O  O35  1  0.64311100  0.19856400  0.52430600  1
  O  O36  1  0.80762600  0.96003900  0.44201700  1
  O  O37  1  0.72483700  0.72264700  0.64544300  1
  O  O38  1  0.18087400  0.02596300  0.88356800  1
  O  O39  1  0.80762600  0.46003900  0.05798300  1
  O  O40  1  0.06559500  0.16731600  0.19495300  1
  O  O41  1  0.77516300  0.22264700  0.35455700  1
  O  O42  1  0.14311100  0.80143600  0.97569400  1
  O  O43  1  0.19237400  0.03996100  0.55798300  1
  O  O44  1  0.35688900  0.80143600  0.47569400  1
  O  O45  1  0.81912600  0.97403700  0.11643200  1
  O  O46  1  0.72483700  0.22264700  0.85455700  1
  O  O47  1  0.68087400  0.97403700  0.61643200  1
  O  O48  1  0.35688900  0.30143600  0.02430600  1
  O  O49  1  0.14311100  0.30143600  0.52430600  1
  O  O50  1  0.69237400  0.46003900  0.55798300  1
  O  O51  1  0.69237400  0.96003900  0.94201700  1
  O  O52  1  0.68087400  0.47403700  0.88356800  1
  O  O53  1  0.85688900  0.69856400  0.47569400  1
  O  O54  1  0.85688900  0.19856400  0.02430600  1
  O  O55  1  0.64311100  0.69856400  0.97569400  1
  O  O56  1  0.81912600  0.47403700  0.38356800  1
  O  O57  1  0.77516300  0.72264700  0.14544300  1
  O  O58  1  0.27516300  0.27735300  0.35455700  1
  O  O59  1  0.18087400  0.52596300  0.61643200  1
  O  O60  1  0.31912600  0.52596300  0.11643200  1
  O  O61  1  0.43440500  0.16731600  0.69495300  1
  O  O62  1  0.31912600  0.02596300  0.38356800  1
  O  O63  1  0.43440500  0.66731600  0.80504700  1
