# generated using pymatgen
data_TaCr3(AgS4)2
_symmetry_space_group_name_H-M   'P 1'
_cell_length_a   6.00566100
_cell_length_b   6.93657622
_cell_length_c   13.28126944
_cell_angle_alpha   90.60660107
_cell_angle_beta   90.43365463
_cell_angle_gamma   90.19751234
_symmetry_Int_Tables_number   1
_chemical_formula_structural   TaCr3(AgS4)2
_chemical_formula_sum   'Ta2 Cr6 Ag4 S16'
_cell_volume   553.23045803
_cell_formula_units_Z   2
loop_
 _symmetry_equiv_pos_site_id
 _symmetry_equiv_pos_as_xyz
  1  'x, y, z'
loop_
 _atom_site_type_symbol
 _atom_site_label
 _atom_site_symmetry_multiplicity
 _atom_site_fract_x
 _atom_site_fract_y
 _atom_site_fract_z
 _atom_site_occupancy
  Ta  Ta0  1  0.98340700  0.00723900  0.25318500  1
  Ta  Ta1  1  0.49599400  0.26103900  0.75008200  1
  Cr  Cr2  1  0.99989000  0.00196600  0.75048200  1
  Cr  Cr3  1  0.00661300  0.49795200  0.25041000  1
  Cr  Cr4  1  0.99908200  0.49944800  0.74899800  1
  Cr  Cr5  1  0.50544100  0.24888800  0.24941300  1
  Cr  Cr6  1  0.49855300  0.74594500  0.74918500  1
  Cr  Cr7  1  0.50559500  0.74979500  0.24932600  1
  Ag  Ag8  1  0.34781100  0.98309400  0.99605900  1
  Ag  Ag9  1  0.63649500  0.51533000  0.50189100  1
  Ag  Ag10  1  0.03480800  0.98935500  0.50085400  1
  Ag  Ag11  1  0.96357800  0.50847200  0.00410500  1
  S  S12  1  0.83186300  0.25908200  0.35850600  1
  S  S13  1  0.83133900  0.74425100  0.64994600  1
  S  S14  1  0.17098000  0.74731300  0.14749500  1
  S  S15  1  0.16278200  0.25109400  0.85718900  1
  S  S16  1  0.17426600  0.24676700  0.14567800  1
  S  S17  1  0.16740900  0.75541400  0.84927800  1
  S  S18  1  0.83596200  0.74184700  0.35553800  1
  S  S19  1  0.83485800  0.25142100  0.64364100  1
  S  S20  1  0.66232200  0.99887900  0.14195700  1
  S  S21  1  0.66544400  0.99619400  0.84994300  1
  S  S22  1  0.34697800  0.50027000  0.34648800  1
  S  S23  1  0.32455400  0.50151400  0.64335000  1
  S  S24  1  0.33749600  0.00063100  0.35100200  1
  S  S25  1  0.33184000  0.99303200  0.64772600  1
  S  S26  1  0.67286200  0.49797800  0.15292800  1
  S  S27  1  0.67177900  0.50578900  0.85534400  1
