# generated using pymatgen
data_TaCr3(CuS4)2
_symmetry_space_group_name_H-M   'P 1'
_cell_length_a   6.47776500
_cell_length_b   7.19094500
_cell_length_c   12.28049400
_cell_angle_alpha   90.00000000
_cell_angle_beta   90.00000000
_cell_angle_gamma   90.00000000
_symmetry_Int_Tables_number   1
_chemical_formula_structural   TaCr3(CuS4)2
_chemical_formula_sum   'Ta2 Cr6 Cu4 S16'
_cell_volume   572.04078371
_cell_formula_units_Z   2
loop_
 _symmetry_equiv_pos_site_id
 _symmetry_equiv_pos_as_xyz
  1  'x, y, z'
loop_
 _atom_site_type_symbol
 _atom_site_label
 _atom_site_symmetry_multiplicity
 _atom_site_fract_x
 _atom_site_fract_y
 _atom_site_fract_z
 _atom_site_occupancy
  Ta  Ta0  1  0.64864200  0.50000000  0.93942000  1
  Ta  Ta1  1  0.35135800  0.00000000  0.43942000  1
  Cr  Cr2  1  0.81056200  0.50000000  0.63250100  1
  Cr  Cr3  1  0.72692100  0.00000000  0.27473900  1
  Cr  Cr4  1  0.18943800  0.00000000  0.13250100  1
  Cr  Cr5  1  0.27307900  0.50000000  0.77473900  1
  Cr  Cr6  1  0.84131800  0.00000000  0.05542100  1
  Cr  Cr7  1  0.15868200  0.50000000  0.55542100  1
  Cu  Cu8  1  0.89979300  0.00000000  0.60159500  1
  Cu  Cu9  1  0.55226800  0.50000000  0.41969900  1
  Cu  Cu10  1  0.10020700  0.50000000  0.10159500  1
  Cu  Cu11  1  0.44773200  0.00000000  0.91969900  1
  S  S12  1  0.94333100  0.22161200  0.17319500  1
  S  S13  1  0.52969000  0.26473500  0.82876000  1
  S  S14  1  0.05666900  0.27838800  0.67319500  1
  S  S15  1  0.47031000  0.23526500  0.32876000  1
  S  S16  1  0.47031000  0.76473500  0.32876000  1
  S  S17  1  0.05666900  0.72161200  0.67319500  1
  S  S18  1  0.52969000  0.73526500  0.82876000  1
  S  S19  1  0.94333100  0.77838800  0.17319500  1
  S  S20  1  0.53764900  0.00000000  0.59644200  1
  S  S21  1  0.89762000  0.50000000  0.44861100  1
  S  S22  1  0.46235100  0.50000000  0.09644200  1
  S  S23  1  0.10238000  0.00000000  0.94861100  1
  S  S24  1  0.01121400  0.50000000  0.92222300  1
  S  S25  1  0.52248800  0.00000000  0.10543800  1
  S  S26  1  0.98878600  0.00000000  0.42222300  1
  S  S27  1  0.47751200  0.50000000  0.60543800  1
