# generated using pymatgen
data_Cs(CrS2)2
_symmetry_space_group_name_H-M   'P 1'
_cell_length_a   3.59491900
_cell_length_b   12.06907300
_cell_length_c   13.28791700
_cell_angle_alpha   90.00000000
_cell_angle_beta   90.00000000
_cell_angle_gamma   90.00000000
_symmetry_Int_Tables_number   1
_chemical_formula_structural   Cs(CrS2)2
_chemical_formula_sum   'Cs4 Cr8 S16'
_cell_volume   576.52737065
_cell_formula_units_Z   4
loop_
 _symmetry_equiv_pos_site_id
 _symmetry_equiv_pos_as_xyz
  1  'x, y, z'
loop_
 _atom_site_type_symbol
 _atom_site_label
 _atom_site_symmetry_multiplicity
 _atom_site_fract_x
 _atom_site_fract_y
 _atom_site_fract_z
 _atom_site_occupancy
  Cs  Cs0  1  0.25000000  0.24324100  0.33744000  1
  Cs  Cs1  1  0.75000000  0.75675900  0.66256000  1
  Cs  Cs2  1  0.75000000  0.25675900  0.83744000  1
  Cs  Cs3  1  0.25000000  0.74324100  0.16256000  1
  Cr  Cr4  1  0.25000000  0.07199100  0.10107500  1
  Cr  Cr5  1  0.75000000  0.92800900  0.89892500  1
  Cr  Cr6  1  0.75000000  0.42800900  0.60107500  1
  Cr  Cr7  1  0.25000000  0.57199100  0.39892500  1
  Cr  Cr8  1  0.25000000  0.06920400  0.60398400  1
  Cr  Cr9  1  0.75000000  0.93079600  0.39601600  1
  Cr  Cr10  1  0.75000000  0.43079600  0.10398400  1
  Cr  Cr11  1  0.25000000  0.56920400  0.89601600  1
  S  S12  1  0.75000000  0.02089300  0.71477900  1
  S  S13  1  0.25000000  0.97910700  0.28522100  1
  S  S14  1  0.25000000  0.47910700  0.21477900  1
  S  S15  1  0.75000000  0.52089300  0.78522100  1
  S  S16  1  0.25000000  0.05445300  0.92533700  1
  S  S17  1  0.75000000  0.94554700  0.07466300  1
  S  S18  1  0.75000000  0.44554700  0.42533700  1
  S  S19  1  0.25000000  0.55445300  0.57466300  1
  S  S20  1  0.75000000  0.09895800  0.49106200  1
  S  S21  1  0.25000000  0.90104200  0.50893800  1
  S  S22  1  0.25000000  0.40104200  0.99106200  1
  S  S23  1  0.75000000  0.59895800  0.00893800  1
  S  S24  1  0.75000000  0.20390900  0.12265500  1
  S  S25  1  0.25000000  0.79609100  0.87734500  1
  S  S26  1  0.25000000  0.29609100  0.62265500  1
  S  S27  1  0.75000000  0.70390900  0.37734500  1
