# generated using pymatgen
data_U(MoO4)2
_symmetry_space_group_name_H-M   'P 1'
_cell_length_a   4.14478700
_cell_length_b   7.58091300
_cell_length_c   20.38550000
_cell_angle_alpha   90.00000000
_cell_angle_beta   90.00000000
_cell_angle_gamma   90.00000000
_symmetry_Int_Tables_number   1
_chemical_formula_structural   U(MoO4)2
_chemical_formula_sum   'U4 Mo8 O32'
_cell_volume   640.53829246
_cell_formula_units_Z   4
loop_
 _symmetry_equiv_pos_site_id
 _symmetry_equiv_pos_as_xyz
  1  'x, y, z'
loop_
 _atom_site_type_symbol
 _atom_site_label
 _atom_site_symmetry_multiplicity
 _atom_site_fract_x
 _atom_site_fract_y
 _atom_site_fract_z
 _atom_site_occupancy
  U  U0  1  0.00000000  0.50000000  0.75084100  1
  U  U1  1  0.00000000  0.50000000  0.24915900  1
  U  U2  1  0.00000000  0.00000000  0.74915900  1
  U  U3  1  0.00000000  0.00000000  0.25084100  1
  Mo  Mo4  1  0.91385000  0.24957200  0.59170800  1
  Mo  Mo5  1  0.91385000  0.75042800  0.40829200  1
  Mo  Mo6  1  0.08615000  0.25042800  0.90829200  1
  Mo  Mo7  1  0.08615000  0.74957200  0.09170800  1
  Mo  Mo8  1  0.08615000  0.75042800  0.59170800  1
  Mo  Mo9  1  0.08615000  0.24957200  0.40829200  1
  Mo  Mo10  1  0.91385000  0.74957200  0.90829200  1
  Mo  Mo11  1  0.91385000  0.25042800  0.09170800  1
  O  O12  1  0.50000000  0.50000000  0.74685300  1
  O  O13  1  0.50000000  0.50000000  0.25314700  1
  O  O14  1  0.50000000  0.00000000  0.75314700  1
  O  O15  1  0.50000000  0.00000000  0.24685300  1
  O  O16  1  0.00000000  0.75561300  0.50000000  1
  O  O17  1  0.00000000  0.24438700  0.50000000  1
  O  O18  1  0.00000000  0.74438700  0.00000000  1
  O  O19  1  0.00000000  0.25561300  0.00000000  1
  O  O20  1  0.00000000  0.50000000  0.10930700  1
  O  O21  1  0.00000000  0.50000000  0.89069300  1
  O  O22  1  0.00000000  0.00000000  0.39069300  1
  O  O23  1  0.00000000  0.00000000  0.60930700  1
  O  O24  1  0.00000000  0.00000000  0.10357500  1
  O  O25  1  0.00000000  0.00000000  0.89642500  1
  O  O26  1  0.00000000  0.50000000  0.39642500  1
  O  O27  1  0.00000000  0.50000000  0.60357500  1
  O  O28  1  0.01055600  0.75335900  0.18999700  1
  O  O29  1  0.01055600  0.24664100  0.81000300  1
  O  O30  1  0.98944400  0.74664100  0.31000300  1
  O  O31  1  0.98944400  0.25335900  0.68999700  1
  O  O32  1  0.98944400  0.24664100  0.18999700  1
  O  O33  1  0.98944400  0.75335900  0.81000300  1
  O  O34  1  0.01055600  0.25335900  0.31000300  1
  O  O35  1  0.01055600  0.74664100  0.68999700  1
  O  O36  1  0.49478200  0.24775600  0.58992400  1
  O  O37  1  0.49478200  0.75224400  0.41007600  1
  O  O38  1  0.50521800  0.25224400  0.91007600  1
  O  O39  1  0.50521800  0.74775600  0.08992400  1
  O  O40  1  0.50521800  0.75224400  0.58992400  1
  O  O41  1  0.50521800  0.24775600  0.41007600  1
  O  O42  1  0.49478200  0.74775600  0.91007600  1
  O  O43  1  0.49478200  0.25224400  0.08992400  1
