# generated using pymatgen
data_TaCr3(AgS4)2
_symmetry_space_group_name_H-M   'P 1'
_cell_length_a   13.30066500
_cell_length_b   6.02978400
_cell_length_c   6.93738459
_cell_angle_alpha   89.73077250
_cell_angle_beta   90.00000000
_cell_angle_gamma   90.00000000
_symmetry_Int_Tables_number   1
_chemical_formula_structural   TaCr3(AgS4)2
_chemical_formula_sum   'Ta2 Cr6 Ag4 S16'
_cell_volume   556.37305206
_cell_formula_units_Z   2
loop_
 _symmetry_equiv_pos_site_id
 _symmetry_equiv_pos_as_xyz
  1  'x, y, z'
loop_
 _atom_site_type_symbol
 _atom_site_label
 _atom_site_symmetry_multiplicity
 _atom_site_fract_x
 _atom_site_fract_y
 _atom_site_fract_z
 _atom_site_occupancy
  Ta  Ta0  1  0.50000000  0.50000000  0.00000000  1
  Ta  Ta1  1  0.00000000  0.50000000  0.00000000  1
  Cr  Cr2  1  0.49799800  0.00078000  0.75017700  1
  Cr  Cr3  1  0.00200200  0.00078000  0.75017700  1
  Cr  Cr4  1  0.50200200  0.99922000  0.24982300  1
  Cr  Cr5  1  0.99799800  0.99922000  0.24982300  1
  Cr  Cr6  1  0.00000000  0.50000000  0.50000000  1
  Cr  Cr7  1  0.50000000  0.50000000  0.50000000  1
  Ag  Ag8  1  0.25000000  0.65866000  0.73505900  1
  Ag  Ag9  1  0.75000000  0.34134000  0.26494100  1
  Ag  Ag10  1  0.75000000  0.97873900  0.73732000  1
  Ag  Ag11  1  0.25000000  0.02126100  0.26268000  1
  S  S12  1  0.60574200  0.16195800  0.00064400  1
  S  S13  1  0.90057500  0.16782600  0.49693700  1
  S  S14  1  0.40057500  0.83217400  0.50306300  1
  S  S15  1  0.10574200  0.83804200  0.99935600  1
  S  S16  1  0.39425800  0.83804200  0.99935600  1
  S  S17  1  0.09942500  0.83217400  0.50306300  1
  S  S18  1  0.59942500  0.16782600  0.49693700  1
  S  S19  1  0.89425800  0.16195800  0.00064400  1
  S  S20  1  0.39624000  0.33367000  0.74580300  1
  S  S21  1  0.10376000  0.33367000  0.74580300  1
  S  S22  1  0.60376000  0.66633000  0.25419700  1
  S  S23  1  0.89624000  0.66633000  0.25419700  1
  S  S24  1  0.60264600  0.67066200  0.74521200  1
  S  S25  1  0.89735400  0.67066200  0.74521200  1
  S  S26  1  0.39735400  0.32933800  0.25478800  1
  S  S27  1  0.10264600  0.32933800  0.25478800  1
