# generated using pymatgen
data_MgN(ClO2)3
_symmetry_space_group_name_H-M   'P 1'
_cell_length_a   6.54250517
_cell_length_b   6.54250517
_cell_length_c   14.79319416
_cell_angle_alpha   106.94347344
_cell_angle_beta   106.94347344
_cell_angle_gamma   44.01557424
_symmetry_Int_Tables_number   1
_chemical_formula_structural   MgN(ClO2)3
_chemical_formula_sum   'Mg2 N2 Cl6 O12'
_cell_volume   417.68894728
_cell_formula_units_Z   2
loop_
 _symmetry_equiv_pos_site_id
 _symmetry_equiv_pos_as_xyz
  1  'x, y, z'
loop_
 _atom_site_type_symbol
 _atom_site_label
 _atom_site_symmetry_multiplicity
 _atom_site_fract_x
 _atom_site_fract_y
 _atom_site_fract_z
 _atom_site_occupancy
  Mg  Mg0  1  0.00000000  0.00000000  0.00000000  1
  Mg  Mg1  1  0.00000000  0.00000000  0.50000000  1
  N  N2  1  0.66713700  0.33286300  0.75000000  1
  N  N3  1  0.33286300  0.66713700  0.25000000  1
  Cl  Cl4  1  0.50000000  0.50000000  0.00000000  1
  Cl  Cl5  1  0.50000000  0.50000000  0.50000000  1
  Cl  Cl6  1  0.74069900  0.04505600  0.77113800  1
  Cl  Cl7  1  0.95494400  0.25930100  0.72886200  1
  Cl  Cl8  1  0.25930100  0.95494400  0.22886200  1
  Cl  Cl9  1  0.04505600  0.74069900  0.27113800  1
  O  O10  1  0.45277200  0.95785500  0.96533100  1
  O  O11  1  0.04214500  0.54722800  0.53466900  1
  O  O12  1  0.54722800  0.04214500  0.03466900  1
  O  O13  1  0.95785500  0.45277200  0.46533100  1
  O  O14  1  0.95807500  0.45337500  0.96501700  1
  O  O15  1  0.54662500  0.04192500  0.53498300  1
  O  O16  1  0.04192500  0.54662500  0.03498300  1
  O  O17  1  0.45337500  0.95807500  0.46501700  1
  O  O18  1  0.04156200  0.12731000  0.13730600  1
  O  O19  1  0.87269000  0.95843800  0.36269400  1
  O  O20  1  0.95843800  0.87269000  0.86269400  1
  O  O21  1  0.12731000  0.04156200  0.63730600  1
