# generated using pymatgen
data_NbCr3(AgS4)2
_symmetry_space_group_name_H-M   'P 1'
_cell_length_a   6.50523895
_cell_length_b   7.61659446
_cell_length_c   12.38779796
_cell_angle_alpha   82.01353814
_cell_angle_beta   85.85072986
_cell_angle_gamma   90.32558937
_symmetry_Int_Tables_number   1
_chemical_formula_structural   NbCr3(AgS4)2
_chemical_formula_sum   'Nb2 Cr6 Ag4 S16'
_cell_volume   606.16443737
_cell_formula_units_Z   2
loop_
 _symmetry_equiv_pos_site_id
 _symmetry_equiv_pos_as_xyz
  1  'x, y, z'
loop_
 _atom_site_type_symbol
 _atom_site_label
 _atom_site_symmetry_multiplicity
 _atom_site_fract_x
 _atom_site_fract_y
 _atom_site_fract_z
 _atom_site_occupancy
  Nb  Nb0  1  0.85360600  0.29435500  0.30395200  1
  Nb  Nb1  1  0.63652900  0.44866700  0.69759800  1
  Cr  Cr2  1  0.15230600  0.70615200  0.70771500  1
  Cr  Cr3  1  0.24783800  0.88543900  0.99940000  1
  Cr  Cr4  1  0.75213600  0.10757900  0.99998400  1
  Cr  Cr5  1  0.35913300  0.55614400  0.29262800  1
  Cr  Cr6  1  0.36425200  0.04703800  0.29264000  1
  Cr  Cr7  1  0.61856300  0.94410300  0.70585200  1
  Ag  Ag8  1  0.13780800  0.19664700  0.70484300  1
  Ag  Ag9  1  0.88151300  0.80073900  0.29656900  1
  Ag  Ag10  1  0.25025700  0.37741700  0.00077800  1
  Ag  Ag11  1  0.74730900  0.63039500  0.00042400  1
  S  S12  1  0.11680100  0.67813600  0.88574100  1
  S  S13  1  0.86984600  0.32418200  0.11790600  1
  S  S14  1  0.08412500  0.13401300  0.90718100  1
  S  S15  1  0.91717200  0.86809400  0.09396000  1
  S  S16  1  0.22960500  0.78334300  0.36809300  1
  S  S17  1  0.78371600  0.20969800  0.62689900  1
  S  S18  1  0.19551700  0.28530400  0.36087800  1
  S  S19  1  0.82360700  0.72122100  0.64304700  1
  S  S20  1  0.32111500  0.94668800  0.62726100  1
  S  S21  1  0.67189700  0.03852800  0.37472300  1
  S  S22  1  0.31197100  0.48522800  0.62831300  1
  S  S23  1  0.67167100  0.52655500  0.36911100  1
  S  S24  1  0.41838800  0.07642000  0.10754600  1
  S  S25  1  0.58045000  0.92336500  0.89026100  1
  S  S26  1  0.37824600  0.61848800  0.11199400  1
  S  S27  1  0.62462300  0.38606400  0.88470100  1
