# generated using pymatgen
data_ZrCrCuS4
_symmetry_space_group_name_H-M   'P 1'
_cell_length_a   7.19783050
_cell_length_b   7.19783050
_cell_length_c   7.19783050
_cell_angle_alpha   119.55908977
_cell_angle_beta   119.49833569
_cell_angle_gamma   90.81825832
_symmetry_Int_Tables_number   1
_chemical_formula_structural   ZrCrCuS4
_chemical_formula_sum   'Zr2 Cr2 Cu2 S8'
_cell_volume   265.53665712
_cell_formula_units_Z   2
loop_
 _symmetry_equiv_pos_site_id
 _symmetry_equiv_pos_as_xyz
  1  'x, y, z'
loop_
 _atom_site_type_symbol
 _atom_site_label
 _atom_site_symmetry_multiplicity
 _atom_site_fract_x
 _atom_site_fract_y
 _atom_site_fract_z
 _atom_site_occupancy
  Zr  Zr0  1  0.26450200  0.25000000  0.51450200  1
  Zr  Zr1  1  0.23549800  0.75000000  0.98549800  1
  Cr  Cr2  1  0.75000000  0.74884100  0.99884100  1
  Cr  Cr3  1  0.25000000  0.75115900  0.50115900  1
  Cu  Cu4  1  0.88023000  0.13023000  0.75000000  1
  Cu  Cu5  1  0.61977000  0.36977000  0.25000000  1
  S  S6  1  0.50918500  0.51549300  0.00768100  1
  S  S7  1  0.50177100  0.52620200  0.52143300  1
  S  S8  1  0.00781200  0.50150400  0.49231900  1
  S  S9  1  0.50476800  0.98033800  0.97856700  1
  S  S10  1  0.99081500  0.99849600  0.00630800  1
  S  S11  1  0.99822900  0.51966200  0.02443100  1
  S  S12  1  0.49218800  0.98450700  0.49369200  1
  S  S13  1  0.99523200  0.97379800  0.47556900  1
