data_image0
_chemical_formula_structural       F4
_chemical_formula_sum              "F4"
_cell_length_a       2.5782
_cell_length_b       2.5782
_cell_length_c       6.38104
_cell_angle_alpha    89.6917
_cell_angle_beta     89.6917
_cell_angle_gamma    62.6468

_space_group_name_H-M_alt    "P 1"
_space_group_IT_number       1

loop_
  _space_group_symop_operation_xyz
  'x, y, z'

loop_
  _atom_site_type_symbol
  _atom_site_label
  _atom_site_symmetry_multiplicity
  _atom_site_fract_x
  _atom_site_fract_y
  _atom_site_fract_z
  _atom_site_occupancy
  F   F1        1.0  0.92900  0.58900  0.10700  1.0000
  F   F2        1.0  0.41100  0.07120  0.39300  1.0000
  F   F3        1.0  0.58900  0.92900  0.60700  1.0000
  F   F4        1.0  0.07120  0.41100  0.89300  1.0000
