# generated using pymatgen
data_BC3
_symmetry_space_group_name_H-M   'P 1'
_cell_length_a   6.35238294
_cell_length_b   6.35238294
_cell_length_c   6.35238294
_cell_angle_alpha   109.47122063
_cell_angle_beta   109.47122063
_cell_angle_gamma   109.47122063
_symmetry_Int_Tables_number   1
_chemical_formula_structural   BC3
_chemical_formula_sum   'B8 C24'
_cell_volume   197.32773063
_cell_formula_units_Z   8
loop_
 _symmetry_equiv_pos_site_id
 _symmetry_equiv_pos_as_xyz
  1  'x, y, z'
loop_
 _atom_site_type_symbol
 _atom_site_label
 _atom_site_symmetry_multiplicity
 _atom_site_fract_x
 _atom_site_fract_y
 _atom_site_fract_z
 _atom_site_occupancy
  B  B0  1  0.20563200  0.00000000  0.00000000  1
  B  B1  1  0.00000000  0.00000000  0.51579400  1
  B  B2  1  0.00000000  0.51579400  0.00000000  1
  B  B3  1  0.00000000  0.20563200  0.00000000  1
  B  B4  1  0.51579400  0.00000000  0.00000000  1
  B  B5  1  0.00000000  0.00000000  0.20563200  1
  B  B6  1  0.48420600  0.48420600  0.48420600  1
  B  B7  1  0.79436800  0.79436800  0.79436800  1
  C  C8  1  0.73273700  0.73273700  0.00000000  1
  C  C9  1  0.50636200  0.50636200  0.24841100  1
  C  C10  1  0.00000000  0.26726300  0.26726300  1
  C  C11  1  0.00000000  0.73273700  0.73273700  1
  C  C12  1  0.50636200  0.24841100  0.50636200  1
  C  C13  1  0.49363800  0.00000000  0.74204800  1
  C  C14  1  0.25795100  0.75158900  0.25795100  1
  C  C15  1  0.26726300  0.26726300  0.00000000  1
  C  C16  1  0.50000000  0.25000000  0.75000000  1
  C  C17  1  0.24841100  0.50636200  0.50636200  1
  C  C18  1  0.75158900  0.25795100  0.25795100  1
  C  C19  1  0.74204800  0.49363800  0.00000000  1
  C  C20  1  0.50000000  0.75000000  0.25000000  1
  C  C21  1  0.00000000  0.74204800  0.49363800  1
  C  C22  1  0.00000000  0.49363800  0.74204800  1
  C  C23  1  0.25795100  0.25795100  0.75158900  1
  C  C24  1  0.74204800  0.00000000  0.49363800  1
  C  C25  1  0.49363800  0.74204800  0.00000000  1
  C  C26  1  0.26726300  0.00000000  0.26726300  1
  C  C27  1  0.75000000  0.50000000  0.25000000  1
  C  C28  1  0.25000000  0.75000000  0.50000000  1
  C  C29  1  0.25000000  0.50000000  0.75000000  1
  C  C30  1  0.73273700  0.00000000  0.73273700  1
  C  C31  1  0.75000000  0.25000000  0.50000000  1
