# generated using pymatgen
data_HfCrAgS4
_symmetry_space_group_name_H-M   'P 1'
_cell_length_a   11.91820900
_cell_length_b   7.17329100
_cell_length_c   12.92445600
_cell_angle_alpha   90.00000000
_cell_angle_beta   90.00000000
_cell_angle_gamma   90.00000000
_symmetry_Int_Tables_number   1
_chemical_formula_structural   HfCrAgS4
_chemical_formula_sum   'Hf8 Cr8 Ag8 S32'
_cell_volume   1104.94769095
_cell_formula_units_Z   8
loop_
 _symmetry_equiv_pos_site_id
 _symmetry_equiv_pos_as_xyz
  1  'x, y, z'
loop_
 _atom_site_type_symbol
 _atom_site_label
 _atom_site_symmetry_multiplicity
 _atom_site_fract_x
 _atom_site_fract_y
 _atom_site_fract_z
 _atom_site_occupancy
  Hf  Hf0  1  0.11265500  0.89933700  0.68774200  1
  Hf  Hf1  1  0.88734500  0.10066300  0.18774200  1
  Hf  Hf2  1  0.38734500  0.89933700  0.18774200  1
  Hf  Hf3  1  0.61265500  0.10066300  0.68774200  1
  Hf  Hf4  1  0.11851600  0.37134900  0.33230900  1
  Hf  Hf5  1  0.88148300  0.62865100  0.83230900  1
  Hf  Hf6  1  0.38148300  0.37134900  0.83230900  1
  Hf  Hf7  1  0.61851700  0.62865100  0.33230900  1
  Cr  Cr8  1  0.16163000  0.62665800  0.94071200  1
  Cr  Cr9  1  0.83837000  0.37334200  0.44071200  1
  Cr  Cr10  1  0.33837000  0.62665800  0.44071200  1
  Cr  Cr11  1  0.66163000  0.37334200  0.94071200  1
  Cr  Cr12  1  0.12698100  0.13506900  0.01788700  1
  Cr  Cr13  1  0.87301900  0.86493100  0.51788700  1
  Cr  Cr14  1  0.37301900  0.13506900  0.51788700  1
  Cr  Cr15  1  0.62698100  0.86493100  0.01788700  1
  Ag  Ag16  1  0.10677400  0.37578900  0.67127300  1
  Ag  Ag17  1  0.89322600  0.62421100  0.17127300  1
  Ag  Ag18  1  0.39322600  0.37578900  0.17127300  1
  Ag  Ag19  1  0.60677400  0.62421100  0.67127300  1
  Ag  Ag20  1  0.11530900  0.88465600  0.32212500  1
  Ag  Ag21  1  0.88469100  0.11534400  0.82212500  1
  Ag  Ag22  1  0.38469100  0.88465600  0.82212500  1
  Ag  Ag23  1  0.61530900  0.11534400  0.32212500  1
  S  S24  1  0.03362800  0.86184200  0.87918500  1
  S  S25  1  0.96637200  0.13815800  0.37918500  1
  S  S26  1  0.46637200  0.86184200  0.37918500  1
  S  S27  1  0.53362800  0.13815800  0.87918500  1
  S  S28  1  0.03823800  0.34728500  0.14739100  1
  S  S29  1  0.96176200  0.65271500  0.64739100  1
  S  S30  1  0.46176200  0.34728500  0.64739100  1
  S  S31  1  0.53823800  0.65271500  0.14739100  1
  S  S32  1  0.02373400  0.39579300  0.89603300  1
  S  S33  1  0.97626600  0.60420700  0.39603300  1
  S  S34  1  0.47626600  0.39579300  0.39603300  1
  S  S35  1  0.52373400  0.60420700  0.89603300  1
  S  S36  1  0.03185900  0.89366600  0.12539100  1
  S  S37  1  0.96814100  0.10633400  0.62539100  1
  S  S38  1  0.46814100  0.89366600  0.62539100  1
  S  S39  1  0.53185900  0.10633400  0.12539100  1
  S  S40  1  0.22868500  0.87988600  0.52063900  1
  S  S41  1  0.77131500  0.12011400  0.02063900  1
  S  S42  1  0.27131500  0.87988600  0.02063900  1
  S  S43  1  0.72868500  0.12011400  0.52063900  1
  S  S44  1  0.22821900  0.37507700  0.50263700  1
  S  S45  1  0.77178100  0.62492300  0.00263700  1
  S  S46  1  0.27178100  0.37507700  0.00263700  1
  S  S47  1  0.72821900  0.62492300  0.50263700  1
  S  S48  1  0.23231500  0.13472800  0.77685000  1
  S  S49  1  0.76768500  0.86527200  0.27685000  1
  S  S50  1  0.26768500  0.13472800  0.27685000  1
  S  S51  1  0.73231500  0.86527200  0.77685000  1
  S  S52  1  0.23947200  0.62450300  0.77682600  1
  S  S53  1  0.76052800  0.37549700  0.27682600  1
  S  S54  1  0.26052800  0.62450300  0.27682600  1
  S  S55  1  0.73947200  0.37549700  0.77682600  1
