# generated using pymatgen
data_TaCr3(AgS4)2
_symmetry_space_group_name_H-M   'P 1'
_cell_length_a   6.96735600
_cell_length_b   6.01682300
_cell_length_c   6.50758283
_cell_angle_alpha   88.94563233
_cell_angle_beta   90.00000000
_cell_angle_gamma   90.00000000
_symmetry_Int_Tables_number   1
_chemical_formula_structural   TaCr3(AgS4)2
_chemical_formula_sum   'Ta1 Cr3 Ag2 S8'
_cell_volume   272.76045315
_cell_formula_units_Z   1
loop_
 _symmetry_equiv_pos_site_id
 _symmetry_equiv_pos_as_xyz
  1  'x, y, z'
loop_
 _atom_site_type_symbol
 _atom_site_label
 _atom_site_symmetry_multiplicity
 _atom_site_fract_x
 _atom_site_fract_y
 _atom_site_fract_z
 _atom_site_occupancy
  Ta  Ta0  1  0.00000000  0.50000000  0.50000000  1
  Cr  Cr1  1  0.50000000  0.50000000  0.50000000  1
  Cr  Cr2  1  0.25001200  0.00000000  0.50000000  1
  Cr  Cr3  1  0.74998800  0.00000000  0.50000000  1
  Ag  Ag4  1  0.25511400  0.00000000  0.00000000  1
  Ag  Ag5  1  0.74488600  0.00000000  0.00000000  1
  S  S6  1  0.25460900  0.32870400  0.71240300  1
  S  S7  1  0.74539100  0.32870400  0.71240300  1
  S  S8  1  0.50000000  0.82895600  0.70192700  1
  S  S9  1  0.00000000  0.83234600  0.71599200  1
  S  S10  1  0.50000000  0.17104400  0.29807300  1
  S  S11  1  0.00000000  0.16765400  0.28400800  1
  S  S12  1  0.74539100  0.67129600  0.28759700  1
  S  S13  1  0.25460900  0.67129600  0.28759700  1
