# generated using pymatgen
data_HfCrCuS4
_symmetry_space_group_name_H-M   'P 1'
_cell_length_a   7.06386795
_cell_length_b   6.06793485
_cell_length_c   5.94503324
_cell_angle_alpha   92.40864048
_cell_angle_beta   89.99863978
_cell_angle_gamma   89.99967036
_symmetry_Int_Tables_number   1
_chemical_formula_structural   HfCrCuS4
_chemical_formula_sum   'Hf2 Cr2 Cu2 S8'
_cell_volume   254.59736318
_cell_formula_units_Z   2
loop_
 _symmetry_equiv_pos_site_id
 _symmetry_equiv_pos_as_xyz
  1  'x, y, z'
loop_
 _atom_site_type_symbol
 _atom_site_label
 _atom_site_symmetry_multiplicity
 _atom_site_fract_x
 _atom_site_fract_y
 _atom_site_fract_z
 _atom_site_occupancy
  Hf  Hf0  1  0.23822100  0.50000200  0.50002100  1
  Hf  Hf1  1  0.51412400  0.00001100  0.50002200  1
  Cr  Cr2  1  0.74854200  0.49999800  0.50001500  1
  Cr  Cr3  1  0.00179400  0.99993700  0.50003000  1
  Cu  Cu4  1  0.99424200  0.00001800  0.99996500  1
  Cu  Cu5  1  0.50482200  0.00002300  0.99999100  1
  S  S6  1  0.98638100  0.31417400  0.26677000  1
  S  S7  1  0.50551700  0.32976900  0.25436800  1
  S  S8  1  0.24433400  0.83136700  0.24957200  1
  S  S9  1  0.76290400  0.81625200  0.25694100  1
  S  S10  1  0.24432100  0.16862800  0.75040600  1
  S  S11  1  0.76290100  0.18374300  0.74304300  1
  S  S12  1  0.50551500  0.67023000  0.74564600  1
  S  S13  1  0.98638300  0.68584900  0.73320900  1
