# generated using pymatgen
data_MgTaBiO5
_symmetry_space_group_name_H-M   'P 1'
_cell_length_a   5.42378581
_cell_length_b   7.99325637
_cell_length_c   12.00180900
_cell_angle_alpha   90.00000000
_cell_angle_beta   90.00000000
_cell_angle_gamma   106.13567089
_symmetry_Int_Tables_number   1
_chemical_formula_structural   MgTaBiO5
_chemical_formula_sum   'Mg4 Ta4 Bi4 O20'
_cell_volume   499.82551632
_cell_formula_units_Z   4
loop_
 _symmetry_equiv_pos_site_id
 _symmetry_equiv_pos_as_xyz
  1  'x, y, z'
loop_
 _atom_site_type_symbol
 _atom_site_label
 _atom_site_symmetry_multiplicity
 _atom_site_fract_x
 _atom_site_fract_y
 _atom_site_fract_z
 _atom_site_occupancy
  Mg  Mg0  1  0.62380500  0.17114700  0.92284900  1
  Mg  Mg1  1  0.37619500  0.82885300  0.07715100  1
  Mg  Mg2  1  0.87619500  0.32885300  0.42284900  1
  Mg  Mg3  1  0.12380500  0.67114700  0.57715100  1
  Ta  Ta4  1  0.78467900  0.96904700  0.64452400  1
  Ta  Ta5  1  0.21532100  0.03095300  0.35547600  1
  Ta  Ta6  1  0.71532100  0.53095300  0.14452400  1
  Ta  Ta7  1  0.28467900  0.46904700  0.85547600  1
  Bi  Bi8  1  0.11254000  0.16586800  0.09350000  1
  Bi  Bi9  1  0.88746000  0.83413200  0.90650000  1
  Bi  Bi10  1  0.61254000  0.66586800  0.40650000  1
  Bi  Bi11  1  0.38746000  0.33413200  0.59350000  1
  O  O12  1  0.55424100  0.32523700  0.06562200  1
  O  O13  1  0.01601100  0.31872500  0.93850200  1
  O  O14  1  0.47954000  0.65004400  0.17568700  1
  O  O15  1  0.75645500  0.51448400  0.52676800  1
  O  O16  1  0.80374300  0.48158800  0.28996000  1
  O  O17  1  0.30374300  0.98158800  0.21004000  1
  O  O18  1  0.51601100  0.81872500  0.56149800  1
  O  O19  1  0.48398900  0.18127500  0.43850200  1
  O  O20  1  0.24354500  0.48551600  0.47323200  1
  O  O21  1  0.94575900  0.17476300  0.56562200  1
  O  O22  1  0.19625700  0.51841200  0.71004000  1
  O  O23  1  0.44575900  0.67476300  0.93437800  1
  O  O24  1  0.05424100  0.82523700  0.43437800  1
  O  O25  1  0.69625700  0.01841200  0.78996000  1
  O  O26  1  0.74354500  0.98551600  0.02676800  1
  O  O27  1  0.25645500  0.01448400  0.97323200  1
  O  O28  1  0.52046000  0.34995600  0.82431300  1
  O  O29  1  0.98398900  0.68127500  0.06149800  1
  O  O30  1  0.02046000  0.84995600  0.67568700  1
  O  O31  1  0.97954000  0.15004400  0.32431300  1
