# generated using pymatgen
data_CaSn2O5
_symmetry_space_group_name_H-M   'P 1'
_cell_length_a   3.92432600
_cell_length_b   6.16933412
_cell_length_c   11.97706800
_cell_angle_alpha   90.00000000
_cell_angle_beta   90.00000000
_cell_angle_gamma   108.54956153
_symmetry_Int_Tables_number   1
_chemical_formula_structural   CaSn2O5
_chemical_formula_sum   'Ca2 Sn4 O10'
_cell_volume   274.90623557
_cell_formula_units_Z   2
loop_
 _symmetry_equiv_pos_site_id
 _symmetry_equiv_pos_as_xyz
  1  'x, y, z'
loop_
 _atom_site_type_symbol
 _atom_site_label
 _atom_site_symmetry_multiplicity
 _atom_site_fract_x
 _atom_site_fract_y
 _atom_site_fract_z
 _atom_site_occupancy
  Ca  Ca0  1  0.90338200  0.80669500  0.75000000  1
  Ca  Ca1  1  0.09661900  0.19330600  0.25000000  1
  Sn  Sn2  1  0.19052700  0.38097300  0.59856000  1
  Sn  Sn3  1  0.80947400  0.61902800  0.40143900  1
  Sn  Sn4  1  0.80947400  0.61902800  0.09856100  1
  Sn  Sn5  1  0.19052700  0.38097300  0.90144000  1
  O  O6  1  0.71743000  0.43493400  0.25000000  1
  O  O7  1  0.28257100  0.56506700  0.75000000  1
  O  O8  1  0.24249400  0.48503400  0.07263700  1
  O  O9  1  0.75750800  0.51496700  0.92736300  1
  O  O10  1  0.75750800  0.51496700  0.57263700  1
  O  O11  1  0.24249400  0.48503400  0.42736200  1
  O  O12  1  0.03108600  0.06211000  0.62186300  1
  O  O13  1  0.96891400  0.93788900  0.37813700  1
  O  O14  1  0.03108600  0.06211000  0.87813700  1
  O  O15  1  0.96891400  0.93788900  0.12186400  1
