# generated using pymatgen
data_MgBiMoO5
_symmetry_space_group_name_H-M   'P 1'
_cell_length_a   5.42198756
_cell_length_b   7.99891053
_cell_length_c   11.85078900
_cell_angle_alpha   90.00000000
_cell_angle_beta   90.00000000
_cell_angle_gamma   104.90966353
_symmetry_Int_Tables_number   1
_chemical_formula_structural   MgBiMoO5
_chemical_formula_sum   'Mg4 Bi4 Mo4 O20'
_cell_volume   496.66470243
_cell_formula_units_Z   4
loop_
 _symmetry_equiv_pos_site_id
 _symmetry_equiv_pos_as_xyz
  1  'x, y, z'
loop_
 _atom_site_type_symbol
 _atom_site_label
 _atom_site_symmetry_multiplicity
 _atom_site_fract_x
 _atom_site_fract_y
 _atom_site_fract_z
 _atom_site_occupancy
  Mg  Mg0  1  0.61162700  0.17149000  0.92105500  1
  Mg  Mg1  1  0.38837300  0.82851000  0.07894500  1
  Mg  Mg2  1  0.88837300  0.32851000  0.42105500  1
  Mg  Mg3  1  0.11162700  0.67149000  0.57894500  1
  Bi  Bi4  1  0.10019800  0.15541600  0.10364000  1
  Bi  Bi5  1  0.89980200  0.84458400  0.89636000  1
  Bi  Bi6  1  0.60019800  0.65541600  0.39636000  1
  Bi  Bi7  1  0.39980200  0.34458400  0.60364000  1
  Mo  Mo8  1  0.77180600  0.97493000  0.63762500  1
  Mo  Mo9  1  0.22819400  0.02507000  0.36237500  1
  Mo  Mo10  1  0.72819400  0.52507000  0.13762500  1
  Mo  Mo11  1  0.27180600  0.47493000  0.86237500  1
  O  O12  1  0.54634200  0.32506000  0.06622800  1
  O  O13  1  0.99447600  0.32841000  0.92804600  1
  O  O14  1  0.50924800  0.65972200  0.18426800  1
  O  O15  1  0.75627300  0.51269000  0.52757700  1
  O  O16  1  0.78249500  0.47839400  0.29354700  1
  O  O17  1  0.28249500  0.97839400  0.20645300  1
  O  O18  1  0.49447600  0.82841000  0.57195400  1
  O  O19  1  0.50552400  0.17159000  0.42804600  1
  O  O20  1  0.24372700  0.48731000  0.47242300  1
  O  O21  1  0.95365800  0.17494000  0.56622800  1
  O  O22  1  0.21750500  0.52160600  0.70645300  1
  O  O23  1  0.45365800  0.67494000  0.93377200  1
  O  O24  1  0.04634200  0.82506000  0.43377200  1
  O  O25  1  0.71750500  0.02160600  0.79354700  1
  O  O26  1  0.74372700  0.98731000  0.02757700  1
  O  O27  1  0.25627300  0.01269000  0.97242300  1
  O  O28  1  0.49075200  0.34027800  0.81573200  1
  O  O29  1  0.00552400  0.67159000  0.07195400  1
  O  O30  1  0.99075200  0.84027800  0.68426800  1
  O  O31  1  0.00924800  0.15972200  0.31573200  1
