# generated using pymatgen
data_MnZnBiO5
_symmetry_space_group_name_H-M   'P 1'
_cell_length_a   5.36199437
_cell_length_b   7.64565485
_cell_length_c   11.70002200
_cell_angle_alpha   90.00000000
_cell_angle_beta   90.00000000
_cell_angle_gamma   107.02026055
_symmetry_Int_Tables_number   1
_chemical_formula_structural   MnZnBiO5
_chemical_formula_sum   'Mn4 Zn4 Bi4 O20'
_cell_volume   458.64541334
_cell_formula_units_Z   4
loop_
 _symmetry_equiv_pos_site_id
 _symmetry_equiv_pos_as_xyz
  1  'x, y, z'
loop_
 _atom_site_type_symbol
 _atom_site_label
 _atom_site_symmetry_multiplicity
 _atom_site_fract_x
 _atom_site_fract_y
 _atom_site_fract_z
 _atom_site_occupancy
  Mn  Mn0  1  0.78459800  0.96932400  0.64691900  1
  Mn  Mn1  1  0.21540200  0.03067600  0.35308100  1
  Mn  Mn2  1  0.71540200  0.53067600  0.14691900  1
  Mn  Mn3  1  0.28459800  0.46932400  0.85308100  1
  Zn  Zn4  1  0.62176600  0.17521500  0.91865700  1
  Zn  Zn5  1  0.37823400  0.82478500  0.08134300  1
  Zn  Zn6  1  0.87823400  0.32478400  0.41865700  1
  Zn  Zn7  1  0.12176600  0.67521500  0.58134300  1
  Bi  Bi8  1  0.11456600  0.17774900  0.10127400  1
  Bi  Bi9  1  0.88543400  0.82225100  0.89872600  1
  Bi  Bi10  1  0.61456600  0.67774900  0.39872600  1
  Bi  Bi11  1  0.38543400  0.32225100  0.60127400  1
  O  O12  1  0.57269400  0.33061000  0.07437700  1
  O  O13  1  0.03241400  0.32808900  0.93018800  1
  O  O14  1  0.48453300  0.64104000  0.18009100  1
  O  O15  1  0.75509900  0.51236200  0.52398500  1
  O  O16  1  0.80158000  0.49171400  0.28631200  1
  O  O17  1  0.30158000  0.99171400  0.21368800  1
  O  O18  1  0.53241400  0.82808900  0.56981200  1
  O  O19  1  0.46758600  0.17191100  0.43018800  1
  O  O20  1  0.24490100  0.48763800  0.47601500  1
  O  O21  1  0.92730600  0.16939000  0.57437700  1
  O  O22  1  0.19842000  0.50828600  0.71368800  1
  O  O23  1  0.42730600  0.66939000  0.92562300  1
  O  O24  1  0.07269400  0.83061000  0.42562300  1
  O  O25  1  0.69842000  0.00828600  0.78631200  1
  O  O26  1  0.74490100  0.98763800  0.02398500  1
  O  O27  1  0.25509900  0.01236200  0.97601500  1
  O  O28  1  0.51546700  0.35896000  0.81990900  1
  O  O29  1  0.96758600  0.67191100  0.06981200  1
  O  O30  1  0.01546700  0.85896000  0.68009100  1
  O  O31  1  0.98453300  0.14104000  0.31990900  1
