# generated using pymatgen
data_Ca(BiO2)2
_symmetry_space_group_name_H-M   'P 1'
_cell_length_a   6.12665400
_cell_length_b   6.89012300
_cell_length_c   12.00891200
_cell_angle_alpha   89.99972627
_cell_angle_beta   90.00029162
_cell_angle_gamma   89.99991063
_symmetry_Int_Tables_number   1
_chemical_formula_structural   Ca(BiO2)2
_chemical_formula_sum   'Ca4 Bi8 O16'
_cell_volume   506.93700147
_cell_formula_units_Z   4
loop_
 _symmetry_equiv_pos_site_id
 _symmetry_equiv_pos_as_xyz
  1  'x, y, z'
loop_
 _atom_site_type_symbol
 _atom_site_label
 _atom_site_symmetry_multiplicity
 _atom_site_fract_x
 _atom_site_fract_y
 _atom_site_fract_z
 _atom_site_occupancy
  Ca  Ca0  1  0.86095300  0.24999900  0.74999700  1
  Ca  Ca1  1  0.13905600  0.74999800  0.24999700  1
  Ca  Ca2  1  0.51018000  0.24999500  0.24999900  1
  Ca  Ca3  1  0.48982100  0.74999700  0.75000100  1
  Bi  Bi4  1  0.49855400  0.74999700  0.46335300  1
  Bi  Bi5  1  0.49856500  0.74999700  0.03665300  1
  Bi  Bi6  1  0.50142200  0.25000200  0.53665500  1
  Bi  Bi7  1  0.50143000  0.25000400  0.96335300  1
  Bi  Bi8  1  0.99999400  0.50000400  0.49998900  1
  Bi  Bi9  1  0.00000200  0.99999800  0.00000300  1
  Bi  Bi10  1  0.99999300  0.99999500  0.49998900  1
  Bi  Bi11  1  0.00000500  0.50000700  0.00000300  1
  O  O12  1  0.87503200  0.75000400  0.38512500  1
  O  O13  1  0.87503400  0.75000100  0.11486700  1
  O  O14  1  0.12497700  0.25000100  0.61486300  1
  O  O15  1  0.12497800  0.24999700  0.88512800  1
  O  O16  1  0.22527200  0.75000000  0.59462900  1
  O  O17  1  0.22526500  0.75000300  0.90537100  1
  O  O18  1  0.77475000  0.25000100  0.40536900  1
  O  O19  1  0.77474400  0.25000600  0.09463100  1
  O  O20  1  0.67586800  0.48927400  0.62393000  1
  O  O21  1  0.67588600  0.01072000  0.87607600  1
  O  O22  1  0.32411100  0.98928300  0.37608100  1
  O  O23  1  0.32412500  0.51071900  0.12392500  1
  O  O24  1  0.32410900  0.51072000  0.37608100  1
  O  O25  1  0.32412500  0.98928000  0.12392900  1
  O  O26  1  0.67586700  0.01072100  0.62393100  1
  O  O27  1  0.67588000  0.48927700  0.87607600  1
