# generated using pymatgen
data_Mo2O5
_symmetry_space_group_name_H-M   'P 1'
_cell_length_a   11.98733600
_cell_length_b   6.29208726
_cell_length_c   3.85212100
_cell_angle_alpha   107.82486260
_cell_angle_beta   90.00000000
_cell_angle_gamma   90.00000000
_symmetry_Int_Tables_number   1
_chemical_formula_structural   Mo2O5
_chemical_formula_sum   'Mo4 O10'
_cell_volume   276.60036988
_cell_formula_units_Z   2
loop_
 _symmetry_equiv_pos_site_id
 _symmetry_equiv_pos_as_xyz
  1  'x, y, z'
loop_
 _atom_site_type_symbol
 _atom_site_label
 _atom_site_symmetry_multiplicity
 _atom_site_fract_x
 _atom_site_fract_y
 _atom_site_fract_z
 _atom_site_occupancy
  Mo  Mo0  1  0.15045300  0.89737100  0.94868500  1
  Mo  Mo1  1  0.34954700  0.10262900  0.55131500  1
  Mo  Mo2  1  0.65045300  0.10262900  0.55131500  1
  Mo  Mo3  1  0.84954700  0.89737100  0.94868500  1
  O  O4  1  0.00000000  0.01965200  0.00982700  1
  O  O5  1  0.14007800  0.61411500  0.80705700  1
  O  O6  1  0.18243700  0.99297500  0.49648700  1
  O  O7  1  0.31756300  0.00702300  0.00351200  1
  O  O8  1  0.35992200  0.38588500  0.69294300  1
  O  O9  1  0.50000000  0.98034800  0.49017300  1
  O  O10  1  0.64007800  0.38588500  0.69294300  1
  O  O11  1  0.85992200  0.61411500  0.80705700  1
  O  O12  1  0.68243700  0.00702300  0.00351200  1
  O  O13  1  0.81756300  0.99297500  0.49648700  1
