# generated using pymatgen
data_CaTi3O7
_symmetry_space_group_name_H-M   'P 1'
_cell_length_a   5.44389200
_cell_length_b   10.58244200
_cell_length_c   10.94777500
_cell_angle_alpha   90.00000000
_cell_angle_beta   90.00000000
_cell_angle_gamma   90.00000000
_symmetry_Int_Tables_number   1
_chemical_formula_structural   CaTi3O7
_chemical_formula_sum   'Ca4 Ti12 O28'
_cell_volume   630.69771970
_cell_formula_units_Z   4
loop_
 _symmetry_equiv_pos_site_id
 _symmetry_equiv_pos_as_xyz
  1  'x, y, z'
loop_
 _atom_site_type_symbol
 _atom_site_label
 _atom_site_symmetry_multiplicity
 _atom_site_fract_x
 _atom_site_fract_y
 _atom_site_fract_z
 _atom_site_occupancy
  Ca  Ca0  1  0.67410900  0.75000000  0.93260700  1
  Ca  Ca1  1  0.17410900  0.25000000  0.56739300  1
  Ca  Ca2  1  0.32589100  0.25000000  0.06739300  1
  Ca  Ca3  1  0.82589100  0.75000000  0.43260700  1
  Ti  Ti4  1  0.30116900  0.02668500  0.30732300  1
  Ti  Ti5  1  0.80116900  0.97331500  0.19267700  1
  Ti  Ti6  1  0.69883100  0.52668500  0.69267700  1
  Ti  Ti7  1  0.19883100  0.47331500  0.80732300  1
  Ti  Ti8  1  0.31040200  0.75000000  0.21842400  1
  Ti  Ti9  1  0.81040200  0.25000000  0.28157600  1
  Ti  Ti10  1  0.68959800  0.25000000  0.78157600  1
  Ti  Ti11  1  0.18959800  0.75000000  0.71842400  1
  Ti  Ti12  1  0.80116900  0.52668500  0.19267700  1
  Ti  Ti13  1  0.30116900  0.47331500  0.30732300  1
  Ti  Ti14  1  0.19883100  0.02668500  0.80732300  1
  Ti  Ti15  1  0.69883100  0.97331500  0.69267700  1
  O  O16  1  0.93397500  0.11989500  0.72383200  1
  O  O17  1  0.43397500  0.88010500  0.77616800  1
  O  O18  1  0.06602500  0.61989500  0.27616800  1
  O  O19  1  0.56602500  0.38010500  0.22383200  1
  O  O20  1  0.06602500  0.88010500  0.27616800  1
  O  O21  1  0.56602500  0.11989500  0.22383200  1
  O  O22  1  0.93397500  0.38010500  0.72383200  1
  O  O23  1  0.43397500  0.61989500  0.77616800  1
  O  O24  1  0.45739500  0.11923300  0.71911300  1
  O  O25  1  0.95739500  0.88076700  0.78088700  1
  O  O26  1  0.54260500  0.61923300  0.28088700  1
  O  O27  1  0.04260500  0.38076700  0.21911300  1
  O  O28  1  0.54260500  0.88076700  0.28088700  1
  O  O29  1  0.04260500  0.11923300  0.21911300  1
  O  O30  1  0.45739500  0.38076700  0.71911300  1
  O  O31  1  0.95739500  0.61923300  0.78088700  1
  O  O32  1  0.16862000  0.75000000  0.56465900  1
  O  O33  1  0.66862000  0.25000000  0.93534100  1
  O  O34  1  0.83138000  0.25000000  0.43534100  1
  O  O35  1  0.33138000  0.75000000  0.06465900  1
  O  O36  1  0.21739100  0.41994500  0.95161600  1
  O  O37  1  0.71739100  0.58005500  0.54838400  1
  O  O38  1  0.78260900  0.91994500  0.04838400  1
  O  O39  1  0.28260900  0.08005500  0.45161600  1
  O  O40  1  0.78260900  0.58005500  0.04838400  1
  O  O41  1  0.28260900  0.41994500  0.45161600  1
  O  O42  1  0.21739100  0.08005500  0.95161600  1
  O  O43  1  0.71739100  0.91994500  0.54838400  1
