# generated using pymatgen
data_V2P3O11
_symmetry_space_group_name_H-M   'P 1'
_cell_length_a   7.28427185
_cell_length_b   7.29437634
_cell_length_c   8.96040062
_cell_angle_alpha   70.75657449
_cell_angle_beta   109.20460415
_cell_angle_gamma   108.14896178
_symmetry_Int_Tables_number   1
_chemical_formula_structural   V2P3O11
_chemical_formula_sum   'V4 P6 O22'
_cell_volume   413.33014268
_cell_formula_units_Z   2
loop_
 _symmetry_equiv_pos_site_id
 _symmetry_equiv_pos_as_xyz
  1  'x, y, z'
loop_
 _atom_site_type_symbol
 _atom_site_label
 _atom_site_symmetry_multiplicity
 _atom_site_fract_x
 _atom_site_fract_y
 _atom_site_fract_z
 _atom_site_occupancy
  V  V0  1  0.11064482  0.36684277  0.95895523  1
  V  V1  1  0.36593491  0.11098904  0.54113092  1
  V  V2  1  0.64063351  0.88681775  0.46078322  1
  V  V3  1  0.88762649  0.64095061  0.03929180  1
  P  P4  1  0.03982125  0.04023849  0.74975057  1
  P  P5  1  0.45778215  0.67195295  0.78847709  1
  P  P6  1  0.32732143  0.54434133  0.29101147  1
  P  P7  1  0.67172401  0.45728007  0.71117784  1
  P  P8  1  0.54410476  0.32730556  0.20934555  1
  P  P9  1  0.96089030  0.96054259  0.25014905  1
  O  O10  1  0.00784142  0.85543449  0.89836201  1
  O  O11  1  0.04233630  0.22963474  0.78632859  1
  O  O12  1  0.13670589  0.97862580  0.39827699  1
  O  O13  1  0.25778224  0.61747782  0.82708338  1
  O  O14  1  0.22930603  0.04213068  0.71321555  1
  O  O15  1  0.15326093  0.54282736  0.13161798  1
  O  O16  1  0.47106994  0.84288075  0.63011543  1
  O  O17  1  0.27561302  0.37247557  0.43136198  1
  O  O18  1  0.63429639  0.72001761  0.93220349  1
  O  O19  1  0.48134675  0.48124979  0.75013431  1
  O  O20  1  0.39703924  0.74829663  0.33027312  1
  O  O21  1  0.61718101  0.25767706  0.67299559  1
  O  O22  1  0.51582847  0.51596070  0.24991709  1
  O  O23  1  0.37193399  0.27610525  0.06870616  1
  O  O24  1  0.72028047  0.63398758  0.56772892  1
  O  O25  1  0.54189079  0.15354101  0.36876424  1
  O  O26  1  0.97951400  0.13660731  0.10201004  1
  O  O27  1  0.76466394  0.94717938  0.29188484  1
  O  O28  1  0.74837018  0.39709440  0.16975384  1
  O  O29  1  0.85565977  0.00733020  0.60133065  1
  O  O30  1  0.94729938  0.76444551  0.20831483  1
  O  O31  1  0.84315923  0.47062419  0.86954325  1
