# generated using pymatgen
data_Al2O3
_symmetry_space_group_name_H-M   'P 1'
_cell_length_a   10.21316291
_cell_length_b   10.41810302
_cell_length_c   10.24584830
_cell_angle_alpha   89.22225533
_cell_angle_beta   92.67886696
_cell_angle_gamma   85.29800559
_symmetry_Int_Tables_number   1
_chemical_formula_structural   Al2O3
_chemical_formula_sum   'Al40 O60'
_cell_volume   1085.15434522
_cell_formula_units_Z   20
loop_
 _symmetry_equiv_pos_site_id
 _symmetry_equiv_pos_as_xyz
  1  'x, y, z'
loop_
 _atom_site_type_symbol
 _atom_site_label
 _atom_site_symmetry_multiplicity
 _atom_site_fract_x
 _atom_site_fract_y
 _atom_site_fract_z
 _atom_site_occupancy
  Al  Al0  1  0.62640200  0.60899400  0.73819100  1
  Al  Al1  1  0.83329900  0.70727300  0.55275100  1
  Al  Al2  1  0.25127000  0.01903200  0.59411400  1
  Al  Al3  1  0.64674400  0.56448200  0.10892800  1
  Al  Al4  1  0.94180100  0.42693100  0.31943100  1
  Al  Al5  1  0.15286200  0.74949500  0.55225300  1
  Al  Al6  1  0.29198400  0.48771000  0.65245700  1
  Al  Al7  1  0.96165100  0.23906400  0.50534200  1
  Al  Al8  1  0.37834500  0.42514500  0.17331900  1
  Al  Al9  1  0.82896500  0.21565100  0.73403800  1
  Al  Al10  1  0.57643200  0.59851300  0.42870700  1
  Al  Al11  1  0.20650200  0.64619300  0.84814300  1
  Al  Al12  1  0.67928500  0.28686300  0.32918100  1
  Al  Al13  1  0.89060600  0.96033800  0.55259900  1
  Al  Al14  1  0.78700000  0.79952700  0.07645200  1
  Al  Al15  1  0.97085800  0.76596200  0.79392400  1
  Al  Al16  1  0.52715700  0.01998300  0.19309200  1
  Al  Al17  1  0.11025600  0.17124300  0.75322500  1
  Al  Al18  1  0.45567500  0.80615500  0.92452800  1
  Al  Al19  1  0.52329900  0.07837400  0.49458200  1
  Al  Al20  1  0.63242600  0.32924500  0.83575800  1
  Al  Al21  1  0.15476300  0.39007000  0.91939500  1
  Al  Al22  1  0.92930400  0.48526100  0.62608000  1
  Al  Al23  1  0.99691200  0.81723700  0.30578700  1
  Al  Al24  1  0.24800600  0.92963600  0.21877800  1
  Al  Al25  1  0.54773300  0.36732600  0.55124900  1
  Al  Al26  1  0.86863400  0.02938600  0.91225400  1
  Al  Al27  1  0.87867200  0.31896800  0.04592100  1
  Al  Al28  1  0.62451600  0.94652600  0.79568400  1
  Al  Al29  1  0.47228100  0.83700800  0.51017300  1
  Al  Al30  1  0.79911200  0.06476100  0.28906800  1
  Al  Al31  1  0.44391500  0.71350900  0.21571500  1
  Al  Al32  1  0.69448300  0.82822500  0.35037700  1
  Al  Al33  1  0.44363600  0.46496600  0.92895600  1
  Al  Al34  1  0.39379800  0.15124500  0.94072800  1
  Al  Al35  1  0.16865300  0.92296400  0.90299500  1
  Al  Al36  1  0.04780200  0.07552100  0.16229400  1
  Al  Al37  1  0.23119600  0.22367000  0.38408700  1
  Al  Al38  1  0.97669300  0.59838500  0.07906700  1
  Al  Al39  1  0.21566700  0.54420300  0.33453600  1
  O  O40  1  0.18421500  0.09268000  0.27842300  1
  O  O41  1  0.29348700  0.36620400  0.30635300  1
  O  O42  1  0.96856600  0.32208400  0.67584400  1
  O  O43  1  0.85229000  0.83938500  0.66926300  1
  O  O44  1  0.59174000  0.21768600  0.46329700  1
  O  O45  1  0.97047300  0.13769200  0.83326300  1
  O  O46  1  0.07082900  0.31163600  0.39119800  1
  O  O47  1  0.12277600  0.14796800  0.57660900  1
  O  O48  1  0.79111300  0.30936500  0.90020100  1
  O  O49  1  0.23316800  0.58836600  0.50606900  1
  O  O50  1  0.47828400  0.98381500  0.90009700  1
  O  O51  1  0.99832300  0.90304800  0.88825100  1
  O  O52  1  0.87564100  0.12076200  0.59362800  1
  O  O53  1  0.81239200  0.40143800  0.18881200  1
  O  O54  1  0.13247300  0.75602500  0.72520200  1
  O  O55  1  0.72489200  0.08848400  0.80382800  1
  O  O56  1  0.64942100  0.14647200  0.22400400  1
  O  O57  1  0.01554600  0.41406300  0.02084100  1
  O  O58  1  0.67809900  0.31757000  0.67410600  1
  O  O59  1  0.03607900  0.87932800  0.49100100  1
  O  O60  1  0.76313200  0.96971500  0.42785600  1
  O  O61  1  0.91086200  0.14790100  0.07252200  1
  O  O62  1  0.04361600  0.64794100  0.92355100  1
  O  O63  1  0.75883500  0.89375400  0.93412300  1
  O  O64  1  0.54948900  0.54534700  0.59456100  1
  O  O65  1  0.41313400  0.13618700  0.11028500  1
  O  O66  1  0.65371000  0.74375800  0.50388500  1
  O  O67  1  0.79744900  0.59319300  0.69435600  1
  O  O68  1  0.17268100  0.80148600  0.29389300  1
  O  O69  1  0.16229200  0.98609300  0.06499600  1
  O  O70  1  0.68547800  0.89879300  0.18505200  1
  O  O71  1  0.33177900  0.58704800  0.21908500  1
  O  O72  1  0.58614000  0.43254200  0.38036700  1
  O  O73  1  0.99633200  0.62842000  0.57292400  1
  O  O74  1  0.86223500  0.43733000  0.46887400  1
  O  O75  1  0.84783200  0.21248000  0.35942300  1
  O  O76  1  0.95078100  0.76372300  0.14037900  1
  O  O77  1  0.43670300  0.71426700  0.39621900  1
  O  O78  1  0.29150100  0.44391300  0.01254500  1
  O  O79  1  0.52359800  0.95348500  0.37306000  1
  O  O80  1  0.40764500  0.88220600  0.17078800  1
  O  O81  1  0.47935900  0.28720200  0.88534000  1
  O  O82  1  0.22067700  0.23136800  0.88083900  1
  O  O83  1  0.60140400  0.49843200  0.86773100  1
  O  O84  1  0.30158800  0.85686300  0.55926100  1
  O  O85  1  0.28349900  0.78486900  0.92583900  1
  O  O86  1  0.36253100  0.57093300  0.79626000  1
  O  O87  1  0.85688200  0.74254400  0.37700700  1
  O  O88  1  0.53234500  0.43823700  0.10074700  1
  O  O89  1  0.62517600  0.65539300  0.26338400  1
  O  O90  1  0.21948800  0.01745000  0.76876800  1
  O  O91  1  0.54140800  0.96413900  0.62646600  1
  O  O92  1  0.15392200  0.47747600  0.76525000  1
  O  O93  1  0.57034700  0.76853400  0.79478000  1
  O  O94  1  0.38383600  0.35611400  0.59804500  1
  O  O95  1  0.04996600  0.54076700  0.25242700  1
  O  O96  1  0.51136700  0.68597300  0.04548200  1
  O  O97  1  0.78984800  0.62558400  0.04612000  1
  O  O98  1  0.34682400  0.11558800  0.48814900  1
  O  O99  1  0.94865000  0.98098000  0.25334700  1
