# generated using pymatgen
data_Ca(AgO2)2
_symmetry_space_group_name_H-M   'P 1'
_cell_length_a   6.59647527
_cell_length_b   5.92852701
_cell_length_c   11.41827727
_cell_angle_alpha   89.99983260
_cell_angle_beta   90.02539719
_cell_angle_gamma   89.99203064
_symmetry_Int_Tables_number   1
_chemical_formula_structural   Ca(AgO2)2
_chemical_formula_sum   'Ca4 Ag8 O16'
_cell_volume   446.53888038
_cell_formula_units_Z   4
loop_
 _symmetry_equiv_pos_site_id
 _symmetry_equiv_pos_as_xyz
  1  'x, y, z'
loop_
 _atom_site_type_symbol
 _atom_site_label
 _atom_site_symmetry_multiplicity
 _atom_site_fract_x
 _atom_site_fract_y
 _atom_site_fract_z
 _atom_site_occupancy
  Ca  Ca0  1  0.75260600  0.25004000  0.75002600  1
  Ca  Ca1  1  0.24721000  0.74995500  0.24998200  1
  Ca  Ca2  1  0.66149400  0.25000000  0.24993500  1
  Ca  Ca3  1  0.33830700  0.74998300  0.74997400  1
  Ag  Ag4  1  0.52433500  0.75002500  0.49583700  1
  Ag  Ag5  1  0.52417800  0.74999600  0.00420000  1
  Ag  Ag6  1  0.47572800  0.24998700  0.50412600  1
  Ag  Ag7  1  0.47548700  0.24999700  0.99590300  1
  Ag  Ag8  1  0.00015500  0.50038100  0.50006000  1
  Ag  Ag9  1  0.99999800  0.99969200  0.00003000  1
  Ag  Ag10  1  0.00014500  0.99961500  0.50006100  1
  Ag  Ag11  1  0.99998600  0.50031300  0.00002900  1
  O  O12  1  0.97735100  0.75000900  0.37945400  1
  O  O13  1  0.97746600  0.75000900  0.12051100  1
  O  O14  1  0.02300900  0.24999900  0.62080200  1
  O  O15  1  0.02264000  0.25000100  0.87928700  1
  O  O16  1  0.09794800  0.74997400  0.60669800  1
  O  O17  1  0.09741400  0.74998400  0.89313200  1
  O  O18  1  0.90204200  0.25001400  0.39322200  1
  O  O19  1  0.90252300  0.25002600  0.10690100  1
  O  O20  1  0.54628500  0.50074000  0.62091900  1
  O  O21  1  0.54606500  0.99927000  0.87907700  1
  O  O22  1  0.45378100  0.00077800  0.37909500  1
  O  O23  1  0.45385300  0.49927700  0.12083800  1
  O  O24  1  0.45379800  0.49925400  0.37908200  1
  O  O25  1  0.45385700  0.00072800  0.12083600  1
  O  O26  1  0.54628400  0.99925400  0.62091100  1
  O  O27  1  0.54605400  0.50069500  0.87907000  1
