# generated using pymatgen
data_GaAs
_symmetry_space_group_name_H-M   'P 1'
_cell_length_a   12.96300988
_cell_length_b   12.84217365
_cell_length_c   14.57984225
_cell_angle_alpha   94.31759967
_cell_angle_beta   92.61643445
_cell_angle_gamma   85.34912946
_symmetry_Int_Tables_number   1
_chemical_formula_structural   GaAs
_chemical_formula_sum   'Ga50 As50'
_cell_volume   2410.38570339
_cell_formula_units_Z   50
loop_
 _symmetry_equiv_pos_site_id
 _symmetry_equiv_pos_as_xyz
  1  'x, y, z'
loop_
 _atom_site_type_symbol
 _atom_site_label
 _atom_site_symmetry_multiplicity
 _atom_site_fract_x
 _atom_site_fract_y
 _atom_site_fract_z
 _atom_site_occupancy
  Ga  Ga0  1  0.95159311  0.59193813  0.22355504  1
  Ga  Ga1  1  0.81973720  0.77788586  0.65820371  1
  Ga  Ga2  1  0.50757822  0.08040183  0.52894399  1
  Ga  Ga3  1  0.23210132  0.92453801  0.94770285  1
  Ga  Ga4  1  0.27318500  0.72025525  0.88851157  1
  Ga  Ga5  1  0.72824496  0.42855610  0.30740558  1
  Ga  Ga6  1  0.89491313  0.30527283  0.53535134  1
  Ga  Ga7  1  0.63840925  0.59137842  0.09531751  1
  Ga  Ga8  1  0.36114656  0.16865329  0.62931073  1
  Ga  Ga9  1  0.74289653  0.41801849  0.73751732  1
  Ga  Ga10  1  0.82954232  0.06459252  0.52349459  1
  Ga  Ga11  1  0.85705192  0.76428481  0.17867374  1
  Ga  Ga12  1  0.66931657  0.17772559  0.62142471  1
  Ga  Ga13  1  0.06608869  0.91874778  0.44273484  1
  Ga  Ga14  1  0.62449060  0.50327600  0.61098282  1
  Ga  Ga15  1  0.30594454  0.65939714  0.35993794  1
  Ga  Ga16  1  0.53601300  0.43700563  0.25772173  1
  Ga  Ga17  1  0.52950908  0.75375071  0.51345887  1
  Ga  Ga18  1  0.94019956  0.56155981  0.62718668  1
  Ga  Ga19  1  0.82236569  0.14285356  0.36040956  1
  Ga  Ga20  1  0.35502561  0.48993449  0.80292420  1
  Ga  Ga21  1  0.01269785  0.96231779  0.24334229  1
  Ga  Ga22  1  0.13024825  0.70943586  0.45297612  1
  Ga  Ga23  1  0.26726764  0.58102109  0.18822156  1
  Ga  Ga24  1  0.04790234  0.32095257  0.01295239  1
  Ga  Ga25  1  0.63064235  0.38975913  0.06188835  1
  Ga  Ga26  1  0.38550149  0.85245839  0.80891200  1
  Ga  Ga27  1  0.67828527  0.96684997  0.62682676  1
  Ga  Ga28  1  0.36028064  0.85079491  0.34977079  1
  Ga  Ga29  1  0.66443412  0.87479862  0.46610712  1
  Ga  Ga30  1  0.57715051  0.81164193  0.90694258  1
  Ga  Ga31  1  0.56961432  0.25470125  0.76254372  1
  Ga  Ga32  1  0.83774640  0.67719349  0.39644042  1
  Ga  Ga33  1  0.54076149  0.69829837  0.33467527  1
  Ga  Ga34  1  0.85936638  0.46289562  0.44438608  1
  Ga  Ga35  1  0.24934218  0.58161066  0.00914340  1
  Ga  Ga36  1  0.47850704  0.64595671  0.84123965  1
  Ga  Ga37  1  0.73384197  0.73970971  0.02216305  1
  Ga  Ga38  1  0.12331237  0.36998692  0.34908470  1
  Ga  Ga39  1  0.13658947  0.48288224  0.58890523  1
  Ga  Ga40  1  0.16622068  0.19063067  0.63372434  1
  Ga  Ga41  1  0.16713532  0.31873524  0.88148767  1
  Ga  Ga42  1  0.30029574  0.87520420  0.64325124  1
  Ga  Ga43  1  0.17380683  0.20706665  0.10808143  1
  Ga  Ga44  1  0.88684940  0.08698899  0.71075538  1
  Ga  Ga45  1  0.93541084  0.43812128  0.86833313  1
  Ga  Ga46  1  0.79519802  0.00333010  0.84099895  1
  Ga  Ga47  1  0.89911787  0.21387621  0.01662630  1
  Ga  Ga48  1  0.43178543  0.22534748  0.42603060  1
  Ga  Ga49  1  0.66452306  0.85194045  0.19729750  1
  As  As50  1  0.81734949  0.60752165  0.76255486  1
  As  As51  1  0.39944677  0.92246267  0.51188526  1
  As  As52  1  0.33281202  0.66890703  0.60939576  1
  As  As53  1  0.89882402  0.04300778  0.10195833  1
  As  As54  1  0.83529255  0.93619990  0.29739520  1
  As  As55  1  0.30685710  0.08977808  0.01775104  1
  As  As56  1  0.46461065  0.60047583  0.18769078  1
  As  As57  1  0.13117459  0.79278548  0.22007942  1
  As  As58  1  0.99347739  0.23233505  0.39011287  1
  As  As59  1  0.54829128  0.90590364  0.32623964  1
  As  As60  1  0.88091230  0.69811316  0.90568571  1
  As  As61  1  0.27115604  0.91143779  0.19936025  1
  As  As62  1  0.51690968  0.66854326  0.66708512  1
  As  As63  1  0.32339174  0.40591898  0.94276344  1
  As  As64  1  0.61732971  0.94929797  0.78599312  1
  As  As65  1  0.16159314  0.07831991  0.23831421  1
  As  As66  1  0.73458442  0.17590067  0.93494307  1
  As  As67  1  0.90661746  0.28666791  0.70546676  1
  As  As68  1  0.57795895  0.12035778  0.18454449  1
  As  As69  1  0.22762104  0.37853798  0.20583486  1
  As  As70  1  0.15338960  0.11260462  0.41081082  1
  As  As71  1  0.01956383  0.55005230  0.38206706  1
  As  As72  1  0.05346762  0.73219202  0.61334344  1
  As  As73  1  0.86402559  0.86189746  0.44940136  1
  As  As74  1  0.71258120  0.26056698  0.47567222  1
  As  As75  1  0.32167219  0.52119442  0.48689893  1
  As  As76  1  0.02029195  0.78101098  0.07694722  1
  As  As77  1  0.79494281  0.33688692  0.15336246  1
  As  As78  1  0.67611678  0.35240615  0.88357576  1
  As  As79  1  0.08556957  0.35326478  0.72083029  1
  As  As80  1  0.52290824  0.10909474  0.85839104  1
  As  As81  1  0.75681133  0.61699154  0.53761373  1
  As  As82  1  0.40361664  0.30853708  0.25759644  1
  As  As83  1  0.48022841  0.40075190  0.52877549  1
  As  As84  1  0.36010445  0.05412378  0.77427987  1
  As  As85  1  0.94266798  0.48615605  0.07133853  1
  As  As86  1  0.04288695  0.04128133  0.60130645  1
  As  As87  1  0.48446659  0.26245250  0.10011293  1
  As  As88  1  0.71772283  0.62320253  0.26606631  1
  As  As89  1  0.76213441  0.16251089  0.19651727  1
  As  As90  1  0.04038571  0.92590120  0.97737289  1
  As  As91  1  0.04287761  0.60282555  0.98300572  1
  As  As92  1  0.21963632  0.61931512  0.73108355  1
  As  As93  1  0.21030840  0.11770976  0.86839472  1
  As  As94  1  0.94583381  0.85268250  0.83427601  1
  As  As95  1  0.76844851  0.94226134  0.00716693  1
  As  As96  1  0.23817750  0.27756120  0.47082014  1
  As  As97  1  0.41962428  0.35226647  0.68089000  1
  As  As98  1  0.11636001  0.89689650  0.69769556  1
  As  As99  1  0.59351441  0.96338013  0.06669137  1
