# generated using pymatgen
data_MgCu2(SnO4)2
_symmetry_space_group_name_H-M   'P 1'
_cell_length_a   6.23486063
_cell_length_b   8.72627200
_cell_length_c   12.18907911
_cell_angle_alpha   90.00000000
_cell_angle_beta   89.36338910
_cell_angle_gamma   90.00000000
_symmetry_Int_Tables_number   1
_chemical_formula_structural   MgCu2(SnO4)2
_chemical_formula_sum   'Mg4 Cu8 Sn8 O32'
_cell_volume   663.13138596
_cell_formula_units_Z   4
loop_
 _symmetry_equiv_pos_site_id
 _symmetry_equiv_pos_as_xyz
  1  'x, y, z'
loop_
 _atom_site_type_symbol
 _atom_site_label
 _atom_site_symmetry_multiplicity
 _atom_site_fract_x
 _atom_site_fract_y
 _atom_site_fract_z
 _atom_site_occupancy
  Mg  Mg0  1  0.10146300  0.15098100  0.03156200  1
  Mg  Mg1  1  0.89853700  0.84901900  0.96843800  1
  Mg  Mg2  1  0.89853700  0.65098100  0.46843800  1
  Mg  Mg3  1  0.10146300  0.34901900  0.53156200  1
  Cu  Cu4  1  0.75421100  0.18918200  0.83717500  1
  Cu  Cu5  1  0.37229700  0.07220600  0.60810700  1
  Cu  Cu6  1  0.62770300  0.92779400  0.39189300  1
  Cu  Cu7  1  0.24578900  0.81081800  0.16282500  1
  Cu  Cu8  1  0.75421100  0.31081800  0.33717500  1
  Cu  Cu9  1  0.37229700  0.42779400  0.10810700  1
  Cu  Cu10  1  0.24578900  0.68918200  0.66282500  1
  Cu  Cu11  1  0.62770300  0.57220600  0.89189300  1
  Sn  Sn12  1  0.09459100  0.45242400  0.84047500  1
  Sn  Sn13  1  0.09459100  0.04757600  0.34047500  1
  Sn  Sn14  1  0.56784200  0.06957500  0.14765200  1
  Sn  Sn15  1  0.90540900  0.95242400  0.65952500  1
  Sn  Sn16  1  0.43215800  0.93042500  0.85234800  1
  Sn  Sn17  1  0.43215800  0.56957500  0.35234800  1
  Sn  Sn18  1  0.56784200  0.43042500  0.64765200  1
  Sn  Sn19  1  0.90540900  0.54757600  0.15952500  1
  O  O20  1  0.03285900  0.26480600  0.37638700  1
  O  O21  1  0.65076000  0.01554900  0.57542300  1
  O  O22  1  0.19639400  0.55457200  0.45983600  1
  O  O23  1  0.80360600  0.05457200  0.04016400  1
  O  O24  1  0.03285900  0.23519400  0.87638700  1
  O  O25  1  0.96714100  0.73519400  0.62361300  1
  O  O26  1  0.08417100  0.12813000  0.60546100  1
  O  O27  1  0.52548300  0.84803400  0.19260200  1
  O  O28  1  0.52548300  0.65196600  0.69260200  1
  O  O29  1  0.28003100  0.89709200  0.70008100  1
  O  O30  1  0.71996900  0.39709200  0.79991900  1
  O  O31  1  0.47451700  0.15196600  0.80739800  1
  O  O32  1  0.91582900  0.87187000  0.39453900  1
  O  O33  1  0.79956200  0.52566700  0.31832100  1
  O  O34  1  0.41731900  0.27096100  0.55792300  1
  O  O35  1  0.41731900  0.22903900  0.05792300  1
  O  O36  1  0.20043800  0.02566700  0.18167900  1
  O  O37  1  0.47451700  0.34803400  0.30739800  1
  O  O38  1  0.20043800  0.47433300  0.68167900  1
  O  O39  1  0.80360600  0.44542800  0.54016400  1
  O  O40  1  0.65076000  0.48445100  0.07542300  1
  O  O41  1  0.71996900  0.10290800  0.29991900  1
  O  O42  1  0.96714100  0.76480600  0.12361300  1
  O  O43  1  0.08417100  0.37187000  0.10546100  1
  O  O44  1  0.19639400  0.94542800  0.95983600  1
  O  O45  1  0.58268100  0.77096100  0.94207700  1
  O  O46  1  0.34924000  0.98445100  0.42457700  1
  O  O47  1  0.34924000  0.51554900  0.92457700  1
  O  O48  1  0.91582900  0.62813000  0.89453900  1
  O  O49  1  0.58268100  0.72903900  0.44207700  1
  O  O50  1  0.28003100  0.60290800  0.20008100  1
  O  O51  1  0.79956200  0.97433300  0.81832100  1
