# generated using pymatgen
data_Rb2CoPb(NO2)6
_symmetry_space_group_name_H-M   'P 1'
_cell_length_a   7.56989181
_cell_length_b   7.69682865
_cell_length_c   7.54721124
_cell_angle_alpha   59.53920797
_cell_angle_beta   61.21998038
_cell_angle_gamma   59.24843880
_symmetry_Int_Tables_number   1
_chemical_formula_structural   Rb2CoPb(NO2)6
_chemical_formula_sum   'Rb2 Co1 Pb1 N6 O12'
_cell_volume   310.73828382
_cell_formula_units_Z   1
loop_
 _symmetry_equiv_pos_site_id
 _symmetry_equiv_pos_as_xyz
  1  'x, y, z'
loop_
 _atom_site_type_symbol
 _atom_site_label
 _atom_site_symmetry_multiplicity
 _atom_site_fract_x
 _atom_site_fract_y
 _atom_site_fract_z
 _atom_site_occupancy
  Rb  Rb0  1  0.74999200  0.75000500  0.74998600  1
  Rb  Rb1  1  0.24995900  0.25008500  0.24998800  1
  Co  Co2  1  0.00000800  0.99994500  0.00006600  1
  Pb  Pb3  1  0.50042000  0.49973800  0.49965800  1
  N  N4  1  0.19461700  0.80535700  0.80533000  1
  N  N5  1  0.80431200  0.80441900  0.19572100  1
  N  N6  1  0.81318500  0.18684100  0.81317500  1
  N  N7  1  0.18689600  0.81318000  0.18690100  1
  N  N8  1  0.19555100  0.19559000  0.80445200  1
  N  N9  1  0.80529200  0.19466600  0.19463500  1
  O  O10  1  0.15343100  0.35845300  0.64151400  1
  O  O11  1  0.84644600  0.64149900  0.35862600  1
  O  O12  1  0.34810100  0.65194200  0.14979500  1
  O  O13  1  0.64144200  0.84654000  0.15353000  1
  O  O14  1  0.35853600  0.15334600  0.84654000  1
  O  O15  1  0.35348300  0.84349100  0.64630800  1
  O  O16  1  0.14975000  0.85026700  0.34813700  1
  O  O17  1  0.65200500  0.34806400  0.85028000  1
  O  O18  1  0.15670000  0.64632900  0.84334900  1
  O  O19  1  0.64624600  0.15678400  0.35353400  1
  O  O20  1  0.85034500  0.14979500  0.65188900  1
  O  O21  1  0.84328700  0.35366700  0.15658100  1
