# generated using pymatgen
data_Zn(AgO2)2
_symmetry_space_group_name_H-M   'P 1'
_cell_length_a   3.26025276
_cell_length_b   8.10813820
_cell_length_c   7.87131924
_cell_angle_alpha   81.01015955
_cell_angle_beta   78.44478912
_cell_angle_gamma   98.33006258
_symmetry_Int_Tables_number   1
_chemical_formula_structural   Zn(AgO2)2
_chemical_formula_sum   'Zn2 Ag4 O8'
_cell_volume   197.98858076
_cell_formula_units_Z   2
loop_
 _symmetry_equiv_pos_site_id
 _symmetry_equiv_pos_as_xyz
  1  'x, y, z'
loop_
 _atom_site_type_symbol
 _atom_site_label
 _atom_site_symmetry_multiplicity
 _atom_site_fract_x
 _atom_site_fract_y
 _atom_site_fract_z
 _atom_site_occupancy
  Zn  Zn0  1  0.30224600  0.18219000  0.21161100  1
  Zn  Zn1  1  0.69984100  0.79589900  0.82146100  1
  Ag  Ag2  1  0.66896000  0.16774300  0.55846900  1
  Ag  Ag3  1  0.07533400  0.52243200  0.20069900  1
  Ag  Ag4  1  0.92714100  0.45572800  0.83246500  1
  Ag  Ag5  1  0.33334500  0.81028600  0.47455500  1
  O  O6  1  0.84025900  0.63244700  0.63263600  1
  O  O7  1  0.56992000  0.25860800  0.77889600  1
  O  O8  1  0.43270800  0.71972000  0.25393800  1
  O  O9  1  0.16227900  0.34560200  0.40045200  1
  O  O10  1  0.30357400  0.93210000  0.69479400  1
  O  O11  1  0.88409000  0.31475500  0.08421400  1
  O  O12  1  0.69862400  0.04598000  0.33829600  1
  O  O13  1  0.11799100  0.66331100  0.94895700  1
