# generated using pymatgen
data_LiCrPO5
_symmetry_space_group_name_H-M   'P 1'
_cell_length_a   7.13038039
_cell_length_b   6.39915746
_cell_length_c   7.44473994
_cell_angle_alpha   90.01407144
_cell_angle_beta   90.14417161
_cell_angle_gamma   89.97223345
_symmetry_Int_Tables_number   1
_chemical_formula_structural   LiCrPO5
_chemical_formula_sum   'Li4 Cr4 P4 O20'
_cell_volume   339.69064642
_cell_formula_units_Z   4
loop_
 _symmetry_equiv_pos_site_id
 _symmetry_equiv_pos_as_xyz
  1  'x, y, z'
loop_
 _atom_site_type_symbol
 _atom_site_label
 _atom_site_symmetry_multiplicity
 _atom_site_fract_x
 _atom_site_fract_y
 _atom_site_fract_z
 _atom_site_occupancy
  Li  Li0  1  0.99893690  0.00228130  0.99954410  1
  Li  Li1  1  0.49895809  0.50031067  0.50010416  1
  Li  Li2  1  0.49942957  0.99914862  0.49946965  1
  Li  Li3  1  0.99809268  0.49684924  0.99864412  1
  Cr  Cr4  1  0.86167062  0.75002288  0.26942517  1
  Cr  Cr5  1  0.63755646  0.24879957  0.77102684  1
  Cr  Cr6  1  0.36591937  0.74996295  0.22725120  1
  Cr  Cr7  1  0.13966811  0.24909839  0.73048808  1
  P  P8  1  0.12469159  0.74976574  0.62653857  1
  P  P9  1  0.37223949  0.24977122  0.12521803  1
  P  P10  1  0.62967796  0.74968108  0.87323455  1
  P  P11  1  0.87437637  0.24982811  0.37381256  1
  O  O12  1  0.13077716  0.94188434  0.75560009  1
  O  O13  1  0.87076889  0.05870124  0.24575767  1
  O  O14  1  0.87079925  0.44123650  0.24621130  1
  O  O15  1  0.88792413  0.25365197  0.81794454  1
  O  O16  1  0.05642145  0.24930888  0.48580597  1
  O  O17  1  0.13020941  0.75005029  0.17936722  1
  O  O18  1  0.13103831  0.55833102  0.75543129  1
  O  O19  1  0.39049799  0.25270345  0.67608360  1
  O  O20  1  0.19454268  0.24955638  0.00347452  1
  O  O21  1  0.80628317  0.75024030  0.99617314  1
  O  O22  1  0.37100073  0.05871308  0.25255715  1
  O  O23  1  0.37106580  0.44120531  0.25219176  1
  O  O24  1  0.94256162  0.75019812  0.51747415  1
  O  O25  1  0.44880128  0.75010505  0.99051123  1
  O  O26  1  0.55303933  0.24907681  0.01104662  1
  O  O27  1  0.59076010  0.74994458  0.32334519  1
  O  O28  1  0.62722758  0.55842052  0.74773661  1
  O  O29  1  0.62686256  0.94143085  0.74763160  1
  O  O30  1  0.69529106  0.24947470  0.49575349  1
  O  O31  1  0.30291029  0.75023883  0.50514483  1
