# generated using pymatgen
data_CaMnBiO5
_symmetry_space_group_name_H-M   'P 1'
_cell_length_a   5.54452000
_cell_length_b   11.34745100
_cell_length_c   15.57922600
_cell_angle_alpha   90.00000000
_cell_angle_beta   90.00000000
_cell_angle_gamma   90.00000000
_symmetry_Int_Tables_number   1
_chemical_formula_structural   CaMnBiO5
_chemical_formula_sum   'Ca8 Mn8 Bi8 O40'
_cell_volume   980.18521619
_cell_formula_units_Z   8
loop_
 _symmetry_equiv_pos_site_id
 _symmetry_equiv_pos_as_xyz
  1  'x, y, z'
loop_
 _atom_site_type_symbol
 _atom_site_label
 _atom_site_symmetry_multiplicity
 _atom_site_fract_x
 _atom_site_fract_y
 _atom_site_fract_z
 _atom_site_occupancy
  Ca  Ca0  1  0.50200700  0.35877100  0.44869500  1
  Ca  Ca1  1  0.00200700  0.14122900  0.44869500  1
  Ca  Ca2  1  0.00200700  0.64122900  0.05130500  1
  Ca  Ca3  1  0.99799300  0.35877100  0.94869500  1
  Ca  Ca4  1  0.49799300  0.14122900  0.94869500  1
  Ca  Ca5  1  0.99799300  0.85877100  0.55130500  1
  Ca  Ca6  1  0.49799300  0.64122900  0.55130500  1
  Ca  Ca7  1  0.50200700  0.85877100  0.05130500  1
  Mn  Mn8  1  0.98238500  0.40456700  0.59850000  1
  Mn  Mn9  1  0.51761500  0.90456700  0.40150000  1
  Mn  Mn10  1  0.01761500  0.59543300  0.40150000  1
  Mn  Mn11  1  0.48238500  0.09543300  0.59850000  1
  Mn  Mn12  1  0.01761500  0.09543300  0.09850000  1
  Mn  Mn13  1  0.98238500  0.90456700  0.90150000  1
  Mn  Mn14  1  0.51761500  0.40456700  0.09850000  1
  Mn  Mn15  1  0.48238500  0.59543300  0.90150000  1
  Bi  Bi16  1  0.95202600  0.84674400  0.23256400  1
  Bi  Bi17  1  0.04797400  0.15325600  0.76743600  1
  Bi  Bi18  1  0.54797400  0.34674400  0.76743600  1
  Bi  Bi19  1  0.04797400  0.65325600  0.73256400  1
  Bi  Bi20  1  0.45202600  0.15325600  0.26743600  1
  Bi  Bi21  1  0.45202600  0.65325600  0.23256400  1
  Bi  Bi22  1  0.54797400  0.84674400  0.73256400  1
  Bi  Bi23  1  0.95202600  0.34674400  0.26743600  1
  O  O24  1  0.93747800  0.33059300  0.69618700  1
  O  O25  1  0.29483000  0.04645600  0.06729300  1
  O  O26  1  0.20517000  0.54645600  0.93270700  1
  O  O27  1  0.23860400  0.76585300  0.15187300  1
  O  O28  1  0.26139600  0.26585300  0.84812700  1
  O  O29  1  0.93747800  0.83059300  0.80381300  1
  O  O30  1  0.26139600  0.76585300  0.65187300  1
  O  O31  1  0.56252200  0.83059300  0.30381300  1
  O  O32  1  0.29483000  0.54645600  0.43270700  1
  O  O33  1  0.06252200  0.66940700  0.30381300  1
  O  O34  1  0.56252200  0.33059300  0.19618600  1
  O  O35  1  0.62377900  0.18187700  0.52570600  1
  O  O36  1  0.79483000  0.95354400  0.43270700  1
  O  O37  1  0.76139600  0.73414700  0.65187300  1
  O  O38  1  0.16809400  0.02320200  0.87388200  1
  O  O39  1  0.79483000  0.45354400  0.06729300  1
  O  O40  1  0.06252200  0.16940700  0.19618600  1
  O  O41  1  0.73860400  0.23414700  0.34812700  1
  O  O42  1  0.12377900  0.81812300  0.97429400  1
  O  O43  1  0.20517000  0.04645600  0.56729300  1
  O  O44  1  0.37622100  0.81812300  0.47429400  1
  O  O45  1  0.83190600  0.97679800  0.12611800  1
  O  O46  1  0.76139600  0.23414700  0.84812700  1
  O  O47  1  0.66809400  0.97679800  0.62611800  1
  O  O48  1  0.37622100  0.31812300  0.02570600  1
  O  O49  1  0.12377900  0.31812300  0.52570600  1
  O  O50  1  0.70517000  0.45354400  0.56729300  1
  O  O51  1  0.70517000  0.95354400  0.93270700  1
  O  O52  1  0.66809400  0.47679800  0.87388200  1
  O  O53  1  0.87622100  0.68187700  0.47429400  1
  O  O54  1  0.87622100  0.18187700  0.02570600  1
  O  O55  1  0.62377900  0.68187700  0.97429400  1
  O  O56  1  0.83190600  0.47679800  0.37388200  1
  O  O57  1  0.73860400  0.73414700  0.15187300  1
  O  O58  1  0.23860400  0.26585300  0.34812700  1
  O  O59  1  0.16809400  0.52320200  0.62611800  1
  O  O60  1  0.33190600  0.52320200  0.12611800  1
  O  O61  1  0.43747800  0.16940700  0.69618700  1
  O  O62  1  0.33190600  0.02320200  0.37388200  1
  O  O63  1  0.43747800  0.66940700  0.80381300  1
