# generated using pymatgen
data_MgTiP3WO12
_symmetry_space_group_name_H-M   'P 1'
_cell_length_a   8.67876926
_cell_length_b   8.67876880
_cell_length_c   8.67876907
_cell_angle_alpha   60.67963284
_cell_angle_beta   60.67963857
_cell_angle_gamma   60.67963939
_symmetry_Int_Tables_number   1
_chemical_formula_structural   MgTiP3WO12
_chemical_formula_sum   'Mg2 Ti2 P6 W2 O24'
_cell_volume   469.32271312
_cell_formula_units_Z   2
loop_
 _symmetry_equiv_pos_site_id
 _symmetry_equiv_pos_as_xyz
  1  'x, y, z'
loop_
 _atom_site_type_symbol
 _atom_site_label
 _atom_site_symmetry_multiplicity
 _atom_site_fract_x
 _atom_site_fract_y
 _atom_site_fract_z
 _atom_site_occupancy
  Mg  Mg0  1  0.00170500  0.00170500  0.00170500  1
  Mg  Mg1  1  0.50170500  0.50170500  0.50170500  1
  Ti  Ti2  1  0.14653700  0.14653700  0.14653700  1
  Ti  Ti3  1  0.64653700  0.64653700  0.64653700  1
  P  P4  1  0.04245200  0.44731300  0.75969500  1
  P  P5  1  0.44731300  0.75969500  0.04245200  1
  P  P6  1  0.75969500  0.04245200  0.44731300  1
  P  P7  1  0.25969500  0.94731300  0.54245200  1
  P  P8  1  0.54245200  0.25969500  0.94731300  1
  P  P9  1  0.94731300  0.54245200  0.25969500  1
  W  W10  1  0.35798300  0.35798300  0.35798300  1
  W  W11  1  0.85798300  0.85798300  0.85798300  1
  O  O12  1  0.09311500  0.50198000  0.33275900  1
  O  O13  1  0.33275900  0.09311500  0.50198000  1
  O  O14  1  0.05171400  0.25249600  0.91603100  1
  O  O15  1  0.50198000  0.33275900  0.09311500  1
  O  O16  1  0.00198000  0.59311500  0.83276000  1
  O  O17  1  0.23633200  0.43378200  0.60370900  1
  O  O18  1  0.25249600  0.91603100  0.05171400  1
  O  O19  1  0.43378200  0.60370900  0.23633200  1
  O  O20  1  0.19240300  0.00233100  0.37765900  1
  O  O21  1  0.60370900  0.23633200  0.43378200  1
  O  O22  1  0.10370900  0.93378200  0.73633200  1
  O  O23  1  0.37765900  0.19240300  0.00233100  1
  O  O24  1  0.59311500  0.83276000  0.00198000  1
  O  O25  1  0.91603100  0.05171400  0.25249600  1
  O  O26  1  0.41603100  0.75249600  0.55171400  1
  O  O27  1  0.83276000  0.00198000  0.59311500  1
  O  O28  1  0.55171400  0.41603100  0.75249600  1
  O  O29  1  0.73633200  0.10370900  0.93378200  1
  O  O30  1  0.75249600  0.55171400  0.41603100  1
  O  O31  1  0.00233100  0.37765900  0.19240300  1
  O  O32  1  0.50233100  0.69240300  0.87765900  1
  O  O33  1  0.93378200  0.73633200  0.10370900  1
  O  O34  1  0.69240300  0.87765900  0.50233100  1
  O  O35  1  0.87765900  0.50233100  0.69240300  1
