# generated using pymatgen
data_Na3FeO3
_symmetry_space_group_name_H-M   'P 1'
_cell_length_a   5.93986993
_cell_length_b   5.90064654
_cell_length_c   12.48150906
_cell_angle_alpha   90.48858065
_cell_angle_beta   89.20109006
_cell_angle_gamma   115.56987076
_symmetry_Int_Tables_number   1
_chemical_formula_structural   Na3FeO3
_chemical_formula_sum   'Na12 Fe4 O12'
_cell_volume   394.57991219
_cell_formula_units_Z   4
loop_
 _symmetry_equiv_pos_site_id
 _symmetry_equiv_pos_as_xyz
  1  'x, y, z'
loop_
 _atom_site_type_symbol
 _atom_site_label
 _atom_site_symmetry_multiplicity
 _atom_site_fract_x
 _atom_site_fract_y
 _atom_site_fract_z
 _atom_site_occupancy
  Na  Na0  1  0.85784600  0.30162500  0.77767100  1
  Na  Na1  1  0.64159000  0.19741000  0.28088100  1
  Na  Na2  1  0.24362800  0.77919400  0.48427000  1
  Na  Na3  1  0.36000500  0.80494000  0.72177000  1
  Na  Na4  1  0.74199600  0.28191900  0.01643100  1
  Na  Na5  1  0.75553400  0.22237200  0.51577000  1
  Na  Na6  1  0.29269300  0.35207400  0.59859000  1
  Na  Na7  1  0.20394100  0.14802200  0.09818700  1
  Na  Na8  1  0.70944200  0.64021400  0.40268100  1
  Na  Na9  1  0.79148400  0.85911900  0.89889000  1
  Na  Na10  1  0.25868800  0.72005900  0.98269300  1
  Na  Na11  1  0.14249900  0.69785100  0.22408900  1
  Fe  Fe12  1  0.32369400  0.24081000  0.84106700  1
  Fe  Fe13  1  0.17806300  0.26741500  0.34243400  1
  Fe  Fe14  1  0.67918100  0.75945800  0.16424300  1
  Fe  Fe15  1  0.82641800  0.74042500  0.65902700  1
  O  O16  1  0.57401600  0.53229000  0.77334600  1
  O  O17  1  0.90536700  0.94898600  0.26090900  1
  O  O18  1  0.44218700  0.46836500  0.21654900  1
  O  O19  1  0.07114000  0.02972900  0.72929700  1
  O  O20  1  0.51013600  0.93759000  0.12887900  1
  O  O21  1  0.00397700  0.55123400  0.63247600  1
  O  O22  1  0.10905600  0.30675300  0.93551600  1
  O  O23  1  0.38940000  0.19214100  0.43580900  1
  O  O24  1  0.87790500  0.70301400  0.06688500  1
  O  O25  1  0.61556700  0.80595900  0.56880500  1
  O  O26  1  0.50068900  0.05134600  0.87211600  1
  O  O27  1  0.99385800  0.45968300  0.37071700  1
