# generated using pymatgen
data_MgTaTi(PO4)3
_symmetry_space_group_name_H-M   'P 1'
_cell_length_a   8.59506338
_cell_length_b   8.59506400
_cell_length_c   8.59506357
_cell_angle_alpha   61.56946107
_cell_angle_beta   61.56946463
_cell_angle_gamma   61.56946982
_symmetry_Int_Tables_number   1
_chemical_formula_structural   MgTaTi(PO4)3
_chemical_formula_sum   'Mg2 Ta2 Ti2 P6 O24'
_cell_volume   464.79572909
_cell_formula_units_Z   2
loop_
 _symmetry_equiv_pos_site_id
 _symmetry_equiv_pos_as_xyz
  1  'x, y, z'
loop_
 _atom_site_type_symbol
 _atom_site_label
 _atom_site_symmetry_multiplicity
 _atom_site_fract_x
 _atom_site_fract_y
 _atom_site_fract_z
 _atom_site_occupancy
  Mg  Mg0  1  0.00406400  0.00406400  0.00406400  1
  Mg  Mg1  1  0.50406400  0.50406400  0.50406400  1
  Ta  Ta2  1  0.35613900  0.35613900  0.35613900  1
  Ta  Ta3  1  0.85613900  0.85613900  0.85613900  1
  Ti  Ti4  1  0.14489600  0.14489600  0.14489600  1
  Ti  Ti5  1  0.64489600  0.64489600  0.64489600  1
  P  P6  1  0.04530100  0.44955000  0.75150400  1
  P  P7  1  0.44955000  0.75150400  0.04530100  1
  P  P8  1  0.75150400  0.04530100  0.44955000  1
  P  P9  1  0.25150400  0.94955000  0.54530100  1
  P  P10  1  0.54530100  0.25150400  0.94955000  1
  P  P11  1  0.94955000  0.54530100  0.25150400  1
  O  O12  1  0.10860400  0.50782100  0.31636600  1
  O  O13  1  0.31636600  0.10860400  0.50782100  1
  O  O14  1  0.05966000  0.25793900  0.90806000  1
  O  O15  1  0.50782100  0.31636600  0.10860400  1
  O  O16  1  0.00782100  0.60860400  0.81636600  1
  O  O17  1  0.24097200  0.43972900  0.59253300  1
  O  O18  1  0.25793900  0.90806000  0.05966000  1
  O  O19  1  0.43972900  0.59253300  0.24097200  1
  O  O20  1  0.18144100  0.99420700  0.39121300  1
  O  O21  1  0.59253300  0.24097200  0.43972900  1
  O  O22  1  0.09253300  0.93972900  0.74097200  1
  O  O23  1  0.39121300  0.18144100  0.99420700  1
  O  O24  1  0.60860400  0.81636600  0.00782100  1
  O  O25  1  0.90806000  0.05966000  0.25793900  1
  O  O26  1  0.40806000  0.75793900  0.55966000  1
  O  O27  1  0.81636600  0.00782100  0.60860400  1
  O  O28  1  0.55966000  0.40806000  0.75793900  1
  O  O29  1  0.74097200  0.09253300  0.93972900  1
  O  O30  1  0.75793900  0.55966000  0.40806000  1
  O  O31  1  0.99420700  0.39121300  0.18144100  1
  O  O32  1  0.49420700  0.68144100  0.89121300  1
  O  O33  1  0.93972900  0.74097200  0.09253300  1
  O  O34  1  0.68144100  0.89121300  0.49420700  1
  O  O35  1  0.89121300  0.49420700  0.68144100  1
