# generated using pymatgen
data_TiBi(PO4)3
_symmetry_space_group_name_H-M   'P 1'
_cell_length_a   9.00069100
_cell_length_b   9.00069066
_cell_length_c   9.00069147
_cell_angle_alpha   58.54433936
_cell_angle_beta   58.54434186
_cell_angle_gamma   58.54434538
_symmetry_Int_Tables_number   1
_chemical_formula_structural   TiBi(PO4)3
_chemical_formula_sum   'Ti2 Bi2 P6 O24'
_cell_volume   498.43470318
_cell_formula_units_Z   2
loop_
 _symmetry_equiv_pos_site_id
 _symmetry_equiv_pos_as_xyz
  1  'x, y, z'
loop_
 _atom_site_type_symbol
 _atom_site_label
 _atom_site_symmetry_multiplicity
 _atom_site_fract_x
 _atom_site_fract_y
 _atom_site_fract_z
 _atom_site_occupancy
  Ti  Ti0  1  0.13939900  0.13939900  0.13939900  1
  Ti  Ti1  1  0.63939900  0.63939900  0.63939900  1
  Bi  Bi2  1  0.35437000  0.35437000  0.35437000  1
  Bi  Bi3  1  0.85437000  0.85437000  0.85437000  1
  P  P4  1  0.03326800  0.45541700  0.75416400  1
  P  P5  1  0.45541700  0.75416400  0.03326800  1
  P  P6  1  0.75416400  0.03326800  0.45541700  1
  P  P7  1  0.25416400  0.95541700  0.53326800  1
  P  P8  1  0.53326800  0.25416400  0.95541700  1
  P  P9  1  0.95541700  0.53326800  0.25416400  1
  O  O10  1  0.11829700  0.52854400  0.27666200  1
  O  O11  1  0.27666200  0.11829700  0.52854400  1
  O  O12  1  0.05734300  0.28314000  0.92917800  1
  O  O13  1  0.52854400  0.27666200  0.11829700  1
  O  O14  1  0.02854400  0.61829700  0.77666200  1
  O  O15  1  0.22031100  0.42939800  0.59079500  1
  O  O16  1  0.28314000  0.92917800  0.05734300  1
  O  O17  1  0.42939800  0.59079500  0.22031100  1
  O  O18  1  0.21716100  0.99888300  0.36541600  1
  O  O19  1  0.59079500  0.22031100  0.42939800  1
  O  O20  1  0.09079500  0.92939800  0.72031100  1
  O  O21  1  0.36541600  0.21716100  0.99888300  1
  O  O22  1  0.61829700  0.77666200  0.02854400  1
  O  O23  1  0.92917800  0.05734300  0.28314000  1
  O  O24  1  0.42917800  0.78314000  0.55734300  1
  O  O25  1  0.77666200  0.02854400  0.61829700  1
  O  O26  1  0.55734300  0.42917800  0.78314000  1
  O  O27  1  0.72031100  0.09079500  0.92939800  1
  O  O28  1  0.78314000  0.55734300  0.42917800  1
  O  O29  1  0.99888300  0.36541600  0.21716100  1
  O  O30  1  0.49888300  0.71716100  0.86541600  1
  O  O31  1  0.92939800  0.72031100  0.09079500  1
  O  O32  1  0.71716100  0.86541600  0.49888300  1
  O  O33  1  0.86541600  0.49888300  0.71716100  1
