# generated using pymatgen
data_BiWO5
_symmetry_space_group_name_H-M   'P 1'
_cell_length_a   6.23965300
_cell_length_b   12.06977400
_cell_length_c   16.14301300
_cell_angle_alpha   90.00000000
_cell_angle_beta   90.00000000
_cell_angle_gamma   90.00000000
_symmetry_Int_Tables_number   1
_chemical_formula_structural   BiWO5
_chemical_formula_sum   'Bi8 W8 O40'
_cell_volume   1215.74970564
_cell_formula_units_Z   8
loop_
 _symmetry_equiv_pos_site_id
 _symmetry_equiv_pos_as_xyz
  1  'x, y, z'
loop_
 _atom_site_type_symbol
 _atom_site_label
 _atom_site_symmetry_multiplicity
 _atom_site_fract_x
 _atom_site_fract_y
 _atom_site_fract_z
 _atom_site_occupancy
  Bi  Bi0  1  0.92726900  0.81990800  0.20820000  1
  Bi  Bi1  1  0.07273100  0.18009200  0.79180000  1
  Bi  Bi2  1  0.57273100  0.31990800  0.79180000  1
  Bi  Bi3  1  0.07273100  0.68009200  0.70820000  1
  Bi  Bi4  1  0.42726900  0.18009200  0.29180000  1
  Bi  Bi5  1  0.42726900  0.68009200  0.20820000  1
  Bi  Bi6  1  0.57273100  0.81990800  0.70820000  1
  Bi  Bi7  1  0.92726900  0.31990800  0.29180000  1
  W  W8  1  0.97939500  0.39750700  0.61458800  1
  W  W9  1  0.52060500  0.89750700  0.38541200  1
  W  W10  1  0.02060500  0.60249300  0.38541200  1
  W  W11  1  0.47939500  0.10249300  0.61458800  1
  W  W12  1  0.02060500  0.10249300  0.11458800  1
  W  W13  1  0.97939500  0.89750700  0.88541200  1
  W  W14  1  0.52060500  0.39750700  0.11458800  1
  W  W15  1  0.47939500  0.60249300  0.88541200  1
  O  O16  1  0.88651300  0.29759100  0.70138300  1
  O  O17  1  0.25359300  0.04491500  0.07142000  1
  O  O18  1  0.24640700  0.54491500  0.92858000  1
  O  O19  1  0.23030000  0.79625900  0.15101200  1
  O  O20  1  0.26970000  0.29625900  0.84898800  1
  O  O21  1  0.88651300  0.79759100  0.79861700  1
  O  O22  1  0.26970000  0.79625900  0.65101200  1
  O  O23  1  0.61348700  0.79759100  0.29861700  1
  O  O24  1  0.25359300  0.54491500  0.42858000  1
  O  O25  1  0.11348700  0.70240900  0.29861700  1
  O  O26  1  0.61348700  0.29759100  0.20138300  1
  O  O27  1  0.62487300  0.17411200  0.53849000  1
  O  O28  1  0.75359300  0.95508500  0.42858000  1
  O  O29  1  0.76970000  0.70374100  0.65101200  1
  O  O30  1  0.15031200  0.00995000  0.83772400  1
  O  O31  1  0.75359300  0.45508500  0.07142000  1
  O  O32  1  0.11348700  0.20240900  0.20138300  1
  O  O33  1  0.73030000  0.20374100  0.34898800  1
  O  O34  1  0.12487300  0.82588800  0.96151000  1
  O  O35  1  0.24640700  0.04491500  0.57142000  1
  O  O36  1  0.37512700  0.82588800  0.46151000  1
  O  O37  1  0.84968800  0.99005000  0.16227600  1
  O  O38  1  0.76970000  0.20374100  0.84898800  1
  O  O39  1  0.65031200  0.99005000  0.66227600  1
  O  O40  1  0.37512700  0.32588800  0.03849000  1
  O  O41  1  0.12487300  0.32588800  0.53849000  1
  O  O42  1  0.74640700  0.45508500  0.57142000  1
  O  O43  1  0.74640700  0.95508500  0.92858000  1
  O  O44  1  0.65031200  0.49005000  0.83772400  1
  O  O45  1  0.87512700  0.67411200  0.46151000  1
  O  O46  1  0.87512700  0.17411200  0.03849000  1
  O  O47  1  0.62487300  0.67411200  0.96151000  1
  O  O48  1  0.84968800  0.49005000  0.33772400  1
  O  O49  1  0.73030000  0.70374100  0.15101200  1
  O  O50  1  0.23030000  0.29625900  0.34898800  1
  O  O51  1  0.15031200  0.50995000  0.66227600  1
  O  O52  1  0.34968800  0.50995000  0.16227600  1
  O  O53  1  0.38651300  0.20240900  0.70138300  1
  O  O54  1  0.34968800  0.00995000  0.33772400  1
  O  O55  1  0.38651300  0.70240900  0.79861700  1
