# generated using pymatgen
data_TaBiO5
_symmetry_space_group_name_H-M   'P 1'
_cell_length_a   6.16346200
_cell_length_b   11.90974800
_cell_length_c   16.07263400
_cell_angle_alpha   90.00000000
_cell_angle_beta   90.00000000
_cell_angle_gamma   90.00000000
_symmetry_Int_Tables_number   1
_chemical_formula_structural   TaBiO5
_chemical_formula_sum   'Ta8 Bi8 O40'
_cell_volume   1179.81618669
_cell_formula_units_Z   8
loop_
 _symmetry_equiv_pos_site_id
 _symmetry_equiv_pos_as_xyz
  1  'x, y, z'
loop_
 _atom_site_type_symbol
 _atom_site_label
 _atom_site_symmetry_multiplicity
 _atom_site_fract_x
 _atom_site_fract_y
 _atom_site_fract_z
 _atom_site_occupancy
  Ta  Ta0  1  0.97960000  0.39778100  0.61573800  1
  Ta  Ta1  1  0.52040000  0.89778100  0.38426300  1
  Ta  Ta2  1  0.02040000  0.60221900  0.38426300  1
  Ta  Ta3  1  0.47960000  0.10221900  0.61573800  1
  Ta  Ta4  1  0.02040000  0.10221900  0.11573700  1
  Ta  Ta5  1  0.97960000  0.89778100  0.88426200  1
  Ta  Ta6  1  0.52040000  0.39778100  0.11573700  1
  Ta  Ta7  1  0.47960000  0.60221900  0.88426200  1
  Bi  Bi8  1  0.91969800  0.81794400  0.20637000  1
  Bi  Bi9  1  0.08030200  0.18205600  0.79363000  1
  Bi  Bi10  1  0.58030200  0.31794400  0.79363000  1
  Bi  Bi11  1  0.08030200  0.68205600  0.70637000  1
  Bi  Bi12  1  0.41969800  0.18205600  0.29363000  1
  Bi  Bi13  1  0.41969800  0.68205600  0.20637000  1
  Bi  Bi14  1  0.58030200  0.81794400  0.70637000  1
  Bi  Bi15  1  0.91969800  0.31794400  0.29363000  1
  O  O16  1  0.87736100  0.29347600  0.70380600  1
  O  O17  1  0.25969000  0.04435500  0.06896400  1
  O  O18  1  0.24031000  0.54435500  0.93103600  1
  O  O19  1  0.22544400  0.79940000  0.14510400  1
  O  O20  1  0.27455600  0.29940000  0.85489600  1
  O  O21  1  0.87736100  0.79347600  0.79619400  1
  O  O22  1  0.27455600  0.79940000  0.64510400  1
  O  O23  1  0.62263900  0.79347600  0.29619400  1
  O  O24  1  0.25969000  0.54435500  0.43103600  1
  O  O25  1  0.12263900  0.70652400  0.29619400  1
  O  O26  1  0.62263900  0.29347600  0.20380600  1
  O  O27  1  0.63681400  0.17728500  0.53824700  1
  O  O28  1  0.75969000  0.95564500  0.43103600  1
  O  O29  1  0.77455600  0.70060000  0.64510400  1
  O  O30  1  0.15476800  0.01286700  0.83103200  1
  O  O31  1  0.75969000  0.45564500  0.06896400  1
  O  O32  1  0.12263900  0.20652400  0.20380600  1
  O  O33  1  0.72544400  0.20060000  0.35489600  1
  O  O34  1  0.13681400  0.82271500  0.96175300  1
  O  O35  1  0.24031000  0.04435500  0.56896400  1
  O  O36  1  0.36318600  0.82271500  0.46175300  1
  O  O37  1  0.84523200  0.98713300  0.16896800  1
  O  O38  1  0.77455600  0.20060000  0.85489600  1
  O  O39  1  0.65476800  0.98713300  0.66896800  1
  O  O40  1  0.36318600  0.32271500  0.03824700  1
  O  O41  1  0.13681400  0.32271500  0.53824700  1
  O  O42  1  0.74031000  0.45564500  0.56896400  1
  O  O43  1  0.74031000  0.95564500  0.93103600  1
  O  O44  1  0.65476800  0.48713300  0.83103200  1
  O  O45  1  0.86318600  0.67728500  0.46175300  1
  O  O46  1  0.86318600  0.17728500  0.03824700  1
  O  O47  1  0.63681400  0.67728500  0.96175300  1
  O  O48  1  0.84523200  0.48713300  0.33103200  1
  O  O49  1  0.72544400  0.70060000  0.14510400  1
  O  O50  1  0.22544400  0.29940000  0.35489600  1
  O  O51  1  0.15476800  0.51286700  0.66896800  1
  O  O52  1  0.34523200  0.51286700  0.16896800  1
  O  O53  1  0.37736100  0.20652400  0.70380600  1
  O  O54  1  0.34523200  0.01286700  0.33103200  1
  O  O55  1  0.37736100  0.70652400  0.79619400  1
