# generated using pymatgen
data_CaTiBiO5
_symmetry_space_group_name_H-M   'P 1'
_cell_length_a   5.59250100
_cell_length_b   11.34420300
_cell_length_c   16.01546600
_cell_angle_alpha   90.00000000
_cell_angle_beta   90.00000000
_cell_angle_gamma   90.00000000
_symmetry_Int_Tables_number   1
_chemical_formula_structural   CaTiBiO5
_chemical_formula_sum   'Ca8 Ti8 Bi8 O40'
_cell_volume   1016.06066714
_cell_formula_units_Z   8
loop_
 _symmetry_equiv_pos_site_id
 _symmetry_equiv_pos_as_xyz
  1  'x, y, z'
loop_
 _atom_site_type_symbol
 _atom_site_label
 _atom_site_symmetry_multiplicity
 _atom_site_fract_x
 _atom_site_fract_y
 _atom_site_fract_z
 _atom_site_occupancy
  Ca  Ca0  1  0.49513500  0.36043800  0.45389600  1
  Ca  Ca1  1  0.99513500  0.13956200  0.45389600  1
  Ca  Ca2  1  0.99513500  0.63956200  0.04610400  1
  Ca  Ca3  1  0.00486500  0.36043800  0.95389600  1
  Ca  Ca4  1  0.50486500  0.13956200  0.95389600  1
  Ca  Ca5  1  0.00486500  0.86043800  0.54610400  1
  Ca  Ca6  1  0.50486500  0.63956200  0.54610400  1
  Ca  Ca7  1  0.49513500  0.86043800  0.04610400  1
  Ti  Ti8  1  0.98667700  0.39974500  0.59821300  1
  Ti  Ti9  1  0.51332300  0.89974500  0.40178700  1
  Ti  Ti10  1  0.01332300  0.60025500  0.40178700  1
  Ti  Ti11  1  0.48667700  0.10025500  0.59821300  1
  Ti  Ti12  1  0.01332300  0.10025500  0.09821300  1
  Ti  Ti13  1  0.98667700  0.89974500  0.90178700  1
  Ti  Ti14  1  0.51332300  0.39974500  0.09821300  1
  Ti  Ti15  1  0.48667700  0.60025500  0.90178700  1
  Bi  Bi16  1  0.93734100  0.84207400  0.22895400  1
  Bi  Bi17  1  0.06265900  0.15792600  0.77104600  1
  Bi  Bi18  1  0.56265900  0.34207400  0.77104600  1
  Bi  Bi19  1  0.06265900  0.65792600  0.72895400  1
  Bi  Bi20  1  0.43734100  0.15792600  0.27104600  1
  Bi  Bi21  1  0.43734100  0.65792600  0.22895400  1
  Bi  Bi22  1  0.56265900  0.84207400  0.72895400  1
  Bi  Bi23  1  0.93734100  0.34207400  0.27104600  1
  O  O24  1  0.89126900  0.30639000  0.69369000  1
  O  O25  1  0.28353900  0.03914700  0.05772400  1
  O  O26  1  0.21646200  0.53914700  0.94227600  1
  O  O27  1  0.24387900  0.77995900  0.15422800  1
  O  O28  1  0.25612100  0.27995900  0.84577200  1
  O  O29  1  0.89126900  0.80639000  0.80631000  1
  O  O30  1  0.25612100  0.77995900  0.65422800  1
  O  O31  1  0.60873100  0.80639000  0.30631000  1
  O  O32  1  0.28353900  0.53914700  0.44227600  1
  O  O33  1  0.10873100  0.69361000  0.30631000  1
  O  O34  1  0.60873100  0.30639000  0.19369000  1
  O  O35  1  0.63699100  0.19012800  0.52508200  1
  O  O36  1  0.78353900  0.96085300  0.44227600  1
  O  O37  1  0.75612100  0.72004100  0.65422800  1
  O  O38  1  0.19249100  0.01845200  0.85591000  1
  O  O39  1  0.78353900  0.46085300  0.05772400  1
  O  O40  1  0.10873100  0.19361000  0.19369000  1
  O  O41  1  0.74387900  0.22004100  0.34577200  1
  O  O42  1  0.13699100  0.80987200  0.97491800  1
  O  O43  1  0.21646200  0.03914700  0.55772400  1
  O  O44  1  0.36300900  0.80987200  0.47491800  1
  O  O45  1  0.80750900  0.98154800  0.14409000  1
  O  O46  1  0.75612100  0.22004100  0.84577200  1
  O  O47  1  0.69249100  0.98154800  0.64409000  1
  O  O48  1  0.36300900  0.30987200  0.02508200  1
  O  O49  1  0.13699100  0.30987200  0.52508200  1
  O  O50  1  0.71646100  0.46085300  0.55772400  1
  O  O51  1  0.71646100  0.96085300  0.94227600  1
  O  O52  1  0.69249100  0.48154800  0.85591000  1
  O  O53  1  0.86300900  0.69012800  0.47491800  1
  O  O54  1  0.86300900  0.19012800  0.02508200  1
  O  O55  1  0.63699100  0.69012800  0.97491800  1
  O  O56  1  0.80750900  0.48154800  0.35591000  1
  O  O57  1  0.74387900  0.72004100  0.15422800  1
  O  O58  1  0.24387900  0.27995900  0.34577200  1
  O  O59  1  0.19249100  0.51845200  0.64409000  1
  O  O60  1  0.30750900  0.51845200  0.14409000  1
  O  O61  1  0.39126900  0.19361000  0.69369000  1
  O  O62  1  0.30750900  0.01845200  0.35591000  1
  O  O63  1  0.39126900  0.69361000  0.80631000  1
