# generated using pymatgen
data_Fe2O3
_symmetry_space_group_name_H-M   'P 1'
_cell_length_a   10.65193596
_cell_length_b   9.69261434
_cell_length_c   9.52475547
_cell_angle_alpha   87.46853296
_cell_angle_beta   89.30300677
_cell_angle_gamma   89.15374467
_symmetry_Int_Tables_number   1
_chemical_formula_structural   Fe2O3
_chemical_formula_sum   'Fe32 O48'
_cell_volume   982.25233594
_cell_formula_units_Z   16
loop_
 _symmetry_equiv_pos_site_id
 _symmetry_equiv_pos_as_xyz
  1  'x, y, z'
loop_
 _atom_site_type_symbol
 _atom_site_label
 _atom_site_symmetry_multiplicity
 _atom_site_fract_x
 _atom_site_fract_y
 _atom_site_fract_z
 _atom_site_occupancy
  Fe  Fe0  1  0.63870000  0.99996100  0.08996000  1
  Fe  Fe1  1  0.27818200  0.00438800  0.60698200  1
  Fe  Fe2  1  0.68065300  0.82016200  0.83042200  1
  Fe  Fe3  1  0.82093500  0.05931000  0.34180700  1
  Fe  Fe4  1  0.40221100  0.27714400  0.21850600  1
  Fe  Fe5  1  0.42418600  0.34474500  0.57102300  1
  Fe  Fe6  1  0.44435700  0.12510800  0.86061400  1
  Fe  Fe7  1  0.56725500  0.58262900  0.05706400  1
  Fe  Fe8  1  0.13307500  0.47632000  0.62808400  1
  Fe  Fe9  1  0.36834500  0.44321200  0.87933600  1
  Fe  Fe10  1  0.92489100  0.02257900  0.04187000  1
  Fe  Fe11  1  0.94817400  0.00899400  0.62796700  1
  Fe  Fe12  1  0.62567100  0.49301900  0.74673300  1
  Fe  Fe13  1  0.08087700  0.21678300  0.35005700  1
  Fe  Fe14  1  0.33171900  0.56140800  0.24153000  1
  Fe  Fe15  1  0.38833300  0.80211600  0.91576600  1
  Fe  Fe16  1  0.20470900  0.08465800  0.05333900  1
  Fe  Fe17  1  0.68051300  0.52218400  0.43656700  1
  Fe  Fe18  1  0.44033800  0.73450400  0.57014400  1
  Fe  Fe19  1  0.10186400  0.35639900  0.05154400  1
  Fe  Fe20  1  0.75993800  0.72937800  0.21250400  1
  Fe  Fe21  1  0.01995100  0.53277700  0.31730200  1
  Fe  Fe22  1  0.10728700  0.73157200  0.10946400  1
  Fe  Fe23  1  0.55189500  0.05014600  0.39204500  1
  Fe  Fe24  1  0.66203100  0.26295800  0.01083200  1
  Fe  Fe25  1  0.13125700  0.80338400  0.80569100  1
  Fe  Fe26  1  0.83788800  0.46167700  0.10868100  1
  Fe  Fe27  1  0.87915600  0.34868100  0.55481900  1
  Fe  Fe28  1  0.07854200  0.91290400  0.35267200  1
  Fe  Fe29  1  0.37074000  0.85016800  0.27407900  1
  Fe  Fe30  1  0.92064000  0.55648100  0.79158500  1
  Fe  Fe31  1  0.75232500  0.82183500  0.55770100  1
  O  O32  1  0.70740600  0.37500400  0.60147700  1
  O  O33  1  0.68090900  0.74198700  0.02597500  1
  O  O34  1  0.52568000  0.53764800  0.56555300  1
  O  O35  1  0.04820200  0.16118400  0.99082600  1
  O  O36  1  0.86657500  0.51058300  0.43570000  1
  O  O37  1  0.68315300  0.15279800  0.24114800  1
  O  O38  1  0.31799300  0.81335700  0.70763800  1
  O  O39  1  0.37858000  0.15379300  0.66628200  1
  O  O40  1  0.16518600  0.52752800  0.16427200  1
  O  O41  1  0.98266800  0.38912300  0.70798700  1
  O  O42  1  0.48098100  0.22765200  0.40207600  1
  O  O43  1  0.49219900  0.17616800  0.05746300  1
  O  O44  1  0.22707600  0.70656100  0.94968300  1
  O  O45  1  0.92209000  0.16954700  0.49100300  1
  O  O46  1  0.50779400  0.33146100  0.79803800  1
  O  O47  1  0.16525800  0.05574400  0.44872800  1
  O  O48  1  0.31025400  0.99704400  0.92069600  1
  O  O49  1  0.24912500  0.31287400  0.93931200  1
  O  O50  1  0.76361900  0.63621200  0.73307300  1
  O  O51  1  0.76818700  0.10204600  0.96969000  1
  O  O52  1  0.21126700  0.91325300  0.18530900  1
  O  O53  1  0.96932600  0.35073200  0.21626200  1
  O  O54  1  0.69948300  0.00760600  0.48921800  1
  O  O55  1  0.35200000  0.68544600  0.39471800  1
  O  O56  1  0.91431200  0.63591100  0.16706500  1
  O  O57  1  0.82169700  0.91077200  0.73546000  1
  O  O58  1  0.10211700  0.39449700  0.45156400  1
  O  O59  1  0.40671700  0.93072400  0.46735300  1
  O  O60  1  0.06377800  0.64943500  0.70438800  1
  O  O61  1  0.54663300  0.94597700  0.90475400  1
  O  O62  1  0.70155100  0.45443700  0.95616600  1
  O  O63  1  0.35652000  0.41188300  0.37089100  1
  O  O64  1  0.48624800  0.61079300  0.86557200  1
  O  O65  1  0.92331600  0.88824100  0.47401500  1
  O  O66  1  0.10842300  0.97843800  0.70736900  1
  O  O67  1  0.80028500  0.92112600  0.18492000  1
  O  O68  1  0.99026700  0.06298500  0.24478000  1
  O  O69  1  0.97029600  0.47587400  0.96514400  1
  O  O70  1  0.22353100  0.22137300  0.20356800  1
  O  O71  1  0.69127100  0.72126600  0.40271700  1
  O  O72  1  0.52382800  0.93906100  0.23243200  1
  O  O73  1  0.09038400  0.72072900  0.32234600  1
  O  O74  1  0.30051500  0.45513700  0.67963000  1
  O  O75  1  0.58663000  0.80627400  0.65843800  1
  O  O76  1  0.41961200  0.71557800  0.12365200  1
  O  O77  1  0.42919200  0.44658000  0.10057700  1
  O  O78  1  0.01803700  0.85732000  0.97659500  1
  O  O79  1  0.67913600  0.52046300  0.22457800  1
