# generated using pymatgen
data_Zn
_symmetry_space_group_name_H-M   'P 1'
_cell_length_a   11.75322960
_cell_length_b   11.77519097
_cell_length_c   11.75334136
_cell_angle_alpha   94.29696365
_cell_angle_beta   87.13302335
_cell_angle_gamma   94.74393575
_symmetry_Int_Tables_number   1
_chemical_formula_structural   Zn
_chemical_formula_sum   Zn100
_cell_volume   1614.92028409
_cell_formula_units_Z   100
loop_
 _symmetry_equiv_pos_site_id
 _symmetry_equiv_pos_as_xyz
  1  'x, y, z'
loop_
 _atom_site_type_symbol
 _atom_site_label
 _atom_site_symmetry_multiplicity
 _atom_site_fract_x
 _atom_site_fract_y
 _atom_site_fract_z
 _atom_site_occupancy
  Zn  Zn0  1  0.91297883  0.67880817  0.57163803  1
  Zn  Zn1  1  0.30180527  0.13135976  0.12077695  1
  Zn  Zn2  1  0.98340332  0.30185474  0.33855445  1
  Zn  Zn3  1  0.26642330  0.51187345  0.20683342  1
  Zn  Zn4  1  0.09546118  0.16022850  0.43471292  1
  Zn  Zn5  1  0.38375333  0.85797823  0.64115451  1
  Zn  Zn6  1  0.58087150  0.94505982  0.17629680  1
  Zn  Zn7  1  0.19362376  0.13517861  0.81118836  1
  Zn  Zn8  1  0.34768530  0.42774109  0.98678032  1
  Zn  Zn9  1  0.55825173  0.75547444  0.37434419  1
  Zn  Zn10  1  0.71998268  0.22998573  0.60292071  1
  Zn  Zn11  1  0.66022093  0.32259732  0.20357149  1
  Zn  Zn12  1  0.28420504  0.64984168  0.00552513  1
  Zn  Zn13  1  0.09642618  0.09744053  0.20896073  1
  Zn  Zn14  1  0.63137769  0.19775400  0.86246157  1
  Zn  Zn15  1  0.68685094  0.73492460  0.54420216  1
  Zn  Zn16  1  0.15053395  0.33060287  0.92082427  1
  Zn  Zn17  1  0.47963499  0.05395696  0.01841023  1
  Zn  Zn18  1  0.25552822  0.96107555  0.27198658  1
  Zn  Zn19  1  0.74858948  0.66661020  0.33357897  1
  Zn  Zn20  1  0.85939513  0.30925132  0.76712839  1
  Zn  Zn21  1  0.59885673  0.55212572  0.95575799  1
  Zn  Zn22  1  0.40730154  0.34970735  0.22141220  1
  Zn  Zn23  1  0.08230475  0.91293113  0.95400560  1
  Zn  Zn24  1  0.13165735  0.79522598  0.55492914  1
  Zn  Zn25  1  0.86612679  0.54051045  0.75488014  1
  Zn  Zn26  1  0.88866112  0.26206145  0.14513440  1
  Zn  Zn27  1  0.46057123  0.65979614  0.59734953  1
  Zn  Zn28  1  0.05323120  0.56535403  0.87018206  1
  Zn  Zn29  1  0.08611336  0.38551161  0.70994851  1
  Zn  Zn30  1  0.55993744  0.46835554  0.58745442  1
  Zn  Zn31  1  0.69173783  0.13231764  0.10261347  1
  Zn  Zn32  1  0.98358782  0.13096390  0.76450469  1
  Zn  Zn33  1  0.19437500  0.81125438  0.77228241  1
  Zn  Zn34  1  0.84229965  0.46276490  0.30468856  1
  Zn  Zn35  1  0.06301554  0.50657452  0.29111052  1
  Zn  Zn36  1  0.65952117  0.62655061  0.72982157  1
  Zn  Zn37  1  0.51850159  0.31488802  0.02986234  1
  Zn  Zn38  1  0.63843650  0.73714205  0.12620263  1
  Zn  Zn39  1  0.75275649  0.25288378  0.38247567  1
  Zn  Zn40  1  0.94436087  0.37824747  0.95967268  1
  Zn  Zn41  1  0.34658094  0.75867643  0.43841027  1
  Zn  Zn42  1  0.50872575  0.26736474  0.68120388  1
  Zn  Zn43  1  0.87476675  0.79937856  0.05317257  1
  Zn  Zn44  1  0.15236014  0.74267842  0.31071271  1
  Zn  Zn45  1  0.89216804  0.02266857  0.09580779  1
  Zn  Zn46  1  0.85583046  0.58201243  0.00837540  1
  Zn  Zn47  1  0.21845338  0.36030895  0.37721339  1
  Zn  Zn48  1  0.40399186  0.19166108  0.87786306  1
  Zn  Zn49  1  0.19898528  0.58645723  0.44575675  1
  Zn  Zn50  1  0.12344705  0.61198082  0.65989217  1
  Zn  Zn51  1  0.97021300  0.74936236  0.80626147  1
  Zn  Zn52  1  0.40180643  0.73526356  0.81436470  1
  Zn  Zn53  1  0.46960651  0.96412571  0.37364000  1
  Zn  Zn54  1  0.62825064  0.46023536  0.38143907  1
  Zn  Zn55  1  0.42453746  0.55097420  0.36480909  1
  Zn  Zn56  1  0.32623662  0.15657048  0.36461689  1
  Zn  Zn57  1  0.25153490  0.85998810  0.07595990  1
  Zn  Zn58  1  0.06462224  0.13693528  0.99598953  1
  Zn  Zn59  1  0.02160271  0.87811647  0.20900075  1
  Zn  Zn60  1  0.94162816  0.65935524  0.22843985  1
  Zn  Zn61  1  0.87899837  0.93617599  0.87463721  1
  Zn  Zn62  1  0.24779176  0.23977307  0.57253864  1
  Zn  Zn63  1  0.07436512  0.71374167  0.04849268  1
  Zn  Zn64  1  0.30362663  0.47097156  0.58506087  1
  Zn  Zn65  1  0.43798139  0.34019345  0.44941433  1
  Zn  Zn66  1  0.39491517  0.79446433  0.21894339  1
  Zn  Zn67  1  0.51271458  0.15269710  0.24091195  1
  Zn  Zn68  1  0.89891182  0.07827114  0.32008910  1
  Zn  Zn69  1  0.77689444  0.87898837  0.24185604  1
  Zn  Zn70  1  0.72271387  0.73981061  0.91264896  1
  Zn  Zn71  1  0.67188945  0.40941015  0.76886872  1
  Zn  Zn72  1  0.50454302  0.97040897  0.79984979  1
  Zn  Zn73  1  0.45269850  0.59621918  0.12588852  1
  Zn  Zn74  1  0.94533246  0.27769284  0.56208143  1
  Zn  Zn75  1  0.67838223  0.84602000  0.74141336  1
  Zn  Zn76  1  0.28117368  0.97146629  0.49258830  1
  Zn  Zn77  1  0.73193882  0.38493045  0.99187234  1
  Zn  Zn78  1  0.77891127  0.49156981  0.54020259  1
  Zn  Zn79  1  0.37345734  0.08129996  0.66806563  1
  Zn  Zn80  1  0.46649009  0.50218898  0.78906737  1
  Zn  Zn81  1  0.06431354  0.93894843  0.42055636  1
  Zn  Zn82  1  0.00060045  0.48099214  0.51063023  1
  Zn  Zn83  1  0.29527982  0.98202456  0.90196636  1
  Zn  Zn84  1  0.86289867  0.84069643  0.43663896  1
  Zn  Zn85  1  0.83857736  0.16366860  0.93449617  1
  Zn  Zn86  1  0.75841503  0.06020597  0.73364944  1
  Zn  Zn87  1  0.30810507  0.33585295  0.76250351  1
  Zn  Zn88  1  0.65094869  0.52979461  0.17278455  1
  Zn  Zn89  1  0.91769572  0.88937459  0.65613052  1
  Zn  Zn90  1  0.54157733  0.16108563  0.48225031  1
  Zn  Zn91  1  0.47872741  0.81449270  0.00298376  1
  Zn  Zn92  1  0.59964193  0.96201159  0.58284401  1
  Zn  Zn93  1  0.88809853  0.06000021  0.54137080  1
  Zn  Zn94  1  0.66977638  0.96191193  0.94818686  1
  Zn  Zn95  1  0.69122165  0.02417931  0.39089710  1
  Zn  Zn96  1  0.26153629  0.55055930  0.80291332  1
  Zn  Zn97  1  0.15584876  0.30570198  0.14833696  1
  Zn  Zn98  1  0.12007333  0.03738188  0.62367565  1
  Zn  Zn99  1  0.09761699  0.50101606  0.07058294  1
