# generated using pymatgen
data_KCN
_symmetry_space_group_name_H-M   'P 1'
_cell_length_a   4.49356052
_cell_length_b   4.49356052
_cell_length_c   8.21991542
_cell_angle_alpha   73.92917851
_cell_angle_beta   73.92917851
_cell_angle_gamma   63.08609920
_symmetry_Int_Tables_number   1
_chemical_formula_structural   KCN
_chemical_formula_sum   'K2 C2 N2'
_cell_volume   139.97480141
_cell_formula_units_Z   2
loop_
 _symmetry_equiv_pos_site_id
 _symmetry_equiv_pos_as_xyz
  1  'x, y, z'
loop_
 _atom_site_type_symbol
 _atom_site_label
 _atom_site_symmetry_multiplicity
 _atom_site_fract_x
 _atom_site_fract_y
 _atom_site_fract_z
 _atom_site_occupancy
  K  K0  1  0.45431300  0.06662400  0.45881400  1
  K  K1  1  0.06662400  0.45431300  0.95881400  1
  C  C2  1  0.68483900  0.37179100  0.66831700  1
  C  C3  1  0.37179100  0.68483900  0.16831700  1
  N  N4  1  0.83150600  0.14492700  0.76987000  1
  N  N5  1  0.14492700  0.83150600  0.26987000  1
