# generated using pymatgen
data_Cr7FeO12
_symmetry_space_group_name_H-M   'P 1'
_cell_length_a   10.05306434
_cell_length_b   10.17296806
_cell_length_c   9.29886966
_cell_angle_alpha   88.43103070
_cell_angle_beta   88.39264097
_cell_angle_gamma   91.14206696
_symmetry_Int_Tables_number   1
_chemical_formula_structural   Cr7FeO12
_chemical_formula_sum   'Cr28 Fe4 O48'
_cell_volume   950.05626821
_cell_formula_units_Z   4
loop_
 _symmetry_equiv_pos_site_id
 _symmetry_equiv_pos_as_xyz
  1  'x, y, z'
loop_
 _atom_site_type_symbol
 _atom_site_label
 _atom_site_symmetry_multiplicity
 _atom_site_fract_x
 _atom_site_fract_y
 _atom_site_fract_z
 _atom_site_occupancy
  Cr  Cr0  1  0.27945800  0.17840500  0.45997700  1
  Cr  Cr1  1  0.07747700  0.36951800  0.02856700  1
  Cr  Cr2  1  0.30636300  0.85615900  0.25245800  1
  Cr  Cr3  1  0.60521900  0.96055000  0.07069000  1
  Cr  Cr4  1  0.60789000  0.32038600  0.06029600  1
  Cr  Cr5  1  0.63528200  0.36205500  0.44545400  1
  Cr  Cr6  1  0.05355500  0.68766200  0.30206900  1
  Cr  Cr7  1  0.40914500  0.74190700  0.82101400  1
  Cr  Cr8  1  0.46413100  0.28937500  0.70727700  1
  Cr  Cr9  1  0.70170400  0.01120500  0.68051000  1
  Cr  Cr10  1  0.88043000  0.14471800  0.89672900  1
  Cr  Cr11  1  0.29470000  0.53986500  0.27062500  1
  Cr  Cr12  1  0.20635400  0.58263900  0.67511800  1
  Cr  Cr13  1  0.48154900  0.63026400  0.47702100  1
  Cr  Cr14  1  0.75086300  0.86046800  0.40161300  1
  Cr  Cr15  1  0.97143700  0.13349400  0.51561200  1
  Cr  Cr16  1  0.71764000  0.65043000  0.93563400  1
  Cr  Cr17  1  0.98007300  0.41956300  0.42201000  1
  Cr  Cr18  1  0.83423600  0.46890300  0.14585700  1
  Cr  Cr19  1  0.96122300  0.85939100  0.72720500  1
  Cr  Cr20  1  0.80893100  0.37195600  0.74083200  1
  Cr  Cr21  1  0.15953600  0.28384800  0.74113300  1
  Cr  Cr22  1  0.50794500  0.07259900  0.35344900  1
  Cr  Cr23  1  0.19297800  0.02391100  0.91786000  1
  Cr  Cr24  1  0.87746000  0.90536300  0.03147700  1
  Cr  Cr25  1  0.73247300  0.62160700  0.63597800  1
  Cr  Cr26  1  0.32466100  0.24198400  0.08804600  1
  Cr  Cr27  1  0.21272400  0.87046600  0.57329400  1
  Fe  Fe28  1  0.08559200  0.69629500  0.98806500  1
  Fe  Fe29  1  0.05499600  0.99377400  0.24883500  1
  Fe  Fe30  1  0.42549600  0.01617900  0.77323800  1
  Fe  Fe31  1  0.82261800  0.18519700  0.25094400  1
  O  O32  1  0.63221000  0.98185200  0.48763300  1
  O  O33  1  0.49799500  0.23210100  0.49834200  1
  O  O34  1  0.87924500  0.01167800  0.37198000  1
  O  O35  1  0.83805000  0.26789500  0.43966700  1
  O  O36  1  0.11416100  0.13332300  0.36140200  1
  O  O37  1  0.22418400  0.99452100  0.11807800  1
  O  O38  1  0.65328400  0.51540700  0.05995400  1
  O  O39  1  0.75873600  0.29055800  0.93684500  1
  O  O40  1  0.84168800  0.14726500  0.68805400  1
  O  O41  1  0.98809500  0.32049200  0.83615600  1
  O  O42  1  0.45588100  0.28526200  0.93992000  1
  O  O43  1  0.80858900  0.54897500  0.80589800  1
  O  O44  1  0.80554200  0.82380700  0.60973500  1
  O  O45  1  0.21180000  0.68927600  0.16814300  1
  O  O46  1  0.18441100  0.21635200  0.94974700  1
  O  O47  1  0.25095600  0.63270600  0.86772800  1
  O  O48  1  0.99802200  0.82345500  0.16005700  1
  O  O49  1  0.48466000  0.92563700  0.22477600  1
  O  O50  1  0.63265300  0.12270900  0.16770800  1
  O  O51  1  0.08663300  0.73462600  0.65266000  1
  O  O52  1  0.14690000  0.54619300  0.41776200  1
  O  O53  1  0.27614900  0.89086400  0.78493200  1
  O  O54  1  0.06792300  0.98982700  0.61138100  1
  O  O55  1  0.92129300  0.08937500  0.10488400  1
  O  O56  1  0.30131600  0.16120400  0.68904800  1
  O  O57  1  0.74716300  0.99569300  0.90486300  1
  O  O58  1  0.57259400  0.13170300  0.74786700  1
  O  O59  1  0.72559400  0.85578100  0.16140900  1
  O  O60  1  0.01227300  0.98253700  0.88390000  1
  O  O61  1  0.29821500  0.41373200  0.69167700  1
  O  O62  1  0.64791800  0.69079600  0.45722600  1
  O  O63  1  0.34391800  0.99663800  0.45796200  1
  O  O64  1  0.98480700  0.53018600  0.02532200  1
  O  O65  1  0.35867700  0.69801300  0.61497300  1
  O  O66  1  0.90268600  0.56737200  0.30242400  1
  O  O67  1  0.49123400  0.89190800  0.93233000  1
  O  O68  1  0.96537600  0.33488400  0.20126600  1
  O  O69  1  0.62661100  0.41511300  0.65058700  1
  O  O70  1  0.14391700  0.84601900  0.37583700  1
  O  O71  1  0.37791000  0.19627500  0.27156800  1
  O  O72  1  0.59191700  0.68627400  0.78529600  1
  O  O73  1  0.47522900  0.47401500  0.39265200  1
  O  O74  1  0.69920700  0.34433100  0.24241300  1
  O  O75  1  0.39147200  0.69835600  0.33081600  1
  O  O76  1  0.86770100  0.48903200  0.57108100  1
  O  O77  1  0.23891000  0.40232600  0.14165000  1
  O  O78  1  0.08866900  0.29261800  0.55069700  1
  O  O79  1  0.88546200  0.76097100  0.90317300  1
