# generated using pymatgen
data_Al2O3
_symmetry_space_group_name_H-M   'P 1'
_cell_length_a   10.32268187
_cell_length_b   9.90617584
_cell_length_c   11.17170344
_cell_angle_alpha   94.77100555
_cell_angle_beta   90.88144249
_cell_angle_gamma   93.16483802
_symmetry_Int_Tables_number   1
_chemical_formula_structural   Al2O3
_chemical_formula_sum   'Al40 O60'
_cell_volume   1136.47569995
_cell_formula_units_Z   20
loop_
 _symmetry_equiv_pos_site_id
 _symmetry_equiv_pos_as_xyz
  1  'x, y, z'
loop_
 _atom_site_type_symbol
 _atom_site_label
 _atom_site_symmetry_multiplicity
 _atom_site_fract_x
 _atom_site_fract_y
 _atom_site_fract_z
 _atom_site_occupancy
  Al  Al0  1  0.82520400  0.38159100  0.76695900  1
  Al  Al1  1  0.61077500  0.81352700  0.18192200  1
  Al  Al2  1  0.63231000  0.74833800  0.73822300  1
  Al  Al3  1  0.09237800  0.73204000  0.33556700  1
  Al  Al4  1  0.89476500  0.51150300  0.18991000  1
  Al  Al5  1  0.30253500  0.87039100  0.52537700  1
  Al  Al6  1  0.05023100  0.62105000  0.72336300  1
  Al  Al7  1  0.01257900  0.20464000  0.56483400  1
  Al  Al8  1  0.54642600  0.27399200  0.16091400  1
  Al  Al9  1  0.81787500  0.25638200  0.00788800  1
  Al  Al10  1  0.31563000  0.59481200  0.46523800  1
  Al  Al11  1  0.21181500  0.41475900  0.65424000  1
  Al  Al12  1  0.74030100  0.40658400  0.42908300  1
  Al  Al13  1  0.84965000  0.72080700  0.53125200  1
  Al  Al14  1  0.45587700  0.98577600  0.06732000  1
  Al  Al15  1  0.06115100  0.90096800  0.66263700  1
  Al  Al16  1  0.13776800  0.04088700  0.14929500  1
  Al  Al17  1  0.72797000  0.92545200  0.94878100  1
  Al  Al18  1  0.57606700  0.26573300  0.62048100  1
  Al  Al19  1  0.47949700  0.07765600  0.38312100  1
  Al  Al20  1  0.50254300  0.01808000  0.77142900  1
  Al  Al21  1  0.19299100  0.60090500  0.94043300  1
  Al  Al22  1  0.87350500  0.65563800  0.92653400  1
  Al  Al23  1  0.02747000  0.98728000  0.42845300  1
  Al  Al24  1  0.35181800  0.84326700  0.24196800  1
  Al  Al25  1  0.42363500  0.35489500  0.41648300  1
  Al  Al26  1  0.11126700  0.32106700  0.04123100  1
  Al  Al27  1  0.61877600  0.46923900  0.85934600  1
  Al  Al28  1  0.04065100  0.88591700  0.89657400  1
  Al  Al29  1  0.76081600  0.08378700  0.47129500  1
  Al  Al30  1  0.88839600  0.94886800  0.21448900  1
  Al  Al31  1  0.59952700  0.54822900  0.28627100  1
  Al  Al32  1  0.58471700  0.80459600  0.46703400  1
  Al  Al33  1  0.28439900  0.13135200  0.98111100  1
  Al  Al34  1  0.32890400  0.82349200  0.80231600  1
  Al  Al35  1  0.48059300  0.68480900  0.93674900  1
  Al  Al36  1  0.33529400  0.55054800  0.18339100  1
  Al  Al37  1  0.06317400  0.20283100  0.80427700  1
  Al  Al38  1  0.87944100  0.22067300  0.24342000  1
  Al  Al39  1  0.98623000  0.48140500  0.44262400  1
  O  O40  1  0.05984300  0.90984900  0.26659200  1
  O  O41  1  0.20419900  0.20874900  0.12287200  1
  O  O42  1  0.75675700  0.09370900  0.97042100  1
  O  O43  1  0.90528300  0.04139500  0.54622400  1
  O  O44  1  0.47576900  0.22445900  0.29787600  1
  O  O45  1  0.91903700  0.26244000  0.69347000  1
  O  O46  1  0.18430100  0.52508700  0.78594000  1
  O  O47  1  0.14791500  0.95262000  0.54133100  1
  O  O48  1  0.74360200  0.37052600  0.91112100  1
  O  O49  1  0.95434900  0.75250900  0.65629500  1
  O  O50  1  0.38580600  0.98722600  0.89570900  1
  O  O51  1  0.15237100  0.24648400  0.66468100  1
  O  O52  1  0.89758500  0.32842800  0.38676700  1
  O  O53  1  0.56397700  0.84680400  0.01252000  1
  O  O54  1  0.46698900  0.71512300  0.77495400  1
  O  O55  1  0.60834200  0.98614900  0.46578700  1
  O  O56  1  0.52328800  0.96097000  0.22569400  1
  O  O57  1  0.95519500  0.34825600  0.14327300  1
  O  O58  1  0.87116800  0.83953000  0.91169600  1
  O  O59  1  0.16358400  0.79798900  0.75041300  1
  O  O60  1  0.07676300  0.16123300  0.42148600  1
  O  O61  1  0.97658800  0.27841200  0.93041300  1
  O  O62  1  0.45380500  0.70233600  0.16843200  1
  O  O63  1  0.03122800  0.01855300  0.78218600  1
  O  O64  1  0.84008000  0.54318100  0.50826800  1
  O  O65  1  0.45679200  0.16435600  0.05048400  1
  O  O66  1  0.91159900  0.54054900  0.79145200  1
  O  O67  1  0.20847400  0.49099700  0.06158400  1
  O  O68  1  0.19166700  0.71307800  0.47332900  1
  O  O69  1  0.20865700  0.24796900  0.89855500  1
  O  O70  1  0.72169500  0.25422600  0.15994900  1
  O  O71  1  0.33819800  0.45450900  0.55469100  1
  O  O72  1  0.50189300  0.44979100  0.17398100  1
  O  O73  1  0.01557400  0.56566000  0.30958700  1
  O  O74  1  0.81757300  0.06474700  0.32295300  1
  O  O75  1  0.96735100  0.09028600  0.15463500  1
  O  O76  1  0.14063300  0.99435600  0.98965900  1
  O  O77  1  0.43099700  0.73391200  0.49369300  1
  O  O78  1  0.32866800  0.48201300  0.33319400  1
  O  O79  1  0.94009500  0.80441900  0.41919700  1
  O  O80  1  0.75727100  0.49373400  0.28182800  1
  O  O81  1  0.70451800  0.24910500  0.50837700  1
  O  O82  1  0.23271400  0.70526600  0.24240800  1
  O  O83  1  0.57458500  0.46268900  0.42418100  1
  O  O84  1  0.68975500  0.75736400  0.58427000  1
  O  O85  1  0.54594200  0.17727100  0.74197800  1
  O  O86  1  0.65818800  0.41389100  0.70393400  1
  O  O87  1  0.76793400  0.85601200  0.13323600  1
  O  O88  1  0.69177500  0.64778300  0.85598500  1
  O  O89  1  0.63476600  0.72984600  0.32535000  1
  O  O90  1  0.38171500  0.92340500  0.67021900  1
  O  O91  1  0.64212800  0.91984400  0.79772600  1
  O  O92  1  0.08001300  0.49392200  0.57778300  1
  O  O93  1  0.48323700  0.50992400  0.93699500  1
  O  O94  1  0.44816800  0.21568400  0.51094400  1
  O  O95  1  0.86237700  0.59763200  0.06871400  1
  O  O96  1  0.31577800  0.73119400  0.94381500  1
  O  O97  1  0.05536700  0.70176200  0.92815200  1
  O  O98  1  0.29992100  0.96228800  0.14492700  1
  O  O99  1  0.35287500  0.94429700  0.38925000  1
