# generated using pymatgen
data_ZnS
_symmetry_space_group_name_H-M   'P 1'
_cell_length_a   12.90717697
_cell_length_b   14.15932743
_cell_length_c   12.75675790
_cell_angle_alpha   93.12601868
_cell_angle_beta   88.54079750
_cell_angle_gamma   90.13944415
_symmetry_Int_Tables_number   1
_chemical_formula_structural   ZnS
_chemical_formula_sum   'Zn50 S50'
_cell_volume   2327.16082708
_cell_formula_units_Z   50
loop_
 _symmetry_equiv_pos_site_id
 _symmetry_equiv_pos_as_xyz
  1  'x, y, z'
loop_
 _atom_site_type_symbol
 _atom_site_label
 _atom_site_symmetry_multiplicity
 _atom_site_fract_x
 _atom_site_fract_y
 _atom_site_fract_z
 _atom_site_occupancy
  Zn  Zn0  1  0.54959439  0.93203236  0.35714193  1
  Zn  Zn1  1  0.15327644  0.63204359  0.79811051  1
  Zn  Zn2  1  0.34140611  0.62576596  0.55286634  1
  Zn  Zn3  1  0.07186732  0.28356433  0.44682272  1
  Zn  Zn4  1  0.47399158  0.49862626  0.76005204  1
  Zn  Zn5  1  0.09919466  0.83261167  0.82699390  1
  Zn  Zn6  1  0.57542135  0.14520594  0.23794544  1
  Zn  Zn7  1  0.76562105  0.70259596  0.29775735  1
  Zn  Zn8  1  0.07318174  0.38456029  0.61940977  1
  Zn  Zn9  1  0.33027882  0.25501008  0.20626327  1
  Zn  Zn10  1  0.03764952  0.00630590  0.36576960  1
  Zn  Zn11  1  0.03584918  0.13444145  0.22245688  1
  Zn  Zn12  1  0.36109109  0.80782383  0.73353119  1
  Zn  Zn13  1  0.83517851  0.98535389  0.90003392  1
  Zn  Zn14  1  0.13051362  0.13096596  0.96726598  1
  Zn  Zn15  1  0.18249607  0.81178835  0.24132376  1
  Zn  Zn16  1  0.21813051  0.10196012  0.72661700  1
  Zn  Zn17  1  0.59825917  0.36335583  0.12595769  1
  Zn  Zn18  1  0.87002410  0.26246159  0.93192972  1
  Zn  Zn19  1  0.50653908  0.01325209  0.64362635  1
  Zn  Zn20  1  0.73216871  0.86548280  0.51041540  1
  Zn  Zn21  1  0.56924065  0.64736859  0.36468112  1
  Zn  Zn22  1  0.56368854  0.55450660  0.91439313  1
  Zn  Zn23  1  0.48397402  0.98802182  0.87719817  1
  Zn  Zn24  1  0.72705386  0.12796203  0.78928277  1
  Zn  Zn25  1  0.79318984  0.26010772  0.36222507  1
  Zn  Zn26  1  0.95526438  0.48534623  0.11930608  1
  Zn  Zn27  1  0.97505466  0.96400225  0.18546441  1
  Zn  Zn28  1  0.66919328  0.62792499  0.62470121  1
  Zn  Zn29  1  0.85000463  0.10543864  0.63509717  1
  Zn  Zn30  1  0.32361145  0.05027341  0.28390067  1
  Zn  Zn31  1  0.62668596  0.67987149  0.16860457  1
  Zn  Zn32  1  0.87687734  0.70394176  0.78896470  1
  Zn  Zn33  1  0.08733967  0.40248198  0.28567224  1
  Zn  Zn34  1  0.32334135  0.58622703  0.35649161  1
  Zn  Zn35  1  0.99384946  0.46547053  0.90314738  1
  Zn  Zn36  1  0.45801226  0.52668242  0.12796717  1
  Zn  Zn37  1  0.20874133  0.86768085  0.49585293  1
  Zn  Zn38  1  0.69597966  0.84748928  0.81808423  1
  Zn  Zn39  1  0.65902108  0.26596520  0.64179592  1
  Zn  Zn40  1  0.24469448  0.47395895  0.47459752  1
  Zn  Zn41  1  0.24101424  0.91193858  0.97114433  1
  Zn  Zn42  1  0.96114448  0.76312726  0.07971389  1
  Zn  Zn43  1  0.05087168  0.62338737  0.30752841  1
  Zn  Zn44  1  0.20724257  0.55428364  0.06640486  1
  Zn  Zn45  1  0.48808382  0.90011078  0.10689311  1
  Zn  Zn46  1  0.81706556  0.40210239  0.72447180  1
  Zn  Zn47  1  0.40722866  0.21073367  0.91966423  1
  Zn  Zn48  1  0.91382487  0.58574980  0.54954453  1
  Zn  Zn49  1  0.72515036  0.89450773  0.04133570  1
  S  S50  1  0.07414989  0.60056358  0.95516288  1
  S  S51  1  0.80323662  0.23997345  0.53860307  1
  S  S52  1  0.15031014  0.98989052  0.84332747  1
  S  S53  1  0.00982460  0.64554065  0.68892325  1
  S  S54  1  0.70087280  0.68094922  0.79990779  1
  S  S55  1  0.20416136  0.13470021  0.15506004  1
  S  S56  1  0.53514495  0.12540695  0.80812513  1
  S  S57  1  0.62338656  0.99283654  0.50252335  1
  S  S58  1  0.93997314  0.81553601  0.91129840  1
  S  S59  1  0.71044097  0.30441647  0.82082625  1
  S  S60  1  0.11744222  0.41852581  0.11337626  1
  S  S61  1  0.05309463  0.09442722  0.64366480  1
  S  S62  1  0.26041303  0.76197301  0.87351516  1
  S  S63  1  0.52083849  0.87721645  0.74558846  1
  S  S64  1  0.63738681  0.52053763  0.07242144  1
  S  S65  1  0.10967561  0.86990467  0.09751069  1
  S  S66  1  0.91596440  0.63577108  0.19523027  1
  S  S67  1  0.43563384  0.31149581  0.06813374  1
  S  S68  1  0.24180627  0.21845919  0.86048750  1
  S  S69  1  0.77351513  0.49507199  0.59241075  1
  S  S70  1  0.23061942  0.33824954  0.36210672  1
  S  S71  1  0.84981052  0.41538531  0.00043096  1
  S  S72  1  0.52027240  0.67376769  0.54135660  1
  S  S73  1  0.05210644  0.12813721  0.48967711  1
  S  S74  1  0.29479525  0.54353389  0.71943528  1
  S  S75  1  0.98208594  0.35625988  0.76742344  1
  S  S76  1  0.38304134  0.00002034  0.01980074  1
  S  S77  1  0.42671741  0.17589366  0.32682419  1
  S  S78  1  0.07282022  0.84914370  0.38666040  1
  S  S79  1  0.61287638  0.98882047  0.20198566  1
  S  S80  1  0.78633951  0.71251216  0.47817505  1
  S  S81  1  0.83699045  0.85928272  0.18046172  1
  S  S82  1  0.34981884  0.08083807  0.59582900  1
  S  S83  1  0.48778806  0.28080536  0.61753786  1
  S  S84  1  0.21248578  0.64860103  0.23720322  1
  S  S85  1  0.28858408  0.00652673  0.46739775  1
  S  S86  1  0.37002664  0.58310520  0.00135682  1
  S  S87  1  0.24542769  0.76324977  0.61065141  1
  S  S88  1  0.04039954  0.51487735  0.43174656  1
  S  S89  1  0.52254001  0.42035806  0.60275779  1
  S  S90  1  0.58764998  0.77705518  0.03700210  1
  S  S91  1  0.87394591  0.94715690  0.57447119  1
  S  S92  1  0.69808388  0.25752093  0.21039168  1
  S  S93  1  0.35172197  0.87922027  0.23894570  1
  S  S94  1  0.24991532  0.41569928  0.64123511  1
  S  S95  1  0.47533389  0.51356576  0.30121864  1
  S  S96  1  0.94050991  0.12265248  0.98256384  1
  S  S97  1  0.86316762  0.88949575  0.72154233  1
  S  S98  1  0.42959590  0.81140769  0.35680301  1
  S  S99  1  0.96328307  0.27309499  0.29497975  1
