# generated using pymatgen
data_SbN
_symmetry_space_group_name_H-M   'P 1'
_cell_length_a   16.12463596
_cell_length_b   15.30314963
_cell_length_c   16.34012527
_cell_angle_alpha   90.84895597
_cell_angle_beta   88.01800878
_cell_angle_gamma   89.12989219
_symmetry_Int_Tables_number   1
_chemical_formula_structural   SbN
_chemical_formula_sum   'Sb50 N50'
_cell_volume   4028.70028739
_cell_formula_units_Z   50
loop_
 _symmetry_equiv_pos_site_id
 _symmetry_equiv_pos_as_xyz
  1  'x, y, z'
loop_
 _atom_site_type_symbol
 _atom_site_label
 _atom_site_symmetry_multiplicity
 _atom_site_fract_x
 _atom_site_fract_y
 _atom_site_fract_z
 _atom_site_occupancy
  Sb  Sb0  1  0.99726098  0.85498320  0.60216319  1
  Sb  Sb1  1  0.59836110  0.35397037  0.51619214  1
  Sb  Sb2  1  0.56696796  0.15424161  0.40182669  1
  Sb  Sb3  1  0.30400696  0.36341594  0.27947803  1
  Sb  Sb4  1  0.94912820  0.00360051  0.49423986  1
  Sb  Sb5  1  0.21056972  0.84257353  0.59910937  1
  Sb  Sb6  1  0.37986195  0.74225105  0.51586561  1
  Sb  Sb7  1  0.56137281  0.23658571  0.68438383  1
  Sb  Sb8  1  0.23648894  0.26309466  0.14916422  1
  Sb  Sb9  1  0.86774767  0.44162904  0.30391095  1
  Sb  Sb10  1  0.49121378  0.28436399  0.99206093  1
  Sb  Sb11  1  0.03746142  0.38274407  0.29897910  1
  Sb  Sb12  1  0.57608042  0.47476531  0.06071395  1
  Sb  Sb13  1  0.81770041  0.70074505  0.71186795  1
  Sb  Sb14  1  0.50350527  0.61804607  0.74924803  1
  Sb  Sb15  1  0.85703303  0.78132744  0.52040366  1
  Sb  Sb16  1  0.53669426  0.53213658  0.27057473  1
  Sb  Sb17  1  0.16620301  0.57001331  0.50106130  1
  Sb  Sb18  1  0.22031561  0.65789421  0.65213794  1
  Sb  Sb19  1  0.39057882  0.53737359  0.63693644  1
  Sb  Sb20  1  0.59260759  0.67308954  0.60124240  1
  Sb  Sb21  1  0.20712916  0.55455114  0.30879218  1
  Sb  Sb22  1  0.18992655  0.21774934  0.43038972  1
  Sb  Sb23  1  0.25819920  0.73224967  0.26760290  1
  Sb  Sb24  1  0.77029835  0.21270314  0.42780890  1
  Sb  Sb25  1  0.77421731  0.03971269  0.52467577  1
  Sb  Sb26  1  0.68281447  0.46595169  0.69774548  1
  Sb  Sb27  1  0.66071001  0.79226074  0.72432212  1
  Sb  Sb28  1  0.71484011  0.15600230  0.25809435  1
  Sb  Sb29  1  0.09292934  0.08392521  0.27790954  1
  Sb  Sb30  1  0.79909904  0.88923575  0.66267569  1
  Sb  Sb31  1  0.47594277  0.37512360  0.36915626  1
  Sb  Sb32  1  0.82598067  0.93020747  0.39429959  1
  Sb  Sb33  1  0.21011369  0.08069266  0.15368277  1
  Sb  Sb34  1  0.59568334  0.30199511  0.20617460  1
  Sb  Sb35  1  0.65486614  0.59194495  0.88550251  1
  Sb  Sb36  1  0.49680203  0.55335887  0.48410408  1
  Sb  Sb37  1  0.15233829  0.75389541  0.43073932  1
  Sb  Sb38  1  0.98493525  0.52542168  0.52543875  1
  Sb  Sb39  1  0.42344386  0.21149409  0.52329123  1
  Sb  Sb40  1  0.44149992  0.53120777  0.93790694  1
  Sb  Sb41  1  0.39272558  0.59618643  0.10973516  1
  Sb  Sb42  1  0.40369885  0.18979018  0.12178921  1
  Sb  Sb43  1  0.49503096  0.36596776  0.79324837  1
  Sb  Sb44  1  0.99530817  0.56051851  0.35066488  1
  Sb  Sb45  1  0.83543482  0.40248196  0.47884586  1
  Sb  Sb46  1  0.37577087  0.61075476  0.32343478  1
  Sb  Sb47  1  0.75254449  0.59085465  0.51583970  1
  Sb  Sb48  1  0.33180108  0.37208702  0.48689777  1
  Sb  Sb49  1  0.01665673  0.27772271  0.44317603  1
  N  N50  1  0.98746172  0.67233610  0.14714105  1
  N  N51  1  0.79821635  0.73169173  0.23512868  1
  N  N52  1  0.49664513  0.53315076  0.14985738  1
  N  N53  1  0.25704214  0.32796423  0.39269621  1
  N  N54  1  0.61874444  0.83340251  0.45632336  1
  N  N55  1  0.09511616  0.58470976  0.97010111  1
  N  N56  1  0.86423734  0.95910789  0.88693859  1
  N  N57  1  0.44680375  0.91321027  0.18969910  1
  N  N58  1  0.94211119  0.67657053  0.09741771  1
  N  N59  1  0.18034098  0.25424196  0.73885237  1
  N  N60  1  0.26585240  0.77407555  0.89822618  1
  N  N61  1  0.51974879  0.72345924  0.13652293  1
  N  N62  1  0.20754112  0.37586461  0.96332387  1
  N  N63  1  0.77655386  0.66832221  0.25999842  1
  N  N64  1  0.10699027  0.19665378  0.34125467  1
  N  N65  1  0.26305284  0.83772008  0.86622626  1
  N  N66  1  0.59892250  0.88519165  0.50199259  1
  N  N67  1  0.96374360  0.24305933  0.70365764  1
  N  N68  1  0.82935844  0.66421068  0.58978720  1
  N  N69  1  0.00108224  0.14910672  0.00223619  1
  N  N70  1  0.64571556  0.23860022  0.46184565  1
  N  N71  1  0.78321627  0.35835739  0.85814700  1
  N  N72  1  0.75383439  0.41934562  0.89138036  1
  N  N73  1  0.83161860  0.91024927  0.92572810  1
  N  N74  1  0.95798251  0.39179982  0.51516400  1
  N  N75  1  0.61918065  0.02982207  0.79633902  1
  N  N76  1  0.34783851  0.66842987  0.62155945  1
  N  N77  1  0.59005581  0.19259900  0.28064160  1
  N  N78  1  0.43376564  0.95996208  0.13996246  1
  N  N79  1  0.94434960  0.17843694  0.72750623  1
  N  N80  1  0.45092493  0.72259480  0.10762322  1
  N  N81  1  0.65869723  0.55267648  0.60014554  1
  N  N82  1  0.53939070  0.85458215  0.98377205  1
  N  N83  1  0.25349647  0.42948312  0.96257974  1
  N  N84  1  0.08249480  0.53665663  0.01929985  1
  N  N85  1  0.58479991  0.72654200  0.16440703  1
  N  N86  1  0.10557154  0.83413676  0.53211197  1
  N  N87  1  0.26356910  0.78886988  0.48894845  1
  N  N88  1  0.49996249  0.86385026  0.92987807  1
  N  N89  1  0.61851357  0.05156527  0.86171989  1
  N  N90  1  0.47612559  0.41897558  0.00187095  1
  N  N91  1  0.50448933  0.29480864  0.58371154  1
  N  N92  1  0.39696720  0.62942398  0.44548218  1
  N  N93  1  0.55957921  0.57058574  0.97008992  1
  N  N94  1  0.60363304  0.53513783  0.78166827  1
  N  N95  1  0.51243776  0.27063203  0.11743314  1
  N  N96  1  0.03526446  0.14695333  0.94184141  1
  N  N97  1  0.60566406  0.35817596  0.72668007  1
  N  N98  1  0.23428000  0.28751799  0.76557463  1
  N  N99  1  0.72394290  0.48135863  0.93068390  1
