# generated using pymatgen
data_CoO
_symmetry_space_group_name_H-M   'P 1'
_cell_length_a   10.35649660
_cell_length_b   9.40253978
_cell_length_c   10.26154649
_cell_angle_alpha   87.27872400
_cell_angle_beta   91.20286495
_cell_angle_gamma   90.27025750
_symmetry_Int_Tables_number   1
_chemical_formula_structural   CoO
_chemical_formula_sum   'Co40 O40'
_cell_volume   997.88871682
_cell_formula_units_Z   40
loop_
 _symmetry_equiv_pos_site_id
 _symmetry_equiv_pos_as_xyz
  1  'x, y, z'
loop_
 _atom_site_type_symbol
 _atom_site_label
 _atom_site_symmetry_multiplicity
 _atom_site_fract_x
 _atom_site_fract_y
 _atom_site_fract_z
 _atom_site_occupancy
  Co  Co0  1  0.18243540  0.24545271  0.10624349  1
  Co  Co1  1  0.12788684  0.55296042  0.21560273  1
  Co  Co2  1  0.98575093  0.28957638  0.80026004  1
  Co  Co3  1  0.64825276  0.66338058  0.95098482  1
  Co  Co4  1  0.22367842  0.88696325  0.12985735  1
  Co  Co5  1  0.69789053  0.94537739  0.07794511  1
  Co  Co6  1  0.90626945  0.98558249  0.85224012  1
  Co  Co7  1  0.41580845  0.23483937  0.29576012  1
  Co  Co8  1  0.69434745  0.76412203  0.65819956  1
  Co  Co9  1  0.11309706  0.36436310  0.54123893  1
  Co  Co10  1  0.44463374  0.83756720  0.38096545  1
  Co  Co11  1  0.69937617  0.35950982  0.15364917  1
  Co  Co12  1  0.33314381  0.47304961  0.35999746  1
  Co  Co13  1  0.02160377  0.07420490  0.33758961  1
  Co  Co14  1  0.01850833  0.69591833  0.46986946  1
  Co  Co15  1  0.28077956  0.59817602  0.62337556  1
  Co  Co16  1  0.49569574  0.46354680  0.02791964  1
  Co  Co17  1  0.77434574  0.82204839  0.40021416  1
  Co  Co18  1  0.91830159  0.58340375  0.70043034  1
  Co  Co19  1  0.63998113  0.16598007  0.85948923  1
  Co  Co20  1  0.60186029  0.56629447  0.42852678  1
  Co  Co21  1  0.93602464  0.84746473  0.16886176  1
  Co  Co22  1  0.41304787  0.69345717  0.89534956  1
  Co  Co23  1  0.12235031  0.76186035  0.81678154  1
  Co  Co24  1  0.48588763  0.71926758  0.14072479  1
  Co  Co25  1  0.75545650  0.31160631  0.62356517  1
  Co  Co26  1  0.01943581  0.48828268  0.99494739  1
  Co  Co27  1  0.45426018  0.09253578  0.09221481  1
  Co  Co28  1  0.77307595  0.43011363  0.90956356  1
  Co  Co29  1  0.89845163  0.19226158  0.10048999  1
  Co  Co30  1  0.32105021  0.31787718  0.82342656  1
  Co  Co31  1  0.69156025  0.11859072  0.36492176  1
  Co  Co32  1  0.27671654  0.00906043  0.87889364  1
  Co  Co33  1  0.89134116  0.04760526  0.60225973  1
  Co  Co34  1  0.89325560  0.38936650  0.38405384  1
  Co  Co35  1  0.46995918  0.26402869  0.57700790  1
  Co  Co36  1  0.78290350  0.60546648  0.19508231  1
  Co  Co37  1  0.15790134  0.09331647  0.66080441  1
  Co  Co38  1  0.55177716  0.49415404  0.75011575  1
  Co  Co39  1  0.40858353  0.88066488  0.65682039  1
  O  O40  1  0.71760347  0.46284605  0.31391274  1
  O  O41  1  0.84021379  0.88574317  0.71815114  1
  O  O42  1  0.26971247  0.81171227  0.94594179  1
  O  O43  1  0.15544475  0.29195485  0.72751587  1
  O  O44  1  0.30705175  0.17651026  0.98224837  1
  O  O45  1  0.61242323  0.77552571  0.46457215  1
  O  O46  1  0.98774845  0.62992879  0.87426801  1
  O  O47  1  0.05499864  0.50841554  0.38421099  1
  O  O48  1  0.13264324  0.06021782  0.18664628  1
  O  O49  1  0.70788512  0.94307114  0.26740906  1
  O  O50  1  0.40838362  0.90051688  0.19334155  1
  O  O51  1  0.09346899  0.74556776  0.17084257  1
  O  O52  1  0.10379191  0.66700441  0.64284341  1
  O  O53  1  0.44802997  0.61361404  0.30378316  1
  O  O54  1  0.72934414  0.58093013  0.79086906  1
  O  O55  1  0.36335180  0.52595070  0.79621739  1
  O  O56  1  0.77252109  0.75106965  0.07152106  1
  O  O57  1  0.04436191  0.13770766  0.51458102  1
  O  O58  1  0.25386166  0.31114329  0.27608058  1
  O  O59  1  0.50390517  0.13984721  0.42434282  1
  O  O60  1  0.83229682  0.68601272  0.52438057  1
  O  O61  1  0.08731403  0.97126192  0.81017212  1
  O  O62  1  0.52191076  0.29580583  0.14746412  1
  O  O63  1  0.34071100  0.76983060  0.52355625  1
  O  O64  1  0.86631888  0.44980185  0.11307006  1
  O  O65  1  0.92339371  0.40169771  0.59809629  1
  O  O66  1  0.82819821  0.17125865  0.78481134  1
  O  O67  1  0.18819527  0.46464583  0.06663026  1
  O  O68  1  0.72833343  0.26027328  0.00760120  1
  O  O69  1  0.60059804  0.42887731  0.57470561  1
  O  O70  1  0.30753760  0.40869672  0.53398332  1
  O  O71  1  0.73812185  0.13307507  0.54151762  1
  O  O72  1  0.56270405  0.01154780  0.96399903  1
  O  O73  1  0.50406195  0.27971754  0.77327661  1
  O  O74  1  0.88328150  0.99829953  0.03279700  1
  O  O75  1  0.86778671  0.20485248  0.29291304  1
  O  O76  1  0.03236502  0.27315133  0.98783069  1
  O  O77  1  0.53323298  0.76564339  0.75368881  1
  O  O78  1  0.94751002  0.87092025  0.36429080  1
  O  O79  1  0.34002884  0.05385226  0.69734524  1
