# generated using pymatgen
data_Ga2O3
_symmetry_space_group_name_H-M   'P 1'
_cell_length_a   10.25473868
_cell_length_b   10.23756220
_cell_length_c   10.06304577
_cell_angle_alpha   89.52888449
_cell_angle_beta   86.07304525
_cell_angle_gamma   89.15665427
_symmetry_Int_Tables_number   1
_chemical_formula_structural   Ga2O3
_chemical_formula_sum   'Ga32 O48'
_cell_volume   1053.83191183
_cell_formula_units_Z   16
loop_
 _symmetry_equiv_pos_site_id
 _symmetry_equiv_pos_as_xyz
  1  'x, y, z'
loop_
 _atom_site_type_symbol
 _atom_site_label
 _atom_site_symmetry_multiplicity
 _atom_site_fract_x
 _atom_site_fract_y
 _atom_site_fract_z
 _atom_site_occupancy
  Ga  Ga0  1  0.24932100  0.80386500  0.03609000  1
  Ga  Ga1  1  0.62187200  0.36525900  0.77272100  1
  Ga  Ga2  1  0.36215100  0.85261200  0.32653900  1
  Ga  Ga3  1  0.15696900  0.04317300  0.21190900  1
  Ga  Ga4  1  0.51645400  0.62636400  0.78473500  1
  Ga  Ga5  1  0.02645600  0.39828100  0.66843100  1
  Ga  Ga6  1  0.80191100  0.67591100  0.90333700  1
  Ga  Ga7  1  0.97142700  0.76997900  0.12933800  1
  Ga  Ga8  1  0.90497200  0.88796900  0.66127400  1
  Ga  Ga9  1  0.61180000  0.94421300  0.22082100  1
  Ga  Ga10  1  0.77640400  0.16043700  0.57718500  1
  Ga  Ga11  1  0.37989200  0.16800100  0.33037400  1
  Ga  Ga12  1  0.85066800  0.50192800  0.23382300  1
  Ga  Ga13  1  0.81270600  0.59469100  0.59249100  1
  Ga  Ga14  1  0.65603200  0.32692800  0.35084700  1
  Ga  Ga15  1  0.15485500  0.92587400  0.52723100  1
  Ga  Ga16  1  0.39297200  0.87398300  0.75802000  1
  Ga  Ga17  1  0.54862700  0.35000800  0.08575400  1
  Ga  Ga18  1  0.31229300  0.34355700  0.87855400  1
  Ga  Ga19  1  0.07750800  0.53184300  0.92926000  1
  Ga  Ga20  1  0.44146700  0.06306500  0.99312200  1
  Ga  Ga21  1  0.35608600  0.12747000  0.66201200  1
  Ga  Ga22  1  0.07666000  0.64626000  0.41083400  1
  Ga  Ga23  1  0.63565600  0.85494200  0.53477200  1
  Ga  Ga24  1  0.14750100  0.36414600  0.18597800  1
  Ga  Ga25  1  0.53901800  0.65836500  0.09315900  1
  Ga  Ga26  1  0.85079300  0.31412700  0.02096500  1
  Ga  Ga27  1  0.98914600  0.14151200  0.77567500  1
  Ga  Ga28  1  0.78348400  0.99327500  0.98113800  1
  Ga  Ga29  1  0.62853100  0.62522400  0.37191800  1
  Ga  Ga30  1  0.34739900  0.56458500  0.29844500  1
  Ga  Ga31  1  0.86019700  0.08949700  0.26498700  1
  O  O32  1  0.35838100  0.74257000  0.87848500  1
  O  O33  1  0.13269400  0.50151400  0.75421200  1
  O  O34  1  0.72454300  0.38413900  0.16848800  1
  O  O35  1  0.68444600  0.52911700  0.71220200  1
  O  O36  1  0.52641600  0.77452900  0.66772400  1
  O  O37  1  0.44921500  0.02429900  0.22564200  1
  O  O38  1  0.47715500  0.54263000  0.41105500  1
  O  O39  1  0.60511300  0.96945100  0.02762100  1
  O  O40  1  0.85313400  0.72569700  0.72882000  1
  O  O41  1  0.02441300  0.80399700  0.51358600  1
  O  O42  1  0.75206000  0.18098600  0.39441000  1
  O  O43  1  0.24190100  0.21232200  0.21961200  1
  O  O44  1  0.76391400  0.97261500  0.57399100  1
  O  O45  1  0.78051400  0.92979100  0.25483700  1
  O  O46  1  0.85527700  0.82112900  0.00294100  1
  O  O47  1  0.74672000  0.47371500  0.40584200  1
  O  O48  1  0.25461800  0.71184900  0.39867500  1
  O  O49  1  0.05109700  0.99945200  0.67049300  1
  O  O50  1  0.40833300  0.19286800  0.50193700  1
  O  O51  1  0.23818000  0.23408100  0.75850100  1
  O  O52  1  0.18390300  0.49023000  0.31094500  1
  O  O53  1  0.24520400  0.98887800  0.37264700  1
  O  O54  1  0.95170600  0.64830200  0.26967400  1
  O  O55  1  0.01823800  0.10123500  0.32195700  1
  O  O56  1  0.10622100  0.87254500  0.17287400  1
  O  O57  1  0.61868900  0.67638700  0.92590400  1
  O  O58  1  0.84288800  0.02977900  0.80939100  1
  O  O59  1  0.96868600  0.36803700  0.17062100  1
  O  O60  1  0.38437000  0.75128700  0.16359200  1
  O  O61  1  0.43010000  0.24633000  0.98838600  1
  O  O62  1  0.27642600  0.98931800  0.03193800  1
  O  O63  1  0.93863200  0.24571600  0.62435500  1
  O  O64  1  0.44794900  0.50475700  0.12321800  1
  O  O65  1  0.10735800  0.69220500  0.00689700  1
  O  O66  1  0.97646900  0.52364700  0.53545400  1
  O  O67  1  0.53729500  0.84325800  0.38143100  1
  O  O68  1  0.45332800  0.03897800  0.79944500  1
  O  O69  1  0.30470000  0.94662000  0.62200100  1
  O  O70  1  0.68049400  0.32601300  0.93810100  1
  O  O71  1  0.45281700  0.45320100  0.80467000  1
  O  O72  1  0.98129700  0.28816100  0.87956000  1
  O  O73  1  0.89266100  0.53479200  0.97229100  1
  O  O74  1  0.63327200  0.24853700  0.64124300  1
  O  O75  1  0.73797700  0.71337600  0.48093500  1
  O  O76  1  0.51480900  0.27850200  0.26103500  1
  O  O77  1  0.19895300  0.42064600  0.00964900  1
  O  O78  1  0.68085000  0.66409200  0.19631900  1
  O  O79  1  0.84200000  0.13204900  0.08193500  1
