# generated using pymatgen
data_ZnS
_symmetry_space_group_name_H-M   'P 1'
_cell_length_a   13.25357291
_cell_length_b   13.08764495
_cell_length_c   14.12566130
_cell_angle_alpha   94.85717355
_cell_angle_beta   97.10879442
_cell_angle_gamma   87.70839161
_symmetry_Int_Tables_number   1
_chemical_formula_structural   ZnS
_chemical_formula_sum   'Zn50 S50'
_cell_volume   2421.56445532
_cell_formula_units_Z   50
loop_
 _symmetry_equiv_pos_site_id
 _symmetry_equiv_pos_as_xyz
  1  'x, y, z'
loop_
 _atom_site_type_symbol
 _atom_site_label
 _atom_site_symmetry_multiplicity
 _atom_site_fract_x
 _atom_site_fract_y
 _atom_site_fract_z
 _atom_site_occupancy
  Zn  Zn0  1  0.38080983  0.85502680  0.47432049  1
  Zn  Zn1  1  0.40280484  0.59073846  0.44791983  1
  Zn  Zn2  1  0.01447811  0.93982508  0.81187943  1
  Zn  Zn3  1  0.58944000  0.44194698  0.28193271  1
  Zn  Zn4  1  0.20978898  0.86084016  0.53613457  1
  Zn  Zn5  1  0.49587384  0.00531272  0.30418820  1
  Zn  Zn6  1  0.78706074  0.84400119  0.29992764  1
  Zn  Zn7  1  0.29588388  0.17983707  0.23587599  1
  Zn  Zn8  1  0.46807905  0.53966048  0.96382215  1
  Zn  Zn9  1  0.87974412  0.72382049  0.11912029  1
  Zn  Zn10  1  0.72518391  0.37166889  0.78925023  1
  Zn  Zn11  1  0.48486075  0.97961297  0.90633981  1
  Zn  Zn12  1  0.26107820  0.15465374  0.62407431  1
  Zn  Zn13  1  0.64162528  0.13682006  0.86032739  1
  Zn  Zn14  1  0.78438149  0.88969120  0.74900767  1
  Zn  Zn15  1  0.67070697  0.60798319  0.12074824  1
  Zn  Zn16  1  0.19071459  0.66540637  0.76134407  1
  Zn  Zn17  1  0.99963234  0.03022486  0.65824709  1
  Zn  Zn18  1  0.25320222  0.22456298  0.96068233  1
  Zn  Zn19  1  0.00755961  0.38222655  0.92386844  1
  Zn  Zn20  1  0.29026374  0.98145899  0.97447195  1
  Zn  Zn21  1  0.17324338  0.99633414  0.75148712  1
  Zn  Zn22  1  0.58436424  0.44593598  0.56088469  1
  Zn  Zn23  1  0.37937901  0.81492184  0.66050266  1
  Zn  Zn24  1  0.69136892  0.57913417  0.49145246  1
  Zn  Zn25  1  0.11506684  0.75905319  0.98744114  1
  Zn  Zn26  1  0.53125694  0.28636098  0.98242184  1
  Zn  Zn27  1  0.83905526  0.31130771  0.27785322  1
  Zn  Zn28  1  0.04071012  0.33866732  0.60151830  1
  Zn  Zn29  1  0.48320874  0.32311554  0.66463116  1
  Zn  Zn30  1  0.65042022  0.61733013  0.66079612  1
  Zn  Zn31  1  0.56960202  0.95320850  0.63415807  1
  Zn  Zn32  1  0.91872539  0.06725699  0.22577319  1
  Zn  Zn33  1  0.47282850  0.22961571  0.13919227  1
  Zn  Zn34  1  0.43190932  0.50648825  0.65725166  1
  Zn  Zn35  1  0.41020315  0.71578018  0.95578307  1
  Zn  Zn36  1  0.76806319  0.14294300  0.62518832  1
  Zn  Zn37  1  0.23810332  0.55623040  0.33400203  1
  Zn  Zn38  1  0.22166566  0.48264313  0.85412435  1
  Zn  Zn39  1  0.88779593  0.04393678  0.41731808  1
  Zn  Zn40  1  0.81898134  0.60896864  0.89121979  1
  Zn  Zn41  1  0.62039050  0.88928026  0.48136477  1
  Zn  Zn42  1  0.40083567  0.41358568  0.11511780  1
  Zn  Zn43  1  0.91605106  0.54356717  0.31671108  1
  Zn  Zn44  1  0.23724285  0.59783100  0.52194819  1
  Zn  Zn45  1  0.14429047  0.36490686  0.18393905  1
  Zn  Zn46  1  0.95844057  0.93635032  0.02800524  1
  Zn  Zn47  1  0.85676670  0.32813410  0.05347650  1
  Zn  Zn48  1  0.81816620  0.38674285  0.51375331  1
  Zn  Zn49  1  0.37327601  0.28521689  0.41421558  1
  S  S50  1  0.43167659  0.87807684  0.01725759  1
  S  S51  1  0.68423968  0.36663956  0.07314668  1
  S  S52  1  0.07360487  0.64195990  0.34735232  1
  S  S53  1  0.07722974  0.24743413  0.79237156  1
  S  S54  1  0.25713078  0.49736251  0.18066273  1
  S  S55  1  0.12592627  0.93189928  0.95546888  1
  S  S56  1  0.02818802  0.79573376  0.11570531  1
  S  S57  1  0.80024800  0.67183467  0.24716326  1
  S  S58  1  0.70746332  0.04949090  0.73781417  1
  S  S59  1  0.96015291  0.21352059  0.68109549  1
  S  S60  1  0.89791622  0.84007385  0.86984876  1
  S  S61  1  0.50748383  0.89239447  0.76239826  1
  S  S62  1  0.21281795  0.81901688  0.70284894  1
  S  S63  1  0.52291029  0.55560928  0.16820688  1
  S  S64  1  0.77977621  0.73774885  0.64860693  1
  S  S65  1  0.95056309  0.40280852  0.19548099  1
  S  S66  1  0.58247901  0.10545449  0.99662280  1
  S  S67  1  0.85542515  0.29882708  0.89059530  1
  S  S68  1  0.47227706  0.66534389  0.61119860  1
  S  S69  1  0.10835983  0.28580292  0.02737101  1
  S  S70  1  0.48604631  0.72464387  0.38866931  1
  S  S71  1  0.67888117  0.54257244  0.80247258  1
  S  S72  1  0.35292989  0.91187845  0.30426431  1
  S  S73  1  0.94115589  0.91819086  0.30930821  1
  S  S74  1  0.32516322  0.12643282  0.08609285  1
  S  S75  1  0.14605342  0.03141552  0.56703151  1
  S  S76  1  0.41303021  0.76730984  0.25626346  1
  S  S77  1  0.47379176  0.17879955  0.30244017  1
  S  S78  1  0.75707230  0.46969278  0.37089752  1
  S  S79  1  0.05611442  0.53316412  0.77774376  1
  S  S80  1  0.73985380  0.69805324  0.01076846  1
  S  S81  1  0.18462114  0.29804208  0.70900785  1
  S  S82  1  0.30126504  0.09115679  0.84057269  1
  S  S83  1  0.93202380  0.19166855  0.35895929  1
  S  S84  1  0.40165499  0.19924582  0.55951890  1
  S  S85  1  0.20391947  0.27953006  0.33050952  1
  S  S86  1  0.74639557  0.74956692  0.49973679  1
  S  S87  1  0.66130781  0.95696541  0.34365910  1
  S  S88  1  0.71768389  0.31145501  0.60942276  1
  S  S89  1  0.25845235  0.52353312  0.66914560  1
  S  S90  1  0.34591687  0.38624822  0.93911950  1
  S  S91  1  0.09829392  0.71098377  0.49001096  1
  S  S92  1  0.99326108  0.56288274  0.90970403  1
  S  S93  1  0.24080442  0.65880409  0.92685996  1
  S  S94  1  0.66743456  0.29501829  0.19687685  1
  S  S95  1  0.84698119  0.00180785  0.55774455  1
  S  S96  1  0.48384011  0.42755130  0.40873223  1
  S  S97  1  0.97011310  0.45758062  0.51561277  1
  S  S98  1  0.57134658  0.29349535  0.81560944  1
  S  S99  1  0.88413988  0.08848922  0.07244374  1
