# generated using pymatgen
data_BeO
_symmetry_space_group_name_H-M   'P 1'
_cell_length_a   9.18743018
_cell_length_b   10.71667164
_cell_length_c   9.24655691
_cell_angle_alpha   91.77530125
_cell_angle_beta   91.79989255
_cell_angle_gamma   90.00095416
_symmetry_Int_Tables_number   1
_chemical_formula_structural   BeO
_chemical_formula_sum   'Be50 O50'
_cell_volume   909.51732605
_cell_formula_units_Z   50
loop_
 _symmetry_equiv_pos_site_id
 _symmetry_equiv_pos_as_xyz
  1  'x, y, z'
loop_
 _atom_site_type_symbol
 _atom_site_label
 _atom_site_symmetry_multiplicity
 _atom_site_fract_x
 _atom_site_fract_y
 _atom_site_fract_z
 _atom_site_occupancy
  Be  Be0  1  0.15721100  0.16223100  0.81027600  1
  Be  Be1  1  0.05263800  0.58789000  0.08567400  1
  Be  Be2  1  0.25022100  0.07742100  0.05870000  1
  Be  Be3  1  0.95311900  0.26029200  0.45421200  1
  Be  Be4  1  0.82416200  0.55738900  0.87328100  1
  Be  Be5  1  0.99639500  0.01735400  0.94658100  1
  Be  Be6  1  0.93798100  0.09307700  0.20134400  1
  Be  Be7  1  0.37907100  0.88450400  0.03738800  1
  Be  Be8  1  0.01086200  0.69107100  0.67637800  1
  Be  Be9  1  0.20035900  0.89221800  0.76969600  1
  Be  Be10  1  0.44451200  0.04268700  0.28511100  1
  Be  Be11  1  0.75478400  0.34997300  0.14968500  1
  Be  Be12  1  0.21599400  0.44971300  0.25426100  1
  Be  Be13  1  0.95484000  0.05844900  0.67412700  1
  Be  Be14  1  0.66359700  0.48653800  0.39586700  1
  Be  Be15  1  0.54376200  0.60256100  0.88149100  1
  Be  Be16  1  0.06830900  0.66885000  0.37290200  1
  Be  Be17  1  0.88879300  0.28913500  0.88737800  1
  Be  Be18  1  0.99447200  0.85310800  0.32446100  1
  Be  Be19  1  0.45964500  0.16679100  0.51790300  1
  Be  Be20  1  0.15966700  0.25696200  0.00725300  1
  Be  Be21  1  0.30016100  0.50983300  0.01713600  1
  Be  Be22  1  0.80421600  0.72309900  0.48942400  1
  Be  Be23  1  0.64057800  0.02538400  0.79332400  1
  Be  Be24  1  0.24082900  0.73816300  0.61736100  1
  Be  Be25  1  0.63365300  0.36911500  0.81702700  1
  Be  Be26  1  0.44546400  0.63294600  0.16728500  1
  Be  Be27  1  0.37285500  0.33344300  0.44158700  1
  Be  Be28  1  0.86350000  0.49751800  0.59454600  1
  Be  Be29  1  0.61756900  0.01421500  0.44873600  1
  Be  Be30  1  0.08091100  0.43853200  0.81081500  1
  Be  Be31  1  0.23241400  0.59699800  0.82858400  1
  Be  Be32  1  0.50419300  0.85609800  0.55710700  1
  Be  Be33  1  0.96527000  0.75918900  0.01238100  1
  Be  Be34  1  0.26180900  0.90086400  0.45821600  1
  Be  Be35  1  0.35177900  0.35636000  0.71516600  1
  Be  Be36  1  0.76600800  0.59150700  0.15487300  1
  Be  Be37  1  0.00210600  0.30198300  0.16361300  1
  Be  Be38  1  0.80911300  0.93572800  0.05201500  1
  Be  Be39  1  0.76371700  0.17121100  0.64660700  1
  Be  Be40  1  0.16566100  0.48524000  0.54037000  1
  Be  Be41  1  0.45601000  0.19827700  0.89833600  1
  Be  Be42  1  0.22885400  0.77943900  0.18690800  1
  Be  Be43  1  0.73672300  0.92473700  0.28434300  1
  Be  Be44  1  0.75548200  0.88351900  0.64955200  1
  Be  Be45  1  0.47230400  0.81504800  0.78819100  1
  Be  Be46  1  0.61137500  0.75588400  0.06429900  1
  Be  Be47  1  0.65935500  0.12932500  0.07835800  1
  Be  Be48  1  0.93264400  0.47918000  0.34112800  1
  Be  Be49  1  0.53942800  0.27824200  0.28861100  1
  O  O50  1  0.28811900  0.17319600  0.93092800  1
  O  O51  1  0.38471900  0.56866800  0.89830500  1
  O  O52  1  0.57338500  0.09826200  0.92453300  1
  O  O53  1  0.35544700  0.25824600  0.59288500  1
  O  O54  1  0.95616100  0.41084100  0.48886100  1
  O  O55  1  0.77988200  0.47048200  0.25744300  1
  O  O56  1  0.18966900  0.88564000  0.60039500  1
  O  O57  1  0.80277000  0.02454900  0.72915000  1
  O  O58  1  0.62116900  0.03746200  0.28132600  1
  O  O59  1  0.87132400  0.77152300  0.64449500  1
  O  O60  1  0.91160400  0.72991600  0.35617200  1
  O  O61  1  0.16366700  0.33214000  0.14531700  1
  O  O62  1  0.21654600  0.45524200  0.70494900  1
  O  O63  1  0.62366500  0.26442700  0.14833700  1
  O  O64  1  0.41348800  0.74561200  0.62338700  1
  O  O65  1  0.05926300  0.54133500  0.25646100  1
  O  O66  1  0.57541000  0.74318400  0.90129000  1
  O  O67  1  0.41851800  0.96017800  0.44663900  1
  O  O68  1  0.76275800  0.28113800  0.77347600  1
  O  O69  1  0.15362000  0.72007200  0.77439600  1
  O  O70  1  0.58307100  0.90751800  0.70952600  1
  O  O71  1  0.16844400  0.81934500  0.33638100  1
  O  O72  1  0.66911900  0.50706600  0.85554600  1
  O  O73  1  0.81932500  0.08089400  0.06181300  1
  O  O74  1  0.41836900  0.19110700  0.34559800  1
  O  O75  1  0.08419900  0.09902200  0.07111900  1
  O  O76  1  0.13715400  0.51592500  0.95494500  1
  O  O77  1  0.11766200  0.63264500  0.53107900  1
  O  O78  1  0.93590200  0.52656000  0.74938900  1
  O  O79  1  0.10583400  0.73016300  0.09024100  1
  O  O80  1  0.94346000  0.22883000  0.28916800  1
  O  O81  1  0.88123600  0.33989900  0.04452800  1
  O  O82  1  0.61802300  0.13055900  0.55937000  1
  O  O83  1  0.92841300  0.16675300  0.57280900  1
  O  O84  1  0.35341400  0.00029100  0.14246200  1
  O  O85  1  0.33898600  0.89221400  0.87469300  1
  O  O86  1  0.74619500  0.57504300  0.50894700  1
  O  O87  1  0.34020000  0.52323700  0.17579500  1
  O  O88  1  0.47409500  0.32587000  0.83161400  1
  O  O89  1  0.24555100  0.42153000  0.41618500  1
  O  O90  1  0.71107900  0.85318300  0.13370400  1
  O  O91  1  0.87683100  0.62313600  0.02523400  1
  O  O92  1  0.68915900  0.87220800  0.46864600  1
  O  O93  1  0.54260100  0.39081100  0.39933400  1
  O  O94  1  0.08235800  0.03428900  0.79117100  1
  O  O95  1  0.38939100  0.76854800  0.14016200  1
  O  O96  1  0.92980100  0.88536400  0.95720200  1
  O  O97  1  0.06218200  0.28290700  0.85115500  1
  O  O98  1  0.60965700  0.62990700  0.15011400  1
  O  O99  1  0.91309700  0.96954900  0.28774000  1
