# generated using pymatgen
data_MgO
_symmetry_space_group_name_H-M   'P 1'
_cell_length_a   9.79490492
_cell_length_b   9.75943183
_cell_length_c   10.06863539
_cell_angle_alpha   91.47733468
_cell_angle_beta   88.38553096
_cell_angle_gamma   88.97787389
_symmetry_Int_Tables_number   1
_chemical_formula_structural   MgO
_chemical_formula_sum   'Mg40 O40'
_cell_volume   961.62023390
_cell_formula_units_Z   40
loop_
 _symmetry_equiv_pos_site_id
 _symmetry_equiv_pos_as_xyz
  1  'x, y, z'
loop_
 _atom_site_type_symbol
 _atom_site_label
 _atom_site_symmetry_multiplicity
 _atom_site_fract_x
 _atom_site_fract_y
 _atom_site_fract_z
 _atom_site_occupancy
  Mg  Mg0  1  0.48552100  0.72599600  0.14568500  1
  Mg  Mg1  1  0.15838900  0.48957400  0.84926700  1
  Mg  Mg2  1  0.70960400  0.51510400  0.94225600  1
  Mg  Mg3  1  0.50501900  0.00771400  0.69732100  1
  Mg  Mg4  1  0.22209000  0.41075700  0.48073100  1
  Mg  Mg5  1  0.21708400  0.61699400  0.15217900  1
  Mg  Mg6  1  0.64127800  0.26127800  0.82357800  1
  Mg  Mg7  1  0.59607000  0.45759800  0.60431300  1
  Mg  Mg8  1  0.03389000  0.19453800  0.33677300  1
  Mg  Mg9  1  0.99550200  0.80062500  0.42032400  1
  Mg  Mg10  1  0.93748400  0.35367900  0.02639100  1
  Mg  Mg11  1  0.19742800  0.06630500  0.54901200  1
  Mg  Mg12  1  0.04309300  0.56402500  0.61365400  1
  Mg  Mg13  1  0.17441200  0.78946600  0.95664100  1
  Mg  Mg14  1  0.93244200  0.67617800  0.87143300  1
  Mg  Mg15  1  0.90435600  0.71349300  0.17061900  1
  Mg  Mg16  1  0.82076200  0.10154100  0.98357600  1
  Mg  Mg17  1  0.68928100  0.87677600  0.94928700  1
  Mg  Mg18  1  0.52617100  0.69227800  0.78386500  1
  Mg  Mg19  1  0.32079100  0.98245200  0.26983400  1
  Mg  Mg20  1  0.81626500  0.31544000  0.46625500  1
  Mg  Mg21  1  0.71342100  0.98509400  0.31216100  1
  Mg  Mg22  1  0.39147000  0.97472300  0.95291100  1
  Mg  Mg23  1  0.41922600  0.46380100  0.96850800  1
  Mg  Mg24  1  0.75061400  0.64199700  0.43607100  1
  Mg  Mg25  1  0.54901600  0.14900300  0.10151900  1
  Mg  Mg26  1  0.26612400  0.71162000  0.37264500  1
  Mg  Mg27  1  0.23404100  0.77066000  0.64110900  1
  Mg  Mg28  1  0.29270500  0.27920200  0.21243600  1
  Mg  Mg29  1  0.44925900  0.18276500  0.43600800  1
  Mg  Mg30  1  0.68025800  0.40958600  0.19242200  1
  Mg  Mg31  1  0.47007700  0.48099100  0.35238300  1
  Mg  Mg32  1  0.97966300  0.28280400  0.73683200  1
  Mg  Mg33  1  0.02454200  0.46905600  0.27141500  1
  Mg  Mg34  1  0.33656800  0.30161400  0.71038700  1
  Mg  Mg35  1  0.02143200  0.99663700  0.81383700  1
  Mg  Mg36  1  0.52409300  0.82119100  0.49301500  1
  Mg  Mg37  1  0.76397500  0.79292000  0.67406600  1
  Mg  Mg38  1  0.18262300  0.16875100  0.98472700  1
  Mg  Mg39  1  0.81985800  0.07358900  0.60393000  1
  O  O40  1  0.70191100  0.00773100  0.10986500  1
  O  O41  1  0.72694400  0.29392700  0.00612600  1
  O  O42  1  0.94560900  0.46854500  0.86393800  1
  O  O43  1  0.84831500  0.12511800  0.39264000  1
  O  O44  1  0.55034100  0.45332000  0.80694100  1
  O  O45  1  0.42734700  0.37760700  0.52665400  1
  O  O46  1  0.41667500  0.82729700  0.67888000  1
  O  O47  1  0.90466700  0.69596500  0.56137200  1
  O  O48  1  0.47509600  0.68675100  0.34725600  1
  O  O49  1  0.10491100  0.69610200  0.77414600  1
  O  O50  1  0.06559000  0.66660900  0.27855900  1
  O  O51  1  0.86161200  0.50761000  0.14824900  1
  O  O52  1  0.37220400  0.12658100  0.61892700  1
  O  O53  1  0.28709700  0.32531100  0.90653900  1
  O  O54  1  0.29217100  0.80343000  0.17549300  1
  O  O55  1  0.21654200  0.60836300  0.52690400  1
  O  O56  1  0.20439800  0.97562900  0.88957100  1
  O  O57  1  0.73457300  0.69480800  0.85229300  1
  O  O58  1  0.14851100  0.38406700  0.67469800  1
  O  O59  1  0.34221000  0.10428100  0.10646000  1
  O  O60  1  0.97855600  0.79847500  0.01610300  1
  O  O61  1  0.54018500  0.09665800  0.87613100  1
  O  O62  1  0.50425700  0.99473300  0.35715800  1
  O  O63  1  0.80671800  0.80109000  0.32447400  1
  O  O64  1  0.50245700  0.80709500  0.96192000  1
  O  O65  1  0.50778400  0.29102300  0.24716800  1
  O  O66  1  0.01922600  0.09423400  0.64168000  1
  O  O67  1  0.66819200  0.94717500  0.58288700  1
  O  O68  1  0.56145800  0.53819900  0.08903000  1
  O  O69  1  0.18099600  0.88255500  0.46524000  1
  O  O70  1  0.62474100  0.65755800  0.59751400  1
  O  O71  1  0.23440200  0.16738200  0.37547900  1
  O  O72  1  0.07895400  0.28721400  0.16068400  1
  O  O73  1  0.81980100  0.96837800  0.81732500  1
  O  O74  1  0.68832100  0.45124400  0.39838700  1
  O  O75  1  0.27111400  0.47195500  0.27888100  1
  O  O76  1  0.26659400  0.60057700  0.97085200  1
  O  O77  1  0.76239600  0.27773700  0.65734500  1
  O  O78  1  0.99105000  0.18175800  0.91642500  1
  O  O79  1  0.00465400  0.38121700  0.44134500  1
