# generated using pymatgen
data_V2O5
_symmetry_space_group_name_H-M   'P 1'
_cell_length_a   12.02288697
_cell_length_b   12.77034628
_cell_length_c   11.70656584
_cell_angle_alpha   92.18803636
_cell_angle_beta   93.42007760
_cell_angle_gamma   88.93768631
_symmetry_Int_Tables_number   1
_chemical_formula_structural   V2O5
_chemical_formula_sum   'V30 O75'
_cell_volume   1792.63675354
_cell_formula_units_Z   15
loop_
 _symmetry_equiv_pos_site_id
 _symmetry_equiv_pos_as_xyz
  1  'x, y, z'
loop_
 _atom_site_type_symbol
 _atom_site_label
 _atom_site_symmetry_multiplicity
 _atom_site_fract_x
 _atom_site_fract_y
 _atom_site_fract_z
 _atom_site_occupancy
  V  V0  1  0.67575851  0.95776098  0.21980726  1
  V  V1  1  0.28483091  0.92200876  0.66787106  1
  V  V2  1  0.10778181  0.88025382  0.28571987  1
  V  V3  1  0.70754437  0.21405389  0.14821223  1
  V  V4  1  0.02622341  0.94606112  0.78481571  1
  V  V5  1  0.64855184  0.04304867  0.82453729  1
  V  V6  1  0.75281331  0.78858454  0.85417698  1
  V  V7  1  0.18726964  0.57896943  0.06365905  1
  V  V8  1  0.90390789  0.09052435  0.59427155  1
  V  V9  1  0.38081253  0.42827321  0.23961588  1
  V  V10  1  0.61742189  0.19151666  0.56430297  1
  V  V11  1  0.37933967  0.05678506  0.44286389  1
  V  V12  1  0.30745759  0.82927354  0.07494344  1
  V  V13  1  0.30182544  0.25535578  0.86273371  1
  V  V14  1  0.11025083  0.54219204  0.77386284  1
  V  V15  1  0.04445631  0.28769286  0.49684183  1
  V  V16  1  0.73280069  0.57786749  0.48730734  1
  V  V17  1  0.04191769  0.98461688  0.09358513  1
  V  V18  1  0.29077910  0.45839140  0.52600038  1
  V  V19  1  0.81684725  0.25987646  0.92098687  1
  V  V20  1  0.47996234  0.35990716  0.73906255  1
  V  V21  1  0.28114269  0.65719060  0.66732303  1
  V  V22  1  0.96947188  0.70318270  0.42560794  1
  V  V23  1  0.07311973  0.26424728  0.02863954  1
  V  V24  1  0.89617224  0.42389659  0.67503877  1
  V  V25  1  0.14607157  0.16555602  0.26669405  1
  V  V26  1  0.91698901  0.70924262  0.66054373  1
  V  V27  1  0.37916054  0.05073769  0.93407919  1
  V  V28  1  0.56276781  0.75386799  0.03003519  1
  V  V29  1  0.66465477  0.43773698  0.23688279  1
  O  O30  1  0.19852779  0.26728358  0.21037918  1
  O  O31  1  0.07344267  0.01607136  0.26775432  1
  O  O32  1  0.92577026  0.36251850  0.52880193  1
  O  O33  1  0.52715757  0.03369649  0.90460803  1
  O  O34  1  0.78068578  0.50296404  0.60473136  1
  O  O35  1  0.83587411  0.68910893  0.50142697  1
  O  O36  1  0.06424468  0.96714549  0.92503570  1
  O  O37  1  0.96700078  0.82504401  0.75611681  1
  O  O38  1  0.95604745  0.58616957  0.72046295  1
  O  O39  1  0.20927415  0.86698691  0.38091147  1
  O  O40  1  0.61196892  0.03705607  0.68667409  1
  O  O41  1  0.24615492  0.69955845  0.03791132  1
  O  O42  1  0.83007612  0.34742617  0.76157853  1
  O  O43  1  0.63636290  0.85697819  0.11017515  1
  O  O44  1  0.30471324  0.96617636  0.01973115  1
  O  O45  1  0.26647160  0.30120762  0.73639132  1
  O  O46  1  0.57330439  0.44646915  0.76899159  1
  O  O47  1  0.29556710  0.11596351  0.82092911  1
  O  O48  1  0.42567196  0.79649048  0.98651833  1
  O  O49  1  0.08216118  0.60283147  0.14035062  1
  O  O50  1  0.85394802  0.75508521  0.94357366  1
  O  O51  1  0.08030091  0.13638824  0.10982710  1
  O  O52  1  0.30910504  0.59260582  0.51645140  1
  O  O53  1  0.52065975  0.47807463  0.24399369  1
  O  O54  1  0.56165934  0.64617506  0.09977863  1
  O  O55  1  0.99271999  0.79948600  0.32117089  1
  O  O56  1  0.63531931  0.29838358  0.49973842  1
  O  O57  1  0.82830593  0.19945478  0.06159651  1
  O  O58  1  0.60701342  0.61708995  0.50613503  1
  O  O59  1  0.14010794  0.52387680  0.92096103  1
  O  O60  1  0.97242157  0.24020409  0.91584512  1
  O  O61  1  0.62934107  0.72999514  0.89759401  1
  O  O62  1  0.38318434  0.16158273  0.01143083  1
  O  O63  1  0.21719455  0.51274356  0.66577543  1
  O  O64  1  0.70749768  0.91203039  0.34510285  1
  O  O65  1  0.50627857  0.12909672  0.47799539  1
  O  O66  1  0.14873617  0.86594273  0.13737116  1
  O  O67  1  0.74685685  0.37308890  0.11329523  1
  O  O68  1  0.03320124  0.41225924  0.73069884  1
  O  O69  1  0.02526036  0.17725624  0.57988367  1
  O  O70  1  0.53554694  0.03030017  0.23062252  1
  O  O71  1  0.91880259  0.99044220  0.50760080  1
  O  O72  1  0.02662567  0.36509832  0.09998788  1
  O  O73  1  0.16480357  0.35819201  0.51629461  1
  O  O74  1  0.92781936  0.04578087  0.73876566  1
  O  O75  1  0.28966556  0.49828760  0.14078679  1
  O  O76  1  0.60457295  0.21352497  0.05282341  1
  O  O77  1  0.40420054  0.40737739  0.60380992  1
  O  O78  1  0.14164580  0.95328609  0.69979962  1
  O  O79  1  0.73431417  0.93217768  0.85811526  1
  O  O80  1  0.32366229  0.42447161  0.38198619  1
  O  O81  1  0.26435432  0.11751455  0.35374489  1
  O  O82  1  0.52608465  0.13214528  0.23178483  1
  O  O83  1  0.76750879  0.14350689  0.57436901  1
  O  O84  1  0.03512542  0.73620222  0.55888208  1
  O  O85  1  0.19746624  0.29676712  0.95801167  1
  O  O86  1  0.04211313  0.23142261  0.35604704  1
  O  O87  1  0.42037493  0.94827375  0.38558730  1
  O  O88  1  0.73772504  0.08047818  0.20647178  1
  O  O89  1  0.39917299  0.31091202  0.19075589  1
  O  O90  1  0.28792400  0.79472895  0.61104715  1
  O  O91  1  0.54968519  0.24245127  0.68982514  1
  O  O92  1  0.76291456  0.38406846  0.99388921  1
  O  O93  1  0.39314507  0.64342687  0.74830222  1
  O  O94  1  0.43538032  0.32448435  0.87723254  1
  O  O95  1  0.01214490  0.58736897  0.38492705  1
  O  O96  1  0.91362848  0.94817601  0.09480838  1
  O  O97  1  0.67182553  0.30341247  0.27455103  1
  O  O98  1  0.32696059  0.02298584  0.57676003  1
  O  O99  1  0.74352731  0.51453844  0.34866330  1
  O  O100  1  0.77559091  0.73839342  0.71318118  1
  O  O101  1  0.36985191  0.82454991  0.19990062  1
  O  O102  1  0.16701117  0.67826663  0.76016203  1
  O  O103  1  0.72666352  0.16241771  0.84778278  1
  O  O104  1  0.36115674  0.92338545  0.78973632  1
