# generated using pymatgen
data_Ti3O5
_symmetry_space_group_name_H-M   'P 1'
_cell_length_a   11.47368889
_cell_length_b   10.68731680
_cell_length_c   10.06301365
_cell_angle_alpha   93.31597500
_cell_angle_beta   86.61738936
_cell_angle_gamma   90.47862645
_symmetry_Int_Tables_number   1
_chemical_formula_structural   Ti3O5
_chemical_formula_sum   'Ti39 O65'
_cell_volume   1229.72908655
_cell_formula_units_Z   13
loop_
 _symmetry_equiv_pos_site_id
 _symmetry_equiv_pos_as_xyz
  1  'x, y, z'
loop_
 _atom_site_type_symbol
 _atom_site_label
 _atom_site_symmetry_multiplicity
 _atom_site_fract_x
 _atom_site_fract_y
 _atom_site_fract_z
 _atom_site_occupancy
  Ti  Ti0  1  0.64613800  0.60003800  0.36540500  1
  Ti  Ti1  1  0.46407600  0.63209600  0.61585100  1
  Ti  Ti2  1  0.61138900  0.80962100  0.92393500  1
  Ti  Ti3  1  0.66013200  0.13217800  0.69019800  1
  Ti  Ti4  1  0.95123600  0.55507800  0.20022500  1
  Ti  Ti5  1  0.04897900  0.68576300  0.85111300  1
  Ti  Ti6  1  0.49153500  0.32414600  0.18783900  1
  Ti  Ti7  1  0.67144400  0.13520700  0.98435200  1
  Ti  Ti8  1  0.60532200  0.84857700  0.57980100  1
  Ti  Ti9  1  0.10764300  0.24558500  0.93845300  1
  Ti  Ti10  1  0.84162800  0.36394800  0.41850800  1
  Ti  Ti11  1  0.95247900  0.22280100  0.58761600  1
  Ti  Ti12  1  0.27276500  0.77573200  0.61167700  1
  Ti  Ti13  1  0.84585100  0.93121400  0.95246500  1
  Ti  Ti14  1  0.83918800  0.78048700  0.39248200  1
  Ti  Ti15  1  0.05772500  0.44834300  0.55519400  1
  Ti  Ti16  1  0.49399500  0.11874500  0.46381500  1
  Ti  Ti17  1  0.62192300  0.44519400  0.89411700  1
  Ti  Ti18  1  0.69529700  0.59937900  0.65405700  1
  Ti  Ti19  1  0.09292000  0.79774100  0.40912000  1
  Ti  Ti20  1  0.82523000  0.89750300  0.67625400  1
  Ti  Ti21  1  0.45732400  0.79993400  0.35755500  1
  Ti  Ti22  1  0.14955800  0.03348000  0.14587300  1
  Ti  Ti23  1  0.25662100  0.26682900  0.41676800  1
  Ti  Ti24  1  0.78263200  0.06455800  0.44887600  1
  Ti  Ti25  1  0.77376800  0.63716300  0.04848500  1
  Ti  Ti26  1  0.23981400  0.51232600  0.06893000  1
  Ti  Ti27  1  0.84973600  0.36710600  0.86475300  1
  Ti  Ti28  1  0.12648600  0.97671500  0.90021200  1
  Ti  Ti29  1  0.67460900  0.92939900  0.21692700  1
  Ti  Ti30  1  0.31216800  0.56410800  0.39310900  1
  Ti  Ti31  1  0.45077700  0.36531700  0.64257400  1
  Ti  Ti32  1  0.30286900  0.75833800  0.91693700  1
  Ti  Ti33  1  0.47569900  0.61653500  0.13950600  1
  Ti  Ti34  1  0.26087000  0.00788200  0.38685300  1
  Ti  Ti35  1  0.41007000  0.01742300  0.01755000  1
  Ti  Ti36  1  0.05060300  0.97002700  0.66013600  1
  Ti  Ti37  1  0.88684500  0.21481000  0.15086200  1
  Ti  Ti38  1  0.38029800  0.24590100  0.93573500  1
  O  O39  1  0.91339100  0.04786900  0.59007100  1
  O  O40  1  0.16651100  0.63899500  0.95352800  1
  O  O41  1  0.82801700  0.93087100  0.31234000  1
  O  O42  1  0.25095800  0.90161200  0.03469300  1
  O  O43  1  0.63472200  0.06856300  0.35927100  1
  O  O44  1  0.78103400  0.23240000  0.55899600  1
  O  O45  1  0.17999200  0.82327900  0.78988400  1
  O  O46  1  0.18600500  0.92609500  0.54388700  1
  O  O47  1  0.48156100  0.61664400  0.41741900  1
  O  O48  1  0.18951600  0.67467000  0.47874600  1
  O  O49  1  0.43096300  0.81676700  0.56369700  1
  O  O50  1  0.78273100  0.05402600  0.10877100  1
  O  O51  1  0.04523300  0.18668700  0.10554700  1
  O  O52  1  0.93549000  0.63649200  0.00527300  1
  O  O53  1  0.74898400  0.82097800  0.07039500  1
  O  O54  1  0.10694300  0.51657800  0.17097500  1
  O  O55  1  0.62598700  0.24616200  0.13641800  1
  O  O56  1  0.54385300  0.49117800  0.72208200  1
  O  O57  1  0.34080500  0.70376200  0.26875900  1
  O  O58  1  0.23477400  0.35926700  0.97753500  1
  O  O59  1  0.07498800  0.11527300  0.79244600  1
  O  O60  1  0.10931400  0.26423700  0.53587900  1
  O  O61  1  0.57564500  0.98749500  0.06739000  1
  O  O62  1  0.36764900  0.47678500  0.55320700  1
  O  O63  1  0.55902900  0.24577200  0.58111800  1
  O  O64  1  0.35200400  0.47608100  0.20693700  1
  O  O65  1  0.76744100  0.79708100  0.83666400  1
  O  O66  1  0.01047900  0.95182700  0.03563600  1
  O  O67  1  0.50356500  0.11983100  0.89035000  1
  O  O68  1  0.94761300  0.36497000  0.69775400  1
  O  O69  1  0.76669100  0.50453000  0.77342800  1
  O  O70  1  0.43292900  0.27983000  0.36605800  1
  O  O71  1  0.19303800  0.43591400  0.41752500  1
  O  O72  1  0.05716200  0.58271800  0.70576700  1
  O  O73  1  0.39906200  0.19163000  0.11845200  1
  O  O74  1  0.24735500  0.11024600  0.95934700  1
  O  O75  1  0.75149800  0.03211100  0.81891100  1
  O  O76  1  0.96524400  0.83225300  0.52836200  1
  O  O77  1  0.57918400  0.50207800  0.21906100  1
  O  O78  1  0.71567800  0.49213200  0.48100500  1
  O  O79  1  0.58151200  0.73136500  0.72963100  1
  O  O80  1  0.44695500  0.85731400  0.90807300  1
  O  O81  1  0.33888200  0.67574900  0.74444100  1
  O  O82  1  0.13425400  0.91659500  0.28544700  1
  O  O83  1  0.54475000  0.01914800  0.61041800  1
  O  O84  1  0.75168900  0.46109400  0.00899400  1
  O  O85  1  0.00100600  0.36784100  0.93687400  1
  O  O86  1  0.96962900  0.87279400  0.80088800  1
  O  O87  1  0.54162000  0.77404500  0.18081200  1
  O  O88  1  0.78410100  0.64165600  0.24426900  1
  O  O89  1  0.36794400  0.62482200  0.00592900  1
  O  O90  1  0.63977200  0.80369500  0.38731500  1
  O  O91  1  0.98623500  0.70816500  0.30197600  1
  O  O92  1  0.35871900  0.28979200  0.75945800  1
  O  O93  1  0.32126900  0.13605000  0.51731300  1
  O  O94  1  0.60558900  0.63265200  0.97740100  1
  O  O95  1  0.83021900  0.22341000  0.97581100  1
  O  O96  1  0.20766100  0.15293000  0.28799800  1
  O  O97  1  0.76616300  0.74031700  0.57489600  1
  O  O98  1  0.48455800  0.38623400  0.99118200  1
  O  O99  1  0.67616600  0.28043200  0.83176700  1
  O  O100  1  0.87700300  0.38751600  0.22171900  1
  O  O101  1  0.87947600  0.18627100  0.33945400  1
  O  O102  1  0.95221000  0.49589700  0.43717000  1
  O  O103  1  0.41679300  0.97510500  0.33880700  1
