# generated using pymatgen
data_Ti3O5
_symmetry_space_group_name_H-M   'P 1'
_cell_length_a   10.88372126
_cell_length_b   10.69576579
_cell_length_c   11.48672999
_cell_angle_alpha   91.20515089
_cell_angle_beta   87.58171174
_cell_angle_gamma   89.67453869
_symmetry_Int_Tables_number   1
_chemical_formula_structural   Ti3O5
_chemical_formula_sum   'Ti39 O65'
_cell_volume   1335.65191912
_cell_formula_units_Z   13
loop_
 _symmetry_equiv_pos_site_id
 _symmetry_equiv_pos_as_xyz
  1  'x, y, z'
loop_
 _atom_site_type_symbol
 _atom_site_label
 _atom_site_symmetry_multiplicity
 _atom_site_fract_x
 _atom_site_fract_y
 _atom_site_fract_z
 _atom_site_occupancy
  Ti  Ti0  1  0.56027633  0.40268928  0.32202933  1
  Ti  Ti1  1  0.34556655  0.57713763  0.44323561  1
  Ti  Ti2  1  0.75295946  0.88819804  0.07516854  1
  Ti  Ti3  1  0.67314217  0.36154571  0.82414833  1
  Ti  Ti4  1  0.02031393  0.60700044  0.14295762  1
  Ti  Ti5  1  0.20983367  0.93794911  0.79056829  1
  Ti  Ti6  1  0.52343468  0.38397566  0.03956420  1
  Ti  Ti7  1  0.74175157  0.23732791  0.05289851  1
  Ti  Ti8  1  0.66487026  0.91335839  0.75197259  1
  Ti  Ti9  1  0.18383857  0.33001372  0.78211655  1
  Ti  Ti10  1  0.88755526  0.55823265  0.40502186  1
  Ti  Ti11  1  0.98612601  0.15764907  0.72451428  1
  Ti  Ti12  1  0.39430064  0.72363752  0.66085804  1
  Ti  Ti13  1  0.88039247  0.99817622  0.90013424  1
  Ti  Ti14  1  0.92473951  0.86852555  0.34081021  1
  Ti  Ti15  1  0.89958980  0.50342381  0.69009759  1
  Ti  Ti16  1  0.42754695  0.99650119  0.42415380  1
  Ti  Ti17  1  0.41946325  0.44007215  0.77755291  1
  Ti  Ti18  1  0.71497258  0.38953451  0.51576491  1
  Ti  Ti19  1  0.15240493  0.76985068  0.46050237  1
  Ti  Ti20  1  0.89485165  0.96722115  0.59242781  1
  Ti  Ti21  1  0.55685239  0.72514369  0.26895562  1
  Ti  Ti22  1  0.05560636  0.87384296  0.11795617  1
  Ti  Ti23  1  0.25355990  0.26078322  0.53326738  1
  Ti  Ti24  1  0.73063036  0.09024276  0.31988690  1
  Ti  Ti25  1  0.97466138  0.71520786  0.87907027  1
  Ti  Ti26  1  0.05070014  0.19410665  0.05116864  1
  Ti  Ti27  1  0.94863333  0.40099382  0.91684103  1
  Ti  Ti28  1  0.36688611  0.07390896  0.94979872  1
  Ti  Ti29  1  0.66307552  0.71048513  0.54445376  1
  Ti  Ti30  1  0.13354132  0.36521151  0.33094664  1
  Ti  Ti31  1  0.43761032  0.15980778  0.70018486  1
  Ti  Ti32  1  0.32070596  0.85977956  0.08122484  1
  Ti  Ti33  1  0.28480864  0.61069414  0.17702466  1
  Ti  Ti34  1  0.17470190  0.00247850  0.33705786  1
  Ti  Ti35  1  0.46978110  0.13668368  0.18879387  1
  Ti  Ti36  1  0.97088422  0.12850231  0.41911189  1
  Ti  Ti37  1  0.81198414  0.35617275  0.25100435  1
  Ti  Ti38  1  0.25944572  0.31547569  0.04945071  1
  O  O39  1  0.91001792  0.15614872  0.57622128  1
  O  O40  1  0.30503123  0.90053055  0.92181341  1
  O  O41  1  0.03649256  0.94221668  0.46990404  1
  O  O42  1  0.11263916  0.33544947  0.95258825  1
  O  O43  1  0.65114981  0.76683592  0.14004097  1
  O  O44  1  0.58366171  0.05982776  0.40254880  1
  O  O45  1  0.55961382  0.78164496  0.68992051  1
  O  O46  1  0.26222725  0.90886527  0.44629356  1
  O  O47  1  0.37762502  0.12776517  0.54686291  1
  O  O48  1  0.26584152  0.41499302  0.43920166  1
  O  O49  1  0.24773876  0.67034472  0.56386956  1
  O  O50  1  0.77198709  0.06241641  0.02100123  1
  O  O51  1  0.90723458  0.30177230  0.09710727  1
  O  O52  1  0.31264936  0.87922672  0.67792470  1
  O  O53  1  0.70268369  0.87963184  0.89851569  1
  O  O54  1  0.95214633  0.75471289  0.20774039  1
  O  O55  1  0.45305268  0.28627553  0.28651555  1
  O  O56  1  0.55885619  0.43052917  0.48964528  1
  O  O57  1  0.25155108  0.67467808  0.34158072  1
  O  O58  1  0.14584844  0.27202839  0.18400976  1
  O  O59  1  0.93101099  0.19959343  0.88304655  1
  O  O60  1  0.32540336  0.35437343  0.65896142  1
  O  O61  1  0.69186521  0.71078205  0.38562735  1
  O  O62  1  0.48257900  0.65552780  0.52829776  1
  O  O63  1  0.53922446  0.03645315  0.74845394  1
  O  O64  1  0.89293372  0.19209768  0.29224660  1
  O  O65  1  0.88512516  0.65985855  0.75545139  1
  O  O66  1  0.01725093  0.01800895  0.02126381  1
  O  O67  1  0.44391597  0.99009284  0.08430364  1
  O  O68  1  0.99395038  0.41790728  0.42148043  1
  O  O69  1  0.65424536  0.38642687  0.16166403  1
  O  O70  1  0.61321093  0.24679979  0.94017324  1
  O  O71  1  0.13282211  0.51110682  0.22691816  1
  O  O72  1  0.11209574  0.78794635  0.83249787  1
  O  O73  1  0.42093112  0.23201644  0.05799788  1
  O  O74  1  0.22162344  0.13441724  0.01136348  1
  O  O75  1  0.77822459  0.39309590  0.94937268  1
  O  O76  1  0.04167365  0.99471647  0.73792516  1
  O  O77  1  0.35923627  0.46842580  0.10005496  1
  O  O78  1  0.70595472  0.28134100  0.37909706  1
  O  O79  1  0.76297487  0.84260588  0.60771421  1
  O  O80  1  0.90180652  0.82559115  0.99564852  1
  O  O81  1  0.37201466  0.60494142  0.76839857  1
  O  O82  1  0.17291476  0.71915109  0.09406521  1
  O  O83  1  0.48382343  0.84286989  0.35986627  1
  O  O84  1  0.98452621  0.56662193  0.98350183  1
  O  O85  1  0.04347985  0.44096084  0.75934705  1
  O  O86  1  0.80795347  0.03157128  0.74717159  1
  O  O87  1  0.47494022  0.56272144  0.30538954  1
  O  O88  1  0.88597608  0.52166728  0.23996266  1
  O  O89  1  0.41141937  0.73504283  0.15596732  1
  O  O90  1  0.80164446  0.94871607  0.22652553  1
  O  O91  1  0.98407487  0.71394624  0.43375378  1
  O  O92  1  0.29240179  0.11559996  0.78808573  1
  O  O93  1  0.14184535  0.18218721  0.40403151  1
  O  O94  1  0.55329702  0.47584789  0.89241177  1
  O  O95  1  0.77659098  0.37200881  0.67691898  1
  O  O96  1  0.12551530  0.22965738  0.64483042  1
  O  O97  1  0.82627245  0.00086801  0.43475616  1
  O  O98  1  0.32696091  0.36059187  0.88875317  1
  O  O99  1  0.54001098  0.30317572  0.72338308  1
  O  O100  1  0.63924590  0.13618708  0.18319065  1
  O  O101  1  0.20262919  0.94804170  0.17869106  1
  O  O102  1  0.77386832  0.56851154  0.55570593  1
  O  O103  1  0.35452069  0.06698675  0.30136478  1
