# generated using pymatgen
data_ZnS
_symmetry_space_group_name_H-M   'P 1'
_cell_length_a   12.40135765
_cell_length_b   13.56647482
_cell_length_c   13.62879606
_cell_angle_alpha   88.35193809
_cell_angle_beta   95.59955257
_cell_angle_gamma   92.88502403
_symmetry_Int_Tables_number   1
_chemical_formula_structural   ZnS
_chemical_formula_sum   'Zn50 S50'
_cell_volume   2278.45549850
_cell_formula_units_Z   50
loop_
 _symmetry_equiv_pos_site_id
 _symmetry_equiv_pos_as_xyz
  1  'x, y, z'
loop_
 _atom_site_type_symbol
 _atom_site_label
 _atom_site_symmetry_multiplicity
 _atom_site_fract_x
 _atom_site_fract_y
 _atom_site_fract_z
 _atom_site_occupancy
  Zn  Zn0  1  0.34063781  0.54097569  0.97811120  1
  Zn  Zn1  1  0.48762501  0.24663840  0.78575461  1
  Zn  Zn2  1  0.68484078  0.21374795  0.95932629  1
  Zn  Zn3  1  0.51369547  0.08203771  0.58084152  1
  Zn  Zn4  1  0.09411250  0.80733090  0.24192302  1
  Zn  Zn5  1  0.99764304  0.62541476  0.51276038  1
  Zn  Zn6  1  0.01838521  0.11958089  0.97212801  1
  Zn  Zn7  1  0.60027149  0.63613978  0.09812251  1
  Zn  Zn8  1  0.98788821  0.34572043  0.92556652  1
  Zn  Zn9  1  0.28122189  0.15927532  0.90861683  1
  Zn  Zn10  1  0.59313957  0.47281639  0.49679702  1
  Zn  Zn11  1  0.76888592  0.57425037  0.88077355  1
  Zn  Zn12  1  0.62990378  0.93248900  0.00763131  1
  Zn  Zn13  1  0.90028630  0.27151024  0.17793575  1
  Zn  Zn14  1  0.14363160  0.59738156  0.39888722  1
  Zn  Zn15  1  0.54574844  0.36818130  0.11453225  1
  Zn  Zn16  1  0.24553322  0.19856158  0.57529605  1
  Zn  Zn17  1  0.89752942  0.98960386  0.23264393  1
  Zn  Zn18  1  0.45494030  0.16747682  0.16910093  1
  Zn  Zn19  1  0.12503694  0.77564685  0.46037484  1
  Zn  Zn20  1  0.20412079  0.02071028  0.16822333  1
  Zn  Zn21  1  0.55001183  0.74014077  0.33490744  1
  Zn  Zn22  1  0.93405857  0.11991530  0.43540803  1
  Zn  Zn23  1  0.69153899  0.09739476  0.52737994  1
  Zn  Zn24  1  0.18816004  0.28977083  0.15002869  1
  Zn  Zn25  1  0.24752965  0.97941901  0.94982277  1
  Zn  Zn26  1  0.84650402  0.81561855  0.06711823  1
  Zn  Zn27  1  0.56051852  0.55045585  0.68304548  1
  Zn  Zn28  1  0.71818309  0.35902441  0.71028133  1
  Zn  Zn29  1  0.78397591  0.77025548  0.76502817  1
  Zn  Zn30  1  0.29176453  0.74385549  0.37093353  1
  Zn  Zn31  1  0.32723261  0.72594452  0.74337969  1
  Zn  Zn32  1  0.50277031  0.79061932  0.58594880  1
  Zn  Zn33  1  0.86619897  0.56837644  0.12617168  1
  Zn  Zn34  1  0.47179105  0.02860241  0.39125608  1
  Zn  Zn35  1  0.05979952  0.79591100  0.62355151  1
  Zn  Zn36  1  0.67087844  0.25044328  0.34164863  1
  Zn  Zn37  1  0.02552854  0.38910326  0.60010171  1
  Zn  Zn38  1  0.99457562  0.16722155  0.69987775  1
  Zn  Zn39  1  0.41589502  0.54543588  0.21096034  1
  Zn  Zn40  1  0.41284150  0.56078427  0.53958205  1
  Zn  Zn41  1  0.77930346  0.38786290  0.55125794  1
  Zn  Zn42  1  0.35647662  0.44579399  0.68365243  1
  Zn  Zn43  1  0.82256357  0.84356068  0.41671696  1
  Zn  Zn44  1  0.43954690  0.91497731  0.94935812  1
  Zn  Zn45  1  0.73762422  0.59677649  0.47634658  1
  Zn  Zn46  1  0.14531395  0.53408788  0.11342400  1
  Zn  Zn47  1  0.03509365  0.66164854  0.97062713  1
  Zn  Zn48  1  0.31592432  0.82094101  0.06956556  1
  Zn  Zn49  1  0.19043369  0.94396126  0.56453441  1
  S  S50  1  0.78398302  0.88321532  0.89127245  1
  S  S51  1  0.97320111  0.13758359  0.27192920  1
  S  S52  1  0.50801516  0.86727500  0.43619163  1
  S  S53  1  0.80206975  0.02073625  0.82620714  1
  S  S54  1  0.14156431  0.25580550  0.97795382  1
  S  S55  1  0.28584413  0.16055362  0.22421765  1
  S  S56  1  0.75360564  0.49953840  0.24001716  1
  S  S57  1  0.98620639  0.71853160  0.12671961  1
  S  S58  1  0.51341488  0.22380784  0.01759856  1
  S  S59  1  0.22205039  0.48169674  0.54132711  1
  S  S60  1  0.39606830  0.88948178  0.77183102  1
  S  S61  1  0.65330081  0.20378114  0.78735282  1
  S  S62  1  0.53104116  0.33627433  0.40134476  1
  S  S63  1  0.14566715  0.74474933  0.77545931  1
  S  S64  1  0.29433642  0.55364592  0.80433250  1
  S  S65  1  0.81552731  0.99349846  0.48447835  1
  S  S66  1  0.08653644  0.97440420  0.04015491  1
  S  S67  1  0.06806159  0.50656426  0.26025208  1
  S  S68  1  0.24120160  0.94284232  0.75121549  1
  S  S69  1  0.92429421  0.46647951  0.47464500  1
  S  S70  1  0.86846865  0.22491232  0.01001138  1
  S  S71  1  0.86436757  0.80062334  0.61152696  1
  S  S72  1  0.96872817  0.04195241  0.81689261  1
  S  S73  1  0.97677835  0.48797759  0.01744065  1
  S  S74  1  0.52120082  0.50474414  0.01275888  1
  S  S75  1  0.07719366  0.10636453  0.57251798  1
  S  S76  1  0.44848639  0.37509710  0.26444541  1
  S  S77  1  0.16080161  0.33829336  0.50333836  1
  S  S78  1  0.64418728  0.46305911  0.81481767  1
  S  S79  1  0.85849148  0.64540682  0.60943112  1
  S  S80  1  0.72883217  0.34990320  0.20067826  1
  S  S81  1  0.74345940  0.67153395  0.01439224  1
  S  S82  1  0.73302306  0.70915077  0.34830435  1
  S  S83  1  0.33326557  0.70638347  0.57821014  1
  S  S84  1  0.27085488  0.86595011  0.22871262  1
  S  S85  1  0.06116212  0.35060941  0.25759554  1
  S  S86  1  0.47502667  0.71533603  0.16945482  1
  S  S87  1  0.32082803  0.27771641  0.73030745  1
  S  S88  1  0.79951268  0.23279731  0.47494406  1
  S  S89  1  0.75140729  0.91813383  0.14925683  1
  S  S90  1  0.41422230  0.61083072  0.37326352  1
  S  S91  1  0.12703046  0.58499078  0.78245465  1
  S  S92  1  0.33581727  0.06492747  0.51158299  1
  S  S93  1  0.58133771  0.10080908  0.28144807  1
  S  S94  1  0.91533827  0.65951985  0.83111664  1
  S  S95  1  0.60060726  0.71869451  0.71505910  1
  S  S96  1  0.96429441  0.32386502  0.74322128  1
  S  S97  1  0.99401733  0.88289016  0.34857878  1
  S  S98  1  0.28918495  0.43612088  0.10917050  1
  S  S99  1  0.22390567  0.66753168  0.02204656  1
