# generated using pymatgen
data_FeO
_symmetry_space_group_name_H-M   'P 1'
_cell_length_a   10.65905206
_cell_length_b   10.45738117
_cell_length_c   9.94488518
_cell_angle_alpha   93.70694760
_cell_angle_beta   87.57439992
_cell_angle_gamma   98.78090990
_symmetry_Int_Tables_number   1
_chemical_formula_structural   FeO
_chemical_formula_sum   'Fe40 O40'
_cell_volume   1092.63761928
_cell_formula_units_Z   40
loop_
 _symmetry_equiv_pos_site_id
 _symmetry_equiv_pos_as_xyz
  1  'x, y, z'
loop_
 _atom_site_type_symbol
 _atom_site_label
 _atom_site_symmetry_multiplicity
 _atom_site_fract_x
 _atom_site_fract_y
 _atom_site_fract_z
 _atom_site_occupancy
  Fe  Fe0  1  0.11498200  0.85573500  0.10637600  1
  Fe  Fe1  1  0.23832000  0.64573200  0.83440100  1
  Fe  Fe2  1  0.99791200  0.05763500  0.84262800  1
  Fe  Fe3  1  0.84001300  0.98093300  0.15054500  1
  Fe  Fe4  1  0.05996200  0.98369900  0.42788700  1
  Fe  Fe5  1  0.13686600  0.85429800  0.66849500  1
  Fe  Fe6  1  0.89498500  0.56650600  0.07016600  1
  Fe  Fe7  1  0.84553700  0.75434500  0.30804600  1
  Fe  Fe8  1  0.31621600  0.46835300  0.11715600  1
  Fe  Fe9  1  0.40327400  0.41631500  0.78899800  1
  Fe  Fe10  1  0.57007900  0.44835200  0.27807300  1
  Fe  Fe11  1  0.67780900  0.30414800  0.59362300  1
  Fe  Fe12  1  0.47522900  0.78978300  0.69967000  1
  Fe  Fe13  1  0.56472600  0.93818000  0.28779000  1
  Fe  Fe14  1  0.17304900  0.18352400  0.64178800  1
  Fe  Fe15  1  0.88198800  0.26962000  0.05115300  1
  Fe  Fe16  1  0.88761900  0.38419300  0.77498600  1
  Fe  Fe17  1  0.28245700  0.95105200  0.91988800  1
  Fe  Fe18  1  0.87339100  0.19761200  0.42302300  1
  Fe  Fe19  1  0.14032000  0.67041800  0.33063400  1
  Fe  Fe20  1  0.57602500  0.96379700  0.98997400  1
  Fe  Fe21  1  0.45787600  0.69279700  0.35642000  1
  Fe  Fe22  1  0.72917100  0.09647500  0.77307600  1
  Fe  Fe23  1  0.12469200  0.33532900  0.89845100  1
  Fe  Fe24  1  0.34734300  0.50692700  0.53679500  1
  Fe  Fe25  1  0.71545700  0.81288800  0.83814200  1
  Fe  Fe26  1  0.68544400  0.58032700  0.55906800  1
  Fe  Fe27  1  0.31729700  0.91118600  0.44576400  1
  Fe  Fe28  1  0.39862500  0.76776200  0.09202800  1
  Fe  Fe29  1  0.60152500  0.30879300  0.97205800  1
  Fe  Fe30  1  0.95742600  0.73763100  0.86480400  1
  Fe  Fe31  1  0.64971200  0.18930900  0.26461100  1
  Fe  Fe32  1  0.67697000  0.92027800  0.53834700  1
  Fe  Fe33  1  0.99769800  0.54090700  0.57486900  1
  Fe  Fe34  1  0.61916900  0.60744100  0.02807000  1
  Fe  Fe35  1  0.83550900  0.48192800  0.34147700  1
  Fe  Fe36  1  0.13448000  0.35648000  0.39618400  1
  Fe  Fe37  1  0.12110200  0.15485000  0.17633700  1
  Fe  Fe38  1  0.41628200  0.10571600  0.15576500  1
  Fe  Fe39  1  0.41824600  0.20840800  0.50680900  1
  O  O40  1  0.38863900  0.58554400  0.71831600  1
  O  O41  1  0.53613600  0.45908400  0.91913100  1
  O  O42  1  0.06412300  0.66059900  0.72929300  1
  O  O43  1  0.96340700  0.62212900  0.25711000  1
  O  O44  1  0.24521700  0.03855300  0.09765800  1
  O  O45  1  0.27742900  0.06402400  0.55503200  1
  O  O46  1  0.04089100  0.01734000  0.65119300  1
  O  O47  1  0.79353900  0.66502600  0.93703200  1
  O  O48  1  0.52414400  0.55262600  0.44647400  1
  O  O49  1  0.52634700  0.28296700  0.15227800  1
  O  O50  1  0.68974500  0.35079900  0.39497000  1
  O  O51  1  0.77838000  0.97305000  0.96255500  1
  O  O52  1  0.26255300  0.31696400  0.51709900  1
  O  O53  1  0.54938500  0.75490900  0.96621700  1
  O  O54  1  0.66902800  0.75969000  0.64902500  1
  O  O55  1  0.19532400  0.35022000  0.21424800  1
  O  O56  1  0.95968200  0.38706000  0.43766300  1
  O  O57  1  0.29996700  0.83079900  0.76620500  1
  O  O58  1  0.02950700  0.27315300  0.73522800  1
  O  O59  1  0.74720900  0.12234300  0.57012600  1
  O  O60  1  0.98549000  0.91190900  0.23698300  1
  O  O61  1  0.05933400  0.16309600  0.37688500  1
  O  O62  1  0.75665900  0.25698200  0.89297600  1
  O  O63  1  0.57850700  0.96795200  0.78732400  1
  O  O64  1  0.25568700  0.48691700  0.93584000  1
  O  O65  1  0.48814000  0.85006300  0.48342200  1
  O  O66  1  0.31663900  0.77563300  0.27631100  1
  O  O67  1  0.50490600  0.32817900  0.65288200  1
  O  O68  1  0.48446700  0.09627900  0.35250200  1
  O  O69  1  0.73057900  0.88664100  0.32503400  1
  O  O70  1  0.04278800  0.18707100  0.00042600  1
  O  O71  1  0.17919000  0.54257600  0.46527400  1
  O  O72  1  0.97385800  0.43141900  0.96204200  1
  O  O73  1  0.80393500  0.48157500  0.65043600  1
  O  O74  1  0.26787300  0.26012200  0.80260300  1
  O  O75  1  0.06615100  0.90101800  0.91014000  1
  O  O76  1  0.46695000  0.59055200  0.17150200  1
  O  O77  1  0.71973000  0.55348200  0.16946700  1
  O  O78  1  0.82811700  0.17574700  0.21584800  1
  O  O79  1  0.12673600  0.82573700  0.46430100  1
