# generated using pymatgen
data_HfO2
_symmetry_space_group_name_H-M   'P 1'
_cell_length_a   10.59779028
_cell_length_b   11.80364839
_cell_length_c   10.69610259
_cell_angle_alpha   90.13845041
_cell_angle_beta   95.49375445
_cell_angle_gamma   87.03197049
_symmetry_Int_Tables_number   1
_chemical_formula_structural   HfO2
_chemical_formula_sum   'Hf34 O68'
_cell_volume   1330.06632595
_cell_formula_units_Z   34
loop_
 _symmetry_equiv_pos_site_id
 _symmetry_equiv_pos_as_xyz
  1  'x, y, z'
loop_
 _atom_site_type_symbol
 _atom_site_label
 _atom_site_symmetry_multiplicity
 _atom_site_fract_x
 _atom_site_fract_y
 _atom_site_fract_z
 _atom_site_occupancy
  Hf  Hf0  1  0.84821802  0.62115626  0.71670225  1
  Hf  Hf1  1  0.33206707  0.57978183  0.33076922  1
  Hf  Hf2  1  0.64542025  0.55066920  0.47016100  1
  Hf  Hf3  1  0.76086522  0.57465231  0.19567082  1
  Hf  Hf4  1  0.50922135  0.99612621  0.92400053  1
  Hf  Hf5  1  0.38507164  0.74757490  0.59165196  1
  Hf  Hf6  1  0.42031642  0.14870322  0.67171448  1
  Hf  Hf7  1  0.43356484  0.32207709  0.88734654  1
  Hf  Hf8  1  0.23808187  0.36392137  0.11363956  1
  Hf  Hf9  1  0.16241451  0.07985407  0.50574372  1
  Hf  Hf10  1  0.80251333  0.05657249  0.03956302  1
  Hf  Hf11  1  0.03919923  0.65251764  0.41940779  1
  Hf  Hf12  1  0.72640951  0.78651775  0.01390861  1
  Hf  Hf13  1  0.68673128  0.40052286  0.71637361  1
  Hf  Hf14  1  0.95016744  0.35057034  0.52138881  1
  Hf  Hf15  1  0.46071489  0.28872571  0.44657394  1
  Hf  Hf16  1  0.33598042  0.89951129  0.30604762  1
  Hf  Hf17  1  0.04612399  0.44385460  0.87266165  1
  Hf  Hf18  1  0.06021355  0.65981615  0.10947539  1
  Hf  Hf19  1  0.26224475  0.47605746  0.60814760  1
  Hf  Hf20  1  0.35565863  0.78805020  0.04381395  1
  Hf  Hf21  1  0.65308270  0.33227274  0.18978001  1
  Hf  Hf22  1  0.57255335  0.05708223  0.26342404  1
  Hf  Hf23  1  0.15324389  0.69088657  0.80299858  1
  Hf  Hf24  1  0.94235254  0.87019836  0.60852646  1
  Hf  Hf25  1  0.65747891  0.85831552  0.71310313  1
  Hf  Hf26  1  0.68892355  0.83413559  0.41545544  1
  Hf  Hf27  1  0.52534183  0.61782498  0.84467097  1
  Hf  Hf28  1  0.96987931  0.93079637  0.29443242  1
  Hf  Hf29  1  0.71821657  0.13475445  0.68869563  1
  Hf  Hf30  1  0.93959576  0.28206768  0.17326484  1
  Hf  Hf31  1  0.19606549  0.09596453  0.14137395  1
  Hf  Hf32  1  0.18223207  0.96172781  0.79738497  1
  Hf  Hf33  1  0.00844416  0.18256141  0.83311633  1
  O  O34  1  0.00883339  0.69187182  0.62000492  1
  O  O35  1  0.82266052  0.50093480  0.56126642  1
  O  O36  1  0.26121083  0.38050187  0.92837782  1
  O  O37  1  0.53141331  0.89242139  0.30109024  1
  O  O38  1  0.55684653  0.01845777  0.73868978  1
  O  O39  1  0.64999090  0.57880757  0.68242550  1
  O  O40  1  0.55237868  0.44860217  0.83943757  1
  O  O41  1  0.77781347  0.76480558  0.60151704  1
  O  O42  1  0.31104690  0.20744968  0.09009298  1
  O  O43  1  0.87078979  0.68044171  0.09641053  1
  O  O44  1  0.13373796  0.07657686  0.94009416  1
  O  O45  1  0.68589556  0.68116437  0.33892092  1
  O  O46  1  0.60290692  0.06143639  0.08207608  1
  O  O47  1  0.53982477  0.84206736  0.03579855  1
  O  O48  1  0.38280000  0.06392013  0.27405827  1
  O  O49  1  0.29273781  0.86152648  0.47242741  1
  O  O50  1  0.36446141  0.65727964  0.92348639  1
  O  O51  1  0.83807430  0.12029532  0.86653664  1
  O  O52  1  0.28434630  0.03598473  0.66658799  1
  O  O53  1  0.32552948  0.18135520  0.49361701  1
  O  O54  1  0.38565695  0.59033179  0.69090036  1
  O  O55  1  0.36080226  0.45760541  0.20725059  1
  O  O56  1  0.61013705  0.24882424  0.77842350  1
  O  O57  1  0.05819357  0.21476376  0.49804705  1
  O  O58  1  0.75159199  0.73324211  0.83640819  1
  O  O59  1  0.08166514  0.46732502  0.51306701  1
  O  O60  1  0.09285221  0.49367497  0.05933318  1
  O  O61  1  0.63810011  0.63346597  0.03028479  1
  O  O62  1  0.25759837  0.92556953  0.12541134  1
  O  O63  1  0.98874258  0.62329456  0.86452684  1
  O  O64  1  0.34337906  0.92389087  0.91130298  1
  O  O65  1  0.74173180  0.98990287  0.34871115  1
  O  O66  1  0.34334811  0.42854198  0.44571536  1
  O  O67  1  0.83402037  0.90445266  0.12943555  1
  O  O68  1  0.81301878  0.26521692  0.64041743  1
  O  O69  1  0.56368040  0.23085601  0.30683653  1
  O  O70  1  0.03334729  0.85494155  0.78484478  1
  O  O71  1  0.56567604  0.16228540  0.55371234  1
  O  O72  1  0.63922070  0.47455221  0.29667998  1
  O  O73  1  0.24533867  0.80468020  0.70919012  1
  O  O74  1  0.15353105  0.01789641  0.31806506  1
  O  O75  1  0.89717819  0.80524479  0.41415763  1
  O  O76  1  0.55458263  0.84428487  0.54384695  1
  O  O77  1  0.23526291  0.63521881  0.49591839  1
  O  O78  1  0.76960711  0.20246646  0.13315276  1
  O  O79  1  0.36405351  0.32459589  0.68718663  1
  O  O80  1  0.05100363  0.06804265  0.69702234  1
  O  O81  1  0.87844588  0.31773228  0.34335478  1
  O  O82  1  0.35583556  0.73014046  0.22478258  1
  O  O83  1  0.16197662  0.74290856  0.99328581  1
  O  O84  1  0.12722907  0.26507422  0.21777526  1
  O  O85  1  0.50484151  0.77755256  0.75998252  1
  O  O86  1  0.04690371  0.31958006  0.73608776  1
  O  O87  1  0.00483680  0.29676728  0.98193043  1
  O  O88  1  0.59065305  0.39584480  0.53535287  1
  O  O89  1  0.84916503  0.46068213  0.80650997  1
  O  O90  1  0.91136148  0.57179929  0.31970010  1
  O  O91  1  0.70441424  0.93769719  0.90844197  1
  O  O92  1  0.78650319  0.97334568  0.64250743  1
  O  O93  1  0.16374615  0.52443555  0.75893505  1
  O  O94  1  0.02020553  0.96516748  0.48407560  1
  O  O95  1  0.80386835  0.41977474  0.12553204  1
  O  O96  1  0.41792442  0.15070254  0.86863113  1
  O  O97  1  0.52733713  0.33844187  0.05307477  1
  O  O98  1  0.97553890  0.08674058  0.14601869  1
  O  O99  1  0.47568535  0.63546345  0.46079468  1
  O  O100  1  0.14730435  0.59121774  0.27253962  1
  O  O101  1  0.06107206  0.78837261  0.25634404  1
