# generated using pymatgen
data_Al2O3
_symmetry_space_group_name_H-M   'P 1'
_cell_length_a   10.01873102
_cell_length_b   10.12149497
_cell_length_c   10.43627661
_cell_angle_alpha   93.32406139
_cell_angle_beta   91.30725306
_cell_angle_gamma   95.00265522
_symmetry_Int_Tables_number   1
_chemical_formula_structural   Al2O3
_chemical_formula_sum   'Al40 O60'
_cell_volume   1052.06732823
_cell_formula_units_Z   20
loop_
 _symmetry_equiv_pos_site_id
 _symmetry_equiv_pos_as_xyz
  1  'x, y, z'
loop_
 _atom_site_type_symbol
 _atom_site_label
 _atom_site_symmetry_multiplicity
 _atom_site_fract_x
 _atom_site_fract_y
 _atom_site_fract_z
 _atom_site_occupancy
  Al  Al0  1  0.75379100  0.58784700  0.51627400  1
  Al  Al1  1  0.69330400  0.81451200  0.38413400  1
  Al  Al2  1  0.48768900  0.83727800  0.76962200  1
  Al  Al3  1  0.84374800  0.56383300  0.00386700  1
  Al  Al4  1  0.86598600  0.31226100  0.10652700  1
  Al  Al5  1  0.28685900  0.86401600  0.59625200  1
  Al  Al6  1  0.19777800  0.53884900  0.54993600  1
  Al  Al7  1  0.98505800  0.27088400  0.56558800  1
  Al  Al8  1  0.40158700  0.43824900  0.23885200  1
  Al  Al9  1  0.80498300  0.33815600  0.82707200  1
  Al  Al10  1  0.46204200  0.65744100  0.48446100  1
  Al  Al11  1  0.26764000  0.53520400  0.84499000  1
  Al  Al12  1  0.68328200  0.30424400  0.44390400  1
  Al  Al13  1  0.78735800  0.05409000  0.58521200  1
  Al  Al14  1  0.71933700  0.06995500  0.94950900  1
  Al  Al15  1  0.97454700  0.83600300  0.63953400  1
  Al  Al16  1  0.31926700  0.13554200  0.12030600  1
  Al  Al17  1  0.01303200  0.05884700  0.80791800  1
  Al  Al18  1  0.60018800  0.54204700  0.76611600  1
  Al  Al19  1  0.49648600  0.06110300  0.43010800  1
  Al  Al20  1  0.56449600  0.12402100  0.74012900  1
  Al  Al21  1  0.11536900  0.56792300  0.17126400  1
  Al  Al22  1  0.96887600  0.55935000  0.72253400  1
  Al  Al23  1  0.16852100  0.75861000  0.34928900  1
  Al  Al24  1  0.36774300  0.65092200  0.09918700  1
  Al  Al25  1  0.36324500  0.32799500  0.51213500  1
  Al  Al26  1  0.02378300  0.09301900  0.08119000  1
  Al  Al27  1  0.58138800  0.22509300  0.17865100  1
  Al  Al28  1  0.78359200  0.79184000  0.81067300  1
  Al  Al29  1  0.14271400  0.02143900  0.43750500  1
  Al  Al30  1  0.78358600  0.04321000  0.26620500  1
  Al  Al31  1  0.63694300  0.55486400  0.19432900  1
  Al  Al32  1  0.47236900  0.93779100  0.16821200  1
  Al  Al33  1  0.46679000  0.38246100  0.93790800  1
  Al  Al34  1  0.20909200  0.91753300  0.91376100  1
  Al  Al35  1  0.68845300  0.82759100  0.07572000  1
  Al  Al36  1  0.12033500  0.29774600  0.31373900  1
  Al  Al37  1  0.27607600  0.23379700  0.78716600  1
  Al  Al38  1  0.99588900  0.82672300  0.15883900  1
  Al  Al39  1  0.88921900  0.52518700  0.30018200  1
  O  O40  1  0.83131400  0.87998000  0.19396100  1
  O  O41  1  0.16219500  0.18452800  0.16355200  1
  O  O42  1  0.73290600  0.17295900  0.79410200  1
  O  O43  1  0.03759900  0.88016000  0.79976800  1
  O  O44  1  0.51100500  0.24664900  0.49054400  1
  O  O45  1  0.92598600  0.38732500  0.70689200  1
  O  O46  1  0.08189200  0.41007400  0.48386200  1
  O  O47  1  0.32159600  0.99747000  0.47697200  1
  O  O48  1  0.70418800  0.22846400  0.04876700  1
  O  O49  1  0.91829200  0.66285000  0.59504000  1
  O  O50  1  0.43773500  0.26044300  0.07038600  1
  O  O51  1  0.97053000  0.11543200  0.65759000  1
  O  O52  1  0.06681500  0.16827600  0.42080900  1
  O  O53  1  0.78909800  0.46431900  0.15935100  1
  O  O54  1  0.27093200  0.67149400  0.95462000  1
  O  O55  1  0.81587100  0.89592000  0.67511100  1
  O  O56  1  0.67704100  0.17066600  0.31615700  1
  O  O57  1  0.91105000  0.40192800  0.96277400  1
  O  O58  1  0.66162800  0.48577400  0.61966100  1
  O  O59  1  0.11059600  0.89826700  0.55475600  1
  O  O60  1  0.43249700  0.09765100  0.25115700  1
  O  O61  1  0.92739600  0.12437800  0.94208800  1
  O  O62  1  0.50629600  0.78077200  0.09963000  1
  O  O63  1  0.77547600  0.89965100  0.94395900  1
  O  O64  1  0.64053600  0.71277400  0.51077200  1
  O  O65  1  0.33628900  0.97554900  0.04534000  1
  O  O66  1  0.86824300  0.63921100  0.84081700  1
  O  O67  1  0.25522700  0.36979300  0.89585600  1
  O  O68  1  0.24577400  0.72884500  0.20450500  1
  O  O69  1  0.18545100  0.09659500  0.85969100  1
  O  O70  1  0.64132500  0.00349600  0.11673700  1
  O  O71  1  0.37228100  0.50678000  0.54678100  1
  O  O72  1  0.57135600  0.38414300  0.27101400  1
  O  O73  1  0.01104600  0.40035400  0.21944400  1
  O  O74  1  0.80721300  0.22157500  0.52919600  1
  O  O75  1  0.90388800  0.15366900  0.18840200  1
  O  O76  1  0.07305200  0.93104800  0.04563400  1
  O  O77  1  0.24450300  0.70190600  0.48744600  1
  O  O78  1  0.47180400  0.60386900  0.31495200  1
  O  O79  1  0.09040000  0.90207900  0.30613300  1
  O  O80  1  0.54894400  0.90539800  0.33721700  1
  O  O81  1  0.45475100  0.23412300  0.80644700  1
  O  O82  1  0.26001300  0.48922900  0.15266400  1
  O  O83  1  0.66570200  0.43347100  0.87756800  1
  O  O84  1  0.44386700  0.79335400  0.60480300  1
  O  O85  1  0.48877900  0.51144300  0.08084400  1
  O  O86  1  0.15026100  0.57065100  0.71499700  1
  O  O87  1  0.71553700  0.65901200  0.06210800  1
  O  O88  1  0.61371400  0.72120900  0.79317100  1
  O  O89  1  0.76031500  0.65765200  0.31950300  1
  O  O90  1  0.30965100  0.87621500  0.77393900  1
  O  O91  1  0.59693300  0.04585300  0.58594800  1
  O  O92  1  0.80472500  0.44596200  0.42450000  1
  O  O93  1  0.43740500  0.51052500  0.81332300  1
  O  O94  1  0.25084400  0.25792400  0.62367500  1
  O  O95  1  0.03950300  0.62973900  0.32548200  1
  O  O96  1  0.56312200  0.98925200  0.84389400  1
  O  O97  1  0.99155600  0.65610400  0.08795400  1
  O  O98  1  0.29906000  0.33599900  0.34761900  1
  O  O99  1  0.80258100  0.96336700  0.42638300  1
