# generated using pymatgen
data_Al2O3
_symmetry_space_group_name_H-M   'P 1'
_cell_length_a   10.70903819
_cell_length_b   10.44943966
_cell_length_c   9.82677943
_cell_angle_alpha   87.15966866
_cell_angle_beta   90.64721454
_cell_angle_gamma   90.19529951
_symmetry_Int_Tables_number   1
_chemical_formula_structural   Al2O3
_chemical_formula_sum   'Al40 O60'
_cell_volume   1098.22504823
_cell_formula_units_Z   20
loop_
 _symmetry_equiv_pos_site_id
 _symmetry_equiv_pos_as_xyz
  1  'x, y, z'
loop_
 _atom_site_type_symbol
 _atom_site_label
 _atom_site_symmetry_multiplicity
 _atom_site_fract_x
 _atom_site_fract_y
 _atom_site_fract_z
 _atom_site_occupancy
  Al  Al0  1  0.78733100  0.38219000  0.62550200  1
  Al  Al1  1  0.72359400  0.95480300  0.35067500  1
  Al  Al2  1  0.66630600  0.60156700  0.78239300  1
  Al  Al3  1  0.26734300  0.64099100  0.47250300  1
  Al  Al4  1  0.92102400  0.49062500  0.17211100  1
  Al  Al5  1  0.21742900  0.89696000  0.53770000  1
  Al  Al6  1  0.04296200  0.82590000  0.78536600  1
  Al  Al7  1  0.09206900  0.20545000  0.40700900  1
  Al  Al8  1  0.62956700  0.15020300  0.09041700  1
  Al  Al9  1  0.87281300  0.27383500  0.93819800  1
  Al  Al10  1  0.50802900  0.58231400  0.55862500  1
  Al  Al11  1  0.19943800  0.59207800  0.75035700  1
  Al  Al12  1  0.58160900  0.20781400  0.44730100  1
  Al  Al13  1  0.78393100  0.68451100  0.50546200  1
  Al  Al14  1  0.28000200  0.99614700  0.85976700  1
  Al  Al15  1  0.76046000  0.84642500  0.80861700  1
  Al  Al16  1  0.30980600  0.16685200  0.10628800  1
  Al  Al17  1  0.62214900  0.87535100  0.08282600  1
  Al  Al18  1  0.34613200  0.12422100  0.61491200  1
  Al  Al19  1  0.42859700  0.00924600  0.28477500  1
  Al  Al20  1  0.54136200  0.00164800  0.80384100  1
  Al  Al21  1  0.18441900  0.68038000  0.01540300  1
  Al  Al22  1  0.70792700  0.61309800  0.08257800  1
  Al  Al23  1  0.98651300  0.91560400  0.44717000  1
  Al  Al24  1  0.19115100  0.85789200  0.21658500  1
  Al  Al25  1  0.37135300  0.37300200  0.42471700  1
  Al  Al26  1  0.11359600  0.37691400  0.98308300  1
  Al  Al27  1  0.60111600  0.37842900  0.88153000  1
  Al  Al28  1  0.98899300  0.04685400  0.88789300  1
  Al  Al29  1  0.80934400  0.08879200  0.62258900  1
  Al  Al30  1  0.91866500  0.79221000  0.20411100  1
  Al  Al31  1  0.63303100  0.49306400  0.31167000  1
  Al  Al32  1  0.51759400  0.86950000  0.50242100  1
  Al  Al33  1  0.31713800  0.29407000  0.81934700  1
  Al  Al34  1  0.40389100  0.76304500  0.77567200  1
  Al  Al35  1  0.43109500  0.70187900  0.24378000  1
  Al  Al36  1  0.18977500  0.43991500  0.23553800  1
  Al  Al37  1  0.05252100  0.25124300  0.71070200  1
  Al  Al38  1  0.90568200  0.10143900  0.19699800  1
  Al  Al39  1  0.01931300  0.47566500  0.48877500  1
  O  O40  1  0.97730600  0.95208100  0.25586200  1
  O  O41  1  0.22183600  0.30807500  0.11373100  1
  O  O42  1  0.60739700  0.01967200  0.98304800  1
  O  O43  1  0.11987400  0.04043800  0.45696900  1
  O  O44  1  0.47222100  0.15178200  0.17124900  1
  O  O45  1  0.02026200  0.30594000  0.53641900  1
  O  O46  1  0.30671300  0.65916200  0.88364200  1
  O  O47  1  0.18946900  0.79058700  0.39022500  1
  O  O48  1  0.69893200  0.26752200  0.97390800  1
  O  O49  1  0.05382100  0.85123000  0.60837500  1
  O  O50  1  0.27107400  0.98412300  0.68045000  1
  O  O51  1  0.22900300  0.23179100  0.67665200  1
  O  O52  1  0.98945700  0.21961000  0.26998300  1
  O  O53  1  0.50376300  0.86938000  0.21359600  1
  O  O54  1  0.51680600  0.64125700  0.72339700  1
  O  O55  1  0.70877900  0.99941700  0.73791400  1
  O  O56  1  0.58127200  0.03830600  0.40748800  1
  O  O57  1  0.94779700  0.39269600  0.03242500  1
  O  O58  1  0.90825700  0.88722500  0.86226600  1
  O  O59  1  0.28547600  0.73176800  0.63572800  1
  O  O60  1  0.22090900  0.31540300  0.37237200  1
  O  O61  1  0.88456800  0.32983300  0.76224500  1
  O  O62  1  0.29977400  0.74675200  0.14198500  1
  O  O63  1  0.95536800  0.10198600  0.71073800  1
  O  O64  1  0.86687500  0.51665300  0.54117500  1
  O  O65  1  0.29916400  0.14608100  0.93184800  1
  O  O66  1  0.08091100  0.67260900  0.84639700  1
  O  O67  1  0.14238000  0.52447300  0.07875000  1
  O  O68  1  0.44075800  0.70736000  0.43567600  1
  O  O69  1  0.19255600  0.42365400  0.82467500  1
  O  O70  1  0.73746700  0.11012200  0.22802900  1
  O  O71  1  0.38353200  0.47715700  0.56119700  1
  O  O72  1  0.56904500  0.61678800  0.19237900  1
  O  O73  1  0.03393100  0.48692000  0.30831200  1
  O  O74  1  0.84311800  0.00517300  0.47441200  1
  O  O75  1  0.89061900  0.10869200  0.01486000  1
  O  O76  1  0.05964900  0.22397000  0.89610700  1
  O  O77  1  0.65133500  0.56771100  0.46905400  1
  O  O78  1  0.31384900  0.53612300  0.31581500  1
  O  O79  1  0.90580300  0.75631100  0.39682800  1
  O  O80  1  0.75884500  0.46214200  0.21141000  1
  O  O81  1  0.72331100  0.23350900  0.55200500  1
  O  O82  1  0.07341400  0.78260300  0.11831500  1
  O  O83  1  0.54066600  0.36044200  0.35532600  1
  O  O84  1  0.77189700  0.71051200  0.69964000  1
  O  O85  1  0.46836400  0.14061700  0.73634800  1
  O  O86  1  0.65628700  0.43982400  0.71368600  1
  O  O87  1  0.75485300  0.86401700  0.19425200  1
  O  O88  1  0.67011900  0.52275700  0.94351700  1
  O  O89  1  0.67183900  0.81751200  0.46009600  1
  O  O90  1  0.51306000  0.87647700  0.67974400  1
  O  O91  1  0.67158000  0.76849600  0.95239600  1
  O  O92  1  0.14185700  0.55686700  0.56922700  1
  O  O93  1  0.44519500  0.36111300  0.89615300  1
  O  O94  1  0.41823400  0.21063200  0.48109200  1
  O  O95  1  0.86750600  0.65104500  0.11836400  1
  O  O96  1  0.41143800  0.89804900  0.89434000  1
  O  O97  1  0.12594200  0.94525700  0.88954700  1
  O  O98  1  0.27222600  0.01488500  0.19647100  1
  O  O99  1  0.37176100  0.95163700  0.45068200  1
