# generated using pymatgen
data_ZnS
_symmetry_space_group_name_H-M   'P 1'
_cell_length_a   14.41829998
_cell_length_b   12.69467358
_cell_length_c   13.14542897
_cell_angle_alpha   89.89412727
_cell_angle_beta   84.86413947
_cell_angle_gamma   92.80979113
_symmetry_Int_Tables_number   1
_chemical_formula_structural   ZnS
_chemical_formula_sum   'Zn50 S50'
_cell_volume   2393.49370856
_cell_formula_units_Z   50
loop_
 _symmetry_equiv_pos_site_id
 _symmetry_equiv_pos_as_xyz
  1  'x, y, z'
loop_
 _atom_site_type_symbol
 _atom_site_label
 _atom_site_symmetry_multiplicity
 _atom_site_fract_x
 _atom_site_fract_y
 _atom_site_fract_z
 _atom_site_occupancy
  Zn  Zn0  1  0.87184494  0.60494551  0.00537923  1
  Zn  Zn1  1  0.35929818  0.11687675  0.13803156  1
  Zn  Zn2  1  0.46557025  0.95963034  0.81712421  1
  Zn  Zn3  1  0.07427505  0.84290374  0.99478285  1
  Zn  Zn4  1  0.33485647  0.06533011  0.68478221  1
  Zn  Zn5  1  0.62031408  0.64713455  0.95967014  1
  Zn  Zn6  1  0.69719117  0.98268354  0.18710235  1
  Zn  Zn7  1  0.51530692  0.47092285  0.33107786  1
  Zn  Zn8  1  0.79628845  0.68720253  0.70434240  1
  Zn  Zn9  1  0.30033570  0.80973231  0.00410154  1
  Zn  Zn10  1  0.50303518  0.10884077  0.37086811  1
  Zn  Zn11  1  0.81429454  0.18928731  0.99116314  1
  Zn  Zn12  1  0.22976616  0.41280993  0.67446475  1
  Zn  Zn13  1  0.75561537  0.54433149  0.30070522  1
  Zn  Zn14  1  0.74822348  0.39093695  0.81645466  1
  Zn  Zn15  1  0.48162879  0.28454595  0.85980682  1
  Zn  Zn16  1  0.40869950  0.35005254  0.14730567  1
  Zn  Zn17  1  0.67082901  0.09267604  0.75202880  1
  Zn  Zn18  1  0.93078957  0.08872253  0.07037871  1
  Zn  Zn19  1  0.54604653  0.10703324  0.06212078  1
  Zn  Zn20  1  0.21854838  0.00804982  0.46403401  1
  Zn  Zn21  1  0.01508148  0.88667301  0.51818496  1
  Zn  Zn22  1  0.64113614  0.62411422  0.14221695  1
  Zn  Zn23  1  0.99552247  0.01297219  0.28320111  1
  Zn  Zn24  1  0.51770320  0.66424431  0.46827249  1
  Zn  Zn25  1  0.99101346  0.12591030  0.52470122  1
  Zn  Zn26  1  0.94259714  0.09677321  0.87400467  1
  Zn  Zn27  1  0.85360221  0.39586037  0.54009299  1
  Zn  Zn28  1  0.06289094  0.63405656  0.66049269  1
  Zn  Zn29  1  0.18870866  0.13453502  0.72788842  1
  Zn  Zn30  1  0.10672998  0.40071874  0.48377323  1
  Zn  Zn31  1  0.57016604  0.24794037  0.61200482  1
  Zn  Zn32  1  0.93771222  0.73816492  0.20184131  1
  Zn  Zn33  1  0.14801661  0.19230216  0.19656834  1
  Zn  Zn34  1  0.63153385  0.63151617  0.64825981  1
  Zn  Zn35  1  0.44989064  0.96090607  0.17491489  1
  Zn  Zn36  1  0.47568438  0.66540495  0.11051076  1
  Zn  Zn37  1  0.12097870  0.76386671  0.28768920  1
  Zn  Zn38  1  0.24108504  0.66434419  0.44320056  1
  Zn  Zn39  1  0.31600237  0.24294957  0.40826420  1
  Zn  Zn40  1  0.15715187  0.62824426  0.89105721  1
  Zn  Zn41  1  0.39982540  0.86242987  0.56164477  1
  Zn  Zn42  1  0.00184162  0.34910274  0.84068368  1
  Zn  Zn43  1  0.01941591  0.82975068  0.75600617  1
  Zn  Zn44  1  0.69118594  0.82373250  0.65518966  1
  Zn  Zn45  1  0.80624197  0.85848381  0.96326366  1
  Zn  Zn46  1  0.87406811  0.18742885  0.73613026  1
  Zn  Zn47  1  0.38584046  0.53185036  0.85439876  1
  Zn  Zn48  1  0.21950736  0.30937405  0.92165067  1
  Zn  Zn49  1  0.94169447  0.57896917  0.31176837  1
  S  S50  1  0.55283019  0.94254497  0.95694680  1
  S  S51  1  0.37747436  0.03942462  0.49956942  1
  S  S52  1  0.51196740  0.27527346  0.02579817  1
  S  S53  1  0.55144915  0.57758869  0.80932818  1
  S  S54  1  0.45659877  0.27884888  0.31475510  1
  S  S55  1  0.91835109  0.99354948  0.43749324  1
  S  S56  1  0.35347421  0.88567694  0.73422327  1
  S  S57  1  0.09899565  0.03165852  0.60339157  1
  S  S58  1  0.99192167  0.17421364  0.20620107  1
  S  S59  1  0.41841872  0.51697792  0.21090523  1
  S  S60  1  0.35177769  0.36202793  0.80631018  1
  S  S61  1  0.14532283  0.45068969  0.83723162  1
  S  S62  1  0.15230048  0.74457299  0.75691030  1
  S  S63  1  0.59824416  0.44337447  0.88295882  1
  S  S64  1  0.15715115  0.83000250  0.44260168  1
  S  S65  1  0.85488547  0.35808691  0.93262383  1
  S  S66  1  0.05520536  0.87843226  0.18703054  1
  S  S67  1  0.51121490  0.13719585  0.75467944  1
  S  S68  1  0.69526143  0.14512771  0.11289511  1
  S  S69  1  0.97594913  0.29647212  0.57421776  1
  S  S70  1  0.17534020  0.54610285  0.56505880  1
  S  S71  1  0.09106430  0.19817444  0.86374318  1
  S  S72  1  0.23760355  0.11488741  0.31010893  1
  S  S73  1  0.21811648  0.28745639  0.54414330  1
  S  S74  1  0.26649293  0.26322515  0.08592687  1
  S  S75  1  0.96158454  0.50841803  0.74973521  1
  S  S76  1  0.38104205  0.80097455  0.14567535  1
  S  S77  1  0.94274922  0.75167823  0.62337825  1
  S  S78  1  0.30141578  0.62920682  0.96355737  1
  S  S79  1  0.48577291  0.39459300  0.60808435  1
  S  S80  1  0.38723820  0.74221201  0.43082458  1
  S  S81  1  0.02192141  0.66225204  0.02739848  1
  S  S82  1  0.55999492  0.95665343  0.29037805  1
  S  S83  1  0.82045968  0.88289898  0.13585722  1
  S  S84  1  0.18713336  0.59839945  0.28399111  1
  S  S85  1  0.73721965  0.99451878  0.61146302  1
  S  S86  1  0.95735996  0.91456803  0.89345309  1
  S  S87  1  0.76452250  0.51941558  0.12313744  1
  S  S88  1  0.07804112  0.48407514  0.32253693  1
  S  S89  1  0.62894187  0.64457327  0.31869223  1
  S  S90  1  0.77692562  0.68940103  0.89410067  1
  S  S91  1  0.54413230  0.77302031  0.61056116  1
  S  S92  1  0.63195647  0.15851818  0.46963741  1
  S  S93  1  0.21170117  0.93570892  0.96295211  1
  S  S94  1  0.83244532  0.50635068  0.68817414  1
  S  S95  1  0.62446897  0.00348524  0.52140671  1
  S  S96  1  0.68307526  0.95246745  0.87082032  1
  S  S97  1  0.73098812  0.26045323  0.69245838  1
  S  S98  1  0.56966736  0.48700777  0.50124200  1
  S  S99  1  0.84079958  0.42822193  0.37395615  1
