# generated using pymatgen
data_V2O5
_symmetry_space_group_name_H-M   'P 1'
_cell_length_a   12.15256537
_cell_length_b   11.95031563
_cell_length_c   12.56224201
_cell_angle_alpha   88.90610240
_cell_angle_beta   89.28405044
_cell_angle_gamma   84.53925542
_symmetry_Int_Tables_number   1
_chemical_formula_structural   V2O5
_chemical_formula_sum   'V30 O75'
_cell_volume   1815.66142868
_cell_formula_units_Z   15
loop_
 _symmetry_equiv_pos_site_id
 _symmetry_equiv_pos_as_xyz
  1  'x, y, z'
loop_
 _atom_site_type_symbol
 _atom_site_label
 _atom_site_symmetry_multiplicity
 _atom_site_fract_x
 _atom_site_fract_y
 _atom_site_fract_z
 _atom_site_occupancy
  V  V0  1  0.13043024  0.94649126  0.17563160  1
  V  V1  1  0.96149936  0.83348651  0.76436217  1
  V  V2  1  0.86674653  0.09337023  0.72878829  1
  V  V3  1  0.88707584  0.07990006  0.17802982  1
  V  V4  1  0.93209810  0.92138112  0.98534109  1
  V  V5  1  0.25447026  0.80205547  0.75236430  1
  V  V6  1  0.10395345  0.63416987  0.93965444  1
  V  V7  1  0.52670183  0.94457472  0.39609198  1
  V  V8  1  0.79556655  0.61459699  0.73902604  1
  V  V9  1  0.90311746  0.69261236  0.13100106  1
  V  V10  1  0.71208554  0.13983105  0.48788928  1
  V  V11  1  0.18664754  0.81366172  0.52643087  1
  V  V12  1  0.33367319  0.93796109  0.97764048  1
  V  V13  1  0.54617518  0.12028819  0.95408304  1
  V  V14  1  0.98404045  0.67451739  0.40374061  1
  V  V15  1  0.08326688  0.19768011  0.31532667  1
  V  V16  1  0.93416107  0.94382755  0.51186024  1
  V  V17  1  0.35964270  0.17322459  0.33847367  1
  V  V18  1  0.52929201  0.54229412  0.68244469  1
  V  V19  1  0.68781896  0.32109665  0.83739109  1
  V  V20  1  0.31510564  0.52894161  0.86657344  1
  V  V21  1  0.41703824  0.90985557  0.63622419  1
  V  V22  1  0.49896814  0.33313193  0.51399556  1
  V  V23  1  0.62870909  0.17404105  0.16930954  1
  V  V24  1  0.62167164  0.01224687  0.71290881  1
  V  V25  1  0.17109722  0.44761349  0.37216060  1
  V  V26  1  0.68049927  0.38213749  0.29998024  1
  V  V27  1  0.72518907  0.54810472  0.99239747  1
  V  V28  1  0.44416517  0.50234944  0.29066850  1
  V  V29  1  0.38191336  0.33850077  0.07313593  1
  O  O30  1  0.11795905  0.34035497  0.29004727  1
  O  O31  1  0.24366095  0.98105023  0.08509918  1
  O  O32  1  0.78974459  0.44480727  0.31896058  1
  O  O33  1  0.03214723  0.65757740  0.07506685  1
  O  O34  1  0.90652107  0.59684482  0.47077062  1
  O  O35  1  0.47586477  0.03560596  0.67506608  1
  O  O36  1  0.40978109  0.24491609  0.45495353  1
  O  O37  1  0.08641806  0.71914155  0.49535082  1
  O  O38  1  0.71958289  0.24476024  0.39461057  1
  O  O39  1  0.06032415  0.91772778  0.03397403  1
  O  O40  1  0.99223276  0.78100208  0.89660727  1
  O  O41  1  0.54311388  0.17183791  0.27291148  1
  O  O42  1  0.31987137  0.45725381  0.35843071  1
  O  O43  1  0.39893267  0.44471677  0.16175722  1
  O  O44  1  0.63209933  0.02672182  0.84867581  1
  O  O45  1  0.64150023  0.40768719  0.73562767  1
  O  O46  1  0.41037384  0.02251936  0.33922399  1
  O  O47  1  0.65663588  0.88038769  0.68731243  1
  O  O48  1  0.58952475  0.48547889  0.23386749  1
  O  O49  1  0.85651336  0.82336424  0.06400235  1
  O  O50  1  0.27727157  0.22945183  0.01454275  1
  O  O51  1  0.96678142  0.15466434  0.67549317  1
  O  O52  1  0.13823401  0.05135355  0.26978096  1
  O  O53  1  0.08858341  0.57563851  0.33967069  1
  O  O54  1  0.22887323  0.16997113  0.38624186  1
  O  O55  1  0.40716494  0.82464758  0.01451135  1
  O  O56  1  0.25755504  0.45482417  0.78246024  1
  O  O57  1  0.87753730  0.05592584  0.03470671  1
  O  O58  1  0.89018356  0.72620048  0.71136485  1
  O  O59  1  0.21547423  0.54216159  0.98775514  1
  O  O60  1  0.72769608  0.40614086  0.94860469  1
  O  O61  1  0.25647300  0.72249960  0.63060930  1
  O  O62  1  0.42169355  0.63648119  0.28938476  1
  O  O63  1  0.14968296  0.41627646  0.49529390  1
  O  O64  1  0.90197289  0.82888943  0.44735908  1
  O  O65  1  0.54919477  0.41580094  0.40728820  1
  O  O66  1  0.48385884  0.86840664  0.51283312  1
  O  O67  1  0.64018656  0.07235874  0.06102744  1
  O  O68  1  0.70270822  0.29549643  0.17780827  1
  O  O69  1  0.65959862  0.61589810  0.69092641  1
  O  O70  1  0.77336619  0.62486696  0.88109336  1
  O  O71  1  0.86061465  0.49421764  0.71356708  1
  O  O72  1  0.50688324  0.23761118  0.06982488  1
  O  O73  1  0.96531587  0.18891143  0.21161158  1
  O  O74  1  0.59940699  0.59668804  0.01543784  1
  O  O75  1  0.58706461  0.86040455  0.31059794  1
  O  O76  1  0.96517026  0.96183257  0.21870957  1
  O  O77  1  0.22300015  0.32030768  0.05593258  1
  O  O78  1  0.89922253  0.93895426  0.65119198  1
  O  O79  1  0.22525673  0.67774170  0.84615344  1
  O  O80  1  0.48154323  0.62249813  0.58549371  1
  O  O81  1  0.60798198  0.24575328  0.56177470  1
  O  O82  1  0.07612690  0.94192062  0.50517725  1
  O  O83  1  0.27083802  0.81482882  0.42704420  1
  O  O84  1  0.16326015  0.82386626  0.22807348  1
  O  O85  1  0.42392259  0.05024830  0.95084774  1
  O  O86  1  0.90824932  0.96903197  0.84299104  1
  O  O87  1  0.91471386  0.70787371  0.26556641  1
  O  O88  1  0.84694793  0.06539024  0.46666782  1
  O  O89  1  0.34390731  0.24074518  0.22030706  1
  O  O90  1  0.42314465  0.81029601  0.73516470  1
  O  O91  1  0.75441162  0.08252602  0.23041723  1
  O  O92  1  0.44123306  0.56917284  0.79684337  1
  O  O93  1  0.01101538  0.19595076  0.42297698  1
  O  O94  1  0.57466182  0.24701076  0.87234879  1
  O  O95  1  0.79368427  0.21930376  0.81083612  1
  O  O96  1  0.25928738  0.90757199  0.85984008  1
  O  O97  1  0.62282610  0.04337146  0.44695967  1
  O  O98  1  0.27438432  0.93052793  0.62441701  1
  O  O99  1  0.45967956  0.41682905  0.62010558  1
  O  O100  1  0.72679572  0.09362422  0.64398813  1
  O  O101  1  0.81568181  0.58886569  0.10135798  1
  O  O102  1  0.03212209  0.55418147  0.87280032  1
  O  O103  1  0.39243233  0.41041624  0.95364998  1
  O  O104  1  0.09291827  0.83556681  0.71836880  1
