# generated using pymatgen
data_BN
_symmetry_space_group_name_H-M   'P 1'
_cell_length_a   10.83713749
_cell_length_b   10.83012507
_cell_length_c   10.36520140
_cell_angle_alpha   88.92337743
_cell_angle_beta   97.34155205
_cell_angle_gamma   90.38644517
_symmetry_Int_Tables_number   1
_chemical_formula_structural   BN
_chemical_formula_sum   'B50 N50'
_cell_volume   1206.34061859
_cell_formula_units_Z   50
loop_
 _symmetry_equiv_pos_site_id
 _symmetry_equiv_pos_as_xyz
  1  'x, y, z'
loop_
 _atom_site_type_symbol
 _atom_site_label
 _atom_site_symmetry_multiplicity
 _atom_site_fract_x
 _atom_site_fract_y
 _atom_site_fract_z
 _atom_site_occupancy
  B  B0  1  0.63197000  0.86804100  0.51100800  1
  B  B1  1  0.98141500  0.56112000  0.94603300  1
  B  B2  1  0.33073500  0.60035100  0.61234700  1
  B  B3  1  0.32374100  0.48323300  0.16354700  1
  B  B4  1  0.72467400  0.75927400  0.47305100  1
  B  B5  1  0.53476300  0.30660100  0.51945200  1
  B  B6  1  0.87650200  0.19670600  0.44978000  1
  B  B7  1  0.67777000  0.33727300  0.65969100  1
  B  B8  1  0.93608500  0.34512500  0.49986600  1
  B  B9  1  0.88852000  0.93816900  0.71262400  1
  B  B10  1  0.30384100  0.25460700  0.82603900  1
  B  B11  1  0.49574200  0.98714300  0.56422500  1
  B  B12  1  0.99119000  0.75799100  0.56716100  1
  B  B13  1  0.31438300  0.27710200  0.06696900  1
  B  B14  1  0.38094100  0.29555300  0.30931600  1
  B  B15  1  0.09192100  0.53835600  0.60757600  1
  B  B16  1  0.10262600  0.37921200  0.55765400  1
  B  B17  1  0.28327400  0.85961200  0.88316800  1
  B  B18  1  0.38449800  0.69251500  0.25855300  1
  B  B19  1  0.27998400  0.46012100  0.91518000  1
  B  B20  1  0.24409900  0.65690000  0.79132500  1
  B  B21  1  0.93910400  0.93607100  0.99991900  1
  B  B22  1  0.33032700  0.53067000  0.41440300  1
  B  B23  1  0.11310000  0.26180300  0.44842600  1
  B  B24  1  0.36176700  0.82088400  0.67963700  1
  B  B25  1  0.29679300  0.66940400  0.02543200  1
  B  B26  1  0.96296500  0.31671200  0.25838300  1
  B  B27  1  0.90301900  0.11784600  0.19123600  1
  B  B28  1  0.30585300  0.06872400  0.97072300  1
  B  B29  1  0.96075600  0.79513700  0.81675900  1
  B  B30  1  0.08783200  0.64816200  0.37029700  1
  B  B31  1  0.99805800  0.71610800  0.04260300  1
  B  B32  1  0.43665000  0.90712300  0.33682700  1
  B  B33  1  0.94807100  0.54173100  0.20230500  1
  B  B34  1  0.89340700  0.57951100  0.45248900  1
  B  B35  1  0.05372900  0.79424300  0.41776400  1
  B  B36  1  0.17893000  0.43411800  0.32006300  1
  B  B37  1  0.25369400  0.43770200  0.65312600  1
  B  B38  1  0.71985600  0.41568700  0.42172400  1
  B  B39  1  0.45439400  0.21633300  0.69425100  1
  B  B40  1  0.36773000  0.09220500  0.20553200  1
  B  B41  1  0.00079300  0.91944500  0.19786300  1
  B  B42  1  0.86976100  0.39599500  0.81505400  1
  B  B43  1  0.45251900  0.10488600  0.44456400  1
  B  B44  1  0.78074200  0.02222100  0.60067900  1
  B  B45  1  0.44012300  0.73372100  0.48638900  1
  B  B46  1  0.33630400  0.88065600  0.11533300  1
  B  B47  1  0.34850700  0.03178000  0.74625700  1
  B  B48  1  0.08228000  0.02758700  0.39911400  1
  B  B49  1  0.76924000  0.41062400  0.22557400  1
  N  N50  1  0.49062700  0.85987900  0.46419700  1
  N  N51  1  0.04555000  0.21086600  0.75349300  1
  N  N52  1  0.18525000  0.55523900  0.37040100  1
  N  N53  1  0.68248700  0.13484000  0.98844700  1
  N  N54  1  0.41940300  0.03741400  0.32620000  1
  N  N55  1  0.67017400  0.41538000  0.28519700  1
  N  N56  1  0.32379000  0.42325000  0.29998400  1
  N  N57  1  0.21606200  0.58266300  0.67585800  1
  N  N58  1  0.29062400  0.80242800  0.00989100  1
  N  N59  1  0.78925800  0.66783500  0.45118700  1
  N  N60  1  0.27742100  0.78381000  0.77257100  1
  N  N61  1  0.39694600  0.71507400  0.60887000  1
  N  N62  1  0.29745000  0.98941300  0.86111800  1
  N  N63  1  0.62674500  0.07254200  0.91899900  1
  N  N64  1  0.85496400  0.44415800  0.46747900  1
  N  N65  1  0.64610300  0.37866700  0.52141900  1
  N  N66  1  0.93985200  0.02796600  0.11572500  1
  N  N67  1  0.04684200  0.91495900  0.33740800  1
  N  N68  1  0.44796200  0.24180100  0.42664300  1
  N  N69  1  0.77129500  0.33661400  0.75900100  1
  N  N70  1  0.12247400  0.13157600  0.44740300  1
  N  N71  1  0.28285300  0.38364100  0.79625400  1
  N  N72  1  0.04436400  0.11240700  0.72471000  1
  N  N73  1  0.32953200  0.01329600  0.09826000  1
  N  N74  1  0.99019800  0.69482600  0.90312700  1
  N  N75  1  0.34904100  0.16841200  0.73070200  1
  N  N76  1  0.99607900  0.59042900  0.08980600  1
  N  N77  1  0.95538800  0.82557300  0.67719200  1
  N  N78  1  0.35126500  0.22340300  0.19451600  1
  N  N79  1  0.96374500  0.45293200  0.88140900  1
  N  N80  1  0.33602700  0.61426500  0.15141600  1
  N  N81  1  0.30422000  0.40824100  0.04843800  1
  N  N82  1  0.09216400  0.33076200  0.31428000  1
  N  N83  1  0.26416200  0.59332500  0.91292000  1
  N  N84  1  0.30092800  0.20087200  0.95402900  1
  N  N85  1  0.39201900  0.82528100  0.23522300  1
  N  N86  1  0.92039900  0.91927900  0.86257700  1
  N  N87  1  0.88834400  0.41441200  0.19056200  1
  N  N88  1  0.98942400  0.83601900  0.09210900  1
  N  N89  1  0.96138400  0.60158900  0.32506300  1
  N  N90  1  0.62733700  0.60613300  0.83672000  1
  N  N91  1  0.64566000  0.97166000  0.58838500  1
  N  N92  1  0.55265200  0.27151700  0.66145400  1
  N  N93  1  0.40609300  0.94769800  0.66595000  1
  N  N94  1  0.99503800  0.61815500  0.57048700  1
  N  N95  1  0.82040800  0.10556200  0.51062100  1
  N  N96  1  0.89418900  0.19834600  0.28557700  1
  N  N97  1  0.57050800  0.56765400  0.91035600  1
  N  N98  1  0.41125100  0.64331800  0.38797600  1
  N  N99  1  0.35008700  0.48277900  0.55906600  1
