# generated using pymatgen
data_Ti3O5
_symmetry_space_group_name_H-M   'P 1'
_cell_length_a   10.96267360
_cell_length_b   10.58602917
_cell_length_c   11.00488833
_cell_angle_alpha   89.26310340
_cell_angle_beta   91.94959662
_cell_angle_gamma   89.43894757
_symmetry_Int_Tables_number   1
_chemical_formula_structural   Ti3O5
_chemical_formula_sum   'Ti39 O65'
_cell_volume   1276.21859457
_cell_formula_units_Z   13
loop_
 _symmetry_equiv_pos_site_id
 _symmetry_equiv_pos_as_xyz
  1  'x, y, z'
loop_
 _atom_site_type_symbol
 _atom_site_label
 _atom_site_symmetry_multiplicity
 _atom_site_fract_x
 _atom_site_fract_y
 _atom_site_fract_z
 _atom_site_occupancy
  Ti  Ti0  1  0.53275771  0.54204653  0.25009841  1
  Ti  Ti1  1  0.63217886  0.86158123  0.58992457  1
  Ti  Ti2  1  0.46271482  0.05580811  0.12114973  1
  Ti  Ti3  1  0.54638440  0.58965298  0.65720943  1
  Ti  Ti4  1  0.08013898  0.68771094  0.13656812  1
  Ti  Ti5  1  0.19532429  0.15342300  0.98095084  1
  Ti  Ti6  1  0.72109613  0.29930953  0.13330982  1
  Ti  Ti7  1  0.74090236  0.18142858  0.68264291  1
  Ti  Ti8  1  0.58801881  0.90893927  0.84202443  1
  Ti  Ti9  1  0.34878488  0.56431043  0.79494004  1
  Ti  Ti10  1  0.89200161  0.56321052  0.27455176  1
  Ti  Ti11  1  0.15514371  0.32467227  0.50591230  1
  Ti  Ti12  1  0.62877757  0.47877342  0.94905738  1
  Ti  Ti13  1  0.06939711  0.94445402  0.91669152  1
  Ti  Ti14  1  0.67638304  0.82083982  0.20215154  1
  Ti  Ti15  1  0.87645544  0.50374544  0.62389603  1
  Ti  Ti16  1  0.40537820  0.04465008  0.41058407  1
  Ti  Ti17  1  0.33778528  0.84935729  0.75513072  1
  Ti  Ti18  1  0.61769797  0.29044581  0.44879995  1
  Ti  Ti19  1  0.11962727  0.62828525  0.61781856  1
  Ti  Ti20  1  0.88228153  0.86049178  0.64641010  1
  Ti  Ti21  1  0.71647869  0.62189892  0.46148242  1
  Ti  Ti22  1  0.90207048  0.90651391  0.18415877  1
  Ti  Ti23  1  0.24631531  0.09869248  0.68666257  1
  Ti  Ti24  1  0.69295018  0.05439654  0.35423697  1
  Ti  Ti25  1  0.84345608  0.71127326  0.87162695  1
  Ti  Ti26  1  0.98546087  0.24055710  0.80047704  1
  Ti  Ti27  1  0.15146387  0.51153914  0.93299699  1
  Ti  Ti28  1  0.52915235  0.15697268  0.91133988  1
  Ti  Ti29  1  0.36637378  0.70278944  0.47212058  1
  Ti  Ti30  1  0.03020161  0.14484703  0.27129852  1
  Ti  Ti31  1  0.43641981  0.30262799  0.70734029  1
  Ti  Ti32  1  0.38194054  0.73980483  0.05945556  1
  Ti  Ti33  1  0.24344449  0.50190828  0.23310500  1
  Ti  Ti34  1  0.16643915  0.91020100  0.47741841  1
  Ti  Ti35  1  0.20529837  0.99020676  0.16317440  1
  Ti  Ti36  1  0.93667891  0.11254741  0.55399673  1
  Ti  Ti37  1  0.88498572  0.47431482  0.97596279  1
  Ti  Ti38  1  0.36420043  0.38004553  0.01036663  1
  O  O39  1  0.84437416  0.03220546  0.68920904  1
  O  O40  1  0.21883046  0.01330156  0.85619965  1
  O  O41  1  0.96610863  0.67952909  0.62438709  1
  O  O42  1  0.28185120  0.39783093  0.84762325  1
  O  O43  1  0.35614962  0.86795049  0.41455759  1
  O  O44  1  0.79368091  0.91589688  0.31329872  1
  O  O45  1  0.72046519  0.80699436  0.76354425  1
  O  O46  1  0.58340788  0.99024113  0.47797473  1
  O  O47  1  0.26475460  0.07043602  0.50114914  1
  O  O48  1  0.40516695  0.44423815  0.17440183  1
  O  O49  1  0.38495990  0.58700922  0.35262019  1
  O  O50  1  0.01292279  0.11098375  0.91977329  1
  O  O51  1  0.86457147  0.43277597  0.15778601  1
  O  O52  1  0.49038377  0.90471593  0.69590592  1
  O  O53  1  0.74808808  0.60726938  0.98148754  1
  O  O54  1  0.34212162  0.90850821  0.09476994  1
  O  O55  1  0.13359753  0.16495154  0.14272736  1
  O  O56  1  0.28418314  0.27294446  0.61646249  1
  O  O57  1  0.21777724  0.38943182  0.37517518  1
  O  O58  1  0.89061109  0.10287279  0.19473946  1
  O  O59  1  0.07809667  0.45866804  0.58917528  1
  O  O60  1  0.51433014  0.34229565  0.87798406  1
  O  O61  1  0.87241237  0.51960541  0.43897348  1
  O  O62  1  0.41867261  0.47353380  0.64556370  1
  O  O63  1  0.39990044  0.13894441  0.77700387  1
  O  O64  1  0.76100920  0.16414568  0.50319249  1
  O  O65  1  0.36252020  0.69627143  0.65872824  1
  O  O66  1  0.69507727  0.22959399  0.29481065  1
  O  O67  1  0.53598431  0.98303144  0.98382944  1
  O  O68  1  0.06961567  0.54481669  0.25086910  1
  O  O69  1  0.34422225  0.07475570  0.25575772  1
  O  O70  1  0.02152314  0.38226217  0.89806363  1
  O  O71  1  0.20238998  0.40780164  0.08012699  1
  O  O72  1  0.94497731  0.73725827  0.23672914  1
  O  O73  1  0.61901150  0.44612602  0.12451530  1
  O  O74  1  0.36954198  0.19473013  0.02050886  1
  O  O75  1  0.70089437  0.52310530  0.62191957  1
  O  O76  1  0.07026191  0.87854610  0.08154315  1
  O  O77  1  0.60914883  0.46211498  0.39129984  1
  O  O78  1  0.48053707  0.21015520  0.41494250  1
  O  O79  1  0.96441127  0.83912795  0.82372907  1
  O  O80  1  0.77750467  0.86266678  0.07054868  1
  O  O81  1  0.17418904  0.62494264  0.78378151  1
  O  O82  1  0.42837182  0.79797142  0.89808827  1
  O  O83  1  0.55056530  0.71133200  0.51434000  1
  O  O84  1  0.87107118  0.55853660  0.79799322  1
  O  O85  1  0.07204115  0.16998320  0.66599671  1
  O  O86  1  0.77780578  0.77594433  0.52356999  1
  O  O87  1  0.75668720  0.34775009  0.95423094  1
  O  O88  1  0.00449321  0.62175671  0.99546009  1
  O  O89  1  0.25189629  0.68775210  0.17152217  1
  O  O90  1  0.52309072  0.70788486  0.15183963  1
  O  O91  1  0.71909287  0.65447405  0.27864663  1
  O  O92  1  0.64890978  0.08403657  0.80639398  1
  O  O93  1  0.02647606  0.22123402  0.42932225  1
  O  O94  1  0.59985974  0.18782581  0.07602334  1
  O  O95  1  0.86300308  0.31876865  0.68150667  1
  O  O96  1  0.20637503  0.91210721  0.65173873  1
  O  O97  1  0.99610651  0.94193483  0.52747954  1
  O  O98  1  0.32940032  0.58630733  0.97228666  1
  O  O99  1  0.58624459  0.27501301  0.62979626  1
  O  O100  1  0.57692703  0.97468438  0.23662524  1
  O  O101  1  0.18224782  0.72144667  0.48406685  1
  O  O102  1  0.53768343  0.58620502  0.82876483  1
  O  O103  1  0.09451508  0.98169017  0.30906733  1
