# generated using pymatgen
data_MgO
_symmetry_space_group_name_H-M   'P 1'
_cell_length_a   10.34368740
_cell_length_b   9.58352635
_cell_length_c   9.59328170
_cell_angle_alpha   91.11336285
_cell_angle_beta   91.69410532
_cell_angle_gamma   87.31937289
_symmetry_Int_Tables_number   1
_chemical_formula_structural   MgO
_chemical_formula_sum   'Mg40 O40'
_cell_volume   949.36148480
_cell_formula_units_Z   40
loop_
 _symmetry_equiv_pos_site_id
 _symmetry_equiv_pos_as_xyz
  1  'x, y, z'
loop_
 _atom_site_type_symbol
 _atom_site_label
 _atom_site_symmetry_multiplicity
 _atom_site_fract_x
 _atom_site_fract_y
 _atom_site_fract_z
 _atom_site_occupancy
  Mg  Mg0  1  0.73843500  0.77005000  0.91942600  1
  Mg  Mg1  1  0.19910700  0.42006200  0.59637100  1
  Mg  Mg2  1  0.85806000  0.50907800  0.17281200  1
  Mg  Mg3  1  0.61922800  0.80912700  0.60699100  1
  Mg  Mg4  1  0.44092100  0.66260100  0.41342800  1
  Mg  Mg5  1  0.26992900  0.70714100  0.06985200  1
  Mg  Mg6  1  0.58229500  0.01750200  0.84004900  1
  Mg  Mg7  1  0.58011100  0.39357200  0.99702000  1
  Mg  Mg8  1  0.89601000  0.57381000  0.55556700  1
  Mg  Mg9  1  0.87227700  0.92578200  0.63030800  1
  Mg  Mg10  1  0.33054300  0.19980800  0.71549900  1
  Mg  Mg11  1  0.96269700  0.78668200  0.37298900  1
  Mg  Mg12  1  0.80001700  0.45181300  0.84661100  1
  Mg  Mg13  1  0.11410800  0.99033000  0.17003000  1
  Mg  Mg14  1  0.01725500  0.65545300  0.98885100  1
  Mg  Mg15  1  0.74565700  0.92947300  0.19043800  1
  Mg  Mg16  1  0.12410700  0.29242200  0.22413300  1
  Mg  Mg17  1  0.87439900  0.16453900  0.22830600  1
  Mg  Mg18  1  0.78389000  0.18690700  0.97195200  1
  Mg  Mg19  1  0.74894200  0.19580600  0.67942300  1
  Mg  Mg20  1  0.02780900  0.07281100  0.44485300  1
  Mg  Mg21  1  0.62805500  0.30386400  0.27973800  1
  Mg  Mg22  1  0.35255100  0.16996300  0.06914600  1
  Mg  Mg23  1  0.27161800  0.44824900  0.89124600  1
  Mg  Mg24  1  0.83576500  0.32090800  0.46592900  1
  Mg  Mg25  1  0.55285700  0.66716800  0.08601300  1
  Mg  Mg26  1  0.15839100  0.58753800  0.35364200  1
  Mg  Mg27  1  0.44929700  0.66793400  0.77379700  1
  Mg  Mg28  1  0.05260200  0.29805400  0.94909000  1
  Mg  Mg29  1  0.31032500  0.19600000  0.41594900  1
  Mg  Mg30  1  0.54430100  0.41744600  0.61587500  1
  Mg  Mg31  1  0.37871000  0.44113100  0.19070600  1
  Mg  Mg32  1  0.01301800  0.23051200  0.67787100  1
  Mg  Mg33  1  0.68858800  0.66476100  0.35374600  1
  Mg  Mg34  1  0.25570800  0.95280800  0.57614800  1
  Mg  Mg35  1  0.12031700  0.73251300  0.71261100  1
  Mg  Mg36  1  0.39783200  0.89920300  0.26286200  1
  Mg  Mg37  1  0.59965200  0.06518300  0.46924300  1
  Mg  Mg38  1  0.31891200  0.91050800  0.90100700  1
  Mg  Mg39  1  0.96643400  0.97486900  0.93187000  1
  O  O40  1  0.75425000  0.98525500  0.98954400  1
  O  O41  1  0.49000500  0.27838200  0.14223100  1
  O  O42  1  0.94140300  0.47089000  0.98426600  1
  O  O43  1  0.69908000  0.09774900  0.29544200  1
  O  O44  1  0.53378000  0.61904900  0.59000500  1
  O  O45  1  0.53574100  0.54637900  0.27295900  1
  O  O46  1  0.54358800  0.84169900  0.39912700  1
  O  O47  1  0.80898800  0.76208300  0.51030800  1
  O  O48  1  0.28653900  0.72437600  0.29812400  1
  O  O49  1  0.92224600  0.78991900  0.82849100  1
  O  O50  1  0.14567100  0.88963200  0.99967100  1
  O  O51  1  0.02242100  0.64389700  0.21497000  1
  O  O52  1  0.27541400  0.07674800  0.24640800  1
  O  O53  1  0.22665600  0.33976800  0.06480400  1
  O  O54  1  0.01822500  0.15592100  0.09064700  1
  O  O55  1  0.81382900  0.50437400  0.37605600  1
  O  O56  1  0.29956300  0.81276100  0.71696500  1
  O  O57  1  0.65735400  0.28018100  0.83889300  1
  O  O58  1  0.37468100  0.40548500  0.69840100  1
  O  O59  1  0.41335000  0.54115000  0.00479200  1
  O  O60  1  0.92299600  0.15567200  0.83511000  1
  O  O61  1  0.39433300  0.09327100  0.88041600  1
  O  O62  1  0.42034200  0.83409800  0.06954000  1
  O  O63  1  0.95229500  0.96245400  0.27319500  1
  O  O64  1  0.66443200  0.57082000  0.92828200  1
  O  O65  1  0.63947700  0.28330200  0.49986900  1
  O  O66  1  0.06528500  0.88565000  0.54603800  1
  O  O67  1  0.68132100  0.00389000  0.65670400  1
  O  O68  1  0.75981600  0.32333500  0.12889700  1
  O  O69  1  0.08982100  0.58753000  0.54945100  1
  O  O70  1  0.73309900  0.72886000  0.15949900  1
  O  O71  1  0.15308500  0.32376900  0.77821900  1
  O  O72  1  0.99142100  0.26541200  0.35575500  1
  O  O73  1  0.57280600  0.81542200  0.81284700  1
  O  O74  1  0.86501500  0.40259700  0.66046400  1
  O  O75  1  0.25907100  0.39763300  0.36465500  1
  O  O76  1  0.17891100  0.62931900  0.89195900  1
  O  O77  1  0.41619700  0.08232900  0.54465200  1
  O  O78  1  0.88632400  0.12676200  0.55873000  1
  O  O79  1  0.17496900  0.15766700  0.56032000  1
