# generated using pymatgen
data_SnO2
_symmetry_space_group_name_H-M   'P 1'
_cell_length_a   10.74358461
_cell_length_b   10.73813333
_cell_length_c   10.86256744
_cell_angle_alpha   89.35655089
_cell_angle_beta   86.09035637
_cell_angle_gamma   94.92151976
_symmetry_Int_Tables_number   1
_chemical_formula_structural   SnO2
_chemical_formula_sum   'Sn30 O60'
_cell_volume   1245.46166297
_cell_formula_units_Z   30
loop_
 _symmetry_equiv_pos_site_id
 _symmetry_equiv_pos_as_xyz
  1  'x, y, z'
loop_
 _atom_site_type_symbol
 _atom_site_label
 _atom_site_symmetry_multiplicity
 _atom_site_fract_x
 _atom_site_fract_y
 _atom_site_fract_z
 _atom_site_occupancy
  Sn  Sn0  1  0.97946500  0.24955800  0.17356700  1
  Sn  Sn1  1  0.54699800  0.49213600  0.96362300  1
  Sn  Sn2  1  0.94472000  0.82873900  0.71168400  1
  Sn  Sn3  1  0.38884200  0.64069700  0.73965400  1
  Sn  Sn4  1  0.06078700  0.51454100  0.86405700  1
  Sn  Sn5  1  0.80089900  0.54708200  0.70881300  1
  Sn  Sn6  1  0.33672800  0.30232900  0.71204100  1
  Sn  Sn7  1  0.64575900  0.31595500  0.23096600  1
  Sn  Sn8  1  0.09032800  0.59979000  0.51890600  1
  Sn  Sn9  1  0.49530600  0.07647900  0.10425900  1
  Sn  Sn10  1  0.86294600  0.67293200  0.02157600  1
  Sn  Sn11  1  0.38167400  0.77790600  0.30222300  1
  Sn  Sn12  1  0.20785000  0.74052800  0.01492300  1
  Sn  Sn13  1  0.55675700  0.80126800  0.95402300  1
  Sn  Sn14  1  0.45697200  0.46251000  0.48961500  1
  Sn  Sn15  1  0.27702000  0.30276500  0.99724300  1
  Sn  Sn16  1  0.95907600  0.98844600  0.01311400  1
  Sn  Sn17  1  0.13713900  0.26124700  0.45956700  1
  Sn  Sn18  1  0.88057100  0.76684900  0.33154000  1
  Sn  Sn19  1  0.60874600  0.78551900  0.56760400  1
  Sn  Sn20  1  0.20498600  0.01212100  0.24702600  1
  Sn  Sn21  1  0.27208400  0.49309000  0.24376200  1
  Sn  Sn22  1  0.00972900  0.12812000  0.73311000  1
  Sn  Sn23  1  0.62440600  0.62133300  0.25527000  1
  Sn  Sn24  1  0.24385800  0.00772200  0.87800400  1
  Sn  Sn25  1  0.26205800  0.90010100  0.57172100  1
  Sn  Sn26  1  0.84816900  0.05768800  0.48233800  1
  Sn  Sn27  1  0.54229800  0.07261700  0.47262000  1
  Sn  Sn28  1  0.78371200  0.28898300  0.93241500  1
  Sn  Sn29  1  0.85875400  0.34650700  0.45301600  1
  O  O30  1  0.89849800  0.44288900  0.97087600  1
  O  O31  1  0.21626600  0.64602200  0.84217700  1
  O  O32  1  0.31302900  0.48112400  0.63686000  1
  O  O33  1  0.63180600  0.47836100  0.12536400  1
  O  O34  1  0.83365300  0.35388300  0.25502900  1
  O  O35  1  0.61029100  0.44232300  0.36468900  1
  O  O36  1  0.21398800  0.62148800  0.37292900  1
  O  O37  1  0.86554000  0.16257300  0.05392300  1
  O  O38  1  0.50206800  0.87539900  0.42574400  1
  O  O39  1  0.44396900  0.59736900  0.34177000  1
  O  O40  1  0.34883000  0.17272800  0.85046800  1
  O  O41  1  0.90628500  0.97067500  0.82658500  1
  O  O42  1  0.41561700  0.40137100  0.85899200  1
  O  O43  1  0.09552800  0.76340000  0.61548100  1
  O  O44  1  0.34418700  0.74224700  0.59493300  1
  O  O45  1  0.04875800  0.61819400  0.03087900  1
  O  O46  1  0.35080600  0.87288800  0.94375500  1
  O  O47  1  0.04622600  0.42281600  0.44279700  1
  O  O48  1  0.93620400  0.64322100  0.44327100  1
  O  O49  1  0.99836600  0.50649300  0.68354000  1
  O  O50  1  0.14470300  0.36012100  0.14670300  1
  O  O51  1  0.23562100  0.87164500  0.39261400  1
  O  O52  1  0.96666800  0.98037500  0.59262100  1
  O  O53  1  0.46956100  0.29240700  0.57144900  1
  O  O54  1  0.81350600  0.63819800  0.20452400  1
  O  O55  1  0.68763000  0.42937000  0.83751600  1
  O  O56  1  0.97944800  0.20450600  0.35242500  1
  O  O57  1  0.09301400  0.12214100  0.90672000  1
  O  O58  1  0.75550100  0.44056300  0.56858700  1
  O  O59  1  0.72114200  0.18852800  0.44285700  1
  O  O60  1  0.16667900  0.36671500  0.86768000  1
  O  O61  1  0.67788100  0.97434100  0.56399000  1
  O  O62  1  0.13667300  0.83165800  0.18764200  1
  O  O63  1  0.61878200  0.24451700  0.04965000  1
  O  O64  1  0.17120300  0.23286000  0.64137800  1
  O  O65  1  0.68147200  0.65864600  0.95129600  1
  O  O66  1  0.54326400  0.75827000  0.16194000  1
  O  O67  1  0.53298400  0.79505900  0.75325200  1
  O  O68  1  0.37603800  0.94223500  0.19897300  1
  O  O69  1  0.44163900  0.63738100  0.92611200  1
  O  O70  1  0.10337400  0.87761500  0.94860500  1
  O  O71  1  0.59752800  0.98368400  0.98299300  1
  O  O72  1  0.86830400  0.23344400  0.78361100  1
  O  O73  1  0.06241100  0.07841700  0.15166200  1
  O  O74  1  0.94479300  0.21140400  0.56683900  1
  O  O75  1  0.86961500  0.94965500  0.33956300  1
  O  O76  1  0.38802200  0.41716100  0.10409800  1
  O  O77  1  0.78216200  0.73189900  0.65279400  1
  O  O78  1  0.21544800  0.11122300  0.39868100  1
  O  O79  1  0.54236500  0.59569900  0.60763600  1
  O  O80  1  0.92000100  0.66949200  0.83259900  1
  O  O81  1  0.16743700  0.97781100  0.71495500  1
  O  O82  1  0.30165000  0.66357400  0.15014500  1
  O  O83  1  0.00229800  0.82265200  0.17385000  1
  O  O84  1  0.30158200  0.37297300  0.38692100  1
  O  O85  1  0.69468400  0.72339800  0.40090600  1
  O  O86  1  0.31394800  0.13585000  0.08885000  1
  O  O87  1  0.82160600  0.85247800  0.04478800  1
  O  O88  1  0.39591500  0.04292400  0.59557100  1
  O  O89  1  0.54027100  0.14882100  0.28111400  1
