# generated using pymatgen
data_Al2O3
_symmetry_space_group_name_H-M   'P 1'
_cell_length_a   10.97764764
_cell_length_b   9.94871521
_cell_length_c   9.98728176
_cell_angle_alpha   93.97194135
_cell_angle_beta   92.01113244
_cell_angle_gamma   85.55569952
_symmetry_Int_Tables_number   1
_chemical_formula_structural   Al2O3
_chemical_formula_sum   'Al40 O60'
_cell_volume   1084.36953729
_cell_formula_units_Z   20
loop_
 _symmetry_equiv_pos_site_id
 _symmetry_equiv_pos_as_xyz
  1  'x, y, z'
loop_
 _atom_site_type_symbol
 _atom_site_label
 _atom_site_symmetry_multiplicity
 _atom_site_fract_x
 _atom_site_fract_y
 _atom_site_fract_z
 _atom_site_occupancy
  Al  Al0  1  0.37840100  0.59179800  0.35818500  1
  Al  Al1  1  0.39785900  0.00725900  0.90831500  1
  Al  Al2  1  0.90472100  0.68021900  0.61274900  1
  Al  Al3  1  0.98111100  0.50050300  0.84094800  1
  Al  Al4  1  0.24931400  0.80984900  0.77852300  1
  Al  Al5  1  0.88849800  0.21280900  0.66448200  1
  Al  Al6  1  0.32551600  0.26641800  0.59998000  1
  Al  Al7  1  0.91826000  0.06552600  0.01886400  1
  Al  Al8  1  0.31192000  0.78510500  0.09815000  1
  Al  Al9  1  0.09908000  0.35787100  0.61235800  1
  Al  Al10  1  0.81376100  0.55849000  0.14735200  1
  Al  Al11  1  0.64623800  0.17988100  0.98281500  1
  Al  Al12  1  0.74539100  0.14932900  0.26255100  1
  Al  Al13  1  0.49033900  0.85495500  0.61893100  1
  Al  Al14  1  0.00597000  0.91583200  0.74906500  1
  Al  Al15  1  0.98248500  0.31412600  0.11972000  1
  Al  Al16  1  0.77173100  0.36698300  0.90366800  1
  Al  Al17  1  0.99712100  0.10088300  0.30413300  1
  Al  Al18  1  0.51728500  0.99214400  0.40054200  1
  Al  Al19  1  0.33566600  0.30369300  0.02806600  1
  Al  Al20  1  0.48856100  0.28695800  0.24368100  1
  Al  Al21  1  0.83473400  0.76978700  0.93249000  1
  Al  Al22  1  0.62185500  0.73400200  0.31040300  1
  Al  Al23  1  0.10992500  0.85488900  0.24877100  1
  Al  Al24  1  0.17727800  0.61888300  0.59228200  1
  Al  Al25  1  0.26201400  0.00303600  0.39462500  1
  Al  Al26  1  0.77658800  0.95248900  0.51142400  1
  Al  Al27  1  0.51049400  0.54611800  0.09026400  1
  Al  Al28  1  0.85536700  0.42366500  0.43416500  1
  Al  Al29  1  0.60907000  0.66185800  0.85671900  1
  Al  Al30  1  0.15823900  0.54565700  0.08543500  1
  Al  Al31  1  0.62597800  0.57865700  0.56201800  1
  Al  Al32  1  0.32801600  0.55485100  0.84346800  1
  Al  Al33  1  0.22920700  0.31086400  0.32608600  1
  Al  Al34  1  0.13955700  0.13769000  0.83812700  1
  Al  Al35  1  0.06227900  0.59857000  0.34552600  1
  Al  Al36  1  0.52282000  0.34498500  0.73595000  1
  Al  Al37  1  0.86078000  0.85893400  0.23832200  1
  Al  Al38  1  0.59138400  0.91982600  0.07205600  1
  Al  Al39  1  0.63219700  0.24737700  0.51645000  1
  O  O40  1  0.54858000  0.88593100  0.25126600  1
  O  O41  1  0.30317600  0.16162500  0.91906400  1
  O  O42  1  0.87679100  0.85931600  0.62176000  1
  O  O43  1  0.57883300  0.70682900  0.68711500  1
  O  O44  1  0.02496400  0.47867100  0.01252500  1
  O  O45  1  0.18798100  0.22250900  0.68922000  1
  O  O46  1  0.30066800  0.17002600  0.43329700  1
  O  O47  1  0.61739300  0.31369300  0.87301900  1
  O  O48  1  0.99061200  0.95940400  0.16379400  1
  O  O49  1  0.40204200  0.64942100  0.19021100  1
  O  O50  1  0.54812800  0.05414100  0.95155000  1
  O  O51  1  0.10348400  0.99498200  0.39791400  1
  O  O52  1  0.75330800  0.14127900  0.59953900  1
  O  O53  1  0.60974900  0.41625000  0.61369600  1
  O  O54  1  0.61342600  0.93169700  0.53919500  1
  O  O55  1  0.48506200  0.58625600  0.91948100  1
  O  O56  1  0.85855900  0.71664300  0.10008100  1
  O  O57  1  0.79739400  0.16621900  0.93149000  1
  O  O58  1  0.72973300  0.54538900  0.89164600  1
  O  O59  1  0.33242200  0.23990700  0.19085600  1
  O  O60  1  0.82925800  0.39595000  0.06983200  1
  O  O61  1  0.99615300  0.09250000  0.72251100  1
  O  O62  1  0.16141600  0.71520900  0.13654800  1
  O  O63  1  0.47305800  0.38035700  0.08565100  1
  O  O64  1  0.38976700  0.90757100  0.75186700  1
  O  O65  1  0.31408600  0.64769600  0.68927300  1
  O  O66  1  0.78696100  0.57110000  0.53709800  1
  O  O67  1  0.16262100  0.47372200  0.24559100  1
  O  O68  1  0.21759800  0.39652700  0.50769900  1
  O  O69  1  0.26890600  0.71697700  0.92641500  1
  O  O70  1  0.62833600  0.22028200  0.15625400  1
  O  O71  1  0.26560500  0.45947700  0.97832000  1
  O  O72  1  0.02276600  0.58207600  0.51761500  1
  O  O73  1  0.89179000  0.35872100  0.78387300  1
  O  O74  1  0.66823000  0.80522600  0.94125400  1
  O  O75  1  0.23227400  0.65391100  0.42570400  1
  O  O76  1  0.88567500  0.18447900  0.18501700  1
  O  O77  1  0.53259800  0.65670900  0.43072100  1
  O  O78  1  0.26366800  0.91207800  0.23298500  1
  O  O79  1  0.64993200  0.59874600  0.18044900  1
  O  O80  1  0.99752200  0.76328100  0.31968200  1
  O  O81  1  0.08195800  0.24617500  0.27105700  1
  O  O82  1  0.16374500  0.96001300  0.84460800  1
  O  O83  1  0.49103200  0.20969500  0.61580200  1
  O  O84  1  0.95595000  0.31077500  0.53575200  1
  O  O85  1  0.39298000  0.92058400  0.47871200  1
  O  O86  1  0.84813600  0.03443200  0.37378300  1
  O  O87  1  0.73736300  0.31110500  0.39312200  1
  O  O88  1  0.10822300  0.49420100  0.73613800  1
  O  O89  1  0.10830500  0.77918800  0.67590600  1
  O  O90  1  0.90716700  0.66043100  0.79503300  1
  O  O91  1  0.91792200  0.91195300  0.90361900  1
  O  O92  1  0.91177800  0.50164700  0.29172200  1
  O  O93  1  0.42541600  0.88467400  0.03023300  1
  O  O94  1  0.36973500  0.39597500  0.74639800  1
  O  O95  1  0.04084500  0.18509600  0.98756200  1
  O  O96  1  0.76100400  0.80066900  0.36606900  1
  O  O97  1  0.56664800  0.15187100  0.36975200  1
  O  O98  1  0.42963500  0.41890700  0.36139500  1
  O  O99  1  0.74152400  0.97666100  0.14319500  1
