# generated using pymatgen
data_V2O5
_symmetry_space_group_name_H-M   'P 1'
_cell_length_a   12.48323333
_cell_length_b   12.13944647
_cell_length_c   12.33330283
_cell_angle_alpha   92.72742104
_cell_angle_beta   92.02535163
_cell_angle_gamma   90.12827857
_symmetry_Int_Tables_number   1
_chemical_formula_structural   V2O5
_chemical_formula_sum   'V30 O75'
_cell_volume   1865.68527385
_cell_formula_units_Z   15
loop_
 _symmetry_equiv_pos_site_id
 _symmetry_equiv_pos_as_xyz
  1  'x, y, z'
loop_
 _atom_site_type_symbol
 _atom_site_label
 _atom_site_symmetry_multiplicity
 _atom_site_fract_x
 _atom_site_fract_y
 _atom_site_fract_z
 _atom_site_occupancy
  V  V0  1  0.69932478  0.02797109  0.16329306  1
  V  V1  1  0.29323304  0.93568781  0.65436242  1
  V  V2  1  0.10493776  0.78313920  0.29174058  1
  V  V3  1  0.66200240  0.28223028  0.06214646  1
  V  V4  1  0.99373527  0.97959332  0.86047415  1
  V  V5  1  0.69452486  0.97763267  0.70660168  1
  V  V6  1  0.80159053  0.84307668  0.98345455  1
  V  V7  1  0.18140266  0.61664489  0.15784008  1
  V  V8  1  0.03825731  0.05718225  0.58703020  1
  V  V9  1  0.31272417  0.43811515  0.23922994  1
  V  V10  1  0.58274135  0.14679966  0.58038540  1
  V  V11  1  0.31213621  0.13211533  0.49848572  1
  V  V12  1  0.50073474  0.83015859  0.14062452  1
  V  V13  1  0.26140730  0.14273537  0.76257853  1
  V  V14  1  0.21860854  0.51571244  0.88758831  1
  V  V15  1  0.84187853  0.26785595  0.53477603  1
  V  V16  1  0.59011202  0.59474117  0.50235169  1
  V  V17  1  0.16265460  0.98985488  0.01246072  1
  V  V18  1  0.27286131  0.47965566  0.52656115  1
  V  V19  1  0.83866313  0.20581162  0.85480643  1
  V  V20  1  0.44593450  0.46314599  0.69812740  1
  V  V21  1  0.32109816  0.67910842  0.74326269  1
  V  V22  1  0.95210528  0.71369267  0.43006660  1
  V  V23  1  0.19939825  0.27606734  0.02771873  1
  V  V24  1  0.87562437  0.43391526  0.69019273  1
  V  V25  1  0.12099186  0.06048262  0.37101005  1
  V  V26  1  0.79096222  0.69960635  0.65966088  1
  V  V27  1  0.48773650  0.08446328  0.82762862  1
  V  V28  1  0.54978796  0.71678048  0.95435711  1
  V  V29  1  0.58797417  0.38518951  0.29182364  1
  O  O30  1  0.25305606  0.38464375  0.94432695  1
  O  O31  1  0.13650833  0.92680670  0.29569786  1
  O  O32  1  0.76236178  0.39530467  0.61879989  1
  O  O33  1  0.58436587  0.95394963  0.77974889  1
  O  O34  1  0.53893716  0.54609649  0.62525374  1
  O  O35  1  0.71667352  0.66436787  0.53717464  1
  O  O36  1  0.22684351  0.89045995  0.07011710  1
  O  O37  1  0.90015891  0.86938129  0.87829632  1
  O  O38  1  0.88443620  0.58222522  0.68935995  1
  O  O39  1  0.22957908  0.71710087  0.27194875  1
  O  O40  1  0.63139003  0.00821977  0.57517289  1
  O  O41  1  0.33190092  0.55700591  0.17417653  1
  O  O42  1  0.87501666  0.33820254  0.80075615  1
  O  O43  1  0.76083592  0.97401605  0.04008018  1
  O  O44  1  0.53562088  0.07505270  0.94929189  1
  O  O45  1  0.29632803  0.20006962  0.64293275  1
  O  O46  1  0.51633735  0.37417322  0.76107086  1
  O  O47  1  0.16281781  0.20984084  0.81884172  1
  O  O48  1  0.45746511  0.83504644  0.00133093  1
  O  O49  1  0.06355235  0.71024097  0.16704323  1
  O  O50  1  0.84989772  0.77114866  0.07907017  1
  O  O51  1  0.22496678  0.12909800  0.02786121  1
  O  O52  1  0.31210005  0.60133122  0.60103604  1
  O  O53  1  0.44821248  0.39230816  0.25397583  1
  O  O54  1  0.53674069  0.58803861  0.91280072  1
  O  O55  1  0.94960027  0.80567829  0.32684168  1
  O  O56  1  0.69399083  0.21664921  0.54486275  1
  O  O57  1  0.77454145  0.25592718  0.97736024  1
  O  O58  1  0.50875115  0.68466116  0.45404621  1
  O  O59  1  0.18856862  0.59092507  0.01388017  1
  O  O60  1  0.94588369  0.11824279  0.89432468  1
  O  O61  1  0.68079092  0.77590488  0.93028347  1
  O  O62  1  0.37824102  0.18006921  0.85065981  1
  O  O63  1  0.15800123  0.43634892  0.56313725  1
  O  O64  1  0.78676153  0.04069529  0.26202028  1
  O  O65  1  0.46484475  0.16251380  0.50301124  1
  O  O66  1  0.40454442  0.81818050  0.22253890  1
  O  O67  1  0.93513459  0.54993668  0.40769104  1
  O  O68  1  0.95562838  0.36606859  0.59853471  1
  O  O69  1  0.91784954  0.15202348  0.57455999  1
  O  O70  1  0.59821632  0.93308857  0.19605694  1
  O  O71  1  0.02606571  0.97749289  0.46935075  1
  O  O72  1  0.07262819  0.29531400  0.03815223  1
  O  O73  1  0.85033088  0.28534529  0.40735742  1
  O  O74  1  0.17928490  0.02051611  0.67414936  1
  O  O75  1  0.14136699  0.50275964  0.21341651  1
  O  O76  1  0.66668806  0.38908285  0.17228818  1
  O  O77  1  0.37428829  0.38955639  0.58827675  1
  O  O78  1  0.13918303  0.95940864  0.86567231  1
  O  O79  1  0.76898679  0.85968141  0.68476282  1
  O  O80  1  0.28395184  0.45992310  0.37974055  1
  O  O81  1  0.14395945  0.13853463  0.50845846  1
  O  O82  1  0.55667494  0.30411457  0.98684611  1
  O  O83  1  0.98468783  0.99447965  0.71971293  1
  O  O84  1  0.91334645  0.75708581  0.55440215  1
  O  O85  1  0.10786805  0.48843605  0.82013229  1
  O  O86  1  0.05013596  0.13799897  0.29600796  1
  O  O87  1  0.26891541  0.11046494  0.36298845  1
  O  O88  1  0.64153077  0.15928507  0.13203898  1
  O  O89  1  0.25882290  0.32389311  0.16016968  1
  O  O90  1  0.27175407  0.79836164  0.65335269  1
  O  O91  1  0.55666726  0.16158257  0.72072607  1
  O  O92  1  0.85378361  0.60247487  0.35923926  1
  O  O93  1  0.43655549  0.72947177  0.80080488  1
  O  O94  1  0.34244810  0.52224044  0.79021825  1
  O  O95  1  0.09629837  0.70741751  0.41943776  1
  O  O96  1  0.02599309  0.98258919  0.02699109  1
  O  O97  1  0.60307814  0.26566780  0.34160738  1
  O  O98  1  0.33825430  0.98145442  0.53278929  1
  O  O99  1  0.61472372  0.48876246  0.40004397  1
  O  O100  1  0.70511090  0.66806131  0.74780023  1
  O  O101  1  0.56662697  0.70126538  0.10152293  1
  O  O102  1  0.22429382  0.68163498  0.83417086  1
  O  O103  1  0.76570923  0.09516430  0.76754708  1
  O  O104  1  0.36952384  0.99279155  0.76696072  1
