# generated using pymatgen
data_MgO
_symmetry_space_group_name_H-M   'P 1'
_cell_length_a   9.74147727
_cell_length_b   10.46111231
_cell_length_c   8.98087555
_cell_angle_alpha   87.32552168
_cell_angle_beta   92.03941530
_cell_angle_gamma   86.39794205
_symmetry_Int_Tables_number   1
_chemical_formula_structural   MgO
_chemical_formula_sum   'Mg40 O40'
_cell_volume   911.72705958
_cell_formula_units_Z   40
loop_
 _symmetry_equiv_pos_site_id
 _symmetry_equiv_pos_as_xyz
  1  'x, y, z'
loop_
 _atom_site_type_symbol
 _atom_site_label
 _atom_site_symmetry_multiplicity
 _atom_site_fract_x
 _atom_site_fract_y
 _atom_site_fract_z
 _atom_site_occupancy
  Mg  Mg0  1  0.54955400  0.76809400  0.11645900  1
  Mg  Mg1  1  0.24008400  0.61944900  0.68070700  1
  Mg  Mg2  1  0.84902200  0.39036700  0.95841900  1
  Mg  Mg3  1  0.54200500  0.87196800  0.55528800  1
  Mg  Mg4  1  0.35778200  0.38784700  0.54270000  1
  Mg  Mg5  1  0.22658400  0.76870500  0.10354300  1
  Mg  Mg6  1  0.53839600  0.31889900  0.86370200  1
  Mg  Mg7  1  0.54266200  0.60267300  0.70419400  1
  Mg  Mg8  1  0.21765900  0.18053600  0.40845800  1
  Mg  Mg9  1  0.78873400  0.87633400  0.67631400  1
  Mg  Mg10  1  0.24455000  0.35247100  0.83714200  1
  Mg  Mg11  1  0.23944300  0.89163100  0.55520500  1
  Mg  Mg12  1  0.95038500  0.62994000  0.65930000  1
  Mg  Mg13  1  0.05427100  0.94576300  0.25480400  1
  Mg  Mg14  1  0.08820200  0.56632200  0.96809700  1
  Mg  Mg15  1  0.89912600  0.63415300  0.19967400  1
  Mg  Mg16  1  0.03859700  0.22003600  0.13595000  1
  Mg  Mg17  1  0.87720700  0.89303200  0.98211100  1
  Mg  Mg18  1  0.74364500  0.63988000  0.89400200  1
  Mg  Mg19  1  0.36719200  0.96623500  0.26318700  1
  Mg  Mg20  1  0.85163300  0.11500000  0.46303500  1
  Mg  Mg21  1  0.72566500  0.89012000  0.29506400  1
  Mg  Mg22  1  0.57397800  0.03245300  0.94064700  1
  Mg  Mg23  1  0.39354800  0.55547300  0.97556300  1
  Mg  Mg24  1  0.67497200  0.35854300  0.61369000  1
  Mg  Mg25  1  0.69151000  0.24766900  0.14613100  1
  Mg  Mg26  1  0.08514200  0.69370100  0.39659000  1
  Mg  Mg27  1  0.39880500  0.83035800  0.83277200  1
  Mg  Mg28  1  0.35582100  0.27560300  0.12585100  1
  Mg  Mg29  1  0.56060400  0.13288200  0.48210100  1
  Mg  Mg30  1  0.56565600  0.50229400  0.23565400  1
  Mg  Mg31  1  0.24668600  0.49793800  0.25306400  1
  Mg  Mg32  1  0.02994300  0.32976600  0.67805300  1
  Mg  Mg33  1  0.83386600  0.38114400  0.37930500  1
  Mg  Mg34  1  0.36814400  0.11427000  0.70021400  1
  Mg  Mg35  1  0.07643000  0.85813200  0.80145500  1
  Mg  Mg36  1  0.38321600  0.70106700  0.39161200  1
  Mg  Mg37  1  0.72338100  0.63502300  0.43573900  1
  Mg  Mg38  1  0.23674900  0.03975400  0.97023200  1
  Mg  Mg39  1  0.85425300  0.16091600  0.81130300  1
  O  O40  1  0.69571700  0.91467600  0.07440500  1
  O  O41  1  0.53205300  0.37636700  0.08300100  1
  O  O42  1  0.08647400  0.49582300  0.75234300  1
  O  O43  1  0.02376500  0.11258300  0.35244900  1
  O  O44  1  0.39534200  0.74911500  0.61413500  1
  O  O45  1  0.25912400  0.56400500  0.46399600  1
  O  O46  1  0.52767400  0.83543300  0.33507900  1
  O  O47  1  0.69148600  0.71882600  0.62054900  1
  O  O48  1  0.22571300  0.84293500  0.33275400  1
  O  O49  1  0.89470500  0.75179100  0.82755000  1
  O  O50  1  0.10422300  0.63306400  0.18532900  1
  O  O51  1  0.89479200  0.55384800  0.00985400  1
  O  O52  1  0.37490500  0.04365800  0.47297500  1
  O  O53  1  0.23830800  0.42718600  0.03775400  1
  O  O54  1  0.23356200  0.12491800  0.17129800  1
  O  O55  1  0.91615300  0.55376700  0.44578600  1
  O  O56  1  0.23786900  0.96827000  0.75798900  1
  O  O57  1  0.69733100  0.45739900  0.79656000  1
  O  O58  1  0.39336600  0.47456900  0.76090900  1
  O  O59  1  0.37852200  0.18949400  0.91411100  1
  O  O60  1  0.07735700  0.92051500  0.03511100  1
  O  O61  1  0.69486800  0.18689500  0.94012800  1
  O  O62  1  0.38887200  0.90487100  0.04926800  1
  O  O63  1  0.91671900  0.81660000  0.29447700  1
  O  O64  1  0.54090500  0.68179100  0.91129800  1
  O  O65  1  0.68956100  0.21732200  0.35714100  1
  O  O66  1  0.90424100  0.99173400  0.77643100  1
  O  O67  1  0.71415800  0.98004700  0.49270200  1
  O  O68  1  0.39927000  0.62447500  0.18858700  1
  O  O69  1  0.08928000  0.76362300  0.60335000  1
  O  O70  1  0.69689700  0.64203900  0.21569500  1
  O  O71  1  0.21569800  0.26215300  0.62699200  1
  O  O72  1  0.87053100  0.32736500  0.17475400  1
  O  O73  1  0.53270600  0.96403400  0.74780100  1
  O  O74  1  0.61997700  0.48061900  0.45128700  1
  O  O75  1  0.32481400  0.32650100  0.33579100  1
  O  O76  1  0.23514800  0.69753900  0.89598200  1
  O  O77  1  0.51733600  0.25304000  0.63999200  1
  O  O78  1  0.00164700  0.25859400  0.90251200  1
  O  O79  1  0.85990900  0.26812100  0.59521000  1
