# generated using pymatgen
data_CrFeO3
_symmetry_space_group_name_H-M   'P 1'
_cell_length_a   10.02126080
_cell_length_b   10.93656827
_cell_length_c   9.34707863
_cell_angle_alpha   91.27039424
_cell_angle_beta   93.00455529
_cell_angle_gamma   89.38567011
_symmetry_Int_Tables_number   1
_chemical_formula_structural   CrFeO3
_chemical_formula_sum   'Cr16 Fe16 O48'
_cell_volume   1022.71647181
_cell_formula_units_Z   16
loop_
 _symmetry_equiv_pos_site_id
 _symmetry_equiv_pos_as_xyz
  1  'x, y, z'
loop_
 _atom_site_type_symbol
 _atom_site_label
 _atom_site_symmetry_multiplicity
 _atom_site_fract_x
 _atom_site_fract_y
 _atom_site_fract_z
 _atom_site_occupancy
  Cr  Cr0  1  0.92235088  0.10747278  0.49214215  1
  Cr  Cr1  1  0.45226508  0.27074289  0.96477707  1
  Cr  Cr2  1  0.74972130  0.27931520  0.96344334  1
  Cr  Cr3  1  0.62928450  0.28829817  0.31355411  1
  Cr  Cr4  1  0.86974258  0.96871498  0.74089441  1
  Cr  Cr5  1  0.23736012  0.55398440  0.54419764  1
  Cr  Cr6  1  0.94256964  0.71983017  0.64720972  1
  Cr  Cr7  1  0.22613909  0.27168057  0.58946303  1
  Cr  Cr8  1  0.16919410  0.10028789  0.35358989  1
  Cr  Cr9  1  0.75717968  0.71232662  0.28449382  1
  Cr  Cr10  1  0.44164620  0.43504680  0.72265339  1
  Cr  Cr11  1  0.94276418  0.43438042  0.49343238  1
  Cr  Cr12  1  0.66486865  0.57295880  0.59823771  1
  Cr  Cr13  1  0.98393557  0.07066190  0.06284992  1
  Cr  Cr14  1  0.44343475  0.96821025  0.27528918  1
  Cr  Cr15  1  0.40824609  0.02617586  0.75070039  1
  Fe  Fe16  1  0.60025135  0.48878636  0.12270056  1
  Fe  Fe17  1  0.15165536  0.77128400  0.89064555  1
  Fe  Fe18  1  0.16375864  0.88553819  0.60376878  1
  Fe  Fe19  1  0.80570612  0.80206031  0.95373264  1
  Fe  Fe20  1  0.71510535  0.26219637  0.65838703  1
  Fe  Fe21  1  0.62041142  0.02490434  0.98653626  1
  Fe  Fe22  1  0.31854960  0.38873722  0.30514630  1
  Fe  Fe23  1  0.49656029  0.73832682  0.85866908  1
  Fe  Fe24  1  0.62320162  0.84654684  0.56776117  1
  Fe  Fe25  1  0.01412773  0.60911100  0.12373827  1
  Fe  Fe26  1  0.12896778  0.27983952  0.00483142  1
  Fe  Fe27  1  0.23087113  0.01479721  0.98968746  1
  Fe  Fe28  1  0.91026829  0.39157639  0.18610910  1
  Fe  Fe29  1  0.09783400  0.84711507  0.23637460  1
  Fe  Fe30  1  0.83306768  0.52645411  0.85300219  1
  Fe  Fe31  1  0.29112947  0.51123076  0.99866812  1
  O  O32  1  0.26099412  0.55564554  0.35789733  1
  O  O33  1  0.11147399  0.43588708  0.59618239  1
  O  O34  1  0.32490497  0.32679063  0.79752731  1
  O  O35  1  0.81953942  0.11684055  0.68104408  1
  O  O36  1  0.77730698  0.82266567  0.71837415  1
  O  O37  1  0.63826172  0.62375169  0.79085413  1
  O  O38  1  0.61143145  0.84071776  0.97031580  1
  O  O39  1  0.32386076  0.68403920  0.94093543  1
  O  O40  1  0.48420010  0.87499834  0.41015963  1
  O  O41  1  0.58191127  0.00453101  0.19855905  1
  O  O42  1  0.09362131  0.46459798  0.04606324  1
  O  O43  1  0.92758886  0.74800757  0.22472089  1
  O  O44  1  0.60793179  0.20733344  0.83707874  1
  O  O45  1  0.26186319  0.92838745  0.79046193  1
  O  O46  1  0.10558560  0.11711900  0.55883097  1
  O  O47  1  0.88872265  0.28382045  0.52951909  1
  O  O48  1  0.60133672  0.41105786  0.63561886  1
  O  O49  1  0.82517180  0.34859087  0.80121623  1
  O  O50  1  0.08294426  0.11816795  0.89762028  1
  O  O51  1  0.76860140  0.39768789  0.32354291  1
  O  O52  1  0.17706968  0.91672462  0.41020740  1
  O  O53  1  0.40731855  0.08904606  0.94121079  1
  O  O54  1  0.37698612  0.58689327  0.68372376  1
  O  O55  1  0.68796217  0.69721955  0.46117172  1
  O  O56  1  0.91675623  0.24410551  0.07659517  1
  O  O57  1  0.02459154  0.86923504  0.74135066  1
  O  O58  1  0.19105685  0.27791716  0.37823412  1
  O  O59  1  0.13916642  0.70129686  0.59693054  1
  O  O60  1  0.49211594  0.87780565  0.71215760  1
  O  O61  1  0.63812790  0.20005305  0.46229609  1
  O  O62  1  0.99495679  0.49811469  0.32497935  1
  O  O63  1  0.31377852  0.33816479  0.09677381  1
  O  O64  1  0.85919474  0.54993783  0.61157839  1
  O  O65  1  0.35365449  0.39685439  0.53846924  1
  O  O66  1  0.61127425  0.24729557  0.11400355  1
  O  O67  1  0.16590890  0.11743743  0.14508381  1
  O  O68  1  0.77419482  0.44743458  0.04538842  1
  O  O69  1  0.36852870  0.13364380  0.62644518  1
  O  O70  1  0.49278227  0.45114128  0.94810305  1
  O  O71  1  0.97252760  0.09394769  0.31036866  1
  O  O72  1  0.07905719  0.90163932  0.03889677  1
  O  O73  1  0.82480577  0.99939699  0.94398785  1
  O  O74  1  0.33179560  0.90672191  0.15363244  1
  O  O75  1  0.94654235  0.67102010  0.92727351  1
  O  O76  1  0.87934912  0.95093363  0.52494952  1
  O  O77  1  0.37459639  0.09674806  0.33760858  1
  O  O78  1  0.63829637  0.65198356  0.15239093  1
  O  O79  1  0.51034817  0.42189748  0.28768894  1
