# generated using pymatgen
data_ZnS
_symmetry_space_group_name_H-M   'P 1'
_cell_length_a   13.36135746
_cell_length_b   14.02480695
_cell_length_c   13.04983353
_cell_angle_alpha   99.82852972
_cell_angle_beta   91.90922636
_cell_angle_gamma   89.15599533
_symmetry_Int_Tables_number   1
_chemical_formula_structural   ZnS
_chemical_formula_sum   'Zn50 S50'
_cell_volume   2408.08385285
_cell_formula_units_Z   50
loop_
 _symmetry_equiv_pos_site_id
 _symmetry_equiv_pos_as_xyz
  1  'x, y, z'
loop_
 _atom_site_type_symbol
 _atom_site_label
 _atom_site_symmetry_multiplicity
 _atom_site_fract_x
 _atom_site_fract_y
 _atom_site_fract_z
 _atom_site_occupancy
  Zn  Zn0  1  0.42487300  0.70767959  0.85090514  1
  Zn  Zn1  1  0.19978289  0.08215510  0.74020081  1
  Zn  Zn2  1  0.50822535  0.44725073  0.88404330  1
  Zn  Zn3  1  0.27996182  0.19816482  0.53597756  1
  Zn  Zn4  1  0.07007639  0.97546889  0.11702522  1
  Zn  Zn5  1  0.80513376  0.49019073  0.53075987  1
  Zn  Zn6  1  0.08163370  0.19972487  0.83530844  1
  Zn  Zn7  1  0.57602804  0.80793797  0.83446215  1
  Zn  Zn8  1  0.92584983  0.40180344  0.88948384  1
  Zn  Zn9  1  0.24981981  0.28522217  0.82574889  1
  Zn  Zn10  1  0.65694939  0.14378399  0.07814649  1
  Zn  Zn11  1  0.90015751  0.86333774  0.09049451  1
  Zn  Zn12  1  0.34542230  0.70664644  0.54552363  1
  Zn  Zn13  1  0.19626090  0.93099775  0.45773815  1
  Zn  Zn14  1  0.93681516  0.77294734  0.58230977  1
  Zn  Zn15  1  0.72159690  0.16402281  0.84197717  1
  Zn  Zn16  1  0.48128463  0.29064981  0.50238402  1
  Zn  Zn17  1  0.86133958  0.11045403  0.27007032  1
  Zn  Zn18  1  0.53293382  0.87920633  0.05692047  1
  Zn  Zn19  1  0.08454927  0.31414633  0.71110051  1
  Zn  Zn20  1  0.37023216  0.87580666  0.64790090  1
  Zn  Zn21  1  0.50220348  0.87393264  0.36249432  1
  Zn  Zn22  1  0.91992665  0.22347920  0.69856709  1
  Zn  Zn23  1  0.73053001  0.90694461  0.68170112  1
  Zn  Zn24  1  0.39062700  0.09316482  0.32518258  1
  Zn  Zn25  1  0.41242290  0.90608827  0.90807431  1
  Zn  Zn26  1  0.13534174  0.88836441  0.96171288  1
  Zn  Zn27  1  0.53444978  0.61531743  0.71678447  1
  Zn  Zn28  1  0.54536506  0.09189581  0.55723192  1
  Zn  Zn29  1  0.80658801  0.93224731  0.95788861  1
  Zn  Zn30  1  0.60076477  0.49512835  0.14617303  1
  Zn  Zn31  1  0.01084667  0.61878535  0.82210393  1
  Zn  Zn32  1  0.49652891  0.10787524  0.78949000  1
  Zn  Zn33  1  0.91997790  0.16918286  0.05991663  1
  Zn  Zn34  1  0.29978773  0.95758840  0.23534855  1
  Zn  Zn35  1  0.02349315  0.03195089  0.82350699  1
  Zn  Zn36  1  0.81525057  0.37619869  0.28778570  1
  Zn  Zn37  1  0.74188686  0.42917801  0.70207715  1
  Zn  Zn38  1  0.23480222  0.48675494  0.60108631  1
  Zn  Zn39  1  0.73085533  0.55490529  0.95418942  1
  Zn  Zn40  1  0.13120980  0.62788622  0.51696854  1
  Zn  Zn41  1  0.76042201  0.31318955  0.53192440  1
  Zn  Zn42  1  0.22480238  0.49786075  0.97670359  1
  Zn  Zn43  1  0.74421028  0.76876261  0.47063715  1
  Zn  Zn44  1  0.09442535  0.36379705  0.12259123  1
  Zn  Zn45  1  0.56534312  0.61544573  0.36441516  1
  Zn  Zn46  1  0.11820809  0.49263257  0.26115514  1
  Zn  Zn47  1  0.41445647  0.66773465  0.14471813  1
  Zn  Zn48  1  0.13136985  0.75537509  0.31634250  1
  Zn  Zn49  1  0.25415769  0.75814541  0.72206370  1
  S  S50  1  0.52712226  0.69098371  0.57128269  1
  S  S51  1  0.01742880  0.12309325  0.19173288  1
  S  S52  1  0.43261406  0.83402073  0.18382791  1
  S  S53  1  0.97322340  0.60242029  0.13486028  1
  S  S54  1  0.23840590  0.64400994  0.09415003  1
  S  S55  1  0.34768605  0.24912435  0.39161282  1
  S  S56  1  0.78256692  0.23038160  0.17459262  1
  S  S57  1  0.48573789  0.61980536  0.97903617  1
  S  S58  1  0.46191402  0.54198075  0.23286255  1
  S  S59  1  0.96335425  0.77489881  0.76847656  1
  S  S60  1  0.64260188  0.05676234  0.69732113  1
  S  S61  1  0.81618513  0.15833205  0.55307157  1
  S  S62  1  0.61741593  0.34088532  0.41407925  1
  S  S63  1  0.28052650  0.79224767  0.91003525  1
  S  S64  1  0.15379660  0.61695155  0.69807465  1
  S  S65  1  0.83505747  0.90162057  0.54800176  1
  S  S66  1  0.13873217  0.90575209  0.27641182  1
  S  S67  1  0.94023586  0.41642067  0.41876338  1
  S  S68  1  0.54752954  0.83467832  0.63973134  1
  S  S69  1  0.77162198  0.96499792  0.23274478  1
  S  S70  1  0.79422231  0.30244900  0.80440979  1
  S  S71  1  0.74035776  0.82703269  0.82057401  1
  S  S72  1  0.86330808  0.07099005  0.90309039  1
  S  S73  1  0.85469467  0.50623206  0.10862161  1
  S  S74  1  0.64597518  0.42254513  0.98893217  1
  S  S75  1  0.17223888  0.07643033  0.56385392  1
  S  S76  1  0.54606138  0.03707117  0.38802999  1
  S  S77  1  0.00669510  0.54603276  0.39017826  1
  S  S78  1  0.56262489  0.45703379  0.71790328  1
  S  S79  1  0.63451584  0.49129367  0.45756818  1
  S  S80  1  0.57665221  0.18959984  0.94158847  1
  S  S81  1  0.84370883  0.53763841  0.82399044  1
  S  S82  1  0.63156311  0.75760411  0.33928852  1
  S  S83  1  0.29022504  0.55756807  0.46746854  1
  S  S84  1  0.08819794  0.78308749  0.49013634  1
  S  S85  1  0.00603046  0.28320877  0.98463558  1
  S  S86  1  0.76076343  0.52308968  0.23953064  1
  S  S87  1  0.17557901  0.33814991  0.57899172  1
  S  S88  1  0.89940600  0.20124171  0.43432404  1
  S  S89  1  0.95833567  0.70085693  0.03563524  1
  S  S90  1  0.22371349  0.62213629  0.24968065  1
  S  S91  1  0.35709652  0.00960045  0.78794099  1
  S  S92  1  0.35298385  0.84955066  0.45915558  1
  S  S93  1  0.68053869  0.98235668  0.10271820  1
  S  S94  1  0.81483510  0.65445535  0.55976621  1
  S  S95  1  0.43935012  0.20980409  0.64488678  1
  S  S96  1  0.08419151  0.47104257  0.86508124  1
  S  S97  1  0.08217200  0.87114457  0.77870514  1
  S  S98  1  0.35262953  0.39048003  0.93045004  1
  S  S99  1  0.62111083  0.69211272  0.99084289  1
