# generated using pymatgen
data_SbN
_symmetry_space_group_name_H-M   'P 1'
_cell_length_a   15.50996257
_cell_length_b   15.67176917
_cell_length_c   16.51010017
_cell_angle_alpha   93.96252798
_cell_angle_beta   94.04773499
_cell_angle_gamma   85.77790939
_symmetry_Int_Tables_number   1
_chemical_formula_structural   SbN
_chemical_formula_sum   'Sb50 N50'
_cell_volume   3983.96583739
_cell_formula_units_Z   50
loop_
 _symmetry_equiv_pos_site_id
 _symmetry_equiv_pos_as_xyz
  1  'x, y, z'
loop_
 _atom_site_type_symbol
 _atom_site_label
 _atom_site_symmetry_multiplicity
 _atom_site_fract_x
 _atom_site_fract_y
 _atom_site_fract_z
 _atom_site_occupancy
  Sb  Sb0  1  0.15205050  0.33470186  0.86153159  1
  Sb  Sb1  1  0.62476146  0.35932719  0.27284299  1
  Sb  Sb2  1  0.82702732  0.48170584  0.37035997  1
  Sb  Sb3  1  0.10982105  0.37062271  0.17458129  1
  Sb  Sb4  1  0.17327350  0.94968779  0.50011327  1
  Sb  Sb5  1  0.18422410  0.59563618  0.71577966  1
  Sb  Sb6  1  0.32906236  0.64124830  0.41431139  1
  Sb  Sb7  1  0.49885602  0.42691001  0.58586104  1
  Sb  Sb8  1  0.90484264  0.02743488  0.43930930  1
  Sb  Sb9  1  0.06632852  0.11815677  0.43849875  1
  Sb  Sb10  1  0.34089818  0.36402817  0.29780043  1
  Sb  Sb11  1  0.96694710  0.47536796  0.10635209  1
  Sb  Sb12  1  0.53463549  0.38226822  0.05726319  1
  Sb  Sb13  1  0.84945130  0.80508957  0.53582097  1
  Sb  Sb14  1  0.51056938  0.69289662  0.40465344  1
  Sb  Sb15  1  0.04890387  0.06613510  0.60030997  1
  Sb  Sb16  1  0.70301557  0.50278923  0.22083089  1
  Sb  Sb17  1  0.14992367  0.33543441  0.64304082  1
  Sb  Sb18  1  0.22076636  0.17802473  0.70944647  1
  Sb  Sb19  1  0.29610189  0.43682843  0.71074358  1
  Sb  Sb20  1  0.69794950  0.90774919  0.64419145  1
  Sb  Sb21  1  0.13116853  0.55797222  0.12141477  1
  Sb  Sb22  1  0.15470023  0.44804004  0.33469066  1
  Sb  Sb23  1  0.21212411  0.66292831  0.55975774  1
  Sb  Sb24  1  0.86763633  0.47409593  0.62144096  1
  Sb  Sb25  1  0.71456855  0.18330728  0.56825488  1
  Sb  Sb26  1  0.60084319  0.72732532  0.59603810  1
  Sb  Sb27  1  0.78452786  0.71542031  0.66416609  1
  Sb  Sb28  1  0.83988159  0.30422973  0.31112104  1
  Sb  Sb29  1  0.04650158  0.70647663  0.46398352  1
  Sb  Sb30  1  0.81875462  0.05072767  0.63971519  1
  Sb  Sb31  1  0.32790127  0.54982668  0.24747896  1
  Sb  Sb32  1  0.77486122  0.17403096  0.41505968  1
  Sb  Sb33  1  0.19494350  0.96428868  0.31150981  1
  Sb  Sb34  1  0.46592597  0.24111726  0.21281620  1
  Sb  Sb35  1  0.34927889  0.41792008  0.90990826  1
  Sb  Sb36  1  0.76184433  0.70875626  0.40082283  1
  Sb  Sb37  1  0.03372796  0.50518815  0.74914570  1
  Sb  Sb38  1  0.05638048  0.60740794  0.30785963  1
  Sb  Sb39  1  0.31618333  0.43759156  0.49488396  1
  Sb  Sb40  1  0.28979932  0.32019829  0.06928534  1
  Sb  Sb41  1  0.53516695  0.59427322  0.16616047  1
  Sb  Sb42  1  0.02388299  0.28153007  0.34564919  1
  Sb  Sb43  1  0.70123721  0.58371368  0.50582320  1
  Sb  Sb44  1  0.88295604  0.57521131  0.23386673  1
  Sb  Sb45  1  0.04334852  0.46501076  0.51278505  1
  Sb  Sb46  1  0.31847381  0.77107225  0.27417537  1
  Sb  Sb47  1  0.67884397  0.87263375  0.45312391  1
  Sb  Sb48  1  0.50528131  0.49819510  0.36079311  1
  Sb  Sb49  1  0.05872688  0.86690689  0.38633736  1
  N  N50  1  0.36923212  0.70422613  0.00817324  1
  N  N51  1  0.47416657  0.03542803  0.54696350  1
  N  N52  1  0.46126592  0.53588342  0.24374257  1
  N  N53  1  0.07347166  0.39058690  0.40707752  1
  N  N54  1  0.28405672  0.95298637  0.00498126  1
  N  N55  1  0.94114504  0.75925181  0.12191660  1
  N  N56  1  0.36924733  0.90509472  0.74445098  1
  N  N57  1  0.53518445  0.06065110  0.06359234  1
  N  N58  1  0.33774592  0.67588107  0.95085855  1
  N  N59  1  0.13445633  0.97723172  0.83800839  1
  N  N60  1  0.95129393  0.05302819  0.18115348  1
  N  N61  1  0.57941515  0.54943481  0.70510869  1
  N  N62  1  0.12737974  0.13060148  0.06478590  1
  N  N63  1  0.40598772  0.03689846  0.56434952  1
  N  N64  1  0.30094260  0.89959263  0.27865665  1
  N  N65  1  0.93734336  0.05043740  0.24620025  1
  N  N66  1  0.25941454  0.89268770  0.02318833  1
  N  N67  1  0.67176188  0.77364419  0.03349986  1
  N  N68  1  0.92266454  0.03000080  0.56505940  1
  N  N69  1  0.84913049  0.36984428  0.89539638  1
  N  N70  1  0.79202501  0.58791728  0.60358534  1
  N  N71  1  0.55108666  0.24043058  0.88990713  1
  N  N72  1  0.49668098  0.28985739  0.86789181  1
  N  N73  1  0.37318073  0.89964132  0.81146637  1
  N  N74  1  0.91748169  0.44923733  0.50965422  1
  N  N75  1  0.73920594  0.03896672  0.15847013  1
  N  N76  1  0.20708412  0.22212550  0.82221067  1
  N  N77  1  0.54344286  0.32921483  0.17291423  1
  N  N78  1  0.50084965  0.04321098  0.00382816  1
  N  N79  1  0.71980532  0.75157057  0.08222110  1
  N  N80  1  0.52978462  0.55110476  0.64393400  1
  N  N81  1  0.61130293  0.84791100  0.55246738  1
  N  N82  1  0.51970770  0.11984488  0.73772569  1
  N  N83  1  0.12352703  0.06772386  0.09134237  1
  N  N84  1  0.97255153  0.81637935  0.15136904  1
  N  N85  1  0.62609703  0.55289755  0.76306502  1
  N  N86  1  0.09684320  0.38047565  0.75110927  1
  N  N87  1  0.44016791  0.75893001  0.32444963  1
  N  N88  1  0.45189892  0.11800337  0.75544870  1
  N  N89  1  0.72020727  0.97173145  0.15733513  1
  N  N90  1  0.34183714  0.29728464  0.18300436  1
  N  N91  1  0.37033895  0.43762618  0.61318480  1
  N  N92  1  0.14085086  0.63302683  0.22590558  1
  N  N93  1  0.39190751  0.37117341  0.02268196  1
  N  N94  1  0.54038881  0.50742738  0.07332595  1
  N  N95  1  0.25880139  0.56088834  0.48018469  1
  N  N96  1  0.83766987  0.36244461  0.82810947  1
  N  N97  1  0.44425450  0.45830494  0.47282883  1
  N  N98  1  0.08129078  0.02782503  0.84772214  1
  N  N99  1  0.44235976  0.34219557  0.84007615  1
