# generated using pymatgen
data_Al2O3
_symmetry_space_group_name_H-M   'P 1'
_cell_length_a   10.26461428
_cell_length_b   10.52874268
_cell_length_c   10.38550869
_cell_angle_alpha   90.20285299
_cell_angle_beta   83.20771264
_cell_angle_gamma   91.14245345
_symmetry_Int_Tables_number   1
_chemical_formula_structural   Al2O3
_chemical_formula_sum   'Al40 O60'
_cell_volume   1114.29812847
_cell_formula_units_Z   20
loop_
 _symmetry_equiv_pos_site_id
 _symmetry_equiv_pos_as_xyz
  1  'x, y, z'
loop_
 _atom_site_type_symbol
 _atom_site_label
 _atom_site_symmetry_multiplicity
 _atom_site_fract_x
 _atom_site_fract_y
 _atom_site_fract_z
 _atom_site_occupancy
  Al  Al0  1  0.07297400  0.41977400  0.45843900  1
  Al  Al1  1  0.82940900  0.09749900  0.66544600  1
  Al  Al2  1  0.15731100  0.80521200  0.62845900  1
  Al  Al3  1  0.16028700  0.54536700  0.82391400  1
  Al  Al4  1  0.65650400  0.84539000  0.53693900  1
  Al  Al5  1  0.06313100  0.18772600  0.72681900  1
  Al  Al6  1  0.38236200  0.19928700  0.52525600  1
  Al  Al7  1  0.37648300  0.00380000  0.76623700  1
  Al  Al8  1  0.05068200  0.32197100  0.17824700  1
  Al  Al9  1  0.88408100  0.56139500  0.84890200  1
  Al  Al10  1  0.56681600  0.69777000  0.02211400  1
  Al  Al11  1  0.52145500  0.16547900  0.94719100  1
  Al  Al12  1  0.69261000  0.12726500  0.42986400  1
  Al  Al13  1  0.62123400  0.87606100  0.80574500  1
  Al  Al14  1  0.24455800  0.75719100  0.03356300  1
  Al  Al15  1  0.86100600  0.21245900  0.95741600  1
  Al  Al16  1  0.35169600  0.27432900  0.76683400  1
  Al  Al17  1  0.07652500  0.91076500  0.17231300  1
  Al  Al18  1  0.41115200  0.94886900  0.07535000  1
  Al  Al19  1  0.38046800  0.75878100  0.64544000  1
  Al  Al20  1  0.57723000  0.39646700  0.49627300  1
  Al  Al21  1  0.11432700  0.60110000  0.24914800  1
  Al  Al22  1  0.64083400  0.59657800  0.32831500  1
  Al  Al23  1  0.83532800  0.05110700  0.20228500  1
  Al  Al24  1  0.29936700  0.94573100  0.37446200  1
  Al  Al25  1  0.00557700  0.99722200  0.45787900  1
  Al  Al26  1  0.84651400  0.91426400  0.96424800  1
  Al  Al27  1  0.61933200  0.40333100  0.95212500  1
  Al  Al28  1  0.79157400  0.35596600  0.66781400  1
  Al  Al29  1  0.60249100  0.57590700  0.74505600  1
  Al  Al30  1  0.35578600  0.46898200  0.33005500  1
  Al  Al31  1  0.86446400  0.81212800  0.67856600  1
  Al  Al32  1  0.58395700  0.86214800  0.30113400  1
  Al  Al33  1  0.90883900  0.60797900  0.53842800  1
  Al  Al34  1  0.15840900  0.11469200  0.00493000  1
  Al  Al35  1  0.62247100  0.31344400  0.25040500  1
  Al  Al36  1  0.33110800  0.20408800  0.22047000  1
  Al  Al37  1  0.84957400  0.48518700  0.13230800  1
  Al  Al38  1  0.80264100  0.74074900  0.14316100  1
  Al  Al39  1  0.33126900  0.49638400  0.61746100  1
  O  O40  1  0.20304000  0.23838000  0.11880900  1
  O  O41  1  0.45658700  0.61154300  0.66940100  1
  O  O42  1  0.93596200  0.65897200  0.70640900  1
  O  O43  1  0.68792300  0.72477600  0.75072400  1
  O  O44  1  0.01427800  0.46138800  0.84579500  1
  O  O45  1  0.92886300  0.43487300  0.57465400  1
  O  O46  1  0.06388800  0.30439600  0.34318800  1
  O  O47  1  0.22047500  0.22077700  0.65050100  1
  O  O48  1  0.74030900  0.89496800  0.21277500  1
  O  O49  1  0.60284400  0.69419100  0.18335300  1
  O  O50  1  0.48072200  0.31100700  0.87638800  1
  O  O51  1  0.43923700  0.12099300  0.65798700  1
  O  O52  1  0.99747100  0.10216300  0.59504800  1
  O  O53  1  0.27489100  0.43105700  0.77830400  1
  O  O54  1  0.73619600  0.95120500  0.66129600  1
  O  O55  1  0.43491500  0.33537600  0.24349600  1
  O  O56  1  0.26100000  0.87603600  0.74365400  1
  O  O57  1  0.43799800  0.11527700  0.10295600  1
  O  O58  1  0.75069100  0.45331100  0.81992400  1
  O  O59  1  0.24387200  0.43871000  0.47967000  1
  O  O60  1  0.32035400  0.12046200  0.38180800  1
  O  O61  1  0.01940900  0.86154400  0.56707300  1
  O  O62  1  0.13291500  0.95282000  0.33476700  1
  O  O63  1  0.87249900  0.22882200  0.77017600  1
  O  O64  1  0.50870900  0.99849600  0.88843700  1
  O  O65  1  0.59078400  0.74080200  0.42241000  1
  O  O66  1  0.80825800  0.74459200  0.52525400  1
  O  O67  1  0.04308300  0.58751600  0.41515800  1
  O  O68  1  0.30138200  0.83568800  0.50434000  1
  O  O69  1  0.41792700  0.78482900  0.01787500  1
  O  O70  1  0.60731300  0.97496500  0.43709300  1
  O  O71  1  0.27665600  0.55402400  0.22719800  1
  O  O72  1  0.67082600  0.42672400  0.11561200  1
  O  O73  1  0.90510100  0.91863100  0.80300200  1
  O  O74  1  0.81487100  0.61947400  0.25786100  1
  O  O75  1  0.69637400  0.42774000  0.35499600  1
  O  O76  1  0.94444100  0.83819500  0.07455400  1
  O  O77  1  0.48479900  0.52169600  0.41488000  1
  O  O78  1  0.04360300  0.16232800  0.89780500  1
  O  O79  1  0.67874400  0.83506300  0.96671300  1
  O  O80  1  0.18276600  0.66540400  0.92559600  1
  O  O81  1  0.90707000  0.31408700  0.08716400  1
  O  O82  1  0.54971100  0.23622800  0.42943900  1
  O  O83  1  0.72142800  0.17341900  0.25826100  1
  O  O84  1  0.74387800  0.20854600  0.57779600  1
  O  O85  1  0.14102500  0.75422900  0.18407300  1
  O  O86  1  0.42745200  0.90663100  0.24674000  1
  O  O87  1  0.86403900  0.03744500  0.38663500  1
  O  O88  1  0.02459600  0.49128700  0.16458200  1
  O  O89  1  0.01723200  0.06619600  0.14769300  1
  O  O90  1  0.21768900  0.64501400  0.65776600  1
  O  O91  1  0.22998100  0.94529400  0.05269000  1
  O  O92  1  0.67780900  0.23760900  0.96031200  1
  O  O93  1  0.50855900  0.86523100  0.67838600  1
  O  O94  1  0.29909000  0.12883300  0.87728900  1
  O  O95  1  0.83271800  0.61493600  0.00947500  1
  O  O96  1  0.55004000  0.56214200  0.92355700  1
  O  O97  1  0.66811900  0.46624500  0.61576800  1
  O  O98  1  0.43085200  0.35412400  0.60447700  1
  O  O99  1  0.81293900  0.06258200  0.02799800  1
