# generated using pymatgen
data_AlF3
_symmetry_space_group_name_H-M   'P 1'
_cell_length_a   9.88195484
_cell_length_b   11.00033513
_cell_length_c   11.26892653
_cell_angle_alpha   91.94034599
_cell_angle_beta   86.83712342
_cell_angle_gamma   88.91121090
_symmetry_Int_Tables_number   1
_chemical_formula_structural   AlF3
_chemical_formula_sum   'Al25 F75'
_cell_volume   1222.15190297
_cell_formula_units_Z   25
loop_
 _symmetry_equiv_pos_site_id
 _symmetry_equiv_pos_as_xyz
  1  'x, y, z'
loop_
 _atom_site_type_symbol
 _atom_site_label
 _atom_site_symmetry_multiplicity
 _atom_site_fract_x
 _atom_site_fract_y
 _atom_site_fract_z
 _atom_site_occupancy
  Al  Al0  1  0.76352700  0.91809900  0.25442700  1
  Al  Al1  1  0.29359300  0.16942100  0.83883600  1
  Al  Al2  1  0.86805800  0.59690700  0.96294600  1
  Al  Al3  1  0.45110100  0.16913200  0.55057300  1
  Al  Al4  1  0.14656000  0.34223800  0.37594600  1
  Al  Al5  1  0.27754400  0.42108400  0.65179400  1
  Al  Al6  1  0.85886200  0.15235800  0.07756900  1
  Al  Al7  1  0.21119200  0.63674000  0.42519600  1
  Al  Al8  1  0.97677000  0.68803300  0.67063100  1
  Al  Al9  1  0.79857700  0.03967600  0.52919800  1
  Al  Al10  1  0.96678600  0.08795200  0.77773300  1
  Al  Al11  1  0.62155700  0.13090200  0.85010000  1
  Al  Al12  1  0.06741900  0.03331400  0.30103000  1
  Al  Al13  1  0.55838100  0.85441300  0.68976600  1
  Al  Al14  1  0.48552500  0.45351800  0.33318200  1
  Al  Al15  1  0.29327700  0.92550400  0.50052800  1
  Al  Al16  1  0.89608900  0.34212000  0.60013300  1
  Al  Al17  1  0.10268100  0.38085900  0.04695700  1
  Al  Al18  1  0.60343600  0.58142100  0.86683300  1
  Al  Al19  1  0.66544500  0.58077800  0.56290700  1
  Al  Al20  1  0.41243100  0.95286000  0.19806500  1
  Al  Al21  1  0.77848500  0.58956700  0.25579000  1
  Al  Al22  1  0.58569900  0.21092100  0.26433600  1
  Al  Al23  1  0.20998700  0.86747200  0.79414700  1
  Al  Al24  1  0.29638200  0.65423000  0.99945000  1
  F  F25  1  0.99278400  0.11781000  0.18000900  1
  F  F26  1  0.29191400  0.31523600  0.77203400  1
  F  F27  1  0.55921800  0.98562000  0.80735700  1
  F  F28  1  0.40772800  0.90026700  0.05790500  1
  F  F29  1  0.74306100  0.62075600  0.41761800  1
  F  F30  1  0.70146600  0.16315400  0.98358700  1
  F  F31  1  0.20984700  0.93602200  0.64656600  1
  F  F32  1  0.95248000  0.91412800  0.25623000  1
  F  F33  1  0.80808900  0.20847500  0.55402800  1
  F  F34  1  0.92911700  0.25572900  0.73114100  1
  F  F35  1  0.40290500  0.12844200  0.70065300  1
  F  F36  1  0.46954300  0.17834500  0.39026400  1
  F  F37  1  0.22657300  0.50692700  0.02289400  1
  F  F38  1  0.22471200  0.99670300  0.21013200  1
  F  F39  1  0.92626400  0.07848900  0.40743700  1
  F  F40  1  0.13509500  0.14760200  0.76648500  1
  F  F41  1  0.20905000  0.77339900  0.93249900  1
  F  F42  1  0.18394300  0.32696900  0.55347600  1
  F  F43  1  0.36678000  0.57958400  0.33597900  1
  F  F44  1  0.70679600  0.93384100  0.62771600  1
  F  F45  1  0.77157700  0.50083200  0.85983700  1
  F  F46  1  0.90779800  0.49541700  0.28327300  1
  F  F47  1  0.45850900  0.92672600  0.57158100  1
  F  F48  1  0.60520400  0.54527700  0.25203700  1
  F  F49  1  0.14885300  0.18297000  0.34287300  1
  F  F50  1  0.94678700  0.04580600  0.62330500  1
  F  F51  1  0.14132200  0.36080200  0.19702100  1
  F  F52  1  0.78041300  0.74982800  0.23370800  1
  F  F53  1  0.63198600  0.75467200  0.78692200  1
  F  F54  1  0.24686000  0.52538400  0.76511700  1
  F  F55  1  0.75052600  0.42889000  0.56771200  1
  F  F56  1  0.44959100  0.17373500  0.91514300  1
  F  F57  1  0.19911500  0.25877800  0.97071500  1
  F  F58  1  0.04225900  0.94139700  0.82108900  1
  F  F59  1  0.92839300  0.83137000  0.64697000  1
  F  F60  1  0.47962200  0.10321400  0.18158700  1
  F  F61  1  0.30228900  0.09230700  0.51303700  1
  F  F62  1  0.15249200  0.72513300  0.31824700  1
  F  F63  1  0.34731200  0.68478400  0.13380400  1
  F  F64  1  0.96572000  0.69330300  0.04266800  1
  F  F65  1  0.68895200  0.07989000  0.30571300  1
  F  F66  1  0.95649600  0.11543800  0.94195600  1
  F  F67  1  0.94774900  0.29774700  0.06638100  1
  F  F68  1  0.00386600  0.47147400  0.95554400  1
  F  F69  1  0.29633500  0.76392000  0.49641000  1
  F  F70  1  0.53317500  0.46295300  0.94132800  1
  F  F71  1  0.62508000  0.33939400  0.36371100  1
  F  F72  1  0.58000100  0.54263600  0.70979400  1
  F  F73  1  0.38901100  0.92558200  0.35349300  1
  F  F74  1  0.62897000  0.24470700  0.75415400  1
  F  F75  1  0.53250600  0.51302100  0.48016200  1
  F  F76  1  0.49098100  0.33860900  0.20256000  1
  F  F77  1  0.58834100  0.89170800  0.21844300  1
  F  F78  1  0.78912800  0.06507500  0.79867100  1
  F  F79  1  0.61333400  0.10539000  0.53906300  1
  F  F80  1  0.43478800  0.65643000  0.89916700  1
  F  F81  1  0.12899900  0.49941100  0.37905300  1
  F  F82  1  0.97849300  0.33210200  0.44988000  1
  F  F83  1  0.43050500  0.32737100  0.58513400  1
  F  F84  1  0.79545000  0.99838900  0.11229600  1
  F  F85  1  0.74023000  0.23849500  0.17645000  1
  F  F86  1  0.76164100  0.91541800  0.41697000  1
  F  F87  1  0.38591700  0.82381200  0.75461900  1
  F  F88  1  0.81175700  0.63492400  0.63100900  1
  F  F89  1  0.32926500  0.36178800  0.36782300  1
  F  F90  1  0.06117200  0.65615500  0.52973500  1
  F  F91  1  0.28368600  0.53852000  0.54663000  1
  F  F92  1  0.93608000  0.65827700  0.82222600  1
  F  F93  1  0.69790900  0.67609700  0.96926600  1
  F  F94  1  0.14281600  0.73454400  0.72480100  1
  F  F95  1  0.27400600  0.00874700  0.87155900  1
  F  F96  1  0.79543500  0.53443700  0.10127100  1
  F  F97  1  0.57683100  0.72743800  0.57702900  1
  F  F98  1  0.98929100  0.46407200  0.65306100  1
  F  F99  1  0.13947800  0.95348900  0.42300300  1
