# generated using pymatgen
data_TaN
_symmetry_space_group_name_H-M   'P 1'
_cell_length_a   10.59164238
_cell_length_b   10.62647480
_cell_length_c   11.42441353
_cell_angle_alpha   90.10641956
_cell_angle_beta   92.03459442
_cell_angle_gamma   89.97413194
_symmetry_Int_Tables_number   1
_chemical_formula_structural   TaN
_chemical_formula_sum   'Ta50 N50'
_cell_volume   1285.02560575
_cell_formula_units_Z   50
loop_
 _symmetry_equiv_pos_site_id
 _symmetry_equiv_pos_as_xyz
  1  'x, y, z'
loop_
 _atom_site_type_symbol
 _atom_site_label
 _atom_site_symmetry_multiplicity
 _atom_site_fract_x
 _atom_site_fract_y
 _atom_site_fract_z
 _atom_site_occupancy
  Ta  Ta0  1  0.83210100  0.59591500  0.12150100  1
  Ta  Ta1  1  0.22984300  0.86808100  0.06537800  1
  Ta  Ta2  1  0.55922100  0.54916600  0.14485100  1
  Ta  Ta3  1  0.06695500  0.81311400  0.26209900  1
  Ta  Ta4  1  0.10325500  0.76703800  0.77584100  1
  Ta  Ta5  1  0.11488300  0.49381500  0.22127100  1
  Ta  Ta6  1  0.33616500  0.03634400  0.34591100  1
  Ta  Ta7  1  0.19761400  0.18701700  0.14767200  1
  Ta  Ta8  1  0.71474300  0.09764400  0.92334300  1
  Ta  Ta9  1  0.93376500  0.07488700  0.40963000  1
  Ta  Ta10  1  0.03858500  0.00452900  0.93191500  1
  Ta  Ta11  1  0.13992000  0.88599100  0.50019900  1
  Ta  Ta12  1  0.87021700  0.86161700  0.58052600  1
  Ta  Ta13  1  0.47229000  0.20719800  0.79089300  1
  Ta  Ta14  1  0.77704200  0.31262000  0.76043600  1
  Ta  Ta15  1  0.38441500  0.30610500  0.31892000  1
  Ta  Ta16  1  0.63965400  0.46202700  0.37283500  1
  Ta  Ta17  1  0.74563400  0.86813000  0.12928100  1
  Ta  Ta18  1  0.49312400  0.18094000  0.53348100  1
  Ta  Ta19  1  0.01204300  0.30528200  0.99546700  1
  Ta  Ta20  1  0.64089900  0.94683800  0.37175200  1
  Ta  Ta21  1  0.26167400  0.47230700  0.00452300  1
  Ta  Ta22  1  0.41989400  0.87583200  0.55155900  1
  Ta  Ta23  1  0.57488100  0.73451700  0.97212000  1
  Ta  Ta24  1  0.25786300  0.10424600  0.61436000  1
  Ta  Ta25  1  0.74777500  0.33675000  0.03254800  1
  Ta  Ta26  1  0.94994100  0.30176800  0.26001300  1
  Ta  Ta27  1  0.30810600  0.68891400  0.37321200  1
  Ta  Ta28  1  0.15795900  0.33880600  0.49024400  1
  Ta  Ta29  1  0.49404300  0.02666100  0.04946700  1
  Ta  Ta30  1  0.86338300  0.36562300  0.52624800  1
  Ta  Ta31  1  0.77028500  0.58416500  0.84386400  1
  Ta  Ta32  1  0.63345800  0.94311500  0.72745100  1
  Ta  Ta33  1  0.44427600  0.79580100  0.19463000  1
  Ta  Ta34  1  0.68165500  0.19926100  0.27907600  1
  Ta  Ta35  1  0.43706300  0.48203200  0.53911700  1
  Ta  Ta36  1  0.45824200  0.29464800  0.08362000  1
  Ta  Ta37  1  0.82080700  0.71763200  0.34188500  1
  Ta  Ta38  1  0.84043200  0.83866700  0.86421600  1
  Ta  Ta39  1  0.70804400  0.62183300  0.57562000  1
  Ta  Ta40  1  0.21602200  0.20463800  0.86776200  1
  Ta  Ta41  1  0.00868600  0.48950400  0.76257700  1
  Ta  Ta42  1  0.91954600  0.07752800  0.14658100  1
  Ta  Ta43  1  0.51488100  0.45385600  0.90770200  1
  Ta  Ta44  1  0.28553000  0.40763700  0.73406800  1
  Ta  Ta45  1  0.39921000  0.65258800  0.73665100  1
  Ta  Ta46  1  0.74226800  0.11329200  0.57482800  1
  Ta  Ta47  1  0.14968200  0.60596000  0.55344400  1
  Ta  Ta48  1  0.98512100  0.12179100  0.69358300  1
  Ta  Ta49  1  0.35857900  0.92839500  0.81661600  1
  N  N50  1  0.19362900  0.59368900  0.73339600  1
  N  N51  1  0.80380100  0.48714600  0.67877500  1
  N  N52  1  0.24561700  0.76741900  0.21864000  1
  N  N53  1  0.06645800  0.12200400  0.26005800  1
  N  N54  1  0.42284000  0.84414400  0.00364800  1
  N  N55  1  0.01225200  0.18137300  0.86215100  1
  N  N56  1  0.13380300  0.59567500  0.07563700  1
  N  N57  1  0.21354000  0.50789900  0.39062700  1
  N  N58  1  0.35515500  0.15093700  0.98164500  1
  N  N59  1  0.00020600  0.25987400  0.43592200  1
  N  N60  1  0.57242500  0.61263100  0.83582000  1
  N  N61  1  0.53392400  0.03077200  0.86277800  1
  N  N62  1  0.87725800  0.41366700  0.88763200  1
  N  N63  1  0.32155200  0.00192600  0.16976800  1
  N  N64  1  0.07537300  0.05028100  0.54810700  1
  N  N65  1  0.04321300  0.75603600  0.60081300  1
  N  N66  1  0.62662900  0.29080700  0.87364500  1
  N  N67  1  0.54480900  0.59677800  0.62929100  1
  N  N68  1  0.02168700  0.46770700  0.57551700  1
  N  N69  1  0.71287600  0.58461100  0.25637900  1
  N  N70  1  0.54858300  0.36753600  0.23439800  1
  N  N71  1  0.98111700  0.63854100  0.26603400  1
  N  N72  1  0.05285800  0.91828500  0.11013900  1
  N  N73  1  0.92211700  0.42654300  0.12201900  1
  N  N74  1  0.58334800  0.99458800  0.54666900  1
  N  N75  1  0.34142700  0.67186200  0.55308300  1
  N  N76  1  0.14641500  0.39926100  0.87442300  1
  N  N77  1  0.48667100  0.82343100  0.72129600  1
  N  N78  1  0.95907900  0.86465200  0.40653800  1
  N  N79  1  0.97687100  0.93594100  0.75790000  1
  N  N80  1  0.50406600  0.12959300  0.34445100  1
  N  N81  1  0.58068300  0.93285700  0.19060100  1
  N  N82  1  0.95792800  0.66086500  0.82548100  1
  N  N83  1  0.19092000  0.89714900  0.89008500  1
  N  N84  1  0.29131400  0.19852800  0.44976200  1
  N  N85  1  0.84489800  0.97978000  0.99744000  1
  N  N86  1  0.75544500  0.77400000  0.70485800  1
  N  N87  1  0.26015000  0.90961700  0.65500500  1
  N  N88  1  0.28836400  0.37117500  0.16368000  1
  N  N89  1  0.43199500  0.31924800  0.64429200  1
  N  N90  1  0.71958500  0.78952800  0.47415500  1
  N  N91  1  0.79001300  0.02098700  0.26817000  1
  N  N92  1  0.20187700  0.66544100  0.00842600  1
  N  N93  1  0.62543700  0.17861500  0.08639100  1
  N  N94  1  0.15242900  0.26129500  0.66482400  1
  N  N95  1  0.78532000  0.34851100  0.35786900  1
  N  N96  1  0.78022000  0.11660300  0.75241700  1
  N  N97  1  0.44275400  0.61409700  0.26000100  1
  N  N98  1  0.78252700  0.72049700  0.99536100  1
  N  N99  1  0.44961100  0.85452200  0.37274200  1
