# generated using pymatgen
data_WO2
_symmetry_space_group_name_H-M   'P 1'
_cell_length_a   11.74684427
_cell_length_b   11.47010319
_cell_length_c   11.65482744
_cell_angle_alpha   83.52072191
_cell_angle_beta   91.02258692
_cell_angle_gamma   96.34566674
_symmetry_Int_Tables_number   1
_chemical_formula_structural   WO2
_chemical_formula_sum   'W34 O68'
_cell_volume   1550.72957791
_cell_formula_units_Z   34
loop_
 _symmetry_equiv_pos_site_id
 _symmetry_equiv_pos_as_xyz
  1  'x, y, z'
loop_
 _atom_site_type_symbol
 _atom_site_label
 _atom_site_symmetry_multiplicity
 _atom_site_fract_x
 _atom_site_fract_y
 _atom_site_fract_z
 _atom_site_occupancy
  W  W0  1  0.88775186  0.76758588  0.83441253  1
  W  W1  1  0.72000674  0.00100032  0.07084570  1
  W  W2  1  0.12210684  0.74567760  0.33123603  1
  W  W3  1  0.56245589  0.75320999  0.94102870  1
  W  W4  1  0.42372326  0.28696003  0.42095519  1
  W  W5  1  0.98003295  0.94944022  0.61321256  1
  W  W6  1  0.90401376  0.22121041  0.06048577  1
  W  W7  1  0.91735142  0.26618120  0.57511334  1
  W  W8  1  0.66557278  0.66063093  0.71689209  1
  W  W9  1  0.11541957  0.17536005  0.82438645  1
  W  W10  1  0.77689678  0.50524532  0.98244928  1
  W  W11  1  0.97665347  0.92921074  0.08268325  1
  W  W12  1  0.79760780  0.94984901  0.35107077  1
  W  W13  1  0.19951964  0.28568344  0.55907652  1
  W  W14  1  0.56308768  0.36423226  0.16335872  1
  W  W15  1  0.60054151  0.54313208  0.41887220  1
  W  W16  1  0.85866799  0.42306633  0.30367318  1
  W  W17  1  0.84041193  0.06286189  0.81176984  1
  W  W18  1  0.67216208  0.27418873  0.59484260  1
  W  W19  1  0.81170378  0.70885279  0.43294334  1
  W  W20  1  0.10593072  0.67796795  0.95507551  1
  W  W21  1  0.31167474  0.94220106  0.95148615  1
  W  W22  1  0.48864065  0.04862321  0.24782985  1
  W  W23  1  0.55255751  0.93780118  0.55355518  1
  W  W24  1  0.50096514  0.49505879  0.90052514  1
  W  W25  1  0.29644050  0.55774563  0.52401459  1
  W  W26  1  0.27383680  0.03069032  0.45981684  1
  W  W27  1  0.59779131  0.77186150  0.25342440  1
  W  W28  1  0.02127506  0.18960392  0.34716991  1
  W  W29  1  0.23658724  0.81189504  0.66902486  1
  W  W30  1  0.56034491  0.17276022  0.91379386  1
  W  W31  1  0.32168744  0.63866167  0.12426750  1
  W  W32  1  0.41264293  0.15135078  0.67294987  1
  W  W33  1  0.17540011  0.36178870  0.08100303  1
  O  O34  1  0.00794405  0.05200748  0.75093315  1
  O  O35  1  0.93583431  0.17858306  0.88440804  1
  O  O36  1  0.16330381  0.15822087  0.43172609  1
  O  O37  1  0.60272484  0.81814158  0.65654416  1
  O  O38  1  0.23917070  0.44151216  0.63954301  1
  O  O39  1  0.82915690  0.91464153  0.73775809  1
  O  O40  1  0.29076578  0.39659288  0.43543506  1
  O  O41  1  0.69192532  0.07654308  0.89286358  1
  O  O42  1  0.80154130  0.36697384  0.64594135  1
  O  O43  1  0.51950729  0.42689610  0.30381722  1
  O  O44  1  0.99749882  0.49438844  0.31058410  1
  O  O45  1  0.19330098  0.65951369  0.23766566  1
  O  O46  1  0.83758892  0.66789817  0.72143344  1
  O  O47  1  0.54723871  0.30476518  0.98799499  1
  O  O48  1  0.20353999  0.87737514  0.37842942  1
  O  O49  1  0.13626600  0.51774460  0.99702312  1
  O  O50  1  0.66329066  0.49811832  0.82795558  1
  O  O51  1  0.94265609  0.11496984  0.50900209  1
  O  O52  1  0.37763308  0.98143829  0.16150243  1
  O  O53  1  0.18262861  0.03429378  0.92069012  1
  O  O54  1  0.77894990  0.54132661  0.38045457  1
  O  O55  1  0.15247132  0.28271822  0.93102589  1
  O  O56  1  0.78553162  0.29896127  0.44621753  1
  O  O57  1  0.16373582  0.64045189  0.46151976  1
  O  O58  1  0.20872804  0.74366374  0.82428958  1
  O  O59  1  0.57291149  0.20180060  0.23560473  1
  O  O60  1  0.92780080  0.61218052  0.93370164  1
  O  O61  1  0.38778024  0.40058467  0.85153490  1
  O  O62  1  0.55219851  0.13290702  0.55757029  1
  O  O63  1  0.43672735  0.61496383  0.99501791  1
  O  O64  1  0.47905661  0.94723530  0.38591883  1
  O  O65  1  0.63352802  0.82702846  0.08155461  1
  O  O66  1  0.24400359  0.17924623  0.71459448  1
  O  O67  1  0.00586371  0.81600608  0.96329890  1
  O  O68  1  0.88718554  0.86626436  0.49320673  1
  O  O69  1  0.44426272  0.58144109  0.47400178  1
  O  O70  1  0.30409699  0.46080899  0.13706619  1
  O  O71  1  0.56729523  0.07622824  0.06470200  1
  O  O72  1  0.24081067  0.77674659  0.03245210  1
  O  O73  1  0.72882358  0.69881195  0.90412443  1
  O  O74  1  0.15127885  0.94595426  0.58612825  1
  O  O75  1  0.31995530  0.69747180  0.61073417  1
  O  O76  1  0.64885360  0.97730143  0.24021531  1
  O  O77  1  0.95701233  0.04282230  0.31267348  1
  O  O78  1  0.06558939  0.84137344  0.19518439  1
  O  O79  1  0.84445845  0.94362971  0.95967034  1
  O  O80  1  0.78584075  0.14888118  0.66838610  1
  O  O81  1  0.81702132  0.49376094  0.14752092  1
  O  O82  1  0.81025206  0.35613858  0.97125437  1
  O  O83  1  0.02234224  0.08424731  0.08367765  1
  O  O84  1  0.90054026  0.27091881  0.24132738  1
  O  O85  1  0.05903779  0.27308196  0.68029591  1
  O  O86  1  0.04775807  0.32270565  0.45970429  1
  O  O87  1  0.69706188  0.97959506  0.47230695  1
  O  O88  1  0.44209420  0.86864746  0.93736683  1
  O  O89  1  0.41634934  0.09499983  0.86221407  1
  O  O90  1  0.56190739  0.37504290  0.52571385  1
  O  O91  1  0.01793241  0.81025898  0.72576039  1
  O  O92  1  0.83816601  0.90957660  0.17743232  1
  O  O93  1  0.43614689  0.69528275  0.23010783  1
  O  O94  1  0.61723154  0.50521754  0.04302457  1
  O  O95  1  0.12346731  0.26276052  0.21348047  1
  O  O96  1  0.37981764  0.13515551  0.32720570  1
  O  O97  1  0.51297152  0.64641777  0.79685528  1
  O  O98  1  0.96511471  0.70801989  0.37247693  1
  O  O99  1  0.37623024  0.93714031  0.60217441  1
  O  O100  1  0.68396930  0.65015922  0.54512885  1
  O  O101  1  0.57045451  0.23852449  0.74428069  1
