# generated using pymatgen
data_V2O5
_symmetry_space_group_name_H-M   'P 1'
_cell_length_a   12.29963118
_cell_length_b   11.41537657
_cell_length_c   13.24705615
_cell_angle_alpha   87.10843155
_cell_angle_beta   85.87142008
_cell_angle_gamma   90.22779845
_symmetry_Int_Tables_number   1
_chemical_formula_structural   V2O5
_chemical_formula_sum   'V30 O75'
_cell_volume   1852.70930033
_cell_formula_units_Z   15
loop_
 _symmetry_equiv_pos_site_id
 _symmetry_equiv_pos_as_xyz
  1  'x, y, z'
loop_
 _atom_site_type_symbol
 _atom_site_label
 _atom_site_symmetry_multiplicity
 _atom_site_fract_x
 _atom_site_fract_y
 _atom_site_fract_z
 _atom_site_occupancy
  V  V0  1  0.92277210  0.86704857  0.33516637  1
  V  V1  1  0.15799872  0.91286594  0.68989654  1
  V  V2  1  0.17136369  0.02852725  0.27914721  1
  V  V3  1  0.79583994  0.08666608  0.30496700  1
  V  V4  1  0.02186930  0.12457342  0.84008226  1
  V  V5  1  0.77026658  0.99782365  0.88275907  1
  V  V6  1  0.87516183  0.66279140  0.84852436  1
  V  V7  1  0.30513742  0.66899470  0.14804263  1
  V  V8  1  0.82643529  0.06637752  0.52353686  1
  V  V9  1  0.42612341  0.43769974  0.03494519  1
  V  V10  1  0.34938536  0.12134389  0.56515832  1
  V  V11  1  0.39936039  0.92859012  0.37308645  1
  V  V12  1  0.24816403  0.85968612  0.93122870  1
  V  V13  1  0.46311454  0.20042601  0.02306872  1
  V  V14  1  0.09480668  0.55584549  0.71394031  1
  V  V15  1  0.95167056  0.31874585  0.63276477  1
  V  V16  1  0.68460368  0.73368323  0.42875563  1
  V  V17  1  0.07247833  0.10718547  0.03835931  1
  V  V18  1  0.47986840  0.55412861  0.34613583  1
  V  V19  1  0.61655318  0.26449288  0.87177546  1
  V  V20  1  0.37891138  0.41832962  0.51638600  1
  V  V21  1  0.31140498  0.69769745  0.55535686  1
  V  V22  1  0.92539019  0.64160449  0.39333852  1
  V  V23  1  0.90768250  0.30579763  0.17891952  1
  V  V24  1  0.73318230  0.44791708  0.75389259  1
  V  V25  1  0.16867520  0.26929453  0.44053993  1
  V  V26  1  0.87519561  0.85966655  0.68808742  1
  V  V27  1  0.49585086  0.98800668  0.91791987  1
  V  V28  1  0.62937824  0.56514372  0.96828839  1
  V  V29  1  0.63833788  0.39836156  0.19674599  1
  O  O30  1  0.19110990  0.38196892  0.36365393  1
  O  O31  1  0.14361234  0.09236578  0.16257067  1
  O  O32  1  0.01876099  0.45781338  0.64225240  1
  O  O33  1  0.79187367  0.97415952  0.99950586  1
  O  O34  1  0.78261693  0.61316954  0.42693622  1
  O  O35  1  0.93638115  0.73511614  0.27149623  1
  O  O36  1  0.09797226  0.20777849  0.92266184  1
  O  O37  1  0.01808846  0.90504512  0.66573192  1
  O  O38  1  0.84713557  0.51394585  0.81266085  1
  O  O39  1  0.16198799  0.13514888  0.37506952  1
  O  O40  1  0.62791138  0.94565050  0.87073442  1
  O  O41  1  0.24842939  0.73925276  0.01086680  1
  O  O42  1  0.66717458  0.55101517  0.70012182  1
  O  O43  1  0.55854308  0.45555735  0.08835474  1
  O  O44  1  0.19686464  0.97653068  0.98991804  1
  O  O45  1  0.59408632  0.22534171  0.03787313  1
  O  O46  1  0.35405265  0.56923817  0.47123025  1
  O  O47  1  0.44510898  0.04363800  0.04175710  1
  O  O48  1  0.49444597  0.56657261  0.94059012  1
  O  O49  1  0.19636224  0.68610903  0.22350632  1
  O  O50  1  0.91280645  0.65451732  0.96209833  1
  O  O51  1  0.96201067  0.20345934  0.09387527  1
  O  O52  1  0.34837110  0.80283436  0.44403596  1
  O  O53  1  0.56025959  0.68038689  0.39016570  1
  O  O54  1  0.44910803  0.33884451  0.92967792  1
  O  O55  1  0.08294370  0.91797521  0.31446032  1
  O  O56  1  0.42663085  0.41833600  0.62633774  1
  O  O57  1  0.87429159  0.21960531  0.29761108  1
  O  O58  1  0.65958483  0.77040269  0.54394157  1
  O  O59  1  0.14295922  0.47669261  0.80436965  1
  O  O60  1  0.71703666  0.15934994  0.87930398  1
  O  O61  1  0.70769914  0.65246117  0.88531299  1
  O  O62  1  0.38764958  0.89451578  0.88688536  1
  O  O63  1  0.20632569  0.60103386  0.62495434  1
  O  O64  1  0.63147992  0.68190042  0.07496362  1
  O  O65  1  0.40339320  0.04934631  0.45732232  1
  O  O66  1  0.30731252  0.98000546  0.27763250  1
  O  O67  1  0.78013527  0.37663729  0.15422879  1
  O  O68  1  0.82143757  0.38095267  0.65432828  1
  O  O69  1  0.92393174  0.00431883  0.44729500  1
  O  O70  1  0.71620789  0.61269787  0.08805914  1
  O  O71  1  0.78740116  0.96311446  0.62852837  1
  O  O72  1  0.99951240  0.40157002  0.19971582  1
  O  O73  1  0.98861692  0.24993016  0.74256600  1
  O  O74  1  0.88990876  0.05654110  0.80924205  1
  O  O75  1  0.31617691  0.51962934  0.06514397  1
  O  O76  1  0.89937438  0.98762244  0.24781007  1
  O  O77  1  0.48397114  0.40315178  0.42532115  1
  O  O78  1  0.11880641  0.05546535  0.77381124  1
  O  O79  1  0.83516044  0.83407188  0.82209175  1
  O  O80  1  0.39697183  0.56880334  0.24896025  1
  O  O81  1  0.29255089  0.27017328  0.51969505  1
  O  O82  1  0.52185401  0.91216565  0.32418555  1
  O  O83  1  0.87477553  0.19075208  0.57336096  1
  O  O84  1  0.96005508  0.77207318  0.45138663  1
  O  O85  1  0.50114531  0.14974249  0.87823185  1
  O  O86  1  0.05597245  0.28682782  0.52434680  1
  O  O87  1  0.77401682  0.85491125  0.36563107  1
  O  O88  1  0.72669022  0.09615306  0.43597084  1
  O  O89  1  0.57685234  0.28392153  0.25086699  1
  O  O90  1  0.21149535  0.81854572  0.60519130  1
  O  O91  1  0.44469922  0.13763519  0.64050456  1
  O  O92  1  0.67254373  0.41476904  0.90106754  1
  O  O93  1  0.40753761  0.71004513  0.62943737  1
  O  O94  1  0.39158230  0.29637550  0.10850628  1
  O  O95  1  0.00664999  0.53328229  0.41206989  1
  O  O96  1  0.99703925  0.02432899  0.96136315  1
  O  O97  1  0.70788659  0.09673609  0.22152058  1
  O  O98  1  0.24311638  0.03611758  0.62536034  1
  O  O99  1  0.61789388  0.51061043  0.27816065  1
  O  O100  1  0.85380618  0.73250408  0.64452015  1
  O  O101  1  0.38760298  0.78185319  0.15353613  1
  O  O102  1  0.00764967  0.66747446  0.77084192  1
  O  O103  1  0.63172905  0.31224121  0.74758403  1
  O  O104  1  0.18759856  0.84176723  0.80677558  1
