# generated using pymatgen
data_Sr7SN6
_symmetry_space_group_name_H-M   'P 1'
_cell_length_a   11.89787182
_cell_length_b   6.80022791
_cell_length_c   13.43308657
_cell_angle_alpha   90.00000000
_cell_angle_beta   90.00000000
_cell_angle_gamma   90.00000000
_symmetry_Int_Tables_number   1
_chemical_formula_structural   Sr7SN6
_chemical_formula_sum   'Sr28 S4 N24'
_cell_volume   1086.84739241
_cell_formula_units_Z   4
loop_
 _symmetry_equiv_pos_site_id
 _symmetry_equiv_pos_as_xyz
  1  'x, y, z'
loop_
 _atom_site_type_symbol
 _atom_site_label
 _atom_site_symmetry_multiplicity
 _atom_site_fract_x
 _atom_site_fract_y
 _atom_site_fract_z
 _atom_site_occupancy
  Sr  Sr0  1  0.03764065  0.73855880  0.98616707  1
  Sr  Sr1  1  0.46235935  0.76144120  0.48616707  1
  Sr  Sr2  1  0.53764065  0.76144120  0.01383293  1
  Sr  Sr3  1  0.96235935  0.73855880  0.51383293  1
  Sr  Sr4  1  0.96235935  0.26144120  0.01383293  1
  Sr  Sr5  1  0.53764065  0.23855880  0.51383293  1
  Sr  Sr6  1  0.46235935  0.23855880  0.98616707  1
  Sr  Sr7  1  0.03764065  0.26144120  0.48616707  1
  Sr  Sr8  1  0.21460103  0.85370307  0.62038761  1
  Sr  Sr9  1  0.28539897  0.64629693  0.12038761  1
  Sr  Sr10  1  0.71460103  0.64629693  0.37961239  1
  Sr  Sr11  1  0.78539897  0.85370307  0.87961239  1
  Sr  Sr12  1  0.78539897  0.14629693  0.37961239  1
  Sr  Sr13  1  0.71460103  0.35370307  0.87961239  1
  Sr  Sr14  1  0.28539897  0.35370307  0.62038761  1
  Sr  Sr15  1  0.21460103  0.14629693  0.12038761  1
  Sr  Sr16  1  0.28661953  0.63342883  0.86210706  1
  Sr  Sr17  1  0.21338047  0.86657117  0.36210706  1
  Sr  Sr18  1  0.78661953  0.86657117  0.13789294  1
  Sr  Sr19  1  0.71338047  0.63342883  0.63789294  1
  Sr  Sr20  1  0.71338047  0.36657117  0.13789294  1
  Sr  Sr21  1  0.78661953  0.13342883  0.63789294  1
  Sr  Sr22  1  0.21338047  0.13342883  0.86210706  1
  Sr  Sr23  1  0.28661953  0.36657117  0.36210706  1
  Sr  Sr24  1  0.00000000  0.45389623  0.75000000  1
  Sr  Sr25  1  0.50000000  0.04610377  0.25000000  1
  Sr  Sr26  1  0.00000000  0.54610377  0.25000000  1
  Sr  Sr27  1  0.50000000  0.95389623  0.75000000  1
  S  S28  1  0.00000000  0.94558500  0.75000000  1
  S  S29  1  0.50000000  0.55441500  0.25000000  1
  S  S30  1  0.00000000  0.05441500  0.25000000  1
  S  S31  1  0.50000000  0.44558500  0.75000000  1
  N  N32  1  0.10107496  0.80869476  0.79156067  1
  N  N33  1  0.39892504  0.69130524  0.29156067  1
  N  N34  1  0.60107496  0.69130524  0.20843933  1
  N  N35  1  0.89892504  0.80869476  0.70843933  1
  N  N36  1  0.89892504  0.19130524  0.20843933  1
  N  N37  1  0.60107496  0.30869476  0.70843933  1
  N  N38  1  0.39892504  0.30869476  0.79156067  1
  N  N39  1  0.10107496  0.19130524  0.29156067  1
  N  N40  1  0.16411069  0.57397207  0.49489327  1
  N  N41  1  0.33588931  0.92602793  0.99489327  1
  N  N42  1  0.66411069  0.92602793  0.50510673  1
  N  N43  1  0.83588931  0.57397207  0.00510673  1
  N  N44  1  0.83588931  0.42602793  0.50510673  1
  N  N45  1  0.66411069  0.07397207  0.00510673  1
  N  N46  1  0.33588931  0.07397207  0.49489327  1
  N  N47  1  0.16411069  0.42602793  0.99489327  1
  N  N48  1  0.45838484  0.58437627  0.65793453  1
  N  N49  1  0.04161516  0.91562373  0.15793453  1
  N  N50  1  0.95838484  0.91562373  0.34206547  1
  N  N51  1  0.54161516  0.58437627  0.84206547  1
  N  N52  1  0.54161516  0.41562373  0.34206547  1
  N  N53  1  0.95838484  0.08437627  0.84206547  1
  N  N54  1  0.04161516  0.08437627  0.65793453  1
  N  N55  1  0.45838484  0.41562373  0.15793453  1
