# generated using pymatgen
data_Zr5(SiN3)3
_symmetry_space_group_name_H-M   'P 1'
_cell_length_a   7.41139516
_cell_length_b   10.91745009
_cell_length_c   14.59468900
_cell_angle_alpha   90.00000000
_cell_angle_beta   90.00000000
_cell_angle_gamma   137.43677449
_symmetry_Int_Tables_number   1
_chemical_formula_structural   Zr5(SiN3)3
_chemical_formula_sum   'Zr20 Si12 N36'
_cell_volume   798.77009495
_cell_formula_units_Z   4
loop_
 _symmetry_equiv_pos_site_id
 _symmetry_equiv_pos_as_xyz
  1  'x, y, z'
loop_
 _atom_site_type_symbol
 _atom_site_label
 _atom_site_symmetry_multiplicity
 _atom_site_fract_x
 _atom_site_fract_y
 _atom_site_fract_z
 _atom_site_occupancy
  Zr  Zr0  1  0.00000000  0.49864500  0.82772000  1
  Zr  Zr1  1  0.00000000  0.50135500  0.17228000  1
  Zr  Zr2  1  0.00000000  0.00135500  0.32772000  1
  Zr  Zr3  1  0.00000000  0.99864500  0.67228000  1
  Zr  Zr4  1  0.38382300  0.95373100  0.86810300  1
  Zr  Zr5  1  0.38382300  0.43009200  0.13189700  1
  Zr  Zr6  1  0.38382300  0.93009200  0.36810300  1
  Zr  Zr7  1  0.38382300  0.45373100  0.63189700  1
  Zr  Zr8  1  0.61617700  0.04626900  0.13189700  1
  Zr  Zr9  1  0.61617700  0.56990800  0.86810300  1
  Zr  Zr10  1  0.61617700  0.06990800  0.63189700  1
  Zr  Zr11  1  0.61617700  0.54626900  0.36810300  1
  Zr  Zr12  1  0.00000000  0.49880800  0.59655200  1
  Zr  Zr13  1  0.00000000  0.50119200  0.40344800  1
  Zr  Zr14  1  0.00000000  0.00119200  0.09655200  1
  Zr  Zr15  1  0.00000000  0.99880800  0.90344800  1
  Zr  Zr16  1  0.61421400  0.30710700  0.00000000  1
  Zr  Zr17  1  0.61421400  0.80710700  0.50000000  1
  Zr  Zr18  1  0.38578600  0.69289300  0.00000000  1
  Zr  Zr19  1  0.38578600  0.19289300  0.50000000  1
  Si  Si20  1  0.00000000  0.75858500  0.01502300  1
  Si  Si21  1  0.00000000  0.24141500  0.98497700  1
  Si  Si22  1  0.00000000  0.74141500  0.51502300  1
  Si  Si23  1  0.00000000  0.25858500  0.48497700  1
  Si  Si24  1  0.00000000  0.23849300  0.78179800  1
  Si  Si25  1  0.00000000  0.76150700  0.21820200  1
  Si  Si26  1  0.00000000  0.26150700  0.28179800  1
  Si  Si27  1  0.00000000  0.73849300  0.71820200  1
  Si  Si28  1  0.50000000  0.78137100  0.75000000  1
  Si  Si29  1  0.50000000  0.71862900  0.25000000  1
  Si  Si30  1  0.50000000  0.21862900  0.25000000  1
  Si  Si31  1  0.50000000  0.28137100  0.75000000  1
  N  N32  1  0.00000000  0.34681100  0.69658200  1
  N  N33  1  0.00000000  0.65318900  0.30341800  1
  N  N34  1  0.00000000  0.15318900  0.19658200  1
  N  N35  1  0.00000000  0.84681100  0.80341800  1
  N  N36  1  0.00000000  0.31021100  0.88287800  1
  N  N37  1  0.00000000  0.68978900  0.11712200  1
  N  N38  1  0.00000000  0.18978900  0.38287800  1
  N  N39  1  0.00000000  0.81021100  0.61712200  1
  N  N40  1  0.74256800  0.51130100  0.73203700  1
  N  N41  1  0.74256800  0.23126900  0.26796300  1
  N  N42  1  0.74256800  0.73126900  0.23203700  1
  N  N43  1  0.74256800  0.01130100  0.76796300  1
  N  N44  1  0.25743200  0.48869900  0.26796300  1
  N  N45  1  0.25743200  0.76873100  0.73203700  1
  N  N46  1  0.25743200  0.26873100  0.76796300  1
  N  N47  1  0.25743200  0.98869900  0.23203700  1
  N  N48  1  0.54889600  0.22624400  0.84910000  1
  N  N49  1  0.54889600  0.32265300  0.15090000  1
  N  N50  1  0.54889600  0.82265300  0.34910000  1
  N  N51  1  0.54889600  0.72624400  0.65090000  1
  N  N52  1  0.45110400  0.77375600  0.15090000  1
  N  N53  1  0.45110400  0.67734700  0.84910000  1
  N  N54  1  0.45110400  0.17734700  0.65090000  1
  N  N55  1  0.45110400  0.27375600  0.34910000  1
  N  N56  1  0.26520200  0.99579000  0.00060500  1
  N  N57  1  0.26520200  0.26941100  0.99939500  1
  N  N58  1  0.26520200  0.76941100  0.50060500  1
  N  N59  1  0.26520200  0.49579000  0.49939500  1
  N  N60  1  0.73479800  0.00421000  0.99939500  1
  N  N61  1  0.73479800  0.73058900  0.00060500  1
  N  N62  1  0.73479800  0.23058900  0.49939500  1
  N  N63  1  0.73479800  0.50421000  0.50060500  1
  N  N64  1  0.00000000  0.64248700  0.93333900  1
  N  N65  1  0.00000000  0.35751300  0.06666100  1
  N  N66  1  0.00000000  0.85751300  0.43333900  1
  N  N67  1  0.00000000  0.14248700  0.56666100  1
