# generated using pymatgen
data_Cr7FeO12
_symmetry_space_group_name_H-M   'P 1'
_cell_length_a   9.64248868
_cell_length_b   9.88831978
_cell_length_c   10.40954416
_cell_angle_alpha   90.86018068
_cell_angle_beta   87.23508019
_cell_angle_gamma   89.86149826
_symmetry_Int_Tables_number   1
_chemical_formula_structural   Cr7FeO12
_chemical_formula_sum   'Cr28 Fe4 O48'
_cell_volume   991.25726725
_cell_formula_units_Z   4
loop_
 _symmetry_equiv_pos_site_id
 _symmetry_equiv_pos_as_xyz
  1  'x, y, z'
loop_
 _atom_site_type_symbol
 _atom_site_label
 _atom_site_symmetry_multiplicity
 _atom_site_fract_x
 _atom_site_fract_y
 _atom_site_fract_z
 _atom_site_occupancy
  Cr  Cr0  1  0.58893700  0.11929700  0.69059300  1
  Cr  Cr1  1  0.46774900  0.62873400  0.05089200  1
  Cr  Cr2  1  0.15976400  0.93494900  0.14229400  1
  Cr  Cr3  1  0.37514400  0.20817900  0.17799800  1
  Cr  Cr4  1  0.68654300  0.34240400  0.30538800  1
  Cr  Cr5  1  0.58730900  0.45912600  0.56295600  1
  Cr  Cr6  1  0.02211200  0.72996200  0.38871100  1
  Cr  Cr7  1  0.55755900  0.80623500  0.81035300  1
  Cr  Cr8  1  0.38195400  0.21541400  0.88442800  1
  Cr  Cr9  1  0.53101400  0.86807700  0.52642200  1
  Cr  Cr10  1  0.79814500  0.76039500  0.57919200  1
  Cr  Cr11  1  0.32620200  0.68704500  0.29322100  1
  Cr  Cr12  1  0.28924100  0.39484600  0.70151700  1
  Cr  Cr13  1  0.22824200  0.64762100  0.58603300  1
  Cr  Cr14  1  0.78547200  0.97884300  0.28115400  1
  Cr  Cr15  1  0.99446100  0.98751600  0.57407600  1
  Cr  Cr16  1  0.79436100  0.83270500  0.03319800  1
  Cr  Cr17  1  0.17896800  0.42910600  0.24501200  1
  Cr  Cr18  1  0.74653000  0.53910400  0.97397800  1
  Cr  Cr19  1  0.01400100  0.59633200  0.81186500  1
  Cr  Cr20  1  0.86782700  0.32041100  0.70020600  1
  Cr  Cr21  1  0.14055500  0.21668400  0.47326700  1
  Cr  Cr22  1  0.49794200  0.14467900  0.41418400  1
  Cr  Cr23  1  0.27796700  0.87701800  0.83796000  1
  Cr  Cr24  1  0.76683200  0.12407200  0.95809900  1
  Cr  Cr25  1  0.67854000  0.64121100  0.31037100  1
  Cr  Cr26  1  0.06892200  0.34372500  0.97617500  1
  Cr  Cr27  1  0.26734200  0.93036000  0.56582300  1
  Fe  Fe28  1  0.92501700  0.61231900  0.17360700  1
  Fe  Fe29  1  0.98570700  0.20382200  0.19955100  1
  Fe  Fe30  1  0.49462700  0.98120700  0.04528800  1
  Fe  Fe31  1  0.99957800  0.87701800  0.81124600  1
  O  O32  1  0.60267600  0.98525500  0.38011500  1
  O  O33  1  0.62040600  0.26347700  0.48617900  1
  O  O34  1  0.87781900  0.89082000  0.44666300  1
  O  O35  1  0.57476700  0.48783500  0.38082000  1
  O  O36  1  0.14338400  0.03455100  0.45434700  1
  O  O37  1  0.19017300  0.26364100  0.12130900  1
  O  O38  1  0.73758600  0.50027700  0.16510500  1
  O  O39  1  0.96142000  0.18454400  0.58740100  1
  O  O40  1  0.88965600  0.72175300  0.73241500  1
  O  O41  1  0.93612300  0.20324200  0.01910100  1
  O  O42  1  0.49384700  0.20195000  0.02271100  1
  O  O43  1  0.74271600  0.20435900  0.79456100  1
  O  O44  1  0.63797100  0.70558100  0.49113700  1
  O  O45  1  0.15473300  0.78087300  0.24140500  1
  O  O46  1  0.13753900  0.92574200  0.97613700  1
  O  O47  1  0.54958200  0.48650000  0.97562400  1
  O  O48  1  0.79850400  0.78221800  0.21507900  1
  O  O49  1  0.32498500  0.01706600  0.17425800  1
  O  O50  1  0.32231700  0.22465700  0.36985200  1
  O  O51  1  0.16399600  0.72344000  0.78485400  1
  O  O52  1  0.18019900  0.58312200  0.39193700  1
  O  O53  1  0.42473200  0.02093200  0.86444100  1
  O  O54  1  0.14951100  0.99333600  0.71871200  1
  O  O55  1  0.02552200  0.44687000  0.13431300  1
  O  O56  1  0.23225200  0.25712000  0.61298100  1
  O  O57  1  0.83284200  0.95563700  0.89068600  1
  O  O58  1  0.65358900  0.71621000  0.96638400  1
  O  O59  1  0.55167200  0.21949900  0.25156100  1
  O  O60  1  0.91737100  0.66873000  0.98260200  1
  O  O61  1  0.24310500  0.37040700  0.87497000  1
  O  O62  1  0.39465600  0.81567900  0.68157800  1
  O  O63  1  0.10265400  0.80202900  0.54472200  1
  O  O64  1  0.40319100  0.77646200  0.95506600  1
  O  O65  1  0.11833700  0.50129900  0.66689200  1
  O  O66  1  0.87353600  0.60450700  0.38092800  1
  O  O67  1  0.67086200  0.90187200  0.66234800  1
  O  O68  1  0.31816300  0.54543600  0.15628500  1
  O  O69  1  0.46520200  0.29111000  0.73521200  1
  O  O70  1  0.99550900  0.00733600  0.20972200  1
  O  O71  1  0.43755100  0.04740300  0.56898000  1
  O  O72  1  0.69523100  0.99555700  0.10286600  1
  O  O73  1  0.38786500  0.52147900  0.61121400  1
  O  O74  1  0.81085800  0.18395000  0.27939600  1
  O  O75  1  0.36143500  0.79856700  0.44514100  1
  O  O76  1  0.74473200  0.46230100  0.65589800  1
  O  O77  1  0.51276300  0.70693700  0.21132300  1
  O  O78  1  0.05580600  0.31050700  0.35154500  1
  O  O79  1  0.91835500  0.42532000  0.86589300  1
