# generated using pymatgen
data_Rb7VN4
_symmetry_space_group_name_H-M   'P 1'
_cell_length_a   14.62548054
_cell_length_b   14.62548054
_cell_length_c   14.62548054
_cell_angle_alpha   90.00000000
_cell_angle_beta   90.00000000
_cell_angle_gamma   90.00000000
_symmetry_Int_Tables_number   1
_chemical_formula_structural   Rb7VN4
_chemical_formula_sum   'Rb56 V8 N32'
_cell_volume   3128.45874976
_cell_formula_units_Z   8
loop_
 _symmetry_equiv_pos_site_id
 _symmetry_equiv_pos_as_xyz
  1  'x, y, z'
loop_
 _atom_site_type_symbol
 _atom_site_label
 _atom_site_symmetry_multiplicity
 _atom_site_fract_x
 _atom_site_fract_y
 _atom_site_fract_z
 _atom_site_occupancy
  Rb  Rb0  1  0.29476623  0.70523377  0.20523377  1
  Rb  Rb1  1  0.70523377  0.20523377  0.29476623  1
  Rb  Rb2  1  0.20523377  0.29476623  0.70523377  1
  Rb  Rb3  1  0.79476623  0.79476623  0.79476623  1
  Rb  Rb4  1  0.70523377  0.29476623  0.79476623  1
  Rb  Rb5  1  0.29476623  0.79476623  0.70523377  1
  Rb  Rb6  1  0.79476623  0.70523377  0.29476623  1
  Rb  Rb7  1  0.20523377  0.20523377  0.20523377  1
  Rb  Rb8  1  0.32296683  0.59565670  0.47069192  1
  Rb  Rb9  1  0.67703317  0.09565670  0.02930808  1
  Rb  Rb10  1  0.17703317  0.40434330  0.97069192  1
  Rb  Rb11  1  0.82296683  0.90434330  0.52930808  1
  Rb  Rb12  1  0.47069192  0.32296683  0.59565670  1
  Rb  Rb13  1  0.02930808  0.67703317  0.09565670  1
  Rb  Rb14  1  0.97069192  0.17703317  0.40434330  1
  Rb  Rb15  1  0.52930808  0.82296683  0.90434330  1
  Rb  Rb16  1  0.59565670  0.47069192  0.32296683  1
  Rb  Rb17  1  0.09565670  0.02930808  0.67703317  1
  Rb  Rb18  1  0.40434330  0.97069192  0.17703317  1
  Rb  Rb19  1  0.90434330  0.52930808  0.82296683  1
  Rb  Rb20  1  0.67703317  0.40434330  0.52930808  1
  Rb  Rb21  1  0.32296683  0.90434330  0.97069192  1
  Rb  Rb22  1  0.82296683  0.59565670  0.02930808  1
  Rb  Rb23  1  0.17703317  0.09565670  0.47069192  1
  Rb  Rb24  1  0.52930808  0.67703317  0.40434330  1
  Rb  Rb25  1  0.97069192  0.32296683  0.90434330  1
  Rb  Rb26  1  0.02930808  0.82296683  0.59565670  1
  Rb  Rb27  1  0.47069192  0.17703317  0.09565670  1
  Rb  Rb28  1  0.40434330  0.52930808  0.67703317  1
  Rb  Rb29  1  0.90434330  0.97069192  0.32296683  1
  Rb  Rb30  1  0.59565670  0.02930808  0.82296683  1
  Rb  Rb31  1  0.09565670  0.47069192  0.17703317  1
  Rb  Rb32  1  0.32796604  0.86362310  0.43584450  1
  Rb  Rb33  1  0.67203396  0.36362310  0.06415550  1
  Rb  Rb34  1  0.17203396  0.13637690  0.93584450  1
  Rb  Rb35  1  0.82796604  0.63637690  0.56415550  1
  Rb  Rb36  1  0.43584450  0.32796604  0.86362310  1
  Rb  Rb37  1  0.06415550  0.67203396  0.36362310  1
  Rb  Rb38  1  0.93584450  0.17203396  0.13637690  1
  Rb  Rb39  1  0.56415550  0.82796604  0.63637690  1
  Rb  Rb40  1  0.86362310  0.43584450  0.32796604  1
  Rb  Rb41  1  0.36362310  0.06415550  0.67203396  1
  Rb  Rb42  1  0.13637690  0.93584450  0.17203396  1
  Rb  Rb43  1  0.63637690  0.56415550  0.82796604  1
  Rb  Rb44  1  0.67203396  0.13637690  0.56415550  1
  Rb  Rb45  1  0.32796604  0.63637690  0.93584450  1
  Rb  Rb46  1  0.82796604  0.86362310  0.06415550  1
  Rb  Rb47  1  0.17203396  0.36362310  0.43584450  1
  Rb  Rb48  1  0.56415550  0.67203396  0.13637690  1
  Rb  Rb49  1  0.93584450  0.32796604  0.63637690  1
  Rb  Rb50  1  0.06415550  0.82796604  0.86362310  1
  Rb  Rb51  1  0.43584450  0.17203396  0.36362310  1
  Rb  Rb52  1  0.13637690  0.56415550  0.67203396  1
  Rb  Rb53  1  0.63637690  0.93584450  0.32796604  1
  Rb  Rb54  1  0.86362310  0.06415550  0.82796604  1
  Rb  Rb55  1  0.36362310  0.43584450  0.17203396  1
  V  V56  1  0.10818326  0.89181674  0.39181674  1
  V  V57  1  0.89181674  0.39181674  0.10818326  1
  V  V58  1  0.39181674  0.10818326  0.89181674  1
  V  V59  1  0.60818326  0.60818326  0.60818326  1
  V  V60  1  0.89181674  0.10818326  0.60818326  1
  V  V61  1  0.10818326  0.60818326  0.89181674  1
  V  V62  1  0.60818326  0.89181674  0.10818326  1
  V  V63  1  0.39181674  0.39181674  0.39181674  1
  N  N64  1  0.18214553  0.81785447  0.31785447  1
  N  N65  1  0.81785447  0.31785447  0.18214553  1
  N  N66  1  0.31785447  0.18214553  0.81785447  1
  N  N67  1  0.68214553  0.68214553  0.68214553  1
  N  N68  1  0.81785447  0.18214553  0.68214553  1
  N  N69  1  0.18214553  0.68214553  0.81785447  1
  N  N70  1  0.68214553  0.81785447  0.18214553  1
  N  N71  1  0.31785447  0.31785447  0.31785447  1
  N  N72  1  0.09014936  0.00465097  0.33504584  1
  N  N73  1  0.90985064  0.50465097  0.16495416  1
  N  N74  1  0.40985064  0.99534903  0.83504584  1
  N  N75  1  0.59014936  0.49534903  0.66495416  1
  N  N76  1  0.33504584  0.09014936  0.00465097  1
  N  N77  1  0.16495416  0.90985064  0.50465097  1
  N  N78  1  0.83504584  0.40985064  0.99534903  1
  N  N79  1  0.66495416  0.59014936  0.49534903  1
  N  N80  1  0.00465097  0.33504584  0.09014936  1
  N  N81  1  0.50465097  0.16495416  0.90985064  1
  N  N82  1  0.99534903  0.83504584  0.40985064  1
  N  N83  1  0.49534903  0.66495416  0.59014936  1
  N  N84  1  0.90985064  0.99534903  0.66495416  1
  N  N85  1  0.09014936  0.49534903  0.83504584  1
  N  N86  1  0.59014936  0.00465097  0.16495416  1
  N  N87  1  0.40985064  0.50465097  0.33504584  1
  N  N88  1  0.66495416  0.90985064  0.99534903  1
  N  N89  1  0.83504584  0.09014936  0.49534903  1
  N  N90  1  0.16495416  0.59014936  0.00465097  1
  N  N91  1  0.33504584  0.40985064  0.50465097  1
  N  N92  1  0.99534903  0.66495416  0.90985064  1
  N  N93  1  0.49534903  0.83504584  0.09014936  1
  N  N94  1  0.00465097  0.16495416  0.59014936  1
  N  N95  1  0.50465097  0.33504584  0.40985064  1
