# generated using pymatgen
data_Na3VN2
_symmetry_space_group_name_H-M   'P 1'
_cell_length_a   9.52154300
_cell_length_b   10.99453135
_cell_length_c   10.99453124
_cell_angle_alpha   90.00000116
_cell_angle_beta   125.26439243
_cell_angle_gamma   54.73560799
_symmetry_Int_Tables_number   1
_chemical_formula_structural   Na3VN2
_chemical_formula_sum   'Na24 V8 N16'
_cell_volume   664.50782533
_cell_formula_units_Z   8
loop_
 _symmetry_equiv_pos_site_id
 _symmetry_equiv_pos_as_xyz
  1  'x, y, z'
loop_
 _atom_site_type_symbol
 _atom_site_label
 _atom_site_symmetry_multiplicity
 _atom_site_fract_x
 _atom_site_fract_y
 _atom_site_fract_z
 _atom_site_occupancy
  Na  Na0  1  0.17780000  0.07583500  0.94561400  1
  Na  Na1  1  0.82220000  0.75363400  0.55438600  1
  Na  Na2  1  0.82220000  0.42416500  0.76781500  1
  Na  Na3  1  0.17780000  0.74636600  0.73218500  1
  Na  Na4  1  0.28657100  0.76781500  0.30802000  1
  Na  Na5  1  0.71342900  0.73218500  0.02144800  1
  Na  Na6  1  0.28657100  0.94561400  0.47855200  1
  Na  Na7  1  0.71342900  0.55438600  0.19198000  1
  Na  Na8  1  0.67053200  0.02144800  0.74636600  1
  Na  Na9  1  0.67053200  0.30802000  0.42416500  1
  Na  Na10  1  0.32946800  0.19198000  0.75363400  1
  Na  Na11  1  0.32946800  0.47855200  0.07583500  1
  Na  Na12  1  0.82220000  0.92416500  0.05438600  1
  Na  Na13  1  0.17780000  0.24636600  0.44561400  1
  Na  Na14  1  0.17780000  0.57583500  0.23218500  1
  Na  Na15  1  0.82220000  0.25363400  0.26781500  1
  Na  Na16  1  0.71342900  0.23218500  0.69198000  1
  Na  Na17  1  0.28657100  0.26781500  0.97855200  1
  Na  Na18  1  0.71342900  0.05438600  0.52144800  1
  Na  Na19  1  0.28657100  0.44561400  0.80802000  1
  Na  Na20  1  0.32946800  0.97855200  0.25363400  1
  Na  Na21  1  0.32946800  0.69198000  0.57583500  1
  Na  Na22  1  0.67053200  0.80802000  0.24636600  1
  Na  Na23  1  0.67053200  0.52144800  0.92416500  1
  V  V24  1  0.20304200  0.00000000  0.70304200  1
  V  V25  1  0.79695800  0.70304200  0.79695800  1
  V  V26  1  0.79695800  0.50000000  0.50000000  1
  V  V27  1  0.20304200  0.79695800  0.00000000  1
  V  V28  1  0.79695800  0.00000000  0.29695800  1
  V  V29  1  0.20304200  0.29695800  0.20304200  1
  V  V30  1  0.20304200  0.50000000  0.50000000  1
  V  V31  1  0.79695800  0.20304200  0.00000000  1
  N  N32  1  0.00000000  0.00000000  0.50000000  1
  N  N33  1  0.00000000  0.50000000  0.00000000  1
  N  N34  1  0.00000000  0.50000000  0.50000000  1
  N  N35  1  0.00000000  0.00000000  0.00000000  1
  N  N36  1  0.50000000  0.90688200  0.75000000  1
  N  N37  1  0.50000000  0.59311800  0.25000000  1
  N  N38  1  0.00000000  0.25000000  0.65688200  1
  N  N39  1  0.00000000  0.75000000  0.84311800  1
  N  N40  1  0.68623600  0.65688200  0.59311800  1
  N  N41  1  0.31376400  0.84311800  0.90688200  1
  N  N42  1  0.50000000  0.09311800  0.25000000  1
  N  N43  1  0.50000000  0.40688200  0.75000000  1
  N  N44  1  0.00000000  0.75000000  0.34311800  1
  N  N45  1  0.00000000  0.25000000  0.15688200  1
  N  N46  1  0.31376400  0.34311800  0.40688200  1
  N  N47  1  0.68623600  0.15688200  0.09311800  1
