# generated using pymatgen
data_Zn7GeN6
_symmetry_space_group_name_H-M   'P 1'
_cell_length_a   10.55641600
_cell_length_b   5.74649100
_cell_length_c   12.51721200
_cell_angle_alpha   90.00000000
_cell_angle_beta   90.00000000
_cell_angle_gamma   90.00000000
_symmetry_Int_Tables_number   1
_chemical_formula_structural   Zn7GeN6
_chemical_formula_sum   'Zn28 Ge4 N24'
_cell_volume   759.32348956
_cell_formula_units_Z   4
loop_
 _symmetry_equiv_pos_site_id
 _symmetry_equiv_pos_as_xyz
  1  'x, y, z'
loop_
 _atom_site_type_symbol
 _atom_site_label
 _atom_site_symmetry_multiplicity
 _atom_site_fract_x
 _atom_site_fract_y
 _atom_site_fract_z
 _atom_site_occupancy
  Zn  Zn0  1  0.96987100  0.75285400  0.04254300  1
  Zn  Zn1  1  0.53012900  0.74714600  0.54254300  1
  Zn  Zn2  1  0.46987100  0.74714600  0.95745700  1
  Zn  Zn3  1  0.03012900  0.75285400  0.45745700  1
  Zn  Zn4  1  0.03012900  0.24714600  0.95745700  1
  Zn  Zn5  1  0.46987100  0.25285400  0.45745700  1
  Zn  Zn6  1  0.53012900  0.25285400  0.04254300  1
  Zn  Zn7  1  0.96987100  0.24714600  0.54254300  1
  Zn  Zn8  1  0.23986700  0.65249000  0.65573700  1
  Zn  Zn9  1  0.26013300  0.84751000  0.15573700  1
  Zn  Zn10  1  0.73986700  0.84751000  0.34426300  1
  Zn  Zn11  1  0.76013300  0.65249000  0.84426300  1
  Zn  Zn12  1  0.76013300  0.34751000  0.34426300  1
  Zn  Zn13  1  0.73986700  0.15249000  0.84426300  1
  Zn  Zn14  1  0.26013300  0.15249000  0.65573700  1
  Zn  Zn15  1  0.23986700  0.34751000  0.15573700  1
  Zn  Zn16  1  0.20556300  0.68001900  0.92559600  1
  Zn  Zn17  1  0.29443700  0.81998100  0.42559600  1
  Zn  Zn18  1  0.70556300  0.81998100  0.07440400  1
  Zn  Zn19  1  0.79443700  0.68001900  0.57440400  1
  Zn  Zn20  1  0.79443700  0.31998100  0.07440400  1
  Zn  Zn21  1  0.70556300  0.18001900  0.57440400  1
  Zn  Zn22  1  0.29443700  0.18001900  0.92559600  1
  Zn  Zn23  1  0.20556300  0.31998100  0.42559600  1
  Zn  Zn24  1  0.00000000  0.42250300  0.75000000  1
  Zn  Zn25  1  0.50000000  0.07749700  0.25000000  1
  Zn  Zn26  1  0.00000000  0.57749700  0.25000000  1
  Zn  Zn27  1  0.50000000  0.92250300  0.75000000  1
  Ge  Ge28  1  0.00000000  0.91344800  0.75000000  1
  Ge  Ge29  1  0.50000000  0.58655200  0.25000000  1
  Ge  Ge30  1  0.00000000  0.08655200  0.25000000  1
  Ge  Ge31  1  0.50000000  0.41344800  0.75000000  1
  N  N32  1  0.12800900  0.69482600  0.78331600  1
  N  N33  1  0.37199100  0.80517400  0.28331600  1
  N  N34  1  0.62800900  0.80517400  0.21668400  1
  N  N35  1  0.87199100  0.69482600  0.71668400  1
  N  N36  1  0.87199100  0.30517400  0.21668400  1
  N  N37  1  0.62800900  0.19482600  0.71668400  1
  N  N38  1  0.37199100  0.19482600  0.78331600  1
  N  N39  1  0.12800900  0.30517400  0.28331600  1
  N  N40  1  0.17623900  0.61180200  0.50861900  1
  N  N41  1  0.32376100  0.88819800  0.00861900  1
  N  N42  1  0.67623900  0.88819800  0.49138100  1
  N  N43  1  0.82376100  0.61180200  0.99138100  1
  N  N44  1  0.82376100  0.38819800  0.49138100  1
  N  N45  1  0.67623900  0.11180200  0.99138100  1
  N  N46  1  0.32376100  0.11180200  0.50861900  1
  N  N47  1  0.17623900  0.38819800  0.00861900  1
  N  N48  1  0.43018500  0.63742700  0.65498700  1
  N  N49  1  0.06981500  0.86257300  0.15498700  1
  N  N50  1  0.93018500  0.86257300  0.34501300  1
  N  N51  1  0.56981500  0.63742700  0.84501300  1
  N  N52  1  0.56981500  0.36257300  0.34501300  1
  N  N53  1  0.93018500  0.13742700  0.84501300  1
  N  N54  1  0.06981500  0.13742700  0.65498700  1
  N  N55  1  0.43018500  0.36257300  0.15498700  1
