# generated using pymatgen
data_Al2O3
_symmetry_space_group_name_H-M   'P 1'
_cell_length_a   10.23176374
_cell_length_b   10.34484806
_cell_length_c   10.68728900
_cell_angle_alpha   94.07637841
_cell_angle_beta   92.10426122
_cell_angle_gamma   91.85291887
_symmetry_Int_Tables_number   1
_chemical_formula_structural   Al2O3
_chemical_formula_sum   'Al40 O60'
_cell_volume   1126.89151118
_cell_formula_units_Z   20
loop_
 _symmetry_equiv_pos_site_id
 _symmetry_equiv_pos_as_xyz
  1  'x, y, z'
loop_
 _atom_site_type_symbol
 _atom_site_label
 _atom_site_symmetry_multiplicity
 _atom_site_fract_x
 _atom_site_fract_y
 _atom_site_fract_z
 _atom_site_occupancy
  Al  Al0  1  0.66673400  0.62826900  0.64016300  1
  Al  Al1  1  0.92003600  0.60855400  0.50413900  1
  Al  Al2  1  0.45712300  0.84476900  0.68206000  1
  Al  Al3  1  0.76958400  0.63536500  0.07159400  1
  Al  Al4  1  0.88190700  0.52218400  0.24946600  1
  Al  Al5  1  0.21945900  0.72155900  0.54381500  1
  Al  Al6  1  0.14353100  0.47478600  0.66597100  1
  Al  Al7  1  0.96687500  0.23190100  0.51403200  1
  Al  Al8  1  0.40832700  0.36360500  0.24499900  1
  Al  Al9  1  0.74915100  0.18981000  0.81823600  1
  Al  Al10  1  0.50021700  0.71364200  0.41813800  1
  Al  Al11  1  0.27232300  0.74202000  0.83450300  1
  Al  Al12  1  0.68912500  0.25588100  0.35962200  1
  Al  Al13  1  0.99479200  0.90437700  0.57218300  1
  Al  Al14  1  0.72091300  0.93869900  0.00295400  1
  Al  Al15  1  0.95322900  0.67902300  0.80217000  1
  Al  Al16  1  0.38317600  0.12340800  0.14029300  1
  Al  Al17  1  0.06247100  0.14232200  0.72432600  1
  Al  Al18  1  0.58443500  0.72091800  0.88345000  1
  Al  Al19  1  0.58139000  0.11852300  0.57290400  1
  Al  Al20  1  0.60785000  0.41045500  0.81867900  1
  Al  Al21  1  0.06018800  0.33599500  0.08434100  1
  Al  Al22  1  0.93064400  0.37365700  0.81307300  1
  Al  Al23  1  0.96089300  0.82364500  0.29627700  1
  Al  Al24  1  0.24191600  0.80105800  0.29498700  1
  Al  Al25  1  0.44290000  0.40994400  0.50483500  1
  Al  Al26  1  0.96628500  0.07953300  0.95559500  1
  Al  Al27  1  0.76066400  0.31882000  0.06477400  1
  Al  Al28  1  0.75368300  0.90217300  0.72819800  1
  Al  Al29  1  0.29024500  0.00753600  0.54748800  1
  Al  Al30  1  0.87814900  0.07591400  0.19317500  1
  Al  Al31  1  0.43662500  0.64176200  0.11345300  1
  Al  Al32  1  0.60652600  0.95838500  0.29254700  1
  Al  Al33  1  0.37577700  0.34922300  0.97950100  1
  Al  Al34  1  0.27657900  0.06124300  0.85077300  1
  Al  Al35  1  0.41209600  0.90104700  0.03807000  1
  Al  Al36  1  0.22111400  0.14945800  0.37017600  1
  Al  Al37  1  0.35151900  0.24953900  0.67844500  1
  Al  Al38  1  0.02262300  0.79093100  0.03239400  1
  Al  Al39  1  0.13927800  0.43515800  0.37636800  1
  O  O40  1  0.24447900  0.97072800  0.37184800  1
  O  O41  1  0.28710100  0.21521900  0.24196700  1
  O  O42  1  0.76529300  0.35128200  0.74932700  1
  O  O43  1  0.94245200  0.77649100  0.45680200  1
  O  O44  1  0.52501400  0.28535000  0.63173300  1
  O  O45  1  0.92998300  0.19309500  0.82193000  1
  O  O46  1  0.09170600  0.26020200  0.40382800  1
  O  O47  1  0.22824200  0.11317800  0.68130400  1
  O  O48  1  0.65522600  0.28881100  0.93098400  1
  O  O49  1  0.06452400  0.50940900  0.51426600  1
  O  O50  1  0.46855300  0.26216700  0.10409500  1
  O  O51  1  0.91986300  0.86532900  0.71174200  1
  O  O52  1  0.98208500  0.07485700  0.57820500  1
  O  O53  1  0.75312400  0.48042600  0.13417900  1
  O  O54  1  0.10441400  0.75997300  0.88975900  1
  O  O55  1  0.69968000  0.06609500  0.69475200  1
  O  O56  1  0.76981600  0.22994000  0.20802300  1
  O  O57  1  0.91692100  0.37282900  0.98998900  1
  O  O58  1  0.65319700  0.57792100  0.79476500  1
  O  O59  1  0.16455200  0.88196200  0.57899700  1
  O  O60  1  0.61676900  0.09835600  0.40654100  1
  O  O61  1  0.78147500  0.08298300  0.94454900  1
  O  O62  1  0.34210200  0.74134800  0.01286300  1
  O  O63  1  0.73975800  0.82050100  0.86972100  1
  O  O64  1  0.54607200  0.57021000  0.51621700  1
  O  O65  1  0.30675200  0.02878400  0.01484400  1
  O  O66  1  0.84487000  0.62890500  0.64951600  1
  O  O67  1  0.02321400  0.51714000  0.78762800  1
  O  O68  1  0.10352800  0.80385000  0.18542300  1
  O  O69  1  0.10277000  0.05330800  0.86168300  1
  O  O70  1  0.72344800  0.97246200  0.17089000  1
  O  O71  1  0.31484200  0.43776400  0.38001200  1
  O  O72  1  0.53959800  0.34474100  0.36420200  1
  O  O73  1  0.82224200  0.52060300  0.39473400  1
  O  O74  1  0.81024300  0.26640600  0.47618100  1
  O  O75  1  0.99871600  0.17088700  0.10659500  1
  O  O76  1  0.92824800  0.93379600  0.04122900  1
  O  O77  1  0.17336700  0.68165700  0.38629600  1
  O  O78  1  0.39735700  0.48411200  0.13513800  1
  O  O79  1  0.45976200  0.98077200  0.19334000  1
  O  O80  1  0.39839400  0.72277700  0.26636500  1
  O  O81  1  0.36902200  0.21418000  0.84612100  1
  O  O82  1  0.20238400  0.34282300  0.00499400  1
  O  O83  1  0.46030900  0.45380700  0.88637400  1
  O  O84  1  0.38620200  0.77142100  0.53094800  1
  O  O85  1  0.44232400  0.71007200  0.78357200  1
  O  O86  1  0.20359300  0.64830200  0.68760000  1
  O  O87  1  0.86996000  0.69316600  0.20861600  1
  O  O88  1  0.60247000  0.67575700  0.04833900  1
  O  O89  1  0.62035000  0.81947900  0.37274500  1
  O  O90  1  0.32564100  0.90436900  0.79123400  1
  O  O91  1  0.45799500  0.00174900  0.61092400  1
  O  O92  1  0.04745600  0.30855600  0.66459000  1
  O  O93  1  0.62967000  0.80038500  0.64651300  1
  O  O94  1  0.30336800  0.40589100  0.63101200  1
  O  O95  1  0.03872200  0.44393500  0.23042300  1
  O  O96  1  0.55223100  0.90311000  0.95625900  1
  O  O97  1  0.89623000  0.66790900  0.96672500  1
  O  O98  1  0.33396300  0.17495600  0.49863900  1
  O  O99  1  0.94630100  0.99192400  0.31468200  1
