# generated using pymatgen
data_Al2O3
_symmetry_space_group_name_H-M   'P 1'
_cell_length_a   10.14628122
_cell_length_b   10.03506910
_cell_length_c   10.30027170
_cell_angle_alpha   89.34777673
_cell_angle_beta   92.21582514
_cell_angle_gamma   89.80478048
_symmetry_Int_Tables_number   1
_chemical_formula_structural   Al2O3
_chemical_formula_sum   'Al40 O60'
_cell_volume   1047.89973524
_cell_formula_units_Z   20
loop_
 _symmetry_equiv_pos_site_id
 _symmetry_equiv_pos_as_xyz
  1  'x, y, z'
loop_
 _atom_site_type_symbol
 _atom_site_label
 _atom_site_symmetry_multiplicity
 _atom_site_fract_x
 _atom_site_fract_y
 _atom_site_fract_z
 _atom_site_occupancy
  Al  Al0  1  0.48936800  0.52832500  0.22240800  1
  Al  Al1  1  0.37874200  0.06670500  0.42769700  1
  Al  Al2  1  0.53478400  0.65818700  0.77009300  1
  Al  Al3  1  0.73286700  0.86989600  0.83462200  1
  Al  Al4  1  0.42900100  0.91647500  0.70737500  1
  Al  Al5  1  0.84788200  0.60989400  0.75114700  1
  Al  Al6  1  0.35679900  0.34327900  0.47675300  1
  Al  Al7  1  0.12341500  0.93651800  0.99168200  1
  Al  Al8  1  0.35287000  0.75244000  0.93908900  1
  Al  Al9  1  0.86172400  0.38668800  0.55012600  1
  Al  Al10  1  0.88041800  0.66050200  0.40231400  1
  Al  Al11  1  0.84546700  0.21838800  0.26488000  1
  Al  Al12  1  0.89954200  0.90207300  0.21286300  1
  Al  Al13  1  0.40322100  0.77301100  0.45108400  1
  Al  Al14  1  0.12040500  0.86421100  0.48265300  1
  Al  Al15  1  0.15954600  0.20660900  0.93395600  1
  Al  Al16  1  0.91161600  0.38941900  0.96534000  1
  Al  Al17  1  0.66636600  0.20546200  0.50737000  1
  Al  Al18  1  0.63787600  0.98745200  0.31888600  1
  Al  Al19  1  0.52116900  0.26009600  0.21860300  1
  Al  Al20  1  0.18298100  0.18417000  0.24641600  1
  Al  Al21  1  0.83945700  0.09841800  0.98256700  1
  Al  Al22  1  0.63161900  0.80045000  0.08434700  1
  Al  Al23  1  0.35274000  0.99221400  0.15918300  1
  Al  Al24  1  0.14176800  0.57075600  0.52768800  1
  Al  Al25  1  0.07523100  0.17290300  0.48961700  1
  Al  Al26  1  0.74017500  0.90325500  0.58981000  1
  Al  Al27  1  0.45603700  0.38316400  0.96136400  1
  Al  Al28  1  0.62350700  0.64495000  0.45501400  1
  Al  Al29  1  0.74338200  0.51503700  0.20173400  1
  Al  Al30  1  0.20626700  0.51174000  0.05896400  1
  Al  Al31  1  0.67743900  0.35159900  0.80862500  1
  Al  Al32  1  0.13193900  0.68597100  0.77662900  1
  Al  Al33  1  0.02768900  0.49279200  0.22355100  1
  Al  Al34  1  0.14264300  0.34348700  0.72123700  1
  Al  Al35  1  0.93348500  0.68929600  0.02366300  1
  Al  Al36  1  0.36890000  0.20511400  0.76953700  1
  Al  Al37  1  0.17194400  0.78688100  0.23093500  1
  Al  Al38  1  0.53652600  0.08896400  0.95298000  1
  Al  Al39  1  0.03962600  0.99902700  0.74412400  1
  O  O40  1  0.98456600  0.82554000  0.35713400  1
  O  O41  1  0.51293500  0.96159900  0.09231300  1
  O  O42  1  0.60381200  0.92441400  0.69544100  1
  O  O43  1  0.54011500  0.48695000  0.83745200  1
  O  O44  1  0.29717000  0.31575500  0.89536900  1
  O  O45  1  0.16707700  0.14345800  0.76804600  1
  O  O46  1  0.30742600  0.30912700  0.64475200  1
  O  O47  1  0.80542600  0.47613300  0.85024000  1
  O  O48  1  0.87937400  0.07306700  0.15150700  1
  O  O49  1  0.27828900  0.84264000  0.07480200  1
  O  O50  1  0.40553100  0.03591600  0.83144800  1
  O  O51  1  0.01686300  0.17981000  0.32566100  1
  O  O52  1  0.86293800  0.93148700  0.71843600  1
  O  O53  1  0.72195000  0.31445500  0.64208100  1
  O  O54  1  0.47958500  0.92632600  0.36218800  1
  O  O55  1  0.61965300  0.63925500  0.15182900  1
  O  O56  1  0.75269700  0.76828600  0.47997300  1
  O  O57  1  0.87565400  0.37771000  0.17720800  1
  O  O58  1  0.96943100  0.68983800  0.84721500  1
  O  O59  1  0.37908600  0.14243600  0.25392200  1
  O  O60  1  0.88490900  0.63411800  0.19889500  1
  O  O61  1  0.14548200  0.87330000  0.83080000  1
  O  O62  1  0.22850000  0.62860400  0.92349800  1
  O  O63  1  0.78916300  0.26001700  0.94302300  1
  O  O64  1  0.34174900  0.93642200  0.55383300  1
  O  O65  1  0.10356800  0.73597000  0.60078300  1
  O  O66  1  0.51222300  0.68015700  0.58153000  1
  O  O67  1  0.16624300  0.61417300  0.19521800  1
  O  O68  1  0.13294700  0.51861400  0.69855600  1
  O  O69  1  0.37138200  0.75674400  0.76208500  1
  O  O70  1  0.66032000  0.15486700  0.26451500  1
  O  O71  1  0.38318200  0.49418300  0.07982100  1
  O  O72  1  0.45655700  0.38108400  0.33324200  1
  O  O73  1  0.04400500  0.32584200  0.87780400  1
  O  O74  1  0.52880200  0.75553200  0.93910700  1
  O  O75  1  0.23536800  0.75947100  0.39775000  1
  O  O76  1  0.61395200  0.40272600  0.16017800  1
  O  O77  1  0.27657000  0.49458000  0.46882900  1
  O  O78  1  0.20565500  0.08952600  0.05921600  1
  O  O79  1  0.48233300  0.65870900  0.34446300  1
  O  O80  1  0.02695900  0.83578500  0.10360200  1
  O  O81  1  0.15276400  0.34984900  0.16444100  1
  O  O82  1  0.78859500  0.79403900  0.99398300  1
  O  O83  1  0.54030500  0.23846300  0.82442300  1
  O  O84  1  0.01335900  0.53469900  0.39986900  1
  O  O85  1  0.20798800  0.97262800  0.27659600  1
  O  O86  1  0.80137000  0.28274200  0.42244200  1
  O  O87  1  0.49043500  0.18964000  0.50512300  1
  O  O88  1  0.01266100  0.52245500  0.03325400  1
  O  O89  1  0.06358800  0.01139300  0.56337500  1
  O  O90  1  0.01660300  0.29904600  0.59198700  1
  O  O91  1  0.70649800  0.70905900  0.75662100  1
  O  O92  1  0.73711000  0.54092900  0.37779300  1
  O  O93  1  0.72865000  0.87419400  0.22933700  1
  O  O94  1  0.48459200  0.22490400  0.05020800  1
  O  O95  1  0.99191700  0.04842400  0.91705000  1
  O  O96  1  0.86880700  0.55592500  0.59369200  1
  O  O97  1  0.71665100  0.03436300  0.47720600  1
  O  O98  1  0.23967800  0.19604700  0.42991200  1
  O  O99  1  0.69537900  0.01777400  0.92487900  1
