# generated using pymatgen
data_P2O5
_symmetry_space_group_name_H-M   'P 1'
_cell_length_a   11.23758196
_cell_length_b   12.92229289
_cell_length_c   13.25926266
_cell_angle_alpha   85.09906076
_cell_angle_beta   77.62216726
_cell_angle_gamma   90.24857400
_symmetry_Int_Tables_number   1
_chemical_formula_structural   P2O5
_chemical_formula_sum   'P30 O75'
_cell_volume   1873.30799251
_cell_formula_units_Z   15
loop_
 _symmetry_equiv_pos_site_id
 _symmetry_equiv_pos_as_xyz
  1  'x, y, z'
loop_
 _atom_site_type_symbol
 _atom_site_label
 _atom_site_symmetry_multiplicity
 _atom_site_fract_x
 _atom_site_fract_y
 _atom_site_fract_z
 _atom_site_occupancy
  P  P0  1  0.80487745  0.34341649  0.19713646  1
  P  P1  1  0.06726608  0.96249857  0.21129477  1
  P  P2  1  0.89081005  0.59350679  0.49277400  1
  P  P3  1  0.95439922  0.15880249  0.14930797  1
  P  P4  1  0.30290255  0.36368015  0.64393530  1
  P  P5  1  0.48941783  0.18202632  0.85014001  1
  P  P6  1  0.11451687  0.58681202  0.09687333  1
  P  P7  1  0.58299646  0.72447541  0.81144149  1
  P  P8  1  0.17304386  0.99663361  0.79247313  1
  P  P9  1  0.97538935  0.08245087  0.48600423  1
  P  P10  1  0.79416734  0.96176049  0.64890187  1
  P  P11  1  0.10086324  0.28143441  0.95178263  1
  P  P12  1  0.36268367  0.38489201  0.86074109  1
  P  P13  1  0.52387629  0.49133969  0.52190779  1
  P  P14  1  0.45062968  0.00071030  0.01209025  1
  P  P15  1  0.81614393  0.90594816  0.21014673  1
  P  P16  1  0.40527747  0.79471435  0.36290136  1
  P  P17  1  0.21080622  0.90701982  0.00286500  1
  P  P18  1  0.48174578  0.39531277  0.23854372  1
  P  P19  1  0.32296653  0.31327481  0.17279494  1
  P  P20  1  0.73645713  0.39580446  0.73669819  1
  P  P21  1  0.76278596  0.20556524  0.85776268  1
  P  P22  1  0.06534378  0.68951488  0.28388357  1
  P  P23  1  0.63156358  0.31472411  0.39323121  1
  P  P24  1  0.38115760  0.08700515  0.23748127  1
  P  P25  1  0.79428071  0.57552758  0.84039939  1
  P  P26  1  0.96232442  0.65850386  0.63164811  1
  P  P27  1  0.55550695  0.66497499  0.35374133  1
  P  P28  1  0.37013359  0.13692542  0.66991465  1
  P  P29  1  0.90232997  0.99783833  0.83428080  1
  O  O30  1  0.04248695  0.04204372  0.78910300  1
  O  O31  1  0.38958854  0.48258638  0.89757559  1
  O  O32  1  0.49337285  0.56387384  0.42964783  1
  O  O33  1  0.60898870  0.40421518  0.47491796  1
  O  O34  1  0.96058229  0.90670465  0.15954106  1
  O  O35  1  0.62320263  0.16756459  0.84617313  1
  O  O36  1  0.64162990  0.82301678  0.75771303  1
  O  O37  1  0.46255109  0.17575257  0.74130086  1
  O  O38  1  0.88547477  0.93593567  0.93320451  1
  O  O39  1  0.08131257  0.23831167  0.06412618  1
  O  O40  1  0.16584381  0.80013176  0.00695491  1
  O  O41  1  0.42011985  0.05990930  0.60102094  1
  O  O42  1  0.24681807  0.66773160  0.79917012  1
  O  O43  1  0.44710631  0.69086715  0.29434346  1
  O  O44  1  0.90057719  0.13773381  0.42131278  1
  O  O45  1  0.83430173  0.10520137  0.82236181  1
  O  O46  1  0.24873426  0.10766434  0.75716282  1
  O  O47  1  0.53594382  0.49975633  0.21505025  1
  O  O48  1  0.89273455  0.10523935  0.08175401  1
  O  O49  1  0.63091116  0.21192995  0.44725830  1
  O  O50  1  0.21987507  0.34611040  0.92273161  1
  O  O51  1  0.29417787  0.68189622  0.70187504  1
  O  O52  1  0.76982374  0.45685314  0.83347104  1
  O  O53  1  0.35592010  0.91549853  0.98809422  1
  O  O54  1  0.16680417  0.97287348  0.09836575  1
  O  O55  1  0.22968389  0.56024828  0.12610893  1
  O  O56  1  0.50425246  0.11091215  0.25022144  1
  O  O57  1  0.41596959  0.09546369  0.92579420  1
  O  O58  1  0.57665076  0.96961732  0.98200615  1
  O  O59  1  0.01855592  0.62788568  0.20324002  1
  O  O60  1  0.82038049  0.60553997  0.93656901  1
  O  O61  1  0.80638808  0.28371218  0.75918609  1
  O  O62  1  0.90999404  0.60504986  0.74147129  1
  O  O63  1  0.91320405  0.97720358  0.54979600  1
  O  O64  1  0.09652737  0.10153500  0.50504057  1
  O  O65  1  0.02881235  0.26319164  0.87625562  1
  O  O66  1  0.80537933  0.44762747  0.63815416  1
  O  O67  1  0.03680810  0.08908882  0.20947213  1
  O  O68  1  0.28585910  0.78185340  0.43591005  1
  O  O69  1  0.17856701  0.98929071  0.91348860  1
  O  O70  1  0.82287143  0.53137427  0.43814088  1
  O  O71  1  0.60413669  0.36827312  0.76290323  1
  O  O72  1  0.71553309  0.05333257  0.66066288  1
  O  O73  1  0.42768063  0.28211496  0.89823849  1
  O  O74  1  0.17375463  0.38578908  0.66066960  1
  O  O75  1  0.75701501  0.23705068  0.96087123  1
  O  O76  1  0.68346436  0.65312134  0.30564488  1
  O  O77  1  0.39239642  0.04432720  0.11360455  1
  O  O78  1  0.70562680  0.29559882  0.15975883  1
  O  O79  1  0.74165331  0.86254419  0.14623296  1
  O  O80  1  0.79785774  0.94197752  0.31462351  1
  O  O81  1  0.05522242  0.58020269  0.01051472  1
  O  O82  1  0.28058917  0.01719976  0.30375192  1
  O  O83  1  0.68375857  0.63124296  0.80159987  1
  O  O84  1  0.47615580  0.32817747  0.14147634  1
  O  O85  1  0.55786124  0.54076411  0.60671165  1
  O  O86  1  0.52096291  0.32921424  0.33421013  1
  O  O87  1  0.43871017  0.88928597  0.28480692  1
  O  O88  1  0.38949773  0.43057489  0.55438263  1
  O  O89  1  0.33280630  0.37960487  0.27587785  1
  O  O90  1  0.17578184  0.75361753  0.25463026  1
  O  O91  1  0.87201123  0.94013201  0.74194626  1
  O  O92  1  0.75335057  0.36247944  0.32033618  1
  O  O93  1  0.97890175  0.68296700  0.38808011  1
  O  O94  1  0.39788543  0.72998799  0.67337956  1
  O  O95  1  0.21501361  0.90786738  0.73557539  1
  O  O96  1  0.05015554  0.74320323  0.62358435  1
  O  O97  1  0.90296035  0.23995258  0.22176123  1
  O  O98  1  0.00223123  0.56675345  0.54862854  1
  O  O99  1  0.30342998  0.19119506  0.21350127  1
  O  O100  1  0.36130543  0.37509480  0.74506436  1
  O  O101  1  0.52090864  0.76457163  0.42065882  1
  O  O102  1  0.84296655  0.67847821  0.57251702  1
  O  O103  1  0.89441063  0.42632723  0.14688888  1
  O  O104  1  0.33944171  0.24681970  0.61872499  1
