# generated using pymatgen
data_V2O5
_symmetry_space_group_name_H-M   'P 1'
_cell_length_a   11.47524144
_cell_length_b   11.91489676
_cell_length_c   12.33972739
_cell_angle_alpha   89.03432390
_cell_angle_beta   93.11008717
_cell_angle_gamma   82.61305225
_symmetry_Int_Tables_number   1
_chemical_formula_structural   V2O5
_chemical_formula_sum   'V30 O75'
_cell_volume   1670.21467498
_cell_formula_units_Z   15
loop_
 _symmetry_equiv_pos_site_id
 _symmetry_equiv_pos_as_xyz
  1  'x, y, z'
loop_
 _atom_site_type_symbol
 _atom_site_label
 _atom_site_symmetry_multiplicity
 _atom_site_fract_x
 _atom_site_fract_y
 _atom_site_fract_z
 _atom_site_occupancy
  V  V0  1  0.46622378  0.77422632  0.94804143  1
  V  V1  1  0.77223647  0.57545168  0.76088667  1
  V  V2  1  0.20660818  0.19555035  0.73400177  1
  V  V3  1  0.34216458  0.04233635  0.52026666  1
  V  V4  1  0.61458762  0.05229733  0.23566420  1
  V  V5  1  0.19669627  0.49352578  0.34894140  1
  V  V6  1  0.19012671  0.67060912  0.89424914  1
  V  V7  1  0.06238687  0.49128582  0.70969363  1
  V  V8  1  0.94346427  0.88847079  0.92594429  1
  V  V9  1  0.58610324  0.13775189  0.88718814  1
  V  V10  1  0.63433042  0.56992044  0.13078070  1
  V  V11  1  0.18238341  0.92024345  0.12449118  1
  V  V12  1  0.09982120  0.22577368  0.38812592  1
  V  V13  1  0.84318162  0.83644200  0.65740722  1
  V  V14  1  0.72659476  0.28598277  0.69538383  1
  V  V15  1  0.22894935  0.79087074  0.57893094  1
  V  V16  1  0.90916690  0.10266934  0.56434071  1
  V  V17  1  0.17041913  0.43794716  0.04287287  1
  V  V18  1  0.49406817  0.60792918  0.60966774  1
  V  V19  1  0.38961565  0.35071027  0.56169733  1
  V  V20  1  0.89030651  0.38574042  0.07243418  1
  V  V21  1  0.03406257  0.88830008  0.34626283  1
  V  V22  1  0.86722743  0.15833979  0.20743508  1
  V  V23  1  0.45445461  0.65099925  0.34578339  1
  V  V24  1  0.62571977  0.21148141  0.44924141  1
  V  V25  1  0.32839888  0.03660204  0.94482284  1
  V  V26  1  0.03657369  0.65513379  0.50300738  1
  V  V27  1  0.46023383  0.37948392  0.99828011  1
  V  V28  1  0.31687958  0.12216785  0.24049662  1
  V  V29  1  0.80939156  0.81439056  0.17162121  1
  O  O30  1  0.29481306  0.09523464  0.65317453  1
  O  O31  1  0.92737999  0.80906169  0.27619087  1
  O  O32  1  0.32727006  0.30319602  0.66856082  1
  O  O33  1  0.46455937  0.06467265  0.87116890  1
  O  O34  1  0.42821092  0.78425076  0.31488604  1
  O  O35  1  0.03597556  0.41645631  0.11088852  1
  O  O36  1  0.75624596  0.68977036  0.17326275  1
  O  O37  1  0.74522666  0.41672789  0.74360596  1
  O  O38  1  0.99887070  0.53012711  0.57447576  1
  O  O39  1  0.93916914  0.50588099  0.77873984  1
  O  O40  1  0.94050947  0.01806622  0.88699773  1
  O  O41  1  0.67079245  0.30836118  0.56417079  1
  O  O42  1  0.47760615  0.23552729  0.50342740  1
  O  O43  1  0.93047727  0.02570739  0.20822155  1
  O  O44  1  0.17479512  0.58647286  0.01168207  1
  O  O45  1  0.47786394  0.07122016  0.17367203  1
  O  O46  1  0.69808604  0.05398954  0.93980727  1
  O  O47  1  0.24947557  0.95684523  0.87735277  1
  O  O48  1  0.55117367  0.46616307  0.07706697  1
  O  O49  1  0.48028365  0.00682218  0.55225149  1
  O  O50  1  0.43632460  0.90538667  0.00527083  1
  O  O51  1  0.56532217  0.58495324  0.25451895  1
  O  O52  1  0.98174881  0.99298238  0.42277293  1
  O  O53  1  0.11642592  0.79240320  0.44822906  1
  O  O54  1  0.37234918  0.70624513  0.63247564  1
  O  O55  1  0.10433534  0.37004614  0.36820969  1
  O  O56  1  0.32467701  0.36952858  0.05952712  1
  O  O57  1  0.05523068  0.91778986  0.04816741  1
  O  O58  1  0.53697326  0.63800430  0.47854193  1
  O  O59  1  0.33367363  0.70668046  0.89900282  1
  O  O60  1  0.11872642  0.35254297  0.70651682  1
  O  O61  1  0.06950774  0.59440753  0.37063632  1
  O  O62  1  0.69050628  0.91381587  0.21154180  1
  O  O63  1  0.56912426  0.67963177  0.04141712  1
  O  O64  1  0.46535039  0.46484623  0.61093860  1
  O  O65  1  0.43265803  0.44001208  0.87958292  1
  O  O66  1  0.35311299  0.24805891  0.25474730  1
  O  O67  1  0.26603144  0.80274042  0.10200448  1
  O  O68  1  0.92278377  0.96423546  0.62493426  1
  O  O69  1  0.89060570  0.23520559  0.08542637  1
  O  O70  1  0.75700351  0.62419847  0.88110113  1
  O  O71  1  0.22497697  0.18621414  0.46870377  1
  O  O72  1  0.62757927  0.21270638  0.76657947  1
  O  O73  1  0.26274807  0.04668599  0.08905505  1
  O  O74  1  0.35554047  0.04980120  0.36257062  1
  O  O75  1  0.32083856  0.59651690  0.35751906  1
  O  O76  1  0.70539398  0.15070443  0.19464416  1
  O  O77  1  0.16817197  0.84316062  0.68455032  1
  O  O78  1  0.29038518  0.41603499  0.46283101  1
  O  O79  1  0.62833512  0.30212909  0.35175043  1
  O  O80  1  0.85623582  0.19453805  0.67556185  1
  O  O81  1  0.92122544  0.75673116  0.53260263  1
  O  O82  1  0.54639820  0.24484206  0.98647692  1
  O  O83  1  0.77213694  0.47622099  0.13567136  1
  O  O84  1  0.53339942  0.79540154  0.83976875  1
  O  O85  1  0.13592568  0.39079928  0.92540647  1
  O  O86  1  0.93008823  0.22746062  0.31017807  1
  O  O87  1  0.08648569  0.13721824  0.72769289  1
  O  O88  1  0.71035639  0.89047781  0.62423218  1
  O  O89  1  0.60733337  0.61009352  0.70210839  1
  O  O90  1  0.84937909  0.84636807  0.04080895  1
  O  O91  1  0.16023835  0.57930098  0.78722773  1
  O  O92  1  0.77887981  0.12924393  0.48572559  1
  O  O93  1  0.26060414  0.17366153  0.87348104  1
  O  O94  1  0.21397390  0.47659187  0.21912559  1
  O  O95  1  0.86700873  0.40589073  0.94384565  1
  O  O96  1  0.15265681  0.91724314  0.26833100  1
  O  O97  1  0.16680349  0.64463578  0.58373272  1
  O  O98  1  0.00790185  0.18275410  0.50737520  1
  O  O99  1  0.08088060  0.78122862  0.89305364  1
  O  O100  1  0.28676248  0.90689091  0.51738761  1
  O  O101  1  0.15575597  0.15606500  0.26966615  1
  O  O102  1  0.86772761  0.84134418  0.80470113  1
  O  O103  1  0.60128955  0.07906139  0.37251936  1
  O  O104  1  0.81119299  0.68077442  0.67766184  1
