# generated using pymatgen
data_Cd7GeN6
_symmetry_space_group_name_H-M   'P 1'
_cell_length_a   5.94872344
_cell_length_b   5.94872344
_cell_length_c   13.74053400
_cell_angle_alpha   90.00000000
_cell_angle_beta   90.00000000
_cell_angle_gamma   119.37689121
_symmetry_Int_Tables_number   1
_chemical_formula_structural   Cd7GeN6
_chemical_formula_sum   'Cd14 Ge2 N12'
_cell_volume   423.71571587
_cell_formula_units_Z   2
loop_
 _symmetry_equiv_pos_site_id
 _symmetry_equiv_pos_as_xyz
  1  'x, y, z'
loop_
 _atom_site_type_symbol
 _atom_site_label
 _atom_site_symmetry_multiplicity
 _atom_site_fract_x
 _atom_site_fract_y
 _atom_site_fract_z
 _atom_site_occupancy
  Cd  Cd0  1  0.74598300  0.74598300  0.96778100  1
  Cd  Cd1  1  0.25401700  0.25401700  0.46778100  1
  Cd  Cd2  1  0.25401700  0.25401700  0.03221900  1
  Cd  Cd3  1  0.74598300  0.74598300  0.53221900  1
  Cd  Cd4  1  0.97967900  0.41937800  0.61926300  1
  Cd  Cd5  1  0.02032100  0.58062200  0.11926300  1
  Cd  Cd6  1  0.58062200  0.02032100  0.38073700  1
  Cd  Cd7  1  0.41937800  0.97967900  0.88073700  1
  Cd  Cd8  1  0.02032100  0.58062200  0.38073700  1
  Cd  Cd9  1  0.97967900  0.41937800  0.88073700  1
  Cd  Cd10  1  0.41937800  0.97967900  0.61926300  1
  Cd  Cd11  1  0.58062200  0.02032100  0.11926300  1
  Cd  Cd12  1  0.39865400  0.39865400  0.75000000  1
  Cd  Cd13  1  0.60134600  0.60134600  0.25000000  1
  Ge  Ge14  1  0.88608900  0.88608900  0.75000000  1
  Ge  Ge15  1  0.11391100  0.11391100  0.25000000  1
  N  N16  1  0.83659300  0.54601500  0.75000000  1
  N  N17  1  0.16340700  0.45398500  0.25000000  1
  N  N18  1  0.45398500  0.16340700  0.25000000  1
  N  N19  1  0.54601500  0.83659300  0.75000000  1
  N  N20  1  0.66899200  0.33100800  0.50000000  1
  N  N21  1  0.33100800  0.66899200  0.00000000  1
  N  N22  1  0.33100800  0.66899200  0.50000000  1
  N  N23  1  0.66899200  0.33100800  0.00000000  1
  N  N24  1  0.07221300  0.07221300  0.63744300  1
  N  N25  1  0.92778700  0.92778700  0.13744300  1
  N  N26  1  0.92778700  0.92778700  0.36255700  1
  N  N27  1  0.07221300  0.07221300  0.86255700  1
