# generated using pymatgen
data_Na3MnN2
_symmetry_space_group_name_H-M   'P 1'
_cell_length_a   9.50226100
_cell_length_b   10.97226503
_cell_length_c   10.97226475
_cell_angle_alpha   90.00000061
_cell_angle_beta   125.26438965
_cell_angle_gamma   54.73561139
_symmetry_Int_Tables_number   1
_chemical_formula_structural   Na3MnN2
_chemical_formula_sum   'Na24 Mn8 N16'
_cell_volume   660.47884451
_cell_formula_units_Z   8
loop_
 _symmetry_equiv_pos_site_id
 _symmetry_equiv_pos_as_xyz
  1  'x, y, z'
loop_
 _atom_site_type_symbol
 _atom_site_label
 _atom_site_symmetry_multiplicity
 _atom_site_fract_x
 _atom_site_fract_y
 _atom_site_fract_z
 _atom_site_occupancy
  Na  Na0  1  0.18660600  0.06699000  0.95272100  1
  Na  Na1  1  0.81339400  0.75359600  0.54727900  1
  Na  Na2  1  0.81339400  0.43301000  0.76611500  1
  Na  Na3  1  0.18660600  0.74640400  0.73388500  1
  Na  Na4  1  0.28116200  0.76611500  0.30087500  1
  Na  Na5  1  0.71883800  0.73388500  0.01971100  1
  Na  Na6  1  0.28116200  0.95272100  0.48028900  1
  Na  Na7  1  0.71883800  0.54727900  0.19912500  1
  Na  Na8  1  0.67941400  0.01971100  0.74640400  1
  Na  Na9  1  0.67941400  0.30087500  0.43301000  1
  Na  Na10  1  0.32058600  0.19912500  0.75359600  1
  Na  Na11  1  0.32058600  0.48028900  0.06699000  1
  Na  Na12  1  0.81339400  0.93301000  0.04727900  1
  Na  Na13  1  0.18660600  0.24640400  0.45272100  1
  Na  Na14  1  0.18660600  0.56699000  0.23388500  1
  Na  Na15  1  0.81339400  0.25359600  0.26611500  1
  Na  Na16  1  0.71883800  0.23388500  0.69912500  1
  Na  Na17  1  0.28116200  0.26611500  0.98028900  1
  Na  Na18  1  0.71883800  0.04727900  0.51971100  1
  Na  Na19  1  0.28116200  0.45272100  0.80087500  1
  Na  Na20  1  0.32058600  0.98028900  0.25359600  1
  Na  Na21  1  0.32058600  0.69912500  0.56699000  1
  Na  Na22  1  0.67941400  0.80087500  0.24640400  1
  Na  Na23  1  0.67941400  0.51971100  0.93301000  1
  Mn  Mn24  1  0.21063900  0.00000000  0.71063900  1
  Mn  Mn25  1  0.78936100  0.71063900  0.78936100  1
  Mn  Mn26  1  0.78936100  0.50000000  0.50000000  1
  Mn  Mn27  1  0.21063900  0.78936100  0.00000000  1
  Mn  Mn28  1  0.78936100  0.00000000  0.28936100  1
  Mn  Mn29  1  0.21063900  0.28936100  0.21063900  1
  Mn  Mn30  1  0.21063900  0.50000000  0.50000000  1
  Mn  Mn31  1  0.78936100  0.21063900  0.00000000  1
  N  N32  1  0.00000000  0.00000000  0.50000000  1
  N  N33  1  0.00000000  0.50000000  0.00000000  1
  N  N34  1  0.00000000  0.50000000  0.50000000  1
  N  N35  1  0.00000000  0.00000000  0.00000000  1
  N  N36  1  0.50000000  0.92742700  0.75000000  1
  N  N37  1  0.50000000  0.57257300  0.25000000  1
  N  N38  1  0.00000000  0.25000000  0.67742700  1
  N  N39  1  0.00000000  0.75000000  0.82257300  1
  N  N40  1  0.64514400  0.67742700  0.57257300  1
  N  N41  1  0.35485600  0.82257300  0.92742700  1
  N  N42  1  0.50000000  0.07257300  0.25000000  1
  N  N43  1  0.50000000  0.42742700  0.75000000  1
  N  N44  1  0.00000000  0.75000000  0.32257300  1
  N  N45  1  0.00000000  0.25000000  0.17742700  1
  N  N46  1  0.35485600  0.32257300  0.42742700  1
  N  N47  1  0.64514400  0.17742700  0.07257300  1
