# generated using pymatgen
data_ZnS
_symmetry_space_group_name_H-M   'P 1'
_cell_length_a   14.21805387
_cell_length_b   12.73689718
_cell_length_c   13.68943918
_cell_angle_alpha   95.49149319
_cell_angle_beta   99.01940948
_cell_angle_gamma   91.07128786
_symmetry_Int_Tables_number   1
_chemical_formula_structural   ZnS
_chemical_formula_sum   'Zn50 S50'
_cell_volume   2435.75128700
_cell_formula_units_Z   50
loop_
 _symmetry_equiv_pos_site_id
 _symmetry_equiv_pos_as_xyz
  1  'x, y, z'
loop_
 _atom_site_type_symbol
 _atom_site_label
 _atom_site_symmetry_multiplicity
 _atom_site_fract_x
 _atom_site_fract_y
 _atom_site_fract_z
 _atom_site_occupancy
  Zn  Zn0  1  0.76480681  0.88417386  0.14573289  1
  Zn  Zn1  1  0.50024310  0.36276044  0.47152686  1
  Zn  Zn2  1  0.38991275  0.04549402  0.53539458  1
  Zn  Zn3  1  0.99362760  0.49344513  0.98921875  1
  Zn  Zn4  1  0.21843033  0.18884674  0.55854537  1
  Zn  Zn5  1  0.85765180  0.67450990  0.92236697  1
  Zn  Zn6  1  0.74951442  0.50155878  0.06007711  1
  Zn  Zn7  1  0.12369132  0.66945520  0.44656512  1
  Zn  Zn8  1  0.91563897  0.58009583  0.50170843  1
  Zn  Zn9  1  0.18640155  0.32455896  0.00927323  1
  Zn  Zn10  1  0.34132791  0.05137778  0.27673648  1
  Zn  Zn11  1  0.25003469  0.57945186  0.10123139  1
  Zn  Zn12  1  0.57083077  0.91501887  0.27725990  1
  Zn  Zn13  1  0.89656013  0.06474664  0.21130880  1
  Zn  Zn14  1  0.99072817  0.10085251  0.77260186  1
  Zn  Zn15  1  0.38123798  0.73914520  0.54579515  1
  Zn  Zn16  1  0.17532899  0.95060864  0.72210647  1
  Zn  Zn17  1  0.51108881  0.55041597  0.70975028  1
  Zn  Zn18  1  0.87539303  0.23580835  0.01747903  1
  Zn  Zn19  1  0.77327001  0.98919654  0.94679592  1
  Zn  Zn20  1  0.99199464  0.08340793  0.47871204  1
  Zn  Zn21  1  0.89710723  0.74271615  0.34491581  1
  Zn  Zn22  1  0.30898792  0.64825750  0.90515579  1
  Zn  Zn23  1  0.55000964  0.17021454  0.96004207  1
  Zn  Zn24  1  0.55774537  0.88002987  0.96560339  1
  Zn  Zn25  1  0.90225481  0.26584724  0.53788995  1
  Zn  Zn26  1  0.70112002  0.14880499  0.16945709  1
  Zn  Zn27  1  0.02518579  0.64246242  0.19424759  1
  Zn  Zn28  1  0.24695347  0.63447476  0.71582404  1
  Zn  Zn29  1  0.80046481  0.01479892  0.62460825  1
  Zn  Zn30  1  0.08959921  0.01333454  0.00742704  1
  Zn  Zn31  1  0.78481488  0.86499298  0.71771985  1
  Zn  Zn32  1  0.79328459  0.56716827  0.69553795  1
  Zn  Zn33  1  0.40803070  0.29911113  0.16080672  1
  Zn  Zn34  1  0.27165037  0.46174268  0.54337694  1
  Zn  Zn35  1  0.45252601  0.44138332  0.95667909  1
  Zn  Zn36  1  0.53336750  0.48314907  0.31854885  1
  Zn  Zn37  1  0.18653659  0.51134804  0.82714718  1
  Zn  Zn38  1  0.34245098  0.97498799  0.72932294  1
  Zn  Zn39  1  0.73358540  0.17920888  0.77188492  1
  Zn  Zn40  1  0.03150038  0.42214353  0.61329794  1
  Zn  Zn41  1  0.18578859  0.87868096  0.07747143  1
  Zn  Zn42  1  0.03341665  0.31478919  0.43533472  1
  Zn  Zn43  1  0.98563946  0.78530315  0.65016963  1
  Zn  Zn44  1  0.14744138  0.95194504  0.32706761  1
  Zn  Zn45  1  0.67634024  0.62343237  0.17040340  1
  Zn  Zn46  1  0.48835680  0.25477042  0.71718921  1
  Zn  Zn47  1  0.56535931  0.99108386  0.75180356  1
  Zn  Zn48  1  0.23916331  0.45577319  0.31518722  1
  Zn  Zn49  1  0.56974507  0.20613811  0.30215683  1
  S  S50  1  0.28705723  0.73254967  0.04972638  1
  S  S51  1  0.86781606  0.45279522  0.59543825  1
  S  S52  1  0.99857618  0.67372050  0.02607654  1
  S  S53  1  0.66981526  0.51800931  0.77270233  1
  S  S54  1  0.47546965  0.61549099  0.92070778  1
  S  S55  1  0.84687826  0.22974233  0.17963671  1
  S  S56  1  0.47024843  0.01031337  0.88353366  1
  S  S57  1  0.82060385  0.09656669  0.46966001  1
  S  S58  1  0.85217222  0.40525154  0.97401233  1
  S  S59  1  0.70132428  0.61227284  0.91020767  1
  S  S60  1  0.19278691  0.33292686  0.42154217  1
  S  S61  1  0.40280788  0.67998413  0.70228827  1
  S  S62  1  0.53793120  0.32427518  0.88025498  1
  S  S63  1  0.72299312  0.15664897  0.93331047  1
  S  S64  1  0.75180096  0.77853679  0.25985229  1
  S  S65  1  0.32602961  0.13954889  0.12960068  1
  S  S66  1  0.14108788  0.50586385  0.17941659  1
  S  S67  1  0.56603151  0.25621765  0.13362537  1
  S  S68  1  0.99013573  0.14131169  0.94136971  1
  S  S69  1  0.43794185  0.40104639  0.61012847  1
  S  S70  1  0.28041478  0.60917531  0.44844835  1
  S  S71  1  0.08979709  0.40280122  0.89134161  1
  S  S72  1  0.44954650  0.90248873  0.60349328  1
  S  S73  1  0.09292678  0.11426469  0.62308434  1
  S  S74  1  0.18421611  0.18344005  0.09746777  1
  S  S75  1  0.86642147  0.19200982  0.69202939  1
  S  S76  1  0.33686710  0.42110946  0.05238738  1
  S  S77  1  0.59525316  0.64466407  0.32212570  1
  S  S78  1  0.18797697  0.41384315  0.67009736  1
  S  S79  1  0.39410122  0.38907244  0.31746042  1
  S  S80  1  0.10818535  0.67512684  0.61545611  1
  S  S81  1  0.90528330  0.55685095  0.26861281  1
  S  S82  1  0.26425038  0.08163799  0.42496439  1
  S  S83  1  0.50217779  0.06308266  0.35368123  1
  S  S84  1  0.05770308  0.77936725  0.33086371  1
  S  S85  1  0.35008699  0.15546234  0.67661473  1
  S  S86  1  0.26218955  0.88813320  0.24290219  1
  S  S87  1  0.53787572  0.72381661  0.03910807  1
  S  S88  1  0.86772676  0.74679650  0.51031702  1
  S  S89  1  0.59884360  0.13287145  0.66322911  1
  S  S90  1  0.62312276  0.97470033  0.12652776  1
  S  S91  1  0.87589570  0.71585807  0.76222824  1
  S  S92  1  0.88330758  0.93562401  0.06983329  1
  S  S93  1  0.03199179  0.07992359  0.32610913  1
  S  S94  1  0.00678763  0.50971229  0.38527974  1
  S  S95  1  0.75662396  0.04654449  0.32336086  1
  S  S96  1  0.67178330  0.87526877  0.83210965  1
  S  S97  1  0.03038857  0.92368692  0.77059736  1
  S  S98  1  0.49498756  0.76225408  0.31223795  1
  S  S99  1  0.63243414  0.35872462  0.40020579  1
