# generated using pymatgen
data_ZnS
_symmetry_space_group_name_H-M   'P 1'
_cell_length_a   13.64316637
_cell_length_b   13.25758009
_cell_length_c   13.44838112
_cell_angle_alpha   99.05571284
_cell_angle_beta   91.27524956
_cell_angle_gamma   86.84637480
_symmetry_Int_Tables_number   1
_chemical_formula_structural   ZnS
_chemical_formula_sum   'Zn50 S50'
_cell_volume   2398.29607130
_cell_formula_units_Z   50
loop_
 _symmetry_equiv_pos_site_id
 _symmetry_equiv_pos_as_xyz
  1  'x, y, z'
loop_
 _atom_site_type_symbol
 _atom_site_label
 _atom_site_symmetry_multiplicity
 _atom_site_fract_x
 _atom_site_fract_y
 _atom_site_fract_z
 _atom_site_occupancy
  Zn  Zn0  1  0.51378684  0.87450518  0.28312113  1
  Zn  Zn1  1  0.46142884  0.64485045  0.54035522  1
  Zn  Zn2  1  0.35850836  0.85510186  0.60416372  1
  Zn  Zn3  1  0.02369514  0.36742902  0.23123750  1
  Zn  Zn4  1  0.48785529  0.16974003  0.62540020  1
  Zn  Zn5  1  0.88931516  0.71009895  0.92331799  1
  Zn  Zn6  1  0.43382207  0.36426886  0.13573831  1
  Zn  Zn7  1  0.97809824  0.74539274  0.31825394  1
  Zn  Zn8  1  0.02362700  0.45478359  0.52572038  1
  Zn  Zn9  1  0.26828512  0.36105136  0.89806712  1
  Zn  Zn10  1  0.06910124  0.04710841  0.30529438  1
  Zn  Zn11  1  0.11619304  0.29459570  0.91840137  1
  Zn  Zn12  1  0.56818268  0.96295761  0.53277466  1
  Zn  Zn13  1  0.81198080  0.15997556  0.22937558  1
  Zn  Zn14  1  0.94984376  0.11214719  0.78175736  1
  Zn  Zn15  1  0.24615697  0.72169818  0.53281915  1
  Zn  Zn16  1  0.15166366  0.00005592  0.74009750  1
  Zn  Zn17  1  0.68410112  0.57983674  0.91933437  1
  Zn  Zn18  1  0.95956229  0.23190430  0.09381891  1
  Zn  Zn19  1  0.73274934  0.27841185  0.01709962  1
  Zn  Zn20  1  0.93297951  0.92767269  0.53371231  1
  Zn  Zn21  1  0.80160711  0.79110062  0.33531786  1
  Zn  Zn22  1  0.48409447  0.72459533  0.99246458  1
  Zn  Zn23  1  0.37997433  0.05781838  0.81571786  1
  Zn  Zn24  1  0.75370077  0.96461574  0.96789339  1
  Zn  Zn25  1  0.00455907  0.20616241  0.55439509  1
  Zn  Zn26  1  0.72617223  0.39700504  0.37693664  1
  Zn  Zn27  1  0.95411570  0.84290969  0.14756374  1
  Zn  Zn28  1  0.50094539  0.62856559  0.71322045  1
  Zn  Zn29  1  0.71058088  0.02605106  0.79626108  1
  Zn  Zn30  1  0.25192385  0.16013429  0.13249967  1
  Zn  Zn31  1  0.68471072  0.71524113  0.12010030  1
  Zn  Zn32  1  0.93520219  0.45356119  0.76516994  1
  Zn  Zn33  1  0.13769536  0.62497763  0.25614009  1
  Zn  Zn34  1  0.39686923  0.48202521  0.42190298  1
  Zn  Zn35  1  0.82846034  0.39942381  0.94314296  1
  Zn  Zn36  1  0.59643298  0.57019423  0.22852123  1
  Zn  Zn37  1  0.10800136  0.71050158  0.77272005  1
  Zn  Zn38  1  0.63748626  0.85873698  0.77901085  1
  Zn  Zn39  1  0.74835433  0.28329474  0.69934395  1
  Zn  Zn40  1  0.33273776  0.42054050  0.56413931  1
  Zn  Zn41  1  0.16724349  0.98726861  0.97314027  1
  Zn  Zn42  1  0.85542123  0.39447458  0.13360840  1
  Zn  Zn43  1  0.88891226  0.71400535  0.63222931  1
  Zn  Zn44  1  0.22509188  0.86698310  0.23970829  1
  Zn  Zn45  1  0.38618205  0.67769376  0.37613508  1
  Zn  Zn46  1  0.61992782  0.33278921  0.53485458  1
  Zn  Zn47  1  0.54094763  0.27819662  0.85934895  1
  Zn  Zn48  1  0.87483279  0.58971869  0.33567468  1
  Zn  Zn49  1  0.47039522  0.11991173  0.06716765  1
  S  S50  1  0.29978835  0.57534019  0.03163574  1
  S  S51  1  0.91765699  0.35309184  0.60865158  1
  S  S52  1  0.10766803  0.87683244  0.83463469  1
  S  S53  1  0.75223981  0.44885910  0.79573250  1
  S  S54  1  0.59676773  0.71527679  0.84790615  1
  S  S55  1  0.12333206  0.27162543  0.10063577  1
  S  S56  1  0.53298228  0.10873110  0.77848320  1
  S  S57  1  0.82939914  0.96777624  0.39523266  1
  S  S58  1  0.81693114  0.62534761  0.03181362  1
  S  S59  1  0.56365723  0.26195202  0.02451232  1
  S  S60  1  0.10719993  0.19761062  0.41917475  1
  S  S61  1  0.15687018  0.93813711  0.40520994  1
  S  S62  1  0.52477705  0.39509203  0.74978362  1
  S  S63  1  0.59702167  0.98802574  0.04239554  1
  S  S64  1  0.57278316  0.58830627  0.05440946  1
  S  S65  1  0.10441316  0.75678244  0.16408782  1
  S  S66  1  0.99834319  0.53777806  0.21528737  1
  S  S67  1  0.39304302  0.44336359  0.99131239  1
  S  S68  1  0.08594672  0.11938759  0.88133942  1
  S  S69  1  0.62831515  0.48291908  0.49804974  1
  S  S70  1  0.16661711  0.46958039  0.63508660  1
  S  S71  1  0.99082415  0.42089117  0.91729748  1
  S  S72  1  0.54209840  0.84466565  0.62574620  1
  S  S73  1  0.01739988  0.06093237  0.62574332  1
  S  S74  1  0.39606134  0.32305115  0.69356496  1
  S  S75  1  0.79559784  0.17405802  0.81602692  1
  S  S76  1  0.33411893  0.04360191  0.97180184  1
  S  S77  1  0.75309662  0.49285708  0.25300797  1
  S  S78  1  0.21665285  0.61852848  0.66555215  1
  S  S79  1  0.39484270  0.21862657  0.20285356  1
  S  S80  1  0.07263915  0.82765309  0.45307024  1
  S  S81  1  0.90556005  0.99406514  0.26830792  1
  S  S82  1  0.42312135  0.06228577  0.48407547  1
  S  S83  1  0.54883193  0.02752011  0.38594015  1
  S  S84  1  0.23240528  0.59766712  0.38553978  1
  S  S85  1  0.29637238  0.02111034  0.66982493  1
  S  S86  1  0.33017453  0.68000037  0.94210792  1
  S  S87  1  0.46011358  0.49485141  0.26538132  1
  S  S88  1  0.94524708  0.60607422  0.49400458  1
  S  S89  1  0.65570769  0.18460496  0.57868402  1
  S  S90  1  0.56367116  0.85963293  0.10266982  1
  S  S91  1  0.95248696  0.63883152  0.77063299  1
  S  S92  1  0.82172648  0.13059232  0.06104615  1
  S  S93  1  0.16988610  0.01153234  0.15793414  1
  S  S94  1  0.09645784  0.34671772  0.38391748  1
  S  S95  1  0.64476756  0.74530205  0.29726131  1
  S  S96  1  0.89931118  0.87559274  0.99423015  1
  S  S97  1  0.82021154  0.86978315  0.63139109  1
  S  S98  1  0.37653079  0.78523506  0.25595617  1
  S  S99  1  0.79596235  0.24134558  0.37963213  1
