# generated using pymatgen
data_Cr2O3
_symmetry_space_group_name_H-M   'P 1'
_cell_length_a   9.98691573
_cell_length_b   9.88102457
_cell_length_c   9.75768418
_cell_angle_alpha   86.21904343
_cell_angle_beta   99.61671061
_cell_angle_gamma   90.90813879
_symmetry_Int_Tables_number   1
_chemical_formula_structural   Cr2O3
_chemical_formula_sum   'Cr32 O48'
_cell_volume   947.28859800
_cell_formula_units_Z   16
loop_
 _symmetry_equiv_pos_site_id
 _symmetry_equiv_pos_as_xyz
  1  'x, y, z'
loop_
 _atom_site_type_symbol
 _atom_site_label
 _atom_site_symmetry_multiplicity
 _atom_site_fract_x
 _atom_site_fract_y
 _atom_site_fract_z
 _atom_site_occupancy
  Cr  Cr0  1  0.89586000  0.69938300  0.60137500  1
  Cr  Cr1  1  0.68025400  0.47229400  0.45525500  1
  Cr  Cr2  1  0.13314900  0.30093800  0.86448700  1
  Cr  Cr3  1  0.31174500  0.95241500  0.34955900  1
  Cr  Cr4  1  0.39974300  0.42793900  0.13335100  1
  Cr  Cr5  1  0.79774200  0.99391300  0.20870400  1
  Cr  Cr6  1  0.28727200  0.78012900  0.71281700  1
  Cr  Cr7  1  0.28895000  0.46206300  0.65364000  1
  Cr  Cr8  1  0.32121000  0.58025000  0.41025900  1
  Cr  Cr9  1  0.59298700  0.79101800  0.99658400  1
  Cr  Cr10  1  0.86164000  0.45898900  0.80089000  1
  Cr  Cr11  1  0.96922800  0.33667400  0.13851000  1
  Cr  Cr12  1  0.68918600  0.89681200  0.44367100  1
  Cr  Cr13  1  0.51193600  0.73696600  0.27142700  1
  Cr  Cr14  1  0.11294300  0.98597500  0.81849000  1
  Cr  Cr15  1  0.58613600  0.26425100  0.72681500  1
  Cr  Cr16  1  0.60603500  0.95159100  0.72847600  1
  Cr  Cr17  1  0.89127600  0.77749500  0.95326700  1
  Cr  Cr18  1  0.06976600  0.92074500  0.50433600  1
  Cr  Cr19  1  0.11885500  0.59881500  0.92127100  1
  Cr  Cr20  1  0.25398100  0.77609800  0.08751400  1
  Cr  Cr21  1  0.98318500  0.43937400  0.47510200  1
  Cr  Cr22  1  0.08553400  0.06174300  0.13374300  1
  Cr  Cr23  1  0.67407900  0.29280600  0.04138400  1
  Cr  Cr24  1  0.85598100  0.05375800  0.91302500  1
  Cr  Cr25  1  0.55758200  0.63747000  0.65220300  1
  Cr  Cr26  1  0.75848600  0.59988800  0.19370400  1
  Cr  Cr27  1  0.29937400  0.11030400  0.62209800  1
  Cr  Cr28  1  0.39757000  0.14384400  0.00527200  1
  Cr  Cr29  1  0.21197600  0.26605800  0.35499400  1
  Cr  Cr30  1  0.87764400  0.18559400  0.59886600  1
  Cr  Cr31  1  0.55409800  0.19172400  0.37534100  1
  O  O32  1  0.19192100  0.48259800  0.78788500  1
  O  O33  1  0.48827800  0.09769800  0.66155600  1
  O  O34  1  0.93567900  0.91405300  0.81598200  1
  O  O35  1  0.04658600  0.12669500  0.92565500  1
  O  O36  1  0.73690800  0.65697100  0.99949600  1
  O  O37  1  0.05694000  0.06983700  0.62442000  1
  O  O38  1  0.20554400  0.79995100  0.87911800  1
  O  O39  1  0.69441800  0.79765500  0.21656700  1
  O  O40  1  0.27990200  0.92134000  0.55913800  1
  O  O41  1  0.27510500  0.10726600  0.82283500  1
  O  O42  1  0.57313500  0.54262600  0.22077100  1
  O  O43  1  0.24649100  0.29222100  0.57636000  1
  O  O44  1  0.52362100  0.24611600  0.16908300  1
  O  O45  1  0.11662000  0.03309400  0.33981800  1
  O  O46  1  0.03477700  0.35660600  0.32690400  1
  O  O47  1  0.93789700  0.64612700  0.80271900  1
  O  O48  1  0.31170100  0.31521100  0.98769600  1
  O  O49  1  0.30797900  0.74590900  0.29471500  1
  O  O50  1  0.44483900  0.81352000  0.08468500  1
  O  O51  1  0.47372600  0.44115200  0.70833800  1
  O  O52  1  0.81724500  0.32793400  0.46291300  1
  O  O53  1  0.83434600  0.17219700  0.08168800  1
  O  O54  1  0.16246000  0.52647800  0.49250100  1
  O  O55  1  0.71789000  0.36247600  0.86187500  1
  O  O56  1  0.88158300  0.85942200  0.46802500  1
  O  O57  1  0.32943100  0.41938000  0.30980400  1
  O  O58  1  0.08963800  0.75846600  0.61906000  1
  O  O59  1  0.35721600  0.65316600  0.60468300  1
  O  O60  1  0.01656000  0.41752600  0.95758300  1
  O  O61  1  0.53310100  0.61253500  0.45116200  1
  O  O62  1  0.67523800  0.81169300  0.62431100  1
  O  O63  1  0.74804600  0.12398200  0.72335900  1
  O  O64  1  0.74064400  0.54594400  0.63967300  1
  O  O65  1  0.26229000  0.98611700  0.13174100  1
  O  O66  1  0.50264400  0.90711500  0.36082700  1
  O  O67  1  0.05635200  0.69759900  0.06273900  1
  O  O68  1  0.49127800  0.79412900  0.79678100  1
  O  O69  1  0.55304500  0.17927200  0.91861100  1
  O  O70  1  0.92730800  0.93158600  0.08599300  1
  O  O71  1  0.14700300  0.24164900  0.16055100  1
  O  O72  1  0.79837000  0.41821900  0.15195800  1
  O  O73  1  0.84977800  0.58521800  0.41091700  1
  O  O74  1  0.29062400  0.58341700  0.05152300  1
  O  O75  1  0.71545300  0.07768300  0.37286800  1
  O  O76  1  0.71418600  0.91012700  0.90814700  1
  O  O77  1  0.57686100  0.31527500  0.51749900  1
  O  O78  1  0.96770100  0.33462400  0.70381700  1
  O  O79  1  0.36466100  0.13782000  0.40273000  1
