# generated using pymatgen
data_BaO
_symmetry_space_group_name_H-M   'P 1'
_cell_length_a   14.35922313
_cell_length_b   13.08705464
_cell_length_c   13.93636422
_cell_angle_alpha   93.11453972
_cell_angle_beta   91.53750612
_cell_angle_gamma   92.73351364
_symmetry_Int_Tables_number   1
_chemical_formula_structural   BaO
_chemical_formula_sum   'Ba50 O50'
_cell_volume   2610.93999837
_cell_formula_units_Z   50
loop_
 _symmetry_equiv_pos_site_id
 _symmetry_equiv_pos_as_xyz
  1  'x, y, z'
loop_
 _atom_site_type_symbol
 _atom_site_label
 _atom_site_symmetry_multiplicity
 _atom_site_fract_x
 _atom_site_fract_y
 _atom_site_fract_z
 _atom_site_occupancy
  Ba  Ba0  1  0.51332245  0.36056775  0.75062716  1
  Ba  Ba1  1  0.12252408  0.67459020  0.64931148  1
  Ba  Ba2  1  0.78481563  0.11707249  0.16550636  1
  Ba  Ba3  1  0.24717608  0.67407320  0.17011233  1
  Ba  Ba4  1  0.22691355  0.97944945  0.21908373  1
  Ba  Ba5  1  0.71323587  0.06313995  0.72586136  1
  Ba  Ba6  1  0.46000039  0.64481762  0.53541429  1
  Ba  Ba7  1  0.02408480  0.98945961  0.08597832  1
  Ba  Ba8  1  0.94098196  0.48463301  0.70987914  1
  Ba  Ba9  1  0.04838303  0.97804284  0.75189007  1
  Ba  Ba10  1  0.77103925  0.77618680  0.20833588  1
  Ba  Ba11  1  0.30276312  0.16965608  0.44421607  1
  Ba  Ba12  1  0.56120242  0.85329081  0.76777601  1
  Ba  Ba13  1  0.12104422  0.48856354  0.91441900  1
  Ba  Ba14  1  0.71384684  0.32760222  0.62571325  1
  Ba  Ba15  1  0.48456922  0.11909674  0.23047287  1
  Ba  Ba16  1  0.22920532  0.15777905  0.99452160  1
  Ba  Ba17  1  0.95344773  0.96987744  0.37106933  1
  Ba  Ba18  1  0.01622108  0.25743639  0.20883881  1
  Ba  Ba19  1  0.68808225  0.89719221  0.49554679  1
  Ba  Ba20  1  0.68009697  0.61072679  0.68106495  1
  Ba  Ba21  1  0.82380813  0.98504455  0.93985989  1
  Ba  Ba22  1  0.59005892  0.89907283  0.05230211  1
  Ba  Ba23  1  0.25642254  0.36493164  0.19784663  1
  Ba  Ba24  1  0.86501415  0.76961069  0.76515501  1
  Ba  Ba25  1  0.48437872  0.05911682  0.57041708  1
  Ba  Ba26  1  0.28452412  0.02789793  0.74289414  1
  Ba  Ba27  1  0.99537589  0.58142595  0.25978711  1
  Ba  Ba28  1  0.91065879  0.13121527  0.59406786  1
  Ba  Ba29  1  0.35287853  0.89678573  0.99513533  1
  Ba  Ba30  1  0.52142413  0.60681595  0.19765550  1
  Ba  Ba31  1  0.22672702  0.57075764  0.41666389  1
  Ba  Ba32  1  0.78517823  0.25215896  0.39672235  1
  Ba  Ba33  1  0.35989217  0.45658468  0.96724358  1
  Ba  Ba34  1  0.60861392  0.61753921  0.92174278  1
  Ba  Ba35  1  0.74589871  0.44916460  0.18765334  1
  Ba  Ba36  1  0.92987189  0.75739001  0.51323227  1
  Ba  Ba37  1  0.30135793  0.84829517  0.50655870  1
  Ba  Ba38  1  0.00615406  0.43270976  0.46325838  1
  Ba  Ba39  1  0.11394097  0.78606379  0.91956019  1
  Ba  Ba40  1  0.74815225  0.55836493  0.43305681  1
  Ba  Ba41  1  0.52454760  0.33812715  0.11388523  1
  Ba  Ba42  1  0.73732592  0.35102883  0.90116938  1
  Ba  Ba43  1  0.49523039  0.38111392  0.41982217  1
  Ba  Ba44  1  0.90610332  0.60800528  0.97664080  1
  Ba  Ba45  1  0.35315444  0.69762236  0.78415660  1
  Ba  Ba46  1  0.98428434  0.22753782  0.89357900  1
  Ba  Ba47  1  0.27308496  0.44141942  0.64513567  1
  Ba  Ba48  1  0.44932714  0.84829278  0.30819019  1
  Ba  Ba49  1  0.52427076  0.12567768  0.89615351  1
  O  O50  1  0.46115070  0.01768735  0.74801941  1
  O  O51  1  0.49129192  0.85324407  0.50336341  1
  O  O52  1  0.50757019  0.65035265  0.71261801  1
  O  O53  1  0.71585317  0.85085130  0.66530873  1
  O  O54  1  0.15031897  0.15787116  0.16223719  1
  O  O55  1  0.31530254  0.72157422  0.35480270  1
  O  O56  1  0.29924999  0.03769610  0.56850796  1
  O  O57  1  0.29360269  0.66850479  0.59972749  1
  O  O58  1  0.37576443  0.02799787  0.34727109  1
  O  O59  1  0.44331867  0.24105011  0.53883719  1
  O  O60  1  0.61040102  0.50418799  0.06628070  1
  O  O61  1  0.90232794  0.14806655  0.31521604  1
  O  O62  1  0.34164786  0.83317796  0.15339676  1
  O  O63  1  0.20674106  0.84714328  0.76598506  1
  O  O64  1  0.10191922  0.63040209  0.03769327  1
  O  O65  1  0.27986504  0.52561674  0.81888251  1
  O  O66  1  0.76716800  0.68691527  0.88040606  1
  O  O67  1  0.01693215  0.64710122  0.80056296  1
  O  O68  1  0.49430261  0.77625366  0.92502286  1
  O  O69  1  0.05936331  0.91763361  0.24728713  1
  O  O70  1  0.45374085  0.05272451  0.05356461  1
  O  O71  1  0.47519824  0.31926052  0.92067745  1
  O  O72  1  0.65377930  0.99194366  0.89040885  1
  O  O73  1  0.21395776  0.35478483  0.01069753  1
  O  O74  1  0.04932114  0.63435216  0.44798259  1
  O  O75  1  0.65320495  0.23888439  0.19412876  1
  O  O76  1  0.91618899  0.41479978  0.88706093  1
  O  O77  1  0.41043252  0.28252555  0.25505735  1
  O  O78  1  0.35570291  0.52584866  0.14468202  1
  O  O79  1  0.66829191  0.46166215  0.78895376  1
  O  O80  1  0.87641039  0.32103154  0.55392770  1
  O  O81  1  0.64150380  0.23408950  0.77375876  1
  O  O82  1  0.88094960  0.11761247  0.77382388  1
  O  O83  1  0.91470627  0.15446301  0.04723959  1
  O  O84  1  0.85164769  0.61652611  0.61329687  1
  O  O85  1  0.98276173  0.95093026  0.56610652  1
  O  O86  1  0.35980604  0.47398448  0.48563920  1
  O  O87  1  0.13520958  0.13134472  0.83400197  1
  O  O88  1  0.77338965  0.93358431  0.10470650  1
  O  O89  1  0.59430527  0.79156324  0.20591427  1
  O  O90  1  0.81505832  0.81225168  0.38962172  1
  O  O91  1  0.86100446  0.44589213  0.33986333  1
  O  O92  1  0.63491532  0.46764230  0.54357612  1
  O  O93  1  0.18661919  0.95559759  0.02806091  1
  O  O94  1  0.96916495  0.88844305  0.89221586  1
  O  O95  1  0.73389307  0.10577068  0.53551458  1
  O  O96  1  0.85433046  0.60496556  0.15120046  1
  O  O97  1  0.10708532  0.47456291  0.62337006  1
  O  O98  1  0.62305848  0.50531750  0.30505466  1
  O  O99  1  0.10698713  0.42613923  0.29626034  1
