# generated using pymatgen
data_Ca7OsN6
_symmetry_space_group_name_H-M   'P 1'
_cell_length_a   11.04632993
_cell_length_b   6.31269638
_cell_length_c   13.36048490
_cell_angle_alpha   90.00000000
_cell_angle_beta   90.00000000
_cell_angle_gamma   90.00000000
_symmetry_Int_Tables_number   1
_chemical_formula_structural   Ca7OsN6
_chemical_formula_sum   'Ca28 Os4 N24'
_cell_volume   931.65502931
_cell_formula_units_Z   4
loop_
 _symmetry_equiv_pos_site_id
 _symmetry_equiv_pos_as_xyz
  1  'x, y, z'
loop_
 _atom_site_type_symbol
 _atom_site_label
 _atom_site_symmetry_multiplicity
 _atom_site_fract_x
 _atom_site_fract_y
 _atom_site_fract_z
 _atom_site_occupancy
  Ca  Ca0  1  0.03587580  0.72591078  0.98159920  1
  Ca  Ca1  1  0.46412420  0.77408922  0.48159920  1
  Ca  Ca2  1  0.53587580  0.77408922  0.01840080  1
  Ca  Ca3  1  0.96412420  0.72591078  0.51840080  1
  Ca  Ca4  1  0.96412420  0.27408922  0.01840080  1
  Ca  Ca5  1  0.53587580  0.22591078  0.51840080  1
  Ca  Ca6  1  0.46412420  0.22591078  0.98159920  1
  Ca  Ca7  1  0.03587580  0.27408922  0.48159920  1
  Ca  Ca8  1  0.22267918  0.86779840  0.62928586  1
  Ca  Ca9  1  0.27732082  0.63220160  0.12928586  1
  Ca  Ca10  1  0.72267918  0.63220160  0.37071414  1
  Ca  Ca11  1  0.77732082  0.86779840  0.87071414  1
  Ca  Ca12  1  0.77732082  0.13220160  0.37071414  1
  Ca  Ca13  1  0.72267918  0.36779840  0.87071414  1
  Ca  Ca14  1  0.27732082  0.36779840  0.62928586  1
  Ca  Ca15  1  0.22267918  0.13220160  0.12928586  1
  Ca  Ca16  1  0.28980021  0.59959209  0.88839528  1
  Ca  Ca17  1  0.21019979  0.90040791  0.38839528  1
  Ca  Ca18  1  0.78980021  0.90040791  0.11160472  1
  Ca  Ca19  1  0.71019979  0.59959209  0.61160472  1
  Ca  Ca20  1  0.71019979  0.40040791  0.11160472  1
  Ca  Ca21  1  0.78980021  0.09959209  0.61160472  1
  Ca  Ca22  1  0.21019979  0.09959209  0.88839528  1
  Ca  Ca23  1  0.28980021  0.40040791  0.38839528  1
  Ca  Ca24  1  -0.00000000  0.43614735  0.75000000  1
  Ca  Ca25  1  0.50000000  0.06385265  0.25000000  1
  Ca  Ca26  1  -0.00000000  0.56385265  0.25000000  1
  Ca  Ca27  1  0.50000000  0.93614735  0.75000000  1
  Os  Os28  1  -0.00000000  0.92624604  0.75000000  1
  Os  Os29  1  0.50000000  0.57375396  0.25000000  1
  Os  Os30  1  -0.00000000  0.07375396  0.25000000  1
  Os  Os31  1  0.50000000  0.42624604  0.75000000  1
  N  N32  1  0.12896694  0.74227723  0.79903459  1
  N  N33  1  0.37103306  0.75772277  0.29903459  1
  N  N34  1  0.62896694  0.75772277  0.20096541  1
  N  N35  1  0.87103306  0.74227723  0.70096541  1
  N  N36  1  0.87103306  0.25772277  0.20096541  1
  N  N37  1  0.62896694  0.24227723  0.70096541  1
  N  N38  1  0.37103306  0.24227723  0.79903459  1
  N  N39  1  0.12896694  0.25772277  0.29903459  1
  N  N40  1  0.16777963  0.59500523  0.51282728  1
  N  N41  1  0.33222037  0.90499477  0.01282728  1
  N  N42  1  0.66777963  0.90499477  0.48717272  1
  N  N43  1  0.83222037  0.59500523  0.98717272  1
  N  N44  1  0.83222037  0.40499477  0.48717272  1
  N  N45  1  0.66777963  0.09500523  0.98717272  1
  N  N46  1  0.33222037  0.09500523  0.51282728  1
  N  N47  1  0.16777963  0.40499477  0.01282728  1
  N  N48  1  0.46896878  0.60462613  0.63672397  1
  N  N49  1  0.03103122  0.89537387  0.13672397  1
  N  N50  1  0.96896878  0.89537387  0.36327603  1
  N  N51  1  0.53103122  0.60462613  0.86327603  1
  N  N52  1  0.53103122  0.39537387  0.36327603  1
  N  N53  1  0.96896878  0.10462613  0.86327603  1
  N  N54  1  0.03103122  0.10462613  0.63672397  1
  N  N55  1  0.46896878  0.39537387  0.13672397  1
