# generated using pymatgen
data_Fe2O3
_symmetry_space_group_name_H-M   'P 1'
_cell_length_a   10.32960206
_cell_length_b   10.33518529
_cell_length_c   10.03799652
_cell_angle_alpha   85.59534357
_cell_angle_beta   83.42412518
_cell_angle_gamma   84.45694404
_symmetry_Int_Tables_number   1
_chemical_formula_structural   Fe2O3
_chemical_formula_sum   'Fe32 O48'
_cell_volume   1057.26714732
_cell_formula_units_Z   16
loop_
 _symmetry_equiv_pos_site_id
 _symmetry_equiv_pos_as_xyz
  1  'x, y, z'
loop_
 _atom_site_type_symbol
 _atom_site_label
 _atom_site_symmetry_multiplicity
 _atom_site_fract_x
 _atom_site_fract_y
 _atom_site_fract_z
 _atom_site_occupancy
  Fe  Fe0  1  0.33879700  0.59738900  0.95016700  1
  Fe  Fe1  1  0.51952000  0.36661600  0.86469300  1
  Fe  Fe2  1  0.53679000  0.82623600  0.84558200  1
  Fe  Fe3  1  0.88672700  0.11684800  0.44762000  1
  Fe  Fe4  1  0.49777500  0.40763900  0.21389500  1
  Fe  Fe5  1  0.43376500  0.55083600  0.50281900  1
  Fe  Fe6  1  0.53387800  0.08519200  0.80509100  1
  Fe  Fe7  1  0.69272000  0.57024100  0.98497400  1
  Fe  Fe8  1  0.10438500  0.59488600  0.46762300  1
  Fe  Fe9  1  0.16382000  0.65891400  0.73100000  1
  Fe  Fe10  1  0.89630900  0.73768000  0.30506900  1
  Fe  Fe11  1  0.29709800  0.36543900  0.74492600  1
  Fe  Fe12  1  0.77281500  0.33894000  0.72037900  1
  Fe  Fe13  1  0.24572000  0.29110400  0.42192700  1
  Fe  Fe14  1  0.07509300  0.14797700  0.16022200  1
  Fe  Fe15  1  0.03904000  0.92006400  0.68355900  1
  Fe  Fe16  1  0.05670000  0.23045400  0.71008100  1
  Fe  Fe17  1  0.80757800  0.62019300  0.68828500  1
  Fe  Fe18  1  0.36889000  0.85847000  0.64784700  1
  Fe  Fe19  1  0.23975600  0.09479700  0.89505000  1
  Fe  Fe20  1  0.57813800  0.78292900  0.35200100  1
  Fe  Fe21  1  0.85193300  0.42973600  0.17940400  1
  Fe  Fe22  1  0.42309000  0.72800500  0.16068200  1
  Fe  Fe23  1  0.62661000  0.14538300  0.29627800  1
  Fe  Fe24  1  0.69572300  0.93157600  0.09345700  1
  Fe  Fe25  1  0.97912600  0.88849900  0.98447100  1
  Fe  Fe26  1  0.83326400  0.14458500  0.95480500  1
  Fe  Fe27  1  0.90958100  0.40195600  0.44418800  1
  Fe  Fe28  1  0.17159500  0.91156900  0.37385500  1
  Fe  Fe29  1  0.38258800  0.06094800  0.21708300  1
  Fe  Fe30  1  0.03021100  0.41590300  0.93950800  1
  Fe  Fe31  1  0.72066700  0.90437800  0.57676300  1
  O  O32  1  0.78619400  0.47220200  0.57810800  1
  O  O33  1  0.87672200  0.83693100  0.14317000  1
  O  O34  1  0.68278200  0.48415300  0.82596600  1
  O  O35  1  0.92262400  0.23981300  0.58289400  1
  O  O36  1  0.85157800  0.28349200  0.32970300  1
  O  O37  1  0.71352700  0.06825200  0.44445200  1
  O  O38  1  0.35554200  0.95190200  0.82529600  1
  O  O39  1  0.39507900  0.21495900  0.83665400  1
  O  O40  1  0.01907400  0.32964300  0.11541500  1
  O  O41  1  0.00399200  0.62520800  0.63935300  1
  O  O42  1  0.48568700  0.21302400  0.19647400  1
  O  O43  1  0.56079700  0.96362900  0.96172300  1
  O  O44  1  0.10579100  0.05621300  0.76009700  1
  O  O45  1  0.09629900  0.42202900  0.40951700  1
  O  O46  1  0.66965800  0.20535500  0.81330600  1
  O  O47  1  0.45560300  0.44004500  0.67249600  1
  O  O48  1  0.21811100  0.28213500  0.61160700  1
  O  O49  1  0.01608300  0.06504700  0.01638800  1
  O  O50  1  0.90662100  0.29941900  0.84687900  1
  O  O51  1  0.56145800  0.97838000  0.27640400  1
  O  O52  1  0.33531300  0.87655400  0.26198500  1
  O  O53  1  0.88356600  0.53940100  0.99984600  1
  O  O54  1  0.89581600  0.96158300  0.58371400  1
  O  O55  1  0.06767700  0.75671900  0.36298300  1
  O  O56  1  0.67478600  0.44151900  0.12965000  1
  O  O57  1  0.70515000  0.77830900  0.74311200  1
  O  O58  1  0.38228500  0.39947200  0.38644500  1
  O  O59  1  0.60383700  0.30940500  0.36352500  1
  O  O60  1  0.05673900  0.79448600  0.83343400  1
  O  O61  1  0.26819600  0.68377600  0.09957300  1
  O  O62  1  0.74238400  0.11461700  0.12683500  1
  O  O63  1  0.15012200  0.27521800  0.86241500  1
  O  O64  1  0.51700200  0.67822900  0.97112800  1
  O  O65  1  0.19981400  0.87555500  0.56555900  1
  O  O66  1  0.82356000  0.96803700  0.91183400  1
  O  O67  1  0.47517300  0.74388100  0.52200400  1
  O  O68  1  0.26095200  0.11632900  0.36654900  1
  O  O69  1  0.19041000  0.51271300  0.86293500  1
  O  O70  1  0.02903100  0.04184700  0.32268500  1
  O  O71  1  0.74513200  0.78715100  0.42933800  1
  O  O72  1  0.25351200  0.10258100  0.08675200  1
  O  O73  1  0.88392900  0.55332800  0.30520300  1
  O  O74  1  0.25188400  0.58714800  0.56207800  1
  O  O75  1  0.54490600  0.96300200  0.65987900  1
  O  O76  1  0.42810500  0.44009100  0.03271100  1
  O  O77  1  0.33791800  0.70979300  0.77534600  1
  O  O78  1  0.62669200  0.76483600  0.16022300  1
  O  O79  1  0.48444800  0.60807600  0.30901300  1
