# generated using pymatgen
data_TiO2
_symmetry_space_group_name_H-M   'P 1'
_cell_length_a   10.41933837
_cell_length_b   9.86497093
_cell_length_c   10.43780730
_cell_angle_alpha   90.22539922
_cell_angle_beta   89.68104593
_cell_angle_gamma   94.00703458
_symmetry_Int_Tables_number   1
_chemical_formula_structural   TiO2
_chemical_formula_sum   'Ti30 O60'
_cell_volume   1070.21938526
_cell_formula_units_Z   30
loop_
 _symmetry_equiv_pos_site_id
 _symmetry_equiv_pos_as_xyz
  1  'x, y, z'
loop_
 _atom_site_type_symbol
 _atom_site_label
 _atom_site_symmetry_multiplicity
 _atom_site_fract_x
 _atom_site_fract_y
 _atom_site_fract_z
 _atom_site_occupancy
  Ti  Ti0  1  0.36168300  0.28274800  0.33354200  1
  Ti  Ti1  1  0.75097700  0.04608200  0.54410300  1
  Ti  Ti2  1  0.53527500  0.74004800  0.48285400  1
  Ti  Ti3  1  0.81197900  0.77654500  0.28257500  1
  Ti  Ti4  1  0.33339800  0.49325700  0.11418900  1
  Ti  Ti5  1  0.55939200  0.99335100  0.21966700  1
  Ti  Ti6  1  0.03695700  0.54370800  0.28059100  1
  Ti  Ti7  1  0.58153500  0.53328800  0.91188200  1
  Ti  Ti8  1  0.79442700  0.56595600  0.63430300  1
  Ti  Ti9  1  0.58154400  0.32936500  0.62411200  1
  Ti  Ti10  1  0.29798700  0.11218300  0.11090300  1
  Ti  Ti11  1  0.01937600  0.34656000  0.53697900  1
  Ti  Ti12  1  0.13238700  0.46120600  0.83195600  1
  Ti  Ti13  1  0.24232600  0.85312900  0.71148900  1
  Ti  Ti14  1  0.99516800  0.22634300  0.06323200  1
  Ti  Ti15  1  0.42748600  0.80671700  0.94836600  1
  Ti  Ti16  1  0.80547400  0.24641600  0.33642700  1
  Ti  Ti17  1  0.25527600  0.20941200  0.59992100  1
  Ti  Ti18  1  0.43529800  0.10791400  0.80831100  1
  Ti  Ti19  1  0.59872500  0.46817700  0.35823200  1
  Ti  Ti20  1  0.78429300  0.94728400  0.03462700  1
  Ti  Ti21  1  0.99106200  0.81446000  0.49778700  1
  Ti  Ti22  1  0.98531600  0.09939800  0.79089800  1
  Ti  Ti23  1  0.31007500  0.94204200  0.41365000  1
  Ti  Ti24  1  0.05748200  0.78900600  0.93412900  1
  Ti  Ti25  1  0.63709600  0.26305500  0.03357200  1
  Ti  Ti26  1  0.08528900  0.91391900  0.22696000  1
  Ti  Ti27  1  0.25490700  0.56361300  0.56802600  1
  Ti  Ti28  1  0.87687300  0.52369100  0.03217300  1
  Ti  Ti29  1  0.65980800  0.80356300  0.74418500  1
  O  O30  1  0.07953900  0.96757200  0.84804500  1
  O  O31  1  0.02070400  0.74157500  0.32648500  1
  O  O32  1  0.68227100  0.85284900  0.18341400  1
  O  O33  1  0.68753300  0.09397100  0.37166300  1
  O  O34  1  0.25850800  0.80583900  0.89294800  1
  O  O35  1  0.41181500  0.26673700  0.69473500  1
  O  O36  1  0.67739800  0.09849600  0.11112600  1
  O  O37  1  0.25262900  0.45974700  0.94688400  1
  O  O38  1  0.71907700  0.59936100  0.99485600  1
  O  O39  1  0.45451900  0.15513200  0.22255100  1
  O  O40  1  0.45719200  0.92343100  0.79364600  1
  O  O41  1  0.19633700  0.39528400  0.65939700  1
  O  O42  1  0.64232600  0.44521800  0.76277600  1
  O  O43  1  0.21543500  0.30386900  0.43931400  1
  O  O44  1  0.64581300  0.66349400  0.35722400  1
  O  O45  1  0.10978600  0.09037200  0.11409900  1
  O  O46  1  0.93360400  0.43566500  0.65607000  1
  O  O47  1  0.89819700  0.81895900  0.97541600  1
  O  O48  1  0.84103100  0.89096600  0.44051900  1
  O  O49  1  0.67706200  0.89542900  0.90729700  1
  O  O50  1  0.49317000  0.33453800  0.45666400  1
  O  O51  1  0.35004200  0.11505700  0.45859700  1
  O  O52  1  0.12043100  0.94401500  0.41680600  1
  O  O53  1  0.11502400  0.79527100  0.09740800  1
  O  O54  1  0.64711300  0.17060900  0.62928700  1
  O  O55  1  0.01185000  0.58750700  0.91027300  1
  O  O56  1  0.48033500  0.88501700  0.35977400  1
  O  O57  1  0.07661400  0.17595500  0.63655500  1
  O  O58  1  0.27120400  0.29037400  0.16816400  1
  O  O59  1  0.52321400  0.68848600  0.83046400  1
  O  O60  1  0.00092600  0.41899200  0.11974500  1
  O  O61  1  0.89070900  0.09848000  0.96026500  1
  O  O62  1  0.04804000  0.28570700  0.87917700  1
  O  O63  1  0.21640900  0.63138500  0.72537000  1
  O  O64  1  0.07724700  0.82380900  0.65035100  1
  O  O65  1  0.88397500  0.65067200  0.50944800  1
  O  O66  1  0.79229400  0.35139300  0.99401700  1
  O  O67  1  0.90121700  0.18754400  0.20903600  1
  O  O68  1  0.32370700  0.12908500  0.93992800  1
  O  O69  1  0.90734700  0.92020200  0.19549600  1
  O  O70  1  0.68900200  0.36319200  0.25133300  1
  O  O71  1  0.27859000  0.04124500  0.68577400  1
  O  O72  1  0.87264600  0.61153200  0.19712800  1
  O  O73  1  0.70331400  0.43187300  0.51022500  1
  O  O74  1  0.95192100  0.39708400  0.36993800  1
  O  O75  1  0.58318100  0.17716800  0.88744800  1
  O  O76  1  0.85334200  0.01763200  0.69219000  1
  O  O77  1  0.45468800  0.93624800  0.07812000  1
  O  O78  1  0.80487100  0.70950700  0.75358100  1
  O  O79  1  0.44005700  0.45472400  0.26316000  1
  O  O80  1  0.31791400  0.80831900  0.54821800  1
  O  O81  1  0.62717100  0.65732800  0.60871900  1
  O  O82  1  0.11881600  0.55344300  0.46388800  1
  O  O83  1  0.42709700  0.64556300  0.05097700  1
  O  O84  1  0.51094200  0.39447200  0.01936900  1
  O  O85  1  0.62282400  0.90068100  0.58812100  1
  O  O86  1  0.87978200  0.20065400  0.49729700  1
  O  O87  1  0.27052100  0.96361200  0.23602600  1
  O  O88  1  0.41768800  0.59060900  0.48955200  1
  O  O89  1  0.20197600  0.55604100  0.20925700  1
