# generated using pymatgen
data_Al2O
_symmetry_space_group_name_H-M   'P 1'
_cell_length_a   5.60598054
_cell_length_b   5.70008150
_cell_length_c   50.17450102
_cell_angle_alpha   89.45339092
_cell_angle_beta   90.34892446
_cell_angle_gamma   59.24446406
_symmetry_Int_Tables_number   1
_chemical_formula_structural   Al2O
_chemical_formula_sum   'Al36 O18'
_cell_volume   1377.63507275
_cell_formula_units_Z   18
loop_
 _symmetry_equiv_pos_site_id
 _symmetry_equiv_pos_as_xyz
  1  'x, y, z'
loop_
 _atom_site_type_symbol
 _atom_site_label
 _atom_site_symmetry_multiplicity
 _atom_site_fract_x
 _atom_site_fract_y
 _atom_site_fract_z
 _atom_site_occupancy
  Al  Al0  1  0.49206770  0.50794820  0.00105781  1
  Al  Al1  1  0.99231431  0.50757563  0.00138147  1
  Al  Al2  1  0.49236675  0.00771858  0.00125807  1
  Al  Al3  1  0.16272650  0.17044979  0.04873842  1
  Al  Al4  1  0.16362789  0.67109989  0.04858477  1
  Al  Al5  1  0.66324628  0.67033520  0.04874861  1
  Al  Al6  1  0.66431076  0.17143861  0.04859965  1
  Al  Al7  1  0.33332500  0.33335000  0.09523900  1
  Al  Al8  1  0.33332500  0.83335000  0.09523900  1
  Al  Al9  1  0.83332500  0.83335000  0.09523900  1
  Al  Al10  1  0.83332500  0.33335000  0.09523900  1
  Al  Al11  1  0.99999200  0.50001700  0.14285800  1
  Al  Al12  1  0.49999200  0.50001700  0.14285800  1
  Al  Al13  1  0.49999200  0.00001700  0.14285800  1
  Al  Al14  1  0.99999200  0.00001700  0.14285800  1
  Al  Al15  1  0.17743745  0.16598960  0.18846013  1
  Al  Al16  1  0.67361592  0.16047340  0.18902624  1
  Al  Al17  1  0.67763125  0.66783008  0.18867271  1
  Al  Al18  1  0.17356701  0.66264116  0.18950604  1
  Al  Al19  1  0.85362624  0.33144455  0.23293560  1
  Al  Al20  1  0.35656545  0.83583829  0.23336450  1
  Al  Al21  1  0.35940324  0.33652631  0.23902165  1
  Al  Al22  1  0.85916632  0.84400718  0.24118663  1
  Al  Al23  1  0.95308850  0.42823439  0.28136545  1
  Al  Al24  1  0.50861751  0.95283535  0.29381585  1
  Al  Al25  1  0.43068885  0.44204581  0.30903535  1
  Al  Al26  1  0.97731901  0.98454031  0.32483054  1
  Al  Al27  1  0.25488704  0.70417848  0.36885511  1
  Al  Al28  1  0.78937831  0.28597273  0.38193546  1
  Al  Al29  1  0.64791947  0.83139508  0.38510122  1
  Al  Al30  1  0.22020024  0.38073061  0.41641458  1
  Al  Al31  1  0.19373991  0.93645033  0.43001344  1
  Al  Al32  1  0.09052191  0.66800350  0.47591166  1
  Al  Al33  1  0.50073109  0.07866729  0.47746807  1
  Al  Al34  1  0.81614677  0.34805493  0.48649723  1
  Al  Al35  1  0.99217305  0.00786964  0.00102645  1
  O  O36  1  0.33848711  0.32777874  0.27946306  1
  O  O37  1  0.85344317  0.79971557  0.27830960  1
  O  O38  1  0.62460537  0.59073800  0.30088831  1
  O  O39  1  0.13214093  0.10092023  0.30228025  1
  O  O40  1  0.62114699  0.10004176  0.32180506  1
  O  O41  1  0.18347003  0.63181348  0.33337212  1
  O  O42  1  0.02729788  0.05590836  0.35895274  1
  O  O43  1  0.62241211  0.59280950  0.36157169  1
  O  O44  1  0.01742210  0.64961758  0.38915786  1
  O  O45  1  0.52753177  0.19360082  0.39017829  1
  O  O46  1  0.40390993  0.77263717  0.40183323  1
  O  O47  1  0.96532783  0.25939838  0.41237035  1
  O  O48  1  0.16718217  0.64610680  0.43981817  1
  O  O49  1  0.37554118  0.09860447  0.44277992  1
  O  O50  1  0.86400695  0.03934655  0.47157922  1
  O  O51  1  0.75984941  0.68680286  0.48227528  1
  O  O52  1  0.44342333  0.44530016  0.48768279  1
  O  O53  1  0.17764073  0.18732243  0.49408729  1
