# generated using pymatgen
data_Mn3Ru8N9
_symmetry_space_group_name_H-M   'P 1'
_cell_length_a   6.06179169
_cell_length_b   8.85803700
_cell_length_c   17.27854615
_cell_angle_alpha   90.00000000
_cell_angle_beta   98.45179237
_cell_angle_gamma   90.00000000
_symmetry_Int_Tables_number   1
_chemical_formula_structural   Mn3Ru8N9
_chemical_formula_sum   'Mn12 Ru32 N36'
_cell_volume   917.70565187
_cell_formula_units_Z   4
loop_
 _symmetry_equiv_pos_site_id
 _symmetry_equiv_pos_as_xyz
  1  'x, y, z'
loop_
 _atom_site_type_symbol
 _atom_site_label
 _atom_site_symmetry_multiplicity
 _atom_site_fract_x
 _atom_site_fract_y
 _atom_site_fract_z
 _atom_site_occupancy
  Mn  Mn0  1  0.54150900  0.19301100  0.75540600  1
  Mn  Mn1  1  0.45849100  0.69301100  0.74459400  1
  Mn  Mn2  1  0.45849100  0.80698900  0.24459400  1
  Mn  Mn3  1  0.54150900  0.30698900  0.25540600  1
  Mn  Mn4  1  0.72935900  0.86729100  0.54005500  1
  Mn  Mn5  1  0.27064100  0.36729100  0.95994500  1
  Mn  Mn6  1  0.27064100  0.13270900  0.45994500  1
  Mn  Mn7  1  0.72935900  0.63270900  0.04005500  1
  Mn  Mn8  1  0.88415600  0.37825200  0.59556500  1
  Mn  Mn9  1  0.11584400  0.87825200  0.90443500  1
  Mn  Mn10  1  0.11584400  0.62174800  0.40443500  1
  Mn  Mn11  1  0.88415600  0.12174800  0.09556500  1
  Ru  Ru12  1  0.51556800  0.87491900  0.09889900  1
  Ru  Ru13  1  0.48443200  0.37491900  0.40110100  1
  Ru  Ru14  1  0.48443200  0.12508100  0.90110100  1
  Ru  Ru15  1  0.51556800  0.62508100  0.59889900  1
  Ru  Ru16  1  0.55272700  0.18554300  0.58841900  1
  Ru  Ru17  1  0.44727300  0.68554300  0.91158100  1
  Ru  Ru18  1  0.44727300  0.81445700  0.41158100  1
  Ru  Ru19  1  0.55272700  0.31445700  0.08841900  1
  Ru  Ru20  1  0.73396200  0.90363400  0.72485200  1
  Ru  Ru21  1  0.26603800  0.40363400  0.77514800  1
  Ru  Ru22  1  0.26603800  0.09636600  0.27514800  1
  Ru  Ru23  1  0.73396200  0.59636600  0.22485200  1
  Ru  Ru24  1  0.78441100  0.50056200  0.71652200  1
  Ru  Ru25  1  0.21558900  0.00056200  0.78347800  1
  Ru  Ru26  1  0.21558900  0.49943800  0.28347700  1
  Ru  Ru27  1  0.78441100  0.99943800  0.21652300  1
  Ru  Ru28  1  0.66047200  0.42006600  0.89938700  1
  Ru  Ru29  1  0.33952800  0.92006600  0.60061300  1
  Ru  Ru30  1  0.33952800  0.57993400  0.10061300  1
  Ru  Ru31  1  0.66047200  0.07993400  0.39938700  1
  Ru  Ru32  1  0.93799400  0.16210600  0.88410700  1
  Ru  Ru33  1  0.06200600  0.66210600  0.61589300  1
  Ru  Ru34  1  0.06200600  0.83789400  0.11589300  1
  Ru  Ru35  1  0.93799400  0.33789400  0.38410700  1
  Ru  Ru36  1  0.00457000  0.09695900  0.64139600  1
  Ru  Ru37  1  0.99543000  0.59695900  0.85860400  1
  Ru  Ru38  1  0.99543000  0.90304100  0.35860400  1
  Ru  Ru39  1  0.00457000  0.40304100  0.14139600  1
  Ru  Ru40  1  0.24510600  0.43043600  0.52294900  1
  Ru  Ru41  1  0.75489400  0.93043600  0.97705100  1
  Ru  Ru42  1  0.75489400  0.56956400  0.47705100  1
  Ru  Ru43  1  0.24510600  0.06956400  0.02294900  1
  N  N44  1  0.60242900  0.41119900  0.61417500  1
  N  N45  1  0.39757100  0.91119900  0.88582500  1
  N  N46  1  0.39757100  0.58880100  0.38582500  1
  N  N47  1  0.60242900  0.08880100  0.11417500  1
  N  N48  1  0.60573500  0.38742700  0.78440300  1
  N  N49  1  0.39426500  0.88742700  0.71559700  1
  N  N50  1  0.39426500  0.61257300  0.21559700  1
  N  N51  1  0.60573500  0.11257300  0.28440300  1
  N  N52  1  0.92920900  0.12848500  0.99497300  1
  N  N53  1  0.07079100  0.62848500  0.50502700  1
  N  N54  1  0.07079100  0.87151500  0.00502600  1
  N  N55  1  0.92920900  0.37151500  0.49497400  1
  N  N56  1  0.44612900  0.78653600  0.52507500  1
  N  N57  1  0.55387100  0.28653600  0.97492500  1
  N  N58  1  0.55387100  0.21346400  0.47492500  1
  N  N59  1  0.44612900  0.71346400  0.02507500  1
  N  N60  1  0.73126600  0.13388900  0.69183800  1
  N  N61  1  0.26873400  0.63388900  0.80816200  1
  N  N62  1  0.26873400  0.86611100  0.30816200  1
  N  N63  1  0.73126600  0.36611100  0.19183800  1
  N  N64  1  0.07382700  0.46434000  0.67718600  1
  N  N65  1  0.92617300  0.96434000  0.82281400  1
  N  N66  1  0.92617300  0.53566000  0.32281400  1
  N  N67  1  0.07382700  0.03566000  0.17718600  1
  N  N68  1  0.07958500  0.36636500  0.86767700  1
  N  N69  1  0.92041500  0.86636500  0.63232300  1
  N  N70  1  0.92041500  0.63363500  0.13232300  1
  N  N71  1  0.07958500  0.13363500  0.36767700  1
  N  N72  1  0.21613900  0.11627400  0.56230000  1
  N  N73  1  0.78386100  0.61627400  0.93770000  1
  N  N74  1  0.78386100  0.88372600  0.43770000  1
  N  N75  1  0.21613900  0.38372600  0.06230000  1
  N  N76  1  0.22543700  0.19280100  0.72659200  1
  N  N77  1  0.77456300  0.69280100  0.77340800  1
  N  N78  1  0.77456300  0.80719900  0.27340800  1
  N  N79  1  0.22543700  0.30719900  0.22659200  1
