# generated using pymatgen
data_Na7MnN4
_symmetry_space_group_name_H-M   'P 1'
_cell_length_a   11.84168151
_cell_length_b   11.84168151
_cell_length_c   11.84168151
_cell_angle_alpha   90.00000000
_cell_angle_beta   90.00000000
_cell_angle_gamma   90.00000000
_symmetry_Int_Tables_number   1
_chemical_formula_structural   Na7MnN4
_chemical_formula_sum   'Na56 Mn8 N32'
_cell_volume   1660.50477490
_cell_formula_units_Z   8
loop_
 _symmetry_equiv_pos_site_id
 _symmetry_equiv_pos_as_xyz
  1  'x, y, z'
loop_
 _atom_site_type_symbol
 _atom_site_label
 _atom_site_symmetry_multiplicity
 _atom_site_fract_x
 _atom_site_fract_y
 _atom_site_fract_z
 _atom_site_occupancy
  Na  Na0  1  0.00000000  -0.00000000  0.50000000  1
  Na  Na1  1  0.00000000  0.50000000  -0.00000000  1
  Na  Na2  1  0.50000000  -0.00000000  -0.00000000  1
  Na  Na3  1  0.50000000  -0.00000000  0.50000000  1
  Na  Na4  1  0.50000000  0.50000000  -0.00000000  1
  Na  Na5  1  0.00000000  0.50000000  0.50000000  1
  Na  Na6  1  0.00000000  0.50000000  0.25000000  1
  Na  Na7  1  0.50000000  0.75000000  -0.00000000  1
  Na  Na8  1  0.25000000  0.00000000  0.50000000  1
  Na  Na9  1  0.50000000  0.25000000  -0.00000000  1
  Na  Na10  1  0.75000000  -0.00000000  0.50000000  1
  Na  Na11  1  0.00000000  0.50000000  0.75000000  1
  Na  Na12  1  0.30408834  0.69591166  0.30408834  1
  Na  Na13  1  0.69591166  0.30408834  0.30408834  1
  Na  Na14  1  0.30408834  0.30408834  0.69591166  1
  Na  Na15  1  0.69591166  0.69591166  0.69591166  1
  Na  Na16  1  0.80408834  0.80408834  0.19591166  1
  Na  Na17  1  0.19591166  0.80408834  0.80408834  1
  Na  Na18  1  0.80408834  0.19591166  0.80408834  1
  Na  Na19  1  0.19591166  0.19591166  0.19591166  1
  Na  Na20  1  0.50000000  0.50000000  0.25390729  1
  Na  Na21  1  0.50000000  0.74609271  0.50000000  1
  Na  Na22  1  0.25390729  0.50000000  0.50000000  1
  Na  Na23  1  0.50000000  0.25390729  0.50000000  1
  Na  Na24  1  0.74609271  0.50000000  0.50000000  1
  Na  Na25  1  0.50000000  0.50000000  0.74609271  1
  Na  Na26  1  0.00000000  0.75390729  -0.00000000  1
  Na  Na27  1  0.00000000  0.00000000  0.24609271  1
  Na  Na28  1  0.75390729  0.00000000  -0.00000000  1
  Na  Na29  1  0.00000000  0.00000000  0.75390729  1
  Na  Na30  1  0.24609271  0.00000000  -0.00000000  1
  Na  Na31  1  0.00000000  0.24609271  -0.00000000  1
  Na  Na32  1  0.55842301  0.76341698  0.24471973  1
  Na  Na33  1  0.23658302  0.75528027  0.55842301  1
  Na  Na34  1  0.24471973  0.44157699  0.23658302  1
  Na  Na35  1  0.44157699  0.23658302  0.24471973  1
  Na  Na36  1  0.76341698  0.24471973  0.55842301  1
  Na  Na37  1  0.75528027  0.55842301  0.23658302  1
  Na  Na38  1  0.55842301  0.23658302  0.75528027  1
  Na  Na39  1  0.23658302  0.24471973  0.44157699  1
  Na  Na40  1  0.24471973  0.55842301  0.76341698  1
  Na  Na41  1  0.44157699  0.76341698  0.75528027  1
  Na  Na42  1  0.76341698  0.75528027  0.44157699  1
  Na  Na43  1  0.75528027  0.44157699  0.76341698  1
  Na  Na44  1  0.05842301  0.74471973  0.26341698  1
  Na  Na45  1  0.73658302  0.05842301  0.25528027  1
  Na  Na46  1  0.74471973  0.73658302  0.94157699  1
  Na  Na47  1  0.94157699  0.74471973  0.73658302  1
  Na  Na48  1  0.26341698  0.05842301  0.74471973  1
  Na  Na49  1  0.25528027  0.73658302  0.05842301  1
  Na  Na50  1  0.05842301  0.25528027  0.73658302  1
  Na  Na51  1  0.73658302  0.94157699  0.74471973  1
  Na  Na52  1  0.74471973  0.26341698  0.05842301  1
  Na  Na53  1  0.94157699  0.25528027  0.26341698  1
  Na  Na54  1  0.26341698  0.94157699  0.25528027  1
  Na  Na55  1  0.25528027  0.26341698  0.94157699  1
  Mn  Mn56  1  0.50000000  0.50000000  0.50000000  1
  Mn  Mn57  1  0.00000000  -0.00000000  -0.00000000  1
  Mn  Mn58  1  0.50000000  0.00000000  0.25000000  1
  Mn  Mn59  1  0.00000000  0.75000000  0.50000000  1
  Mn  Mn60  1  0.25000000  0.50000000  -0.00000000  1
  Mn  Mn61  1  0.00000000  0.25000000  0.50000000  1
  Mn  Mn62  1  0.75000000  0.50000000  -0.00000000  1
  Mn  Mn63  1  0.50000000  0.00000000  0.75000000  1
  N  N64  1  0.41509958  0.58490042  0.41509958  1
  N  N65  1  0.58490042  0.41509958  0.41509958  1
  N  N66  1  0.41509958  0.41509958  0.58490042  1
  N  N67  1  0.58490042  0.58490042  0.58490042  1
  N  N68  1  0.91509958  0.91509958  0.08490042  1
  N  N69  1  0.08490042  0.91509958  0.91509958  1
  N  N70  1  0.91509958  0.08490042  0.91509958  1
  N  N71  1  0.08490042  0.08490042  0.08490042  1
  N  N72  1  0.43687735  0.89616726  0.16274249  1
  N  N73  1  0.10383274  0.83725751  0.43687735  1
  N  N74  1  0.16274249  0.56312265  0.10383274  1
  N  N75  1  0.56312265  0.10383274  0.16274249  1
  N  N76  1  0.89616726  0.16274249  0.43687735  1
  N  N77  1  0.83725751  0.43687735  0.10383274  1
  N  N78  1  0.43687735  0.10383274  0.83725751  1
  N  N79  1  0.10383274  0.16274249  0.56312265  1
  N  N80  1  0.16274249  0.43687735  0.89616726  1
  N  N81  1  0.56312265  0.89616726  0.83725751  1
  N  N82  1  0.89616726  0.83725751  0.56312265  1
  N  N83  1  0.83725751  0.56312265  0.89616726  1
  N  N84  1  0.93687735  0.66274249  0.39616726  1
  N  N85  1  0.60383274  0.93687735  0.33725751  1
  N  N86  1  0.66274249  0.60383274  0.06312265  1
  N  N87  1  0.06312265  0.66274249  0.60383274  1
  N  N88  1  0.39616726  0.93687735  0.66274249  1
  N  N89  1  0.33725751  0.60383274  0.93687735  1
  N  N90  1  0.93687735  0.33725751  0.60383274  1
  N  N91  1  0.60383274  0.06312265  0.66274249  1
  N  N92  1  0.66274249  0.39616726  0.93687735  1
  N  N93  1  0.06312265  0.33725751  0.39616726  1
  N  N94  1  0.39616726  0.06312265  0.33725751  1
  N  N95  1  0.33725751  0.39616726  0.06312265  1
