# generated using pymatgen
data_ZnS
_symmetry_space_group_name_H-M   'P 1'
_cell_length_a   13.38728953
_cell_length_b   14.09399096
_cell_length_c   12.61785104
_cell_angle_alpha   88.28016196
_cell_angle_beta   82.70308814
_cell_angle_gamma   86.97231284
_symmetry_Int_Tables_number   1
_chemical_formula_structural   ZnS
_chemical_formula_sum   'Zn50 S50'
_cell_volume   2357.51044038
_cell_formula_units_Z   50
loop_
 _symmetry_equiv_pos_site_id
 _symmetry_equiv_pos_as_xyz
  1  'x, y, z'
loop_
 _atom_site_type_symbol
 _atom_site_label
 _atom_site_symmetry_multiplicity
 _atom_site_fract_x
 _atom_site_fract_y
 _atom_site_fract_z
 _atom_site_occupancy
  Zn  Zn0  1  0.47219952  0.50431897  0.86601483  1
  Zn  Zn1  1  0.38543585  0.14067577  0.77684982  1
  Zn  Zn2  1  0.67446729  0.33044392  0.85053870  1
  Zn  Zn3  1  0.47145744  0.09226454  0.59597886  1
  Zn  Zn4  1  0.94847908  0.88996169  0.30101173  1
  Zn  Zn5  1  0.86030498  0.60829590  0.54460190  1
  Zn  Zn6  1  0.95766465  0.15977329  0.87921681  1
  Zn  Zn7  1  0.65673783  0.70946236  0.94952793  1
  Zn  Zn8  1  0.98805990  0.35239786  0.07092107  1
  Zn  Zn9  1  0.10254190  0.16985811  0.71900081  1
  Zn  Zn10  1  0.52048431  0.32659357  0.32594582  1
  Zn  Zn11  1  0.79109838  0.54593464  0.82688372  1
  Zn  Zn12  1  0.47766639  0.07012580  0.97218750  1
  Zn  Zn13  1  0.04381593  0.10977396  0.21865277  1
  Zn  Zn14  1  0.14093629  0.65276744  0.40429929  1
  Zn  Zn15  1  0.56974069  0.31133456  0.12342551  1
  Zn  Zn16  1  0.36699269  0.25570266  0.59672157  1
  Zn  Zn17  1  0.78821348  0.13444867  0.25368689  1
  Zn  Zn18  1  0.58602628  0.08210322  0.12608759  1
  Zn  Zn19  1  0.08089078  0.90176977  0.62018944  1
  Zn  Zn20  1  0.36699731  0.80614601  0.38684164  1
  Zn  Zn21  1  0.62306513  0.87757178  0.28803960  1
  Zn  Zn22  1  0.94270798  0.05901920  0.52830324  1
  Zn  Zn23  1  0.54095205  0.92362871  0.54355025  1
  Zn  Zn24  1  0.26499118  0.36709637  0.29794300  1
  Zn  Zn25  1  0.14639441  0.11610451  0.91660692  1
  Zn  Zn26  1  0.11349871  0.82584448  0.88765021  1
  Zn  Zn27  1  0.66428838  0.46716992  0.67521982  1
  Zn  Zn28  1  0.55726460  0.26013378  0.58121726  1
  Zn  Zn29  1  0.61420918  0.95182561  0.91022685  1
  Zn  Zn30  1  0.25952036  0.69194144  0.18417618  1
  Zn  Zn31  1  0.30600721  0.64135029  0.62372132  1
  Zn  Zn32  1  0.48819457  0.98564294  0.76492779  1
  Zn  Zn33  1  0.86902509  0.52531773  0.13400228  1
  Zn  Zn34  1  0.44648981  0.19431916  0.20256061  1
  Zn  Zn35  1  0.63370660  0.76398436  0.72123759  1
  Zn  Zn36  1  0.69563879  0.43707954  0.38352657  1
  Zn  Zn37  1  0.03949042  0.57621638  0.71950539  1
  Zn  Zn38  1  0.19211121  0.41516021  0.53294504  1
  Zn  Zn39  1  0.61974947  0.54355940  0.10047164  1
  Zn  Zn40  1  0.40648734  0.54453791  0.36747103  1
  Zn  Zn41  1  0.00234731  0.25804935  0.45529621  1
  Zn  Zn42  1  0.23356532  0.43254338  0.79576008  1
  Zn  Zn43  1  0.81288196  0.79675625  0.36922100  1
  Zn  Zn44  1  0.25254231  0.22543058  0.11306438  1
  Zn  Zn45  1  0.61132780  0.68893008  0.45901744  1
  Zn  Zn46  1  0.98238662  0.49121910  0.32098377  1
  Zn  Zn47  1  0.15612510  0.55308834  0.98818993  1
  Zn  Zn48  1  0.30476616  0.80293676  0.97221376  1
  Zn  Zn49  1  0.29752878  0.88840603  0.72244391  1
  S  S50  1  0.61290880  0.60901521  0.80527182  1
  S  S51  1  0.92214107  0.14632969  0.35545197  1
  S  S52  1  0.47227630  0.92868426  0.37397626  1
  S  S53  1  0.95722472  0.87137806  0.97229792  1
  S  S54  1  0.33204394  0.36561489  0.10883725  1
  S  S55  1  0.28753997  0.19138856  0.28515864  1
  S  S56  1  0.56508810  0.48962118  0.27632229  1
  S  S57  1  0.16371565  0.70943155  0.03147113  1
  S  S58  1  0.62581314  0.17495509  0.86338449  1
  S  S59  1  0.16305043  0.57527003  0.57084767  1
  S  S60  1  0.46627766  0.83264841  0.70715325  1
  S  S61  1  0.73169304  0.08080934  0.92463112  1
  S  S62  1  0.37113635  0.38038834  0.44638530  1
  S  S63  1  0.24152524  0.93679916  0.89887010  1
  S  S64  1  0.34200452  0.55458955  0.76721977  1
  S  S65  1  0.68416004  0.81118816  0.54259584  1
  S  S66  1  0.07747669  0.95403564  0.17187582  1
  S  S67  1  0.84423545  0.41796025  0.27226240  1
  S  S68  1  0.32130336  0.15108782  0.95525101  1
  S  S69  1  0.96583300  0.64124535  0.39143694  1
  S  S70  1  0.85801664  0.28474306  0.99238095  1
  S  S71  1  0.72034946  0.83171669  0.84795207  1
  S  S72  1  0.85323005  0.06024134  0.81131936  1
  S  S73  1  0.04275537  0.49055206  0.13013967  1
  S  S74  1  0.57861951  0.42310522  0.98858830  1
  S  S75  1  0.16195227  0.05259017  0.59144282  1
  S  S76  1  0.65332460  0.27512542  0.42037492  1
  S  S77  1  0.09550235  0.37931678  0.39625230  1
  S  S78  1  0.80466787  0.39994042  0.74958939  1
  S  S79  1  0.70358360  0.54889492  0.51613121  1
  S  S80  1  0.74984384  0.24729115  0.12077188  1
  S  S81  1  0.77881422  0.58989168  0.01132937  1
  S  S82  1  0.69113028  0.72634463  0.28586758  1
  S  S83  1  0.43013071  0.67125140  0.47805056  1
  S  S84  1  0.21335271  0.79455673  0.32912926  1
  S  S85  1  0.08840032  0.21207464  0.08101506  1
  S  S86  1  0.53990557  0.70644828  0.10272761  1
  S  S87  1  0.20864970  0.30856239  0.67808021  1
  S  S88  1  0.95769564  0.19499444  0.61778350  1
  S  S89  1  0.99386634  0.99200212  0.03763859  1
  S  S90  1  0.25764215  0.55104526  0.28961445  1
  S  S91  1  0.16865919  0.78442867  0.70491802  1
  S  S92  1  0.31160881  -0.00000653  0.58127341  1
  S  S93  1  0.71360700  0.00276710  0.20242938  1
  S  S94  1  0.88768801  0.64981549  0.71041367  1
  S  S95  1  0.53894745  0.36070077  0.72439572  1
  S  S96  1  0.07054248  0.48168112  0.86140579  1
  S  S97  1  0.94472355  0.90368186  0.53774835  1
  S  S98  1  0.31071186  0.45345438  0.97656265  1
  S  S99  1  0.40134318  0.68826050  0.04546168  1
