# generated using pymatgen
data_ZnS
_symmetry_space_group_name_H-M   'P 1'
_cell_length_a   13.74651408
_cell_length_b   13.69386212
_cell_length_c   12.89578490
_cell_angle_alpha   93.15602931
_cell_angle_beta   89.23443083
_cell_angle_gamma   93.79705151
_symmetry_Int_Tables_number   1
_chemical_formula_structural   ZnS
_chemical_formula_sum   'Zn50 S50'
_cell_volume   2418.42205366
_cell_formula_units_Z   50
loop_
 _symmetry_equiv_pos_site_id
 _symmetry_equiv_pos_as_xyz
  1  'x, y, z'
loop_
 _atom_site_type_symbol
 _atom_site_label
 _atom_site_symmetry_multiplicity
 _atom_site_fract_x
 _atom_site_fract_y
 _atom_site_fract_z
 _atom_site_occupancy
  Zn  Zn0  1  0.31720923  0.70381860  0.32963752  1
  Zn  Zn1  1  0.49109333  0.45833284  0.39041208  1
  Zn  Zn2  1  0.86515860  0.98732270  0.72505166  1
  Zn  Zn3  1  0.61526224  0.19737651  0.17845792  1
  Zn  Zn4  1  0.25139348  0.00643903  0.41546986  1
  Zn  Zn5  1  0.50497728  0.95600488  0.23578742  1
  Zn  Zn6  1  0.76343667  0.98920349  0.27004669  1
  Zn  Zn7  1  0.28740179  0.10093650  0.25698870  1
  Zn  Zn8  1  0.66037464  0.44931127  0.76346480  1
  Zn  Zn9  1  0.76891074  0.73972972  0.16656129  1
  Zn  Zn10  1  0.55827370  0.18738405  0.95233551  1
  Zn  Zn11  1  0.60124814  0.77745010  0.97319798  1
  Zn  Zn12  1  0.13781794  0.33796534  0.52436872  1
  Zn  Zn13  1  0.73832247  0.23644576  0.91617925  1
  Zn  Zn14  1  0.73909124  0.90346777  0.82181192  1
  Zn  Zn15  1  0.53779782  0.58452377  0.12977026  1
  Zn  Zn16  1  0.29955445  0.70529469  0.85621294  1
  Zn  Zn17  1  0.12009681  0.10739866  0.65742076  1
  Zn  Zn18  1  0.27881444  0.19370879  0.95696102  1
  Zn  Zn19  1  0.89289746  0.53526741  0.77225495  1
  Zn  Zn20  1  0.37637791  0.94712916  0.97580996  1
  Zn  Zn21  1  0.21923127  0.93795621  0.75664439  1
  Zn  Zn22  1  0.61840083  0.52872663  0.60121964  1
  Zn  Zn23  1  0.38413072  0.78098293  0.64095407  1
  Zn  Zn24  1  0.81299475  0.65876788  0.48594136  1
  Zn  Zn25  1  0.07654724  0.70574987  0.05204825  1
  Zn  Zn26  1  0.51482908  0.45547925  0.90062353  1
  Zn  Zn27  1  0.87349552  0.15913649  0.43636232  1
  Zn  Zn28  1  0.89843794  0.28431235  0.72014718  1
  Zn  Zn29  1  0.47888703  0.35935212  0.73808444  1
  Zn  Zn30  1  0.76058235  0.62526492  0.71889663  1
  Zn  Zn31  1  0.40042626  0.14583713  0.68691086  1
  Zn  Zn32  1  0.91202044  0.12791459  0.14463620  1
  Zn  Zn33  1  0.45810073  0.26073224  0.11567213  1
  Zn  Zn34  1  0.52426815  0.66598859  0.69515701  1
  Zn  Zn35  1  0.49835329  0.84841934  0.77178979  1
  Zn  Zn36  1  0.66264775  0.10671371  0.78767016  1
  Zn  Zn37  1  0.31115052  0.46841984  0.39834097  1
  Zn  Zn38  1  0.09303538  0.55933739  0.87029922  1
  Zn  Zn39  1  0.21570733  0.87621010  0.23083054  1
  Zn  Zn40  1  0.93853433  0.52615334  0.11360197  1
  Zn  Zn41  1  0.56772024  0.72565090  0.41475838  1
  Zn  Zn42  1  0.28515054  0.46208192  0.06124608  1
  Zn  Zn43  1  0.97998829  0.73653662  0.30757359  1
  Zn  Zn44  1  0.05023143  0.59891368  0.56506700  1
  Zn  Zn45  1  0.11727902  0.47043941  0.27811949  1
  Zn  Zn46  1  0.00654990  0.08941716  0.88835210  1
  Zn  Zn47  1  0.08669711  0.29488221  0.05963138  1
  Zn  Zn48  1  0.66702467  0.23990222  0.60979003  1
  Zn  Zn49  1  0.43780949  0.54600132  0.55089611  1
  S  S50  1  0.43337014  0.79410285  0.93996021  1
  S  S51  1  0.81795710  0.24228554  0.07770731  1
  S  S52  1  0.97292115  0.71724545  0.49055732  1
  S  S53  1  0.24827577  0.01970127  0.91434517  1
  S  S54  1  0.26662559  0.54091662  0.23651474  1
  S  S55  1  0.04224692  0.98479432  0.74888061  1
  S  S56  1  0.06093206  0.82558219  0.17567688  1
  S  S57  1  0.86451847  0.62321560  0.23597343  1
  S  S58  1  0.68099492  0.07289566  0.60185619  1
  S  S59  1  0.04643454  0.24217938  0.62344196  1
  S  S60  1  0.95325839  0.60957791  0.96383287  1
  S  S61  1  0.68613694  0.93127176  0.00510956  1
  S  S62  1  0.22865910  0.77202715  0.71656337  1
  S  S63  1  0.45641012  0.44099867  0.06786141  1
  S  S64  1  0.65816733  0.74290287  0.78841539  1
  S  S65  1  0.00235525  0.39128647  0.17925490  1
  S  S66  1  0.80334836  0.90358844  0.10206101  1
  S  S67  1  0.74207704  0.31313584  0.19611228  1
  S  S68  1  0.40903258  0.70118061  0.48010465  1
  S  S69  1  0.19842698  0.35426583  0.94491481  1
  S  S70  1  0.55456063  0.80084895  0.25312112  1
  S  S71  1  0.79788545  0.39576299  0.84186511  1
  S  S72  1  0.35588057  0.96011287  0.16095101  1
  S  S73  1  0.78236823  0.83471050  0.34208066  1
  S  S74  1  0.29304856  0.22125369  0.13595973  1
  S  S75  1  0.27159602  0.04717637  0.61369065  1
  S  S76  1  0.43931909  0.70671620  0.19740178  1
  S  S77  1  0.49128609  0.30205144  0.31224740  1
  S  S78  1  0.61441869  0.57016650  0.33339288  1
  S  S79  1  0.04793093  0.50569305  0.70793020  1
  S  S80  1  0.66851994  0.64963442  0.04578984  1
  S  S81  1  0.86768453  0.15360750  0.82254399  1
  S  S82  1  0.53773565  0.00310713  0.84639302  1
  S  S83  1  0.92032542  0.06294024  0.30023708  1
  S  S84  1  0.14094735  0.49057289  0.45843629  1
  S  S85  1  0.25033835  0.29862921  0.38659548  1
  S  S86  1  0.71440466  0.79509042  0.48280253  1
  S  S87  1  0.62031291  0.06956752  0.28991957  1
  S  S88  1  0.50551065  0.25529859  0.59604448  1
  S  S89  1  0.35700069  0.47228699  0.69747067  1
  S  S90  1  0.40997518  0.57808300  0.80953870  1
  S  S91  1  0.22305902  0.82831137  0.39558319  1
  S  S92  1  0.80179924  0.34628943  0.59458831  1
  S  S93  1  0.20976321  0.62327444  0.98338951  1
  S  S94  1  0.71036133  0.51767731  0.44127046  1
  S  S95  1  0.82250528  0.04296063  0.55930944  1
  S  S96  1  0.37920082  0.22039615  0.38559504  1
  S  S97  1  0.83967024  0.31541448  0.43924027  1
  S  S98  1  0.41737750  0.22656466  0.84942288  1
  S  S99  1  0.05471405  0.12529724  0.05116659  1
