# generated using pymatgen
data_Ca7PbN6
_symmetry_space_group_name_H-M   'P 1'
_cell_length_a   6.42672400
_cell_length_b   9.34599712
_cell_length_c   9.34599712
_cell_angle_alpha   80.45024331
_cell_angle_beta   69.89008686
_cell_angle_gamma   69.89008686
_symmetry_Int_Tables_number   1
_chemical_formula_structural   Ca7PbN6
_chemical_formula_sum   'Ca14 Pb2 N12'
_cell_volume   494.27448370
_cell_formula_units_Z   2
loop_
 _symmetry_equiv_pos_site_id
 _symmetry_equiv_pos_as_xyz
  1  'x, y, z'
loop_
 _atom_site_type_symbol
 _atom_site_label
 _atom_site_symmetry_multiplicity
 _atom_site_fract_x
 _atom_site_fract_y
 _atom_site_fract_z
 _atom_site_occupancy
  Ca  Ca0  1  0.28918900  0.94931000  0.05069000  1
  Ca  Ca1  1  0.71081100  0.05069000  0.94931000  1
  Ca  Ca2  1  0.21081100  0.44931000  0.55069000  1
  Ca  Ca3  1  0.78918900  0.55069000  0.44931000  1
  Ca  Ca4  1  0.75048900  0.15241900  0.59202600  1
  Ca  Ca5  1  0.50506600  0.59202600  0.15241900  1
  Ca  Ca6  1  0.74951100  0.90797400  0.34758100  1
  Ca  Ca7  1  0.99493400  0.34758100  0.90797400  1
  Ca  Ca8  1  0.24951100  0.84758100  0.40797400  1
  Ca  Ca9  1  0.49493400  0.40797400  0.84758100  1
  Ca  Ca10  1  0.25048900  0.09202600  0.65241900  1
  Ca  Ca11  1  0.00506600  0.65241900  0.09202600  1
  Ca  Ca12  1  0.25000000  0.25000000  0.25000000  1
  Ca  Ca13  1  0.75000000  0.75000000  0.75000000  1
  Pb  Pb14  1  0.75000000  0.25000000  0.25000000  1
  Pb  Pb15  1  0.25000000  0.75000000  0.75000000  1
  N  N16  1  0.03522700  0.05666000  0.29612500  1
  N  N17  1  0.61198700  0.29612500  0.05666000  1
  N  N18  1  0.46477300  0.20387500  0.44334000  1
  N  N19  1  0.88801300  0.44334000  0.20387500  1
  N  N20  1  0.96477300  0.94334000  0.70387500  1
  N  N21  1  0.38801300  0.70387500  0.94334000  1
  N  N22  1  0.53522700  0.79612500  0.55666000  1
  N  N23  1  0.11198700  0.55666000  0.79612500  1
  N  N24  1  0.87142600  0.35273900  0.64726100  1
  N  N25  1  0.12857400  0.64726100  0.35273900  1
  N  N26  1  0.62857400  0.85273900  0.14726100  1
  N  N27  1  0.37142600  0.14726100  0.85273900  1
