# generated using pymatgen
data_TaN
_symmetry_space_group_name_H-M   'P 1'
_cell_length_a   11.09207323
_cell_length_b   10.63223837
_cell_length_c   10.97325726
_cell_angle_alpha   90.47321581
_cell_angle_beta   91.80549763
_cell_angle_gamma   87.44350961
_symmetry_Int_Tables_number   1
_chemical_formula_structural   TaN
_chemical_formula_sum   'Ta50 N50'
_cell_volume   1292.15509624
_cell_formula_units_Z   50
loop_
 _symmetry_equiv_pos_site_id
 _symmetry_equiv_pos_as_xyz
  1  'x, y, z'
loop_
 _atom_site_type_symbol
 _atom_site_label
 _atom_site_symmetry_multiplicity
 _atom_site_fract_x
 _atom_site_fract_y
 _atom_site_fract_z
 _atom_site_occupancy
  Ta  Ta0  1  0.80374500  0.58912200  0.16848100  1
  Ta  Ta1  1  0.19169900  0.79587600  0.19380700  1
  Ta  Ta2  1  0.49868500  0.58633900  0.27825200  1
  Ta  Ta3  1  0.90490500  0.83774700  0.07647900  1
  Ta  Ta4  1  0.14645200  0.83624400  0.90327100  1
  Ta  Ta5  1  0.05463900  0.55997600  0.08841800  1
  Ta  Ta6  1  0.26275600  0.95131700  0.43796000  1
  Ta  Ta7  1  0.25970600  0.04628600  0.16203500  1
  Ta  Ta8  1  0.70581300  0.14620500  0.59562700  1
  Ta  Ta9  1  0.78086400  0.98310900  0.30747500  1
  Ta  Ta10  1  0.86231300  0.09337800  0.82313800  1
  Ta  Ta11  1  0.89739300  0.92697800  0.53710200  1
  Ta  Ta12  1  0.95294800  0.53583500  0.54168800  1
  Ta  Ta13  1  0.32448400  0.68981600  0.78861500  1
  Ta  Ta14  1  0.82479100  0.38077400  0.98117200  1
  Ta  Ta15  1  0.40248500  0.26046700  0.36022900  1
  Ta  Ta16  1  0.69825400  0.35405000  0.28696600  1
  Ta  Ta17  1  0.63062500  0.87355600  0.95337800  1
  Ta  Ta18  1  0.38585600  0.21437800  0.65880300  1
  Ta  Ta19  1  0.10172300  0.27583300  0.86773200  1
  Ta  Ta20  1  0.54177100  0.94658000  0.42423900  1
  Ta  Ta21  1  0.23264500  0.33838700  0.08982500  1
  Ta  Ta22  1  0.35230200  0.92275500  0.69265500  1
  Ta  Ta23  1  0.40677100  0.74382300  0.03469300  1
  Ta  Ta24  1  0.09160000  0.01967500  0.68127200  1
  Ta  Ta25  1  0.02061800  0.17502100  0.10710500  1
  Ta  Ta26  1  0.04186100  0.01351000  0.30711400  1
  Ta  Ta27  1  0.24073900  0.57781500  0.32995300  1
  Ta  Ta28  1  0.36943800  0.48438800  0.57123300  1
  Ta  Ta29  1  0.62923300  0.81036700  0.20707600  1
  Ta  Ta30  1  0.99232200  0.41036800  0.30152300  1
  Ta  Ta31  1  0.83446300  0.56586300  0.79055300  1
  Ta  Ta32  1  0.61399300  0.89469700  0.68978900  1
  Ta  Ta33  1  0.69362300  0.67176000  0.46427400  1
  Ta  Ta34  1  0.48151000  0.20825900  0.09259500  1
  Ta  Ta35  1  0.67861200  0.42429100  0.58050900  1
  Ta  Ta36  1  0.60009200  0.17970200  0.83018300  1
  Ta  Ta37  1  0.96538900  0.70429100  0.34282400  1
  Ta  Ta38  1  0.87822200  0.83306200  0.79844100  1
  Ta  Ta39  1  0.57045700  0.63391500  0.78062000  1
  Ta  Ta40  1  0.32550600  0.42572500  0.84555700  1
  Ta  Ta41  1  0.93220800  0.30408800  0.66916000  1
  Ta  Ta42  1  0.74185800  0.10088800  0.06672600  1
  Ta  Ta43  1  0.56158300  0.45784200  0.99920900  1
  Ta  Ta44  1  0.08476800  0.52891400  0.77276700  1
  Ta  Ta45  1  0.45369500  0.74029300  0.53955100  1
  Ta  Ta46  1  0.87617900  0.20751500  0.42075300  1
  Ta  Ta47  1  0.17237700  0.69785700  0.56559700  1
  Ta  Ta48  1  0.14204600  0.20493300  0.49185400  1
  Ta  Ta49  1  0.33877800  0.08676300  0.90944900  1
  N  N50  1  0.98117300  0.74565900  0.52804800  1
  N  N51  1  0.55846300  0.27717300  0.64928800  1
  N  N52  1  0.94797900  0.40488400  0.83001100  1
  N  N53  1  0.90658700  0.01950500  0.15542900  1
  N  N54  1  0.80523100  0.95226900  0.94496500  1
  N  N55  1  0.99966100  0.34782000  0.49111700  1
  N  N56  1  0.21837600  0.76801000  0.39440100  1
  N  N57  1  0.39615800  0.46814200  0.37713400  1
  N  N58  1  0.43943600  0.58421700  0.91115300  1
  N  N59  1  0.01355100  0.96740700  0.84131300  1
  N  N60  1  0.71398900  0.75287000  0.80279500  1
  N  N61  1  0.25905800  0.07358400  0.59879800  1
  N  N62  1  0.68453700  0.49243200  0.87058000  1
  N  N63  1  0.76403000  0.24844600  0.75512100  1
  N  N64  1  0.62395500  0.51091900  0.16398300  1
  N  N65  1  0.64968800  0.50471300  0.40263500  1
  N  N66  1  0.02715200  0.21210100  0.29942600  1
  N  N67  1  0.28303200  0.89797700  0.03302800  1
  N  N68  1  0.24245900  0.54063000  0.68692500  1
  N  N69  1  0.29198900  0.31094400  0.51697700  1
  N  N70  1  0.31823400  0.21580000  0.21176900  1
  N  N71  1  0.78134300  0.74644400  0.31767400  1
  N  N72  1  0.08062200  0.74110200  0.04176300  1
  N  N73  1  0.88606000  0.55882300  0.00578600  1
  N  N74  1  0.27795300  0.23649900  0.80573000  1
  N  N75  1  0.53912100  0.55842800  0.60566900  1
  N  N76  1  0.05092100  0.35616100  0.03864800  1
  N  N77  1  0.56255800  0.05491100  0.98968300  1
  N  N78  1  0.18601400  0.83103300  0.71380300  1
  N  N79  1  0.17807000  0.14748300  0.00999800  1
  N  N80  1  0.70016900  0.27501500  0.46243500  1
  N  N81  1  0.43954100  0.09884500  0.44513700  1
  N  N82  1  0.99007800  0.68676100  0.80442800  1
  N  N83  1  0.84109500  0.39034000  0.17777600  1
  N  N84  1  0.15904700  0.44760700  0.22560800  1
  N  N85  1  0.90022000  0.11176100  0.60972000  1
  N  N86  1  0.47655100  0.05533800  0.74863900  1
  N  N87  1  0.39853400  0.36983000  0.02153100  1
  N  N88  1  0.52767800  0.75684300  0.36005800  1
  N  N89  1  0.65001400  0.27571800  0.00852600  1
  N  N90  1  0.01469900  0.83821800  0.23973100  1
  N  N91  1  0.74219000  0.75229000  0.07316200  1
  N  N92  1  0.54118800  0.27436300  0.25430500  1
  N  N93  1  0.88415300  0.19275500  0.97916200  1
  N  N94  1  0.78268700  0.59666300  0.60814800  1
  N  N95  1  0.75557200  0.16231800  0.26318600  1
  N  N96  1  0.70616200  0.96744500  0.50875000  1
  N  N97  1  0.33908500  0.66049300  0.18886000  1
  N  N98  1  0.48086500  0.81464000  0.83754000  1
  N  N99  1  0.07756000  0.00253400  0.49047700  1
