# generated using pymatgen
data_Na2O
_symmetry_space_group_name_H-M   'P 1'
_cell_length_a   12.26098068
_cell_length_b   11.13129146
_cell_length_c   12.77793377
_cell_angle_alpha   87.85039575
_cell_angle_beta   90.80304022
_cell_angle_gamma   90.96239151
_symmetry_Int_Tables_number   1
_chemical_formula_structural   Na2O
_chemical_formula_sum   'Na68 O34'
_cell_volume   1742.31000363
_cell_formula_units_Z   34
loop_
 _symmetry_equiv_pos_site_id
 _symmetry_equiv_pos_as_xyz
  1  'x, y, z'
loop_
 _atom_site_type_symbol
 _atom_site_label
 _atom_site_symmetry_multiplicity
 _atom_site_fract_x
 _atom_site_fract_y
 _atom_site_fract_z
 _atom_site_occupancy
  Na  Na0  1  0.70653087  0.37059302  0.42221532  1
  Na  Na1  1  0.47085816  0.89858097  0.01523990  1
  Na  Na2  1  0.17622966  0.29594357  0.15655528  1
  Na  Na3  1  0.03492186  0.15446782  0.00410251  1
  Na  Na4  1  0.80100495  0.07514314  0.72816658  1
  Na  Na5  1  0.83963171  0.51021603  0.07133517  1
  Na  Na6  1  0.40709427  0.45795856  0.43992674  1
  Na  Na7  1  0.82175687  0.12661568  0.28151369  1
  Na  Na8  1  0.25089940  0.23602891  0.39106433  1
  Na  Na9  1  0.59326484  0.49901534  0.84403865  1
  Na  Na10  1  0.01752534  0.89574483  0.39569803  1
  Na  Na11  1  0.91446893  0.77588555  0.99383045  1
  Na  Na12  1  0.53181932  0.05129884  0.58875939  1
  Na  Na13  1  0.14890039  0.33838890  0.71679376  1
  Na  Na14  1  0.58268766  0.66147173  0.04573152  1
  Na  Na15  1  0.76994711  0.88859329  0.85494410  1
  Na  Na16  1  0.89702938  0.33625170  0.58707613  1
  Na  Na17  1  0.88953831  0.24209468  0.83523838  1
  Na  Na18  1  0.09778210  0.38382970  0.92266942  1
  Na  Na19  1  0.00268486  0.86368336  0.80769210  1
  Na  Na20  1  0.97398464  0.69038752  0.22963159  1
  Na  Na21  1  0.61722123  0.82542878  0.55928707  1
  Na  Na22  1  0.42458651  0.57912601  0.22729098  1
  Na  Na23  1  0.42645412  0.68083622  0.54766680  1
  Na  Na24  1  0.53155308  0.23422491  0.39784627  1
  Na  Na25  1  0.86229889  0.49695410  0.83473106  1
  Na  Na26  1  0.51075291  0.76439800  0.82443280  1
  Na  Na27  1  0.28083697  0.04229151  0.81905626  1
  Na  Na28  1  0.01893388  0.64208781  0.67737914  1
  Na  Na29  1  0.84275203  0.02184941  0.08748306  1
  Na  Na30  1  0.54936107  0.11140840  0.19307812  1
  Na  Na31  1  0.05884009  0.99850651  0.60060592  1
  Na  Na32  1  0.06379965  0.61004012  0.93699598  1
  Na  Na33  1  0.23595623  0.81142122  0.04972587  1
  Na  Na34  1  0.74927990  0.29373016  0.99524987  1
  Na  Na35  1  0.44963507  0.28456826  0.62694264  1
  Na  Na36  1  0.66797757  0.85750255  0.14378425  1
  Na  Na37  1  0.40278361  0.32836970  0.22680980  1
  Na  Na38  1  0.18276481  0.48192292  0.44494469  1
  Na  Na39  1  0.69357298  0.31783657  0.69442246  1
  Na  Na40  1  0.31444651  0.58465565  0.97439552  1
  Na  Na41  1  0.44716939  0.79152863  0.34972767  1
  Na  Na42  1  0.08224925  0.08498756  0.27858623  1
  Na  Na43  1  0.86766545  0.58426056  0.47780604  1
  Na  Na44  1  0.04610642  0.91791423  0.10997485  1
  Na  Na45  1  0.19044937  0.74542766  0.46421871  1
  Na  Na46  1  0.67246595  0.41641361  0.19169138  1
  Na  Na47  1  0.18278544  0.54428074  0.20734840  1
  Na  Na48  1  0.93901169  0.39799530  0.29389465  1
  Na  Na49  1  0.63220530  0.60913738  0.32201856  1
  Na  Na50  1  0.27791402  0.14383085  0.00342014  1
  Na  Na51  1  0.03347762  0.22081127  0.45645570  1
  Na  Na52  1  0.30383515  0.36257775  0.90409947  1
  Na  Na53  1  0.24529998  0.16046773  0.60622065  1
  Na  Na54  1  0.32833178  0.92128991  0.64597751  1
  Na  Na55  1  0.50544762  0.32070339  0.03352997  1
  Na  Na56  1  0.33122525  0.05051559  0.18076865  1
  Na  Na57  1  0.79344250  0.76354887  0.31866610  1
  Na  Na58  1  0.77060008  0.13046582  0.51874988  1
  Na  Na59  1  0.33119682  0.00543321  0.42334962  1
  Na  Na60  1  0.78549001  0.69376189  0.71578180  1
  Na  Na61  1  0.23377278  0.74274691  0.80628378  1
  Na  Na62  1  0.64458989  0.07295814  0.98496596  1
  Na  Na63  1  0.52292027  0.12784796  0.82355024  1
  Na  Na64  1  0.84450057  0.81869306  0.53842261  1
  Na  Na65  1  0.06246303  0.08211827  0.80600231  1
  Na  Na66  1  0.64806568  0.55240789  0.58906625  1
  Na  Na67  1  0.32985841  0.51002317  0.69661545  1
  O  O68  1  0.64095707  0.46738903  0.01375184  1
  O  O69  1  0.15984024  0.08194997  0.12620774  1
  O  O70  1  0.92406331  0.68743091  0.83661965  1
  O  O71  1  0.92811854  0.37053546  0.96814866  1
  O  O72  1  0.17871367  0.21680321  0.87086075  1
  O  O73  1  0.82603582  0.56179002  0.25084222  1
  O  O74  1  0.14704206  0.05435358  0.44832076  1
  O  O75  1  0.70959270  0.69343338  0.46872845  1
  O  O76  1  0.54056487  0.42362914  0.31845642  1
  O  O77  1  0.31802922  0.41836840  0.08484530  1
  O  O78  1  0.70168545  0.19515435  0.83852866  1
  O  O79  1  0.86075367  0.26107841  0.41096565  1
  O  O80  1  0.81135762  0.48923898  0.65960397  1
  O  O81  1  0.71662734  0.15331564  0.13828286  1
  O  O82  1  0.50635517  0.58999407  0.70090254  1
  O  O83  1  0.91010544  0.92003034  0.24767577  1
  O  O84  1  0.31501313  0.62761563  0.38849124  1
  O  O85  1  0.96773515  0.17505271  0.67083035  1
  O  O86  1  0.36021447  0.77475161  0.93043565  1
  O  O87  1  0.28115105  0.36321009  0.56670160  1
  O  O88  1  0.45587816  0.10944343  0.02758305  1
  O  O89  1  0.16258050  0.91674251  0.73199437  1
  O  O90  1  0.53566333  0.74299155  0.20626134  1
  O  O91  1  0.61846592  0.23916275  0.55070978  1
  O  O92  1  0.64282108  0.85150570  0.96964388  1
  O  O93  1  0.00847115  0.72628964  0.50274005  1
  O  O94  1  0.08521161  0.70584388  0.09224434  1
  O  O95  1  0.39872376  0.10296328  0.69602854  1
  O  O96  1  0.94039714  0.98280680  0.94089362  1
  O  O97  1  0.75274206  0.90047772  0.66553851  1
  O  O98  1  0.20000566  0.52525117  0.82475088  1
  O  O99  1  0.44119450  0.87799413  0.51529916  1
  O  O100  1  0.12467637  0.36315326  0.31214994  1
  O  O101  1  0.40026331  0.14636499  0.31135728  1
