# generated using pymatgen
data_Ca7TiN6
_symmetry_space_group_name_H-M   'P 1'
_cell_length_a   6.33112400
_cell_length_b   9.17802092
_cell_length_c   9.17802092
_cell_angle_alpha   77.71688765
_cell_angle_beta   69.82389225
_cell_angle_gamma   69.82389225
_symmetry_Int_Tables_number   1
_chemical_formula_structural   Ca7TiN6
_chemical_formula_sum   'Ca14 Ti2 N12'
_cell_volume   467.19670336
_cell_formula_units_Z   2
loop_
 _symmetry_equiv_pos_site_id
 _symmetry_equiv_pos_as_xyz
  1  'x, y, z'
loop_
 _atom_site_type_symbol
 _atom_site_label
 _atom_site_symmetry_multiplicity
 _atom_site_fract_x
 _atom_site_fract_y
 _atom_site_fract_z
 _atom_site_occupancy
  Ca  Ca0  1  0.27798000  0.95490800  0.04509200  1
  Ca  Ca1  1  0.72202000  0.04509200  0.95490800  1
  Ca  Ca2  1  0.22202000  0.45490800  0.54509200  1
  Ca  Ca3  1  0.77798000  0.54509200  0.45490800  1
  Ca  Ca4  1  0.75315700  0.15236500  0.59608900  1
  Ca  Ca5  1  0.49838800  0.59608900  0.15236500  1
  Ca  Ca6  1  0.74684300  0.90391100  0.34763500  1
  Ca  Ca7  1  0.00161200  0.34763500  0.90391100  1
  Ca  Ca8  1  0.24684300  0.84763500  0.40391100  1
  Ca  Ca9  1  0.50161200  0.40391100  0.84763500  1
  Ca  Ca10  1  0.25315700  0.09608900  0.65236500  1
  Ca  Ca11  1  0.99838800  0.65236500  0.09608900  1
  Ca  Ca12  1  0.25000000  0.25000000  0.25000000  1
  Ca  Ca13  1  0.75000000  0.75000000  0.75000000  1
  Ti  Ti14  1  0.75000000  0.25000000  0.25000000  1
  Ti  Ti15  1  0.25000000  0.75000000  0.75000000  1
  N  N16  1  0.01291800  0.07095300  0.28148200  1
  N  N17  1  0.63464700  0.28148200  0.07095300  1
  N  N18  1  0.48708200  0.21851800  0.42904700  1
  N  N19  1  0.86535300  0.42904700  0.21851800  1
  N  N20  1  0.98708200  0.92904700  0.71851800  1
  N  N21  1  0.36535300  0.71851800  0.92904700  1
  N  N22  1  0.51291800  0.78148200  0.57095300  1
  N  N23  1  0.13464700  0.57095300  0.78148200  1
  N  N24  1  0.88901700  0.34307800  0.65692200  1
  N  N25  1  0.11098300  0.65692200  0.34307800  1
  N  N26  1  0.61098300  0.84307800  0.15692200  1
  N  N27  1  0.38901700  0.15692200  0.84307800  1
