# generated using pymatgen
data_Y2O3
_symmetry_space_group_name_H-M   'P 1'
_cell_length_a   11.89100344
_cell_length_b   11.41407727
_cell_length_c   11.83928476
_cell_angle_alpha   94.37592895
_cell_angle_beta   83.46593527
_cell_angle_gamma   87.40771917
_symmetry_Int_Tables_number   1
_chemical_formula_structural   Y2O3
_chemical_formula_sum   'Y40 O60'
_cell_volume   1589.43440442
_cell_formula_units_Z   20
loop_
 _symmetry_equiv_pos_site_id
 _symmetry_equiv_pos_as_xyz
  1  'x, y, z'
loop_
 _atom_site_type_symbol
 _atom_site_label
 _atom_site_symmetry_multiplicity
 _atom_site_fract_x
 _atom_site_fract_y
 _atom_site_fract_z
 _atom_site_occupancy
  Y  Y0  1  0.91939590  0.46839022  0.81299752  1
  Y  Y1  1  0.94448137  0.15345662  0.89382893  1
  Y  Y2  1  0.60864524  0.10689068  0.96728462  1
  Y  Y3  1  0.16638848  0.53379449  0.90887574  1
  Y  Y4  1  0.29536243  0.86208809  0.34478509  1
  Y  Y5  1  0.79725440  0.07791932  0.45650041  1
  Y  Y6  1  0.59050842  0.78928196  0.57744022  1
  Y  Y7  1  0.46516816  0.52330398  0.82799244  1
  Y  Y8  1  0.10141727  0.56599646  0.21672864  1
  Y  Y9  1  0.49691427  0.62368287  0.34216621  1
  Y  Y10  1  0.33709798  0.06257304  0.13762609  1
  Y  Y11  1  0.06350462  0.14993434  0.20095586  1
  Y  Y12  1  0.43846831  0.81334384  0.88358878  1
  Y  Y13  1  0.61124995  0.47241408  0.08719195  1
  Y  Y14  1  0.75297840  0.88303052  0.79399324  1
  Y  Y15  1  0.35248396  0.65059578  0.09850187  1
  Y  Y16  1  0.12554666  0.54592126  0.52522164  1
  Y  Y17  1  0.71684545  0.27213757  0.69611665  1
  Y  Y18  1  0.81084476  0.60174759  0.31306085  1
  Y  Y19  1  0.52078273  0.04721157  0.69619197  1
  Y  Y20  1  0.24108931  0.03672710  0.80820722  1
  Y  Y21  1  0.88472383  0.38485866  0.07833303  1
  Y  Y22  1  0.23640059  0.33643054  0.67376926  1
  Y  Y23  1  0.34703614  0.09937167  0.49842202  1
  Y  Y24  1  0.34412502  0.32807596  0.00414863  1
  Y  Y25  1  0.33155234  0.36171602  0.30963814  1
  Y  Y26  1  0.89264411  0.76314354  0.53173069  1
  Y  Y27  1  0.63929771  0.75936244  0.09799210  1
  Y  Y28  1  0.69016916  0.29539157  0.33042767  1
  Y  Y29  1  0.00046529  0.85339915  0.26534029  1
  Y  Y30  1  0.90928549  0.67832616  0.02528685  1
  Y  Y31  1  0.48298917  0.41569153  0.54176261  1
  Y  Y32  1  0.72552600  0.54530723  0.59075069  1
  Y  Y33  1  0.32545548  0.71872468  0.64287723  1
  Y  Y34  1  0.16347651  0.88536115  0.04286958  1
  Y  Y35  1  0.56299258  0.97108027  0.30816489  1
  Y  Y36  1  0.02676758  0.03055538  0.58353551  1
  Y  Y37  1  0.80617658  0.97346849  0.10611980  1
  Y  Y38  1  0.93356027  0.34131248  0.49569961  1
  Y  Y39  1  0.04797549  0.80072004  0.76871062  1
  O  O40  1  0.49193729  0.79707949  0.25698149  1
  O  O41  1  0.39284328  0.04193320  0.31032714  1
  O  O42  1  0.45162691  0.18217344  0.05647415  1
  O  O43  1  0.98380598  0.21826183  0.05944933  1
  O  O44  1  0.52034147  0.38271733  0.35715020  1
  O  O45  1  0.49789279  0.41599245  0.96550895  1
  O  O46  1  0.83026138  0.41424269  0.66544102  1
  O  O47  1  0.79704037  0.05131214  0.93498859  1
  O  O48  1  0.56040443  0.58514720  0.50638333  1
  O  O49  1  0.79091236  0.81287979  0.96326985  1
  O  O50  1  0.00799399  0.50241619  0.00792152  1
  O  O51  1  0.97781399  0.69133550  0.34732386  1
  O  O52  1  0.50806967  0.98759809  0.50101358  1
  O  O53  1  0.23991771  0.23912592  0.20159833  1
  O  O54  1  0.57156226  0.94690012  0.86187760  1
  O  O55  1  0.65527627  0.61213177  0.22189646  1
  O  O56  1  0.88676853  0.17072255  0.59455109  1
  O  O57  1  0.77755097  0.54419527  0.00713650  1
  O  O58  1  0.49024823  0.69109070  0.72544557  1
  O  O59  1  0.38090741  0.75114317  0.47182991  1
  O  O60  1  0.07420373  0.07200462  0.75760347  1
  O  O61  1  0.20074677  0.99198116  0.49459808  1
  O  O62  1  0.34235972  0.29121992  0.48646907  1
  O  O63  1  0.93268023  0.19333267  0.35445974  1
  O  O64  1  0.71120233  0.33157848  0.14924107  1
  O  O65  1  0.09873229  0.36101039  0.55415260  1
  O  O66  1  0.71835058  0.08161336  0.29355770  1
  O  O67  1  0.93636364  0.93405204  0.44417382  1
  O  O68  1  0.31708567  0.39703166  0.83717892  1
  O  O69  1  0.93921006  0.57267827  0.54424780  1
  O  O70  1  0.33666049  0.15517870  0.68800579  1
  O  O71  1  0.82522754  0.79987541  0.18974118  1
  O  O72  1  0.98775502  0.98074242  0.12140705  1
  O  O73  1  0.61507301  0.96120762  0.11510276  1
  O  O74  1  0.34749812  0.86455921  0.05934519  1
  O  O75  1  0.52874230  0.66862799  0.98936334  1
  O  O76  1  0.09175114  0.40178528  0.79135917  1
  O  O77  1  0.00141176  0.64759612  0.84620936  1
  O  O78  1  0.74141278  0.72116713  0.68112438  1
  O  O79  1  0.30900885  0.51611081  0.61998043  1
  O  O80  1  0.77654577  0.43921773  0.42058334  1
  O  O81  1  0.43210120  0.51390673  0.20230551  1
  O  O82  1  0.16941989  0.97547317  0.23080787  1
  O  O83  1  0.58986947  0.42984228  0.68571378  1
  O  O84  1  0.59695168  0.17827890  0.80336098  1
  O  O85  1  0.94098575  0.47279546  0.23102124  1
  O  O86  1  0.14192497  0.72517439  0.61662842  1
  O  O87  1  0.38820354  0.91021891  0.73009605  1
  O  O88  1  0.23938482  0.49261505  0.07393181  1
  O  O89  1  0.31668898  0.65281595  0.90685598  1
  O  O90  1  0.19356422  0.49060849  0.35207685  1
  O  O91  1  0.18375799  0.86156407  0.85464105  1
  O  O92  1  0.23082909  0.71963809  0.24902574  1
  O  O93  1  0.22358156  0.07467443  0.99297445  1
  O  O94  1  0.92370597  0.89497199  0.68352351  1
  O  O95  1  0.68412597  0.95064574  0.63078492  1
  O  O96  1  0.06961187  0.72924078  0.09974554  1
  O  O97  1  0.66846457  0.22831400  0.51963121  1
  O  O98  1  0.84727073  0.31017843  0.87959465  1
  O  O99  1  0.73630619  0.72828298  0.45514657  1
