# generated using pymatgen
data_EuZnGe
_symmetry_space_group_name_H-M   'P 1'
_cell_length_a   6.15328173
_cell_length_b   6.15328173
_cell_length_c   6.15328173
_cell_angle_alpha   138.30671821
_cell_angle_beta   104.67920737
_cell_angle_gamma   89.99294774
_symmetry_Int_Tables_number   1
_chemical_formula_structural   EuZnGe
_chemical_formula_sum   'Eu2 Zn2 Ge2'
_cell_volume   143.28734362
_cell_formula_units_Z   2
loop_
 _symmetry_equiv_pos_site_id
 _symmetry_equiv_pos_as_xyz
  1  'x, y, z'
loop_
 _atom_site_type_symbol
 _atom_site_label
 _atom_site_symmetry_multiplicity
 _atom_site_fract_x
 _atom_site_fract_y
 _atom_site_fract_z
 _atom_site_occupancy
  Eu  Eu0  1  0.50000000  0.50000000  0.00000000  1
  Eu  Eu1  1  0.00000000  0.00000000  0.00000000  1
  Zn  Zn2  1  0.41747200  0.75000000  0.66747200  1
  Zn  Zn3  1  0.58252800  0.25000000  0.33252800  1
  Ge  Ge4  1  0.08349000  0.75000000  0.33349000  1
  Ge  Ge5  1  0.91651000  0.25000000  0.66651000  1
