# generated using pymatgen
data_HfO2
_symmetry_space_group_name_H-M   'P 1'
_cell_length_a   10.76117956
_cell_length_b   11.38438867
_cell_length_c   11.05429597
_cell_angle_alpha   88.60548486
_cell_angle_beta   86.84475185
_cell_angle_gamma   88.66121343
_symmetry_Int_Tables_number   1
_chemical_formula_structural   HfO2
_chemical_formula_sum   'Hf34 O68'
_cell_volume   1351.47316842
_cell_formula_units_Z   34
loop_
 _symmetry_equiv_pos_site_id
 _symmetry_equiv_pos_as_xyz
  1  'x, y, z'
loop_
 _atom_site_type_symbol
 _atom_site_label
 _atom_site_symmetry_multiplicity
 _atom_site_fract_x
 _atom_site_fract_y
 _atom_site_fract_z
 _atom_site_occupancy
  Hf  Hf0  1  0.53762887  0.58849915  0.78056436  1
  Hf  Hf1  1  0.46133333  0.51063551  0.32717211  1
  Hf  Hf2  1  0.78552470  0.48300040  0.36161485  1
  Hf  Hf3  1  0.11341519  0.48134875  0.25097874  1
  Hf  Hf4  1  0.71854445  0.09880351  0.00588177  1
  Hf  Hf5  1  0.56473009  0.69925189  0.50705936  1
  Hf  Hf6  1  0.52536690  0.01207138  0.55508580  1
  Hf  Hf7  1  0.42201090  0.02857521  0.94929575  1
  Hf  Hf8  1  0.02917319  0.54857865  0.88840512  1
  Hf  Hf9  1  0.09740982  0.32079465  0.69635755  1
  Hf  Hf10  1  0.97963714  0.00703143  0.17127042  1
  Hf  Hf11  1  0.05753478  0.78742249  0.34142075  1
  Hf  Hf12  1  0.83072430  0.78711884  0.05215368  1
  Hf  Hf13  1  0.46504527  0.35218895  0.62646256  1
  Hf  Hf14  1  0.96728032  0.20479789  0.42945052  1
  Hf  Hf15  1  0.27974182  0.24335492  0.46506423  1
  Hf  Hf16  1  0.30395256  0.96056640  0.26015580  1
  Hf  Hf17  1  0.79659071  0.39429034  0.64784988  1
  Hf  Hf18  1  0.12337794  0.74730746  0.06499159  1
  Hf  Hf19  1  0.27638349  0.76297813  0.53968598  1
  Hf  Hf20  1  0.49180754  0.72513271  0.06006902  1
  Hf  Hf21  1  0.62153564  0.31800327  0.88289922  1
  Hf  Hf22  1  0.65426561  0.21376207  0.27852285  1
  Hf  Hf23  1  0.30169832  0.81821923  0.81487176  1
  Hf  Hf24  1  0.99818067  0.82660609  0.78557935  1
  Hf  Hf25  1  0.64518869  0.85969608  0.80713059  1
  Hf  Hf26  1  0.62964208  0.91565136  0.24047153  1
  Hf  Hf27  1  0.30000404  0.45061915  0.94953888  1
  Hf  Hf28  1  0.95329284  0.62664242  0.56567208  1
  Hf  Hf29  1  0.82485905  0.90161669  0.48904403  1
  Hf  Hf30  1  0.88816347  0.32665683  0.08537200  1
  Hf  Hf31  1  0.20531217  0.21491135  0.17875763  1
  Hf  Hf32  1  0.08448108  0.07021913  0.90509642  1
  Hf  Hf33  1  0.82342689  0.10070559  0.71040107  1
  O  O34  1  0.16317294  0.54852385  0.03714210  1
  O  O35  1  0.42192123  0.36080157  0.44609847  1
  O  O36  1  0.32137049  0.79921540  0.00803520  1
  O  O37  1  0.61118630  0.07258717  0.39691606  1
  O  O38  1  0.69037244  0.97408657  0.63276106  1
  O  O39  1  0.68955984  0.47272328  0.80147687  1
  O  O40  1  0.41707248  0.58777578  0.93343867  1
  O  O41  1  0.78502318  0.54685581  0.55067762  1
  O  O42  1  0.31243418  0.31717493  0.06510651  1
  O  O43  1  0.93657711  0.94149134  0.34638975  1
  O  O44  1  0.15254747  0.31472154  0.34746948  1
  O  O45  1  0.45610991  0.86143470  0.22568145  1
  O  O46  1  0.28974837  0.48479893  0.27935485  1
  O  O47  1  0.60275457  0.08605237  0.16590803  1
  O  O48  1  0.05831235  0.11939129  0.29183404  1
  O  O49  1  0.14479384  0.72641522  0.87482376  1
  O  O50  1  0.60203457  0.70804352  0.90435363  1
  O  O51  1  0.53157833  0.16408756  0.92165826  1
  O  O52  1  0.25455043  0.99754334  0.86872648  1
  O  O53  1  0.15173889  0.89809458  0.18822085  1
  O  O54  1  0.17621799  0.45160686  0.81945166  1
  O  O55  1  0.97896562  0.51524614  0.38569362  1
  O  O56  1  0.63676276  0.28425120  0.67148102  1
  O  O57  1  0.91650402  0.82843146  0.62332056  1
  O  O58  1  0.76937501  0.21894142  0.84965193  1
  O  O59  1  0.87445845  0.07838957  0.52316013  1
  O  O60  1  0.95563310  0.65858635  0.01686772  1
  O  O61  1  0.63432271  0.59845439  0.37544692  1
  O  O62  1  0.95853333  0.80723562  0.17683408  1
  O  O63  1  0.11207964  0.22586421  0.84146267  1
  O  O64  1  0.34114780  0.06355409  0.10973644  1
  O  O65  1  0.66445060  0.84386242  0.41159528  1
  O  O66  1  0.82200898  0.81164855  0.87185314  1
  O  O67  1  0.06453075  0.33850100  0.14227135  1
  O  O68  1  0.97339865  0.01549643  0.76846536  1
  O  O69  1  0.82058346  0.33333456  0.46515722  1
  O  O70  1  0.02158410  0.89942002  0.97643401  1
  O  O71  1  0.31098151  0.12494258  0.32972231  1
  O  O72  1  0.48639190  0.58978780  0.16671477  1
  O  O73  1  0.11141232  0.20218935  0.54800366  1
  O  O74  1  0.18174308  0.84924259  0.68192569  1
  O  O75  1  0.13333866  0.66461123  0.23212141  1
  O  O76  1  0.63063110  0.72904186  0.67367059  1
  O  O77  1  0.98123872  0.45931259  0.65413765  1
  O  O78  1  0.39961132  0.64906961  0.44327537  1
  O  O79  1  0.42326530  0.15569027  0.57471003  1
  O  O80  1  0.72714328  0.01243175  0.84942915  1
  O  O81  1  0.83339742  0.20419049  0.26472802  1
  O  O82  1  0.52646469  0.51905000  0.60822593  1
  O  O83  1  0.55872305  0.91568020  0.99096075  1
  O  O84  1  0.12275941  0.67924132  0.49612174  1
  O  O85  1  0.46763448  0.92873133  0.77360695  1
  O  O86  1  0.69105293  0.28364548  0.06193029  1
  O  O87  1  0.89336017  0.73563013  0.42574663  1
  O  O88  1  0.27490724  0.33563714  0.63132485  1
  O  O89  1  0.21441571  0.87295783  0.40638015  1
  O  O90  1  0.38104891  0.70125607  0.69776517  1
  O  O91  1  0.79031600  0.95713877  0.12225924  1
  O  O92  1  0.92046885  0.41722268  0.93393233  1
  O  O93  1  0.91406938  0.25253275  0.66859271  1
  O  O94  1  0.97093688  0.65276435  0.74951390  1
  O  O95  1  0.84733184  0.46038814  0.19165396  1
  O  O96  1  0.62009294  0.38370885  0.30763700  1
  O  O97  1  0.45193195  0.39510479  0.81554927  1
  O  O98  1  0.90182252  0.13581194  0.03184961  1
  O  O99  1  0.43964175  0.86722602  0.51606007  1
  O  O100  1  0.66793622  0.76251443  0.14603804  1
  O  O101  1  0.11864769  0.10450672  0.07489426  1
