# generated using pymatgen
data_Si3N4
_symmetry_space_group_name_H-M   'P 1'
_cell_length_a   10.51802003
_cell_length_b   10.83717979
_cell_length_c   10.55776912
_cell_angle_alpha   89.04331139
_cell_angle_beta   87.75024158
_cell_angle_gamma   91.09395334
_symmetry_Int_Tables_number   1
_chemical_formula_structural   Si3N4
_chemical_formula_sum   'Si45 N60'
_cell_volume   1202.10431664
_cell_formula_units_Z   15
loop_
 _symmetry_equiv_pos_site_id
 _symmetry_equiv_pos_as_xyz
  1  'x, y, z'
loop_
 _atom_site_type_symbol
 _atom_site_label
 _atom_site_symmetry_multiplicity
 _atom_site_fract_x
 _atom_site_fract_y
 _atom_site_fract_z
 _atom_site_occupancy
  Si  Si0  1  0.03442000  0.63165800  0.56686000  1
  Si  Si1  1  0.77770200  0.61372700  0.45152400  1
  Si  Si2  1  0.67207300  0.78203100  0.72598900  1
  Si  Si3  1  0.19651100  0.59833000  0.28730700  1
  Si  Si4  1  0.22726300  0.31141500  0.29737600  1
  Si  Si5  1  0.61936500  0.55703400  0.86802200  1
  Si  Si6  1  0.64954300  0.79444200  0.01561800  1
  Si  Si7  1  0.03911200  0.90810100  0.68763300  1
  Si  Si8  1  0.30174700  0.57623500  0.83872200  1
  Si  Si9  1  0.14572500  0.34708700  0.99106800  1
  Si  Si10  1  0.31907400  0.67733200  0.53539100  1
  Si  Si11  1  0.45218900  0.75378100  0.18271500  1
  Si  Si12  1  0.74897700  0.15211100  0.04283900  1
  Si  Si13  1  0.58094000  0.31677800  0.18800700  1
  Si  Si14  1  0.65402300  0.39349900  0.62260200  1
  Si  Si15  1  0.47842500  0.00944000  0.01237900  1
  Si  Si16  1  0.97363200  0.48507400  0.14089300  1
  Si  Si17  1  0.43013500  0.92190000  0.76571600  1
  Si  Si18  1  0.33498100  0.88478500  0.35515800  1
  Si  Si19  1  0.95054900  0.95345900  0.99856600  1
  Si  Si20  1  0.75249000  0.99288400  0.56725100  1
  Si  Si21  1  0.07325600  0.12974900  0.80801000  1
  Si  Si22  1  0.20290300  0.13274800  0.05270700  1
  Si  Si23  1  0.22046100  0.12076000  0.41869800  1
  Si  Si24  1  0.41858000  0.75449300  0.90633500  1
  Si  Si25  1  0.53097500  0.58943400  0.60470800  1
  Si  Si26  1  0.91369900  0.86974100  0.46836600  1
  Si  Si27  1  0.94711200  0.18185700  0.48751800  1
  Si  Si28  1  0.47043100  0.24030000  0.44452100  1
  Si  Si29  1  0.95683500  0.38028200  0.66863500  1
  Si  Si30  1  0.88207400  0.02259300  0.24743300  1
  Si  Si31  1  0.09450700  0.69592700  0.98419100  1
  Si  Si32  1  0.87247000  0.30572400  0.24295400  1
  Si  Si33  1  0.44260100  0.97439000  0.55545000  1
  Si  Si34  1  0.97635400  0.42792400  0.39392400  1
  Si  Si35  1  0.69309000  0.56356200  0.15267900  1
  Si  Si36  1  0.22413700  0.94251300  0.16524700  1
  Si  Si37  1  0.64900200  0.87181500  0.38367400  1
  Si  Si38  1  0.82169800  0.20935400  0.73984500  1
  Si  Si39  1  0.96355800  0.55009100  0.87332600  1
  Si  Si40  1  0.45294700  0.49782400  0.33401700  1
  Si  Si41  1  0.39363100  0.46925500  0.04025300  1
  Si  Si42  1  0.69946100  0.99417000  0.85812200  1
  Si  Si43  1  0.58905100  0.05402000  0.24668300  1
  Si  Si44  1  0.95228500  0.74011600  0.19088800  1
  N  N45  1  0.96886300  0.77177700  0.61329700  1
  N  N46  1  0.57886100  0.73880500  0.61775500  1
  N  N47  1  0.93346500  0.57142400  0.45415200  1
  N  N48  1  0.50155400  0.88811600  0.29436900  1
  N  N49  1  0.74159300  0.27629600  0.14491300  1
  N  N50  1  0.76082900  0.90165800  0.97456400  1
  N  N51  1  0.47923600  0.84092400  0.03666900  1
  N  N52  1  0.56697400  0.28904700  0.55212300  1
  N  N53  1  0.98282800  0.98936800  0.83365200  1
  N  N54  1  0.60321500  0.46546700  0.25881200  1
  N  N55  1  0.00836000  0.43341300  0.98582800  1
  N  N56  1  0.47716300  0.34870000  0.07439000  1
  N  N57  1  0.17633900  0.64505300  0.46127700  1
  N  N58  1  0.53351300  0.00577300  0.85731800  1
  N  N59  1  0.23477000  0.99946800  0.31672400  1
  N  N60  1  0.57048300  0.48778800  0.73274400  1
  N  N61  1  0.70602800  0.50756900  0.99469800  1
  N  N62  1  0.24608200  0.71524000  0.91668300  1
  N  N63  1  0.62363000  0.72424800  0.86991800  1
  N  N64  1  0.10574600  0.99937700  0.07638900  1
  N  N65  1  0.44870700  0.59033000  0.93264200  1
  N  N66  1  0.60234900  0.97452900  0.50345200  1
  N  N67  1  0.01666500  0.52641200  0.70628500  1
  N  N68  1  0.75902100  0.76045100  0.41448100  1
  N  N69  1  0.75279900  0.14473200  0.87528200  1
  N  N70  1  0.79278000  0.35697100  0.69371300  1
  N  N71  1  0.88255500  0.07301500  0.08938700  1
  N  N72  1  0.44297400  0.59516000  0.46189400  1
  N  N73  1  0.28790600  0.79911700  0.22214400  1
  N  N74  1  0.26447100  0.44932200  0.94054100  1
  N  N75  1  0.45443600  0.24869400  0.81501700  1
  N  N76  1  0.59945700  0.08103400  0.08551200  1
  N  N77  1  0.99860200  0.33080800  0.51869500  1
  N  N78  1  0.73987100  0.92369900  0.71742900  1
  N  N79  1  0.18276800  0.00776900  0.73766100  1
  N  N80  1  0.15781000  0.20395300  0.91707800  1
  N  N81  1  0.04156400  0.96702700  0.53605500  1
  N  N82  1  0.54226400  0.19293500  0.30064700  1
  N  N83  1  0.37126000  0.25915200  0.75437600  1
  N  N84  1  0.98256600  0.80147300  0.03997800  1
  N  N85  1  0.72606900  0.97957500  0.28309400  1
  N  N86  1  0.36307900  0.57854000  0.21533500  1
  N  N87  1  0.95541800  0.87285400  0.29440500  1
  N  N88  1  0.91455800  0.16579200  0.32528600  1
  N  N89  1  0.85263700  0.59776800  0.18579900  1
  N  N90  1  0.34597800  0.84185700  0.50979600  1
  N  N91  1  0.07953200  0.09277000  0.51053700  1
  N  N92  1  0.37271400  0.35652400  0.36519400  1
  N  N93  1  0.19311900  0.27311100  0.13612300  1
  N  N94  1  0.34215300  0.61659200  0.68570000  1
  N  N95  1  0.33493200  0.04202700  0.07434000  1
  N  N96  1  0.98314300  0.24482500  0.75522700  1
  N  N97  1  0.29100100  0.00517300  0.77718200  1
  N  N98  1  0.36942600  0.10901200  0.49445600  1
  N  N99  1  0.08502400  0.63213000  0.16398700  1
  N  N100  1  0.80019000  0.55471900  0.88711500  1
  N  N101  1  0.67355400  0.52432000  0.52521600  1
  N  N102  1  0.12786900  0.44446400  0.31156000  1
  N  N103  1  0.61549000  0.70318400  0.15152000  1
  N  N104  1  0.82320400  0.13149300  0.59455500  1
