# generated using pymatgen
data_TiPb7N6
_symmetry_space_group_name_H-M   'P 1'
_cell_length_a   12.84325700
_cell_length_b   7.33128500
_cell_length_c   12.96864300
_cell_angle_alpha   90.00000000
_cell_angle_beta   90.00000000
_cell_angle_gamma   90.00000000
_symmetry_Int_Tables_number   1
_chemical_formula_structural   TiPb7N6
_chemical_formula_sum   'Ti4 Pb28 N24'
_cell_volume   1221.09600698
_cell_formula_units_Z   4
loop_
 _symmetry_equiv_pos_site_id
 _symmetry_equiv_pos_as_xyz
  1  'x, y, z'
loop_
 _atom_site_type_symbol
 _atom_site_label
 _atom_site_symmetry_multiplicity
 _atom_site_fract_x
 _atom_site_fract_y
 _atom_site_fract_z
 _atom_site_occupancy
  Ti  Ti0  1  0.00000000  0.83526800  0.75000000  1
  Ti  Ti1  1  0.50000000  0.66473200  0.25000000  1
  Ti  Ti2  1  0.00000000  0.16473200  0.25000000  1
  Ti  Ti3  1  0.50000000  0.33526800  0.75000000  1
  Pb  Pb4  1  0.00501100  0.76863600  0.02541100  1
  Pb  Pb5  1  0.49498900  0.73136400  0.52541100  1
  Pb  Pb6  1  0.50501100  0.73136400  0.97458900  1
  Pb  Pb7  1  0.99498900  0.76863600  0.47458900  1
  Pb  Pb8  1  0.99498900  0.23136400  0.97458900  1
  Pb  Pb9  1  0.50501100  0.26863600  0.47458900  1
  Pb  Pb10  1  0.49498900  0.26863600  0.02541100  1
  Pb  Pb11  1  0.00501100  0.23136400  0.52541100  1
  Pb  Pb12  1  0.20847800  0.82234500  0.62514000  1
  Pb  Pb13  1  0.29152300  0.67765500  0.12514000  1
  Pb  Pb14  1  0.70847700  0.67765500  0.37486000  1
  Pb  Pb15  1  0.79152300  0.82234500  0.87486000  1
  Pb  Pb16  1  0.79152300  0.17765500  0.37486000  1
  Pb  Pb17  1  0.70847700  0.32234500  0.87486000  1
  Pb  Pb18  1  0.29152300  0.32234500  0.62514000  1
  Pb  Pb19  1  0.20847800  0.17765500  0.12514000  1
  Pb  Pb20  1  0.25804500  0.52771000  0.86353500  1
  Pb  Pb21  1  0.24195500  0.97229000  0.36353500  1
  Pb  Pb22  1  0.75804500  0.97229000  0.13646500  1
  Pb  Pb23  1  0.74195500  0.52771000  0.63646500  1
  Pb  Pb24  1  0.74195500  0.47229000  0.13646500  1
  Pb  Pb25  1  0.75804500  0.02771000  0.63646500  1
  Pb  Pb26  1  0.24195500  0.02771000  0.86353500  1
  Pb  Pb27  1  0.25804500  0.47229000  0.36353500  1
  Pb  Pb28  1  0.00000000  0.43146400  0.75000000  1
  Pb  Pb29  1  0.50000000  0.06853600  0.25000000  1
  Pb  Pb30  1  0.00000000  0.56853600  0.25000000  1
  Pb  Pb31  1  0.50000000  0.93146400  0.75000000  1
  N  N32  1  0.11332900  0.66721500  0.77134800  1
  N  N33  1  0.38667100  0.83278500  0.27134800  1
  N  N34  1  0.61332900  0.83278500  0.22865200  1
  N  N35  1  0.88667100  0.66721500  0.72865200  1
  N  N36  1  0.88667100  0.33278500  0.22865200  1
  N  N37  1  0.61332900  0.16721500  0.72865200  1
  N  N38  1  0.38667100  0.16721500  0.77134800  1
  N  N39  1  0.11332900  0.33278500  0.27134800  1
  N  N40  1  0.17497300  0.71247300  0.46193800  1
  N  N41  1  0.32502700  0.78752700  0.96193800  1
  N  N42  1  0.67497300  0.78752700  0.53806200  1
  N  N43  1  0.82502700  0.71247300  0.03806200  1
  N  N44  1  0.82502700  0.28752700  0.53806200  1
  N  N45  1  0.67497300  0.21247300  0.03806200  1
  N  N46  1  0.32502700  0.21247300  0.46193800  1
  N  N47  1  0.17497300  0.28752700  0.96193800  1
  N  N48  1  0.46359900  0.45533900  0.61921000  1
  N  N49  1  0.03640100  0.04466100  0.11921000  1
  N  N50  1  0.96359900  0.04466100  0.38079000  1
  N  N51  1  0.53640100  0.45533900  0.88079000  1
  N  N52  1  0.53640100  0.54466100  0.38079000  1
  N  N53  1  0.96359900  0.95533900  0.88079000  1
  N  N54  1  0.03640100  0.95533900  0.61921000  1
  N  N55  1  0.46359900  0.54466100  0.11921000  1
