# generated using pymatgen
data_Ti3O5
_symmetry_space_group_name_H-M   'P 1'
_cell_length_a   10.85180192
_cell_length_b   10.95892816
_cell_length_c   10.80531815
_cell_angle_alpha   89.58517954
_cell_angle_beta   91.31814453
_cell_angle_gamma   88.47202571
_symmetry_Int_Tables_number   1
_chemical_formula_structural   Ti3O5
_chemical_formula_sum   'Ti39 O65'
_cell_volume   1284.17643167
_cell_formula_units_Z   13
loop_
 _symmetry_equiv_pos_site_id
 _symmetry_equiv_pos_as_xyz
  1  'x, y, z'
loop_
 _atom_site_type_symbol
 _atom_site_label
 _atom_site_symmetry_multiplicity
 _atom_site_fract_x
 _atom_site_fract_y
 _atom_site_fract_z
 _atom_site_occupancy
  Ti  Ti0  1  0.41860700  0.69416200  0.90196400  1
  Ti  Ti1  1  0.69475700  0.66981200  0.55209500  1
  Ti  Ti2  1  0.61583500  0.29418100  0.37937300  1
  Ti  Ti3  1  0.60017700  0.37278600  0.64172700  1
  Ti  Ti4  1  0.22048100  0.59488000  0.07304800  1
  Ti  Ti5  1  0.29414200  0.01851400  0.91733800  1
  Ti  Ti6  1  0.76260400  0.16868500  0.07891200  1
  Ti  Ti7  1  0.82135800  0.14766600  0.55798300  1
  Ti  Ti8  1  0.57855300  0.03908200  0.70112600  1
  Ti  Ti9  1  0.17252500  0.40252300  0.54695000  1
  Ti  Ti10  1  0.92176300  0.69266200  0.08605000  1
  Ti  Ti11  1  0.35096400  0.46181400  0.36466500  1
  Ti  Ti12  1  0.59949000  0.40237700  0.90424800  1
  Ti  Ti13  1  0.06875300  0.90150600  0.18258200  1
  Ti  Ti14  1  0.81437400  0.77569800  0.31927900  1
  Ti  Ti15  1  0.90775200  0.48930100  0.48681400  1
  Ti  Ti16  1  0.56732600  0.92667300  0.46912800  1
  Ti  Ti17  1  0.20874900  0.76161500  0.75490800  1
  Ti  Ti18  1  0.37286400  0.20582100  0.50394300  1
  Ti  Ti19  1  0.91332200  0.79628300  0.67938800  1
  Ti  Ti20  1  0.80860000  0.89527600  0.93050300  1
  Ti  Ti21  1  0.76276000  0.53751300  0.22604700  1
  Ti  Ti22  1  0.08757900  0.94522700  0.44329900  1
  Ti  Ti23  1  0.02951000  0.00002200  0.92750200  1
  Ti  Ti24  1  0.61050300  0.03955200  0.25857700  1
  Ti  Ti25  1  0.67760900  0.66033900  0.99404700  1
  Ti  Ti26  1  0.95784600  0.53330400  0.76276100  1
  Ti  Ti27  1  0.06059200  0.30548100  0.01744800  1
  Ti  Ti28  1  0.53270800  0.95588500  0.95855700  1
  Ti  Ti29  1  0.43134500  0.63398700  0.55433200  1
  Ti  Ti30  1  0.04484500  0.44913000  0.27117000  1
  Ti  Ti31  1  0.39121200  0.22769500  0.75418700  1
  Ti  Ti32  1  0.31681600  0.98044100  0.21608600  1
  Ti  Ti33  1  0.13370100  0.69676500  0.33354100  1
  Ti  Ti34  1  0.26622300  0.99901100  0.63661800  1
  Ti  Ti35  1  0.36128600  0.22758200  0.11079700  1
  Ti  Ti36  1  0.10084600  0.18906600  0.36258800  1
  Ti  Ti37  1  0.85214500  0.26986900  0.86275900  1
  Ti  Ti38  1  0.50152100  0.45593500  0.13367600  1
  O  O39  1  0.85295900  0.05508800  0.99057900  1
  O  O40  1  0.18202400  0.97064700  0.05694300  1
  O  O41  1  0.82841900  0.69196000  0.91489100  1
  O  O42  1  0.84674900  0.17177700  0.71954700  1
  O  O43  1  0.71133500  0.91901100  0.33189500  1
  O  O44  1  0.96470900  0.12633200  0.47473200  1
  O  O45  1  0.66508500  0.95281400  0.83542600  1
  O  O46  1  0.53639400  0.76726900  0.52662300  1
  O  O47  1  0.53481700  0.20316300  0.64340200  1
  O  O48  1  0.56370100  0.58926400  0.87429400  1
  O  O49  1  0.46573300  0.93988800  0.30783700  1
  O  O50  1  0.04775100  0.04382000  0.27367500  1
  O  O51  1  0.07802400  0.29177000  0.20345600  1
  O  O52  1  0.43819300  0.98812500  0.59134300  1
  O  O53  1  0.01852600  0.35293600  0.42611500  1
  O  O54  1  0.40904900  0.04783700  0.07347500  1
  O  O55  1  0.27814100  0.13356800  0.25581600  1
  O  O56  1  0.24186000  0.31113100  0.40942900  1
  O  O57  1  0.23438200  0.23380800  0.00532500  1
  O  O58  1  0.38734200  0.35758400  0.22765100  1
  O  O59  1  0.84609100  0.58993300  0.63399100  1
  O  O60  1  0.48954100  0.31910100  0.02346600  1
  O  O61  1  0.74696900  0.71494500  0.16272400  1
  O  O62  1  0.27098200  0.53666500  0.52207300  1
  O  O63  1  0.27528600  0.30997100  0.64414000  1
  O  O64  1  0.02664900  0.58611600  0.41261800  1
  O  O65  1  0.21111400  0.84306900  0.58061500  1
  O  O66  1  0.70644100  0.18760900  0.25176100  1
  O  O67  1  0.64607600  0.01553200  0.09000100  1
  O  O68  1  0.10133100  0.71084300  0.14748900  1
  O  O69  1  0.20817700  0.53588600  0.26475600  1
  O  O70  1  0.89010500  0.27326300  0.06287700  1
  O  O71  1  0.25415500  0.11336100  0.76972100  1
  O  O72  1  0.21574600  0.86432000  0.30652900  1
  O  O73  1  0.54635700  0.78268400  0.00527100  1
  O  O74  1  0.38680000  0.87283300  0.86871700  1
  O  O75  1  0.73719700  0.30478100  0.51538000  1
  O  O76  1  0.74522700  0.79676900  0.65086900  1
  O  O77  1  0.47240000  0.36141700  0.47718900  1
  O  O78  1  0.43241500  0.60665200  0.37951900  1
  O  O79  1  0.23721200  0.68657800  0.92404800  1
  O  O80  1  0.92731000  0.52385300  0.15846700  1
  O  O81  1  0.04944400  0.68174900  0.74669500  1
  O  O82  1  0.02923900  0.44027600  0.64224700  1
  O  O83  1  0.95361300  0.86386800  0.04317100  1
  O  O84  1  0.72828500  0.38814000  0.76950200  1
  O  O85  1  0.02803900  0.17026200  0.90193700  1
  O  O86  1  0.77662400  0.61327300  0.39941200  1
  O  O87  1  0.69018700  0.24335700  0.93822100  1
  O  O88  1  0.95797700  0.41066100  0.88550700  1
  O  O89  1  0.36445900  0.67656400  0.72079200  1
  O  O90  1  0.39950800  0.58367800  0.06768800  1
  O  O91  1  0.67365700  0.49289800  0.06181000  1
  O  O92  1  0.47016100  0.09044600  0.84970100  1
  O  O93  1  0.21172000  0.08830000  0.49266800  1
  O  O94  1  0.62286400  0.43514800  0.27914000  1
  O  O95  1  0.47733400  0.37999800  0.78031700  1
  O  O96  1  0.16271000  0.91954800  0.81650700  1
  O  O97  1  0.92303300  0.91531200  0.80128800  1
  O  O98  1  0.14468300  0.46301700  0.02745800  1
  O  O99  1  0.69151300  0.02946400  0.55620400  1
  O  O100  1  0.51861600  0.15058700  0.38321100  1
  O  O101  1  0.98651300  0.82008500  0.33157300  1
  O  O102  1  0.57835300  0.54379200  0.59898100  1
  O  O103  1  0.96954300  0.88216900  0.55650500  1
