# generated using pymatgen
data_Al2O3
_symmetry_space_group_name_H-M   'P 1'
_cell_length_a   9.92862149
_cell_length_b   11.10129431
_cell_length_c   10.17852293
_cell_angle_alpha   88.70526185
_cell_angle_beta   86.35394027
_cell_angle_gamma   89.75298327
_symmetry_Int_Tables_number   1
_chemical_formula_structural   Al2O3
_chemical_formula_sum   'Al40 O60'
_cell_volume   1119.32112426
_cell_formula_units_Z   20
loop_
 _symmetry_equiv_pos_site_id
 _symmetry_equiv_pos_as_xyz
  1  'x, y, z'
loop_
 _atom_site_type_symbol
 _atom_site_label
 _atom_site_symmetry_multiplicity
 _atom_site_fract_x
 _atom_site_fract_y
 _atom_site_fract_z
 _atom_site_occupancy
  Al  Al0  1  0.15334400  0.51720600  0.52075600  1
  Al  Al1  1  0.66522800  0.14072700  0.73085200  1
  Al  Al2  1  0.94097500  0.69305500  0.37498000  1
  Al  Al3  1  0.30680000  0.59509000  0.87219400  1
  Al  Al4  1  0.44849700  0.99554100  0.63147500  1
  Al  Al5  1  0.90225500  0.34978100  0.73634400  1
  Al  Al6  1  0.18908200  0.20398900  0.50783400  1
  Al  Al7  1  0.41620900  0.14145100  0.87527400  1
  Al  Al8  1  0.25145800  0.19215900  0.19721300  1
  Al  Al9  1  0.82175300  0.56581900  0.63479400  1
  Al  Al10  1  0.74997600  0.57111800  0.90043400  1
  Al  Al11  1  0.84996400  0.06690000  0.00067700  1
  Al  Al12  1  0.69135400  0.01803400  0.44728800  1
  Al  Al13  1  0.68358600  0.84555200  0.94650200  1
  Al  Al14  1  0.03890500  0.70536400  0.75506200  1
  Al  Al15  1  0.96878300  0.31271600  0.04067200  1
  Al  Al16  1  0.12306000  0.18438400  0.81232300  1
  Al  Al17  1  0.13889500  0.94004900  0.34912400  1
  Al  Al18  1  0.55516000  0.91318000  0.24579200  1
  Al  Al19  1  0.18666700  0.92709300  0.81518800  1
  Al  Al20  1  0.46391900  0.17372500  0.42523000  1
  Al  Al21  1  0.20228500  0.74326300  0.03330300  1
  Al  Al22  1  0.43731400  0.63761500  0.36433700  1
  Al  Al23  1  0.96491500  0.15051900  0.29584500  1
  Al  Al24  1  0.27988700  0.77363600  0.56708600  1
  Al  Al25  1  0.92152500  0.13942800  0.54342400  1
  Al  Al26  1  0.86249400  0.94040400  0.74002900  1
  Al  Al27  1  0.67704800  0.33164500  0.96374000  1
  Al  Al28  1  0.63886700  0.40995500  0.43611200  1
  Al  Al29  1  0.51082300  0.56162900  0.60078600  1
  Al  Al30  1  0.46199500  0.41033200  0.21453500  1
  Al  Al31  1  0.67926200  0.77597500  0.61809800  1
  Al  Al32  1  0.50313900  0.70687100  0.09991100  1
  Al  Al33  1  0.91569400  0.41282900  0.43608000  1
  Al  Al34  1  0.10233600  0.02530700  0.07215000  1
  Al  Al35  1  0.84450200  0.52235100  0.18270500  1
  Al  Al36  1  0.35363400  0.34390600  0.99256600  1
  Al  Al37  1  0.17445000  0.49879400  0.14409800  1
  Al  Al38  1  0.86317800  0.86419300  0.20347100  1
  Al  Al39  1  0.35986500  0.37266700  0.67406700  1
  O  O40  1  0.34836700  0.18389300  0.04208400  1
  O  O41  1  0.31227200  0.87815400  0.69566700  1
  O  O42  1  0.83706400  0.70724400  0.53052900  1
  O  O43  1  0.64761400  0.62290800  0.68779200  1
  O  O44  1  0.00445900  0.44896900  0.12437300  1
  O  O45  1  0.77135900  0.43731500  0.54614600  1
  O  O46  1  0.00946000  0.27704700  0.42741500  1
  O  O47  1  0.02173400  0.31567500  0.86604700  1
  O  O48  1  0.00332800  0.83765400  0.31316700  1
  O  O49  1  0.47325100  0.56672900  0.19575400  1
  O  O50  1  0.58492100  0.22929600  0.86315700  1
  O  O51  1  0.07348800  0.16056600  0.65081800  1
  O  O52  1  0.82171100  0.22368200  0.67057000  1
  O  O53  1  0.37557700  0.52756700  0.73285300  1
  O  O54  1  0.83732900  0.99489900  0.58252900  1
  O  O55  1  0.51892600  0.37530300  0.04612300  1
  O  O56  1  0.15496200  0.68259600  0.87627500  1
  O  O57  1  0.55621400  0.88684100  0.06826500  1
  O  O58  1  0.75722000  0.42301400  0.81968300  1
  O  O59  1  0.28702600  0.36995600  0.18030000  1
  O  O60  1  0.29732700  0.20442900  0.35742800  1
  O  O61  1  0.73166100  0.83293100  0.77276900  1
  O  O62  1  0.25118400  0.86296000  0.43489400  1
  O  O63  1  0.80887000  0.23061500  0.03496000  1
  O  O64  1  0.77650900  0.04717700  0.84607200  1
  O  O65  1  0.58634500  0.89865300  0.55366900  1
  O  O66  1  0.58207300  0.56085900  0.42631700  1
  O  O67  1  0.01668200  0.54672700  0.39906800  1
  O  O68  1  0.02561900  0.87068300  0.75775400  1
  O  O69  1  0.65005100  0.68631100  0.97925600  1
  O  O70  1  0.72250100  0.90304700  0.30834100  1
  O  O71  1  0.28927900  0.55198700  0.40603300  1
  O  O72  1  0.85111700  0.67866800  0.22592800  1
  O  O73  1  0.88637500  0.62953200  0.79272600  1
  O  O74  1  0.15734700  0.65277300  0.16528200  1
  O  O75  1  0.79456800  0.41754900  0.30924700  1
  O  O76  1  0.06411000  0.07060500  0.42084900  1
  O  O77  1  0.43242100  0.69778900  0.54293000  1
  O  O78  1  0.02192300  0.08735700  0.93255500  1
  O  O79  1  0.82814700  0.89324800  0.02976300  1
  O  O80  1  0.37439000  0.70338600  0.98067600  1
  O  O81  1  0.07076300  0.21797900  0.15196800  1
  O  O82  1  0.34629300  0.12167600  0.56831200  1
  O  O83  1  0.53155000  0.04799700  0.33465000  1
  O  O84  1  0.59704700  0.12922200  0.55881100  1
  O  O85  1  0.16115200  0.89088400  0.99244000  1
  O  O86  1  0.46988400  0.77341300  0.26502700  1
  O  O87  1  0.81228200  0.13736700  0.39155100  1
  O  O88  1  0.25216500  0.47535700  0.97581200  1
  O  O89  1  0.20977500  0.02401000  0.20330700  1
  O  O90  1  0.14203600  0.66718400  0.61183800  1
  O  O91  1  0.25219300  0.07273800  0.83814600  1
  O  O92  1  0.53357300  0.31698100  0.33867900  1
  O  O93  1  0.51461600  0.03442700  0.78337100  1
  O  O94  1  0.32433100  0.28648200  0.82256600  1
  O  O95  1  0.98607500  0.46417600  0.63052600  1
  O  O96  1  0.76196500  0.47751200  0.04486300  1
  O  O97  1  0.51607100  0.39256200  0.58866600  1
  O  O98  1  0.22297200  0.36222100  0.57303700  1
  O  O99  1  0.93614500  0.02822700  0.16873400  1
