# generated using pymatgen
data_CoO
_symmetry_space_group_name_H-M   'P 1'
_cell_length_a   10.26261537
_cell_length_b   10.21236637
_cell_length_c   10.03293133
_cell_angle_alpha   86.16193491
_cell_angle_beta   90.09382928
_cell_angle_gamma   95.93021240
_symmetry_Int_Tables_number   1
_chemical_formula_structural   CoO
_chemical_formula_sum   'Co40 O40'
_cell_volume   1043.51966144
_cell_formula_units_Z   40
loop_
 _symmetry_equiv_pos_site_id
 _symmetry_equiv_pos_as_xyz
  1  'x, y, z'
loop_
 _atom_site_type_symbol
 _atom_site_label
 _atom_site_symmetry_multiplicity
 _atom_site_fract_x
 _atom_site_fract_y
 _atom_site_fract_z
 _atom_site_occupancy
  Co  Co0  1  0.26818488  0.82104037  0.15262752  1
  Co  Co1  1  0.22585168  0.35985782  0.53348610  1
  Co  Co2  1  0.35353495  0.10888424  0.05515065  1
  Co  Co3  1  0.52200333  0.52016423  0.53295112  1
  Co  Co4  1  0.89675392  0.94214818  0.65732542  1
  Co  Co5  1  0.63829952  0.03875710  0.67653136  1
  Co  Co6  1  0.33840923  0.00696372  0.56122421  1
  Co  Co7  1  0.63071836  0.57009164  0.98146433  1
  Co  Co8  1  0.01237817  0.39689919  0.73305291  1
  Co  Co9  1  0.17061954  0.56180908  0.02451738  1
  Co  Co10  1  0.02870344  0.02103530  0.15791459  1
  Co  Co11  1  0.73428855  0.27198357  0.56040498  1
  Co  Co12  1  0.02007555  0.14964786  0.45869790  1
  Co  Co13  1  0.87174046  0.37761489  0.05082303  1
  Co  Co14  1  0.81031324  0.54369278  0.63835562  1
  Co  Co15  1  0.34810903  0.74957752  0.55133835  1
  Co  Co16  1  0.56972764  0.26201284  0.88696149  1
  Co  Co17  1  0.51334716  0.95205762  0.37393802  1
  Co  Co18  1  0.77643073  0.86090151  0.96695470  1
  Co  Co19  1  0.24068819  0.86746615  0.82204972  1
  Co  Co20  1  0.33958614  0.55439296  0.77850365  1
  Co  Co21  1  0.07702225  0.67599325  0.56841009  1
  Co  Co22  1  0.59605320  0.72967837  0.26701430  1
  Co  Co23  1  0.52199742  0.92499822  0.02597113  1
  Co  Co24  1  0.98464638  0.68297717  0.22552947  1
  Co  Co25  1  0.17509395  0.28509104  0.93939285  1
  Co  Co26  1  0.89512677  0.11463278  0.87238259  1
  Co  Co27  1  0.28365268  0.60316282  0.34601533  1
  Co  Co28  1  0.70385884  0.46484970  0.27866267  1
  Co  Co29  1  0.11469932  0.06636151  0.70772998  1
  Co  Co30  1  0.37219767  0.23300673  0.70953826  1
  Co  Co31  1  0.79290110  0.75747912  0.47756854  1
  Co  Co32  1  0.18817362  0.90566456  0.38599198  1
  Co  Co33  1  0.59799176  0.24212131  0.15800821  1
  Co  Co34  1  0.48683035  0.25399367  0.39373300  1
  Co  Co35  1  0.77306543  0.04590735  0.36612735  1
  Co  Co36  1  0.99361417  0.44641540  0.39120211  1
  Co  Co37  1  0.23910463  0.26933201  0.23693662  1
  Co  Co38  1  0.96708102  0.71154192  0.86672580  1
  Co  Co39  1  0.56633850  0.75025798  0.71105837  1
  O  O40  1  0.94077975  0.67447215  0.41705393  1
  O  O41  1  0.76659650  0.97521174  0.80054975  1
  O  O42  1  0.04438057  0.88124222  0.77414494  1
  O  O43  1  0.12127167  0.30881616  0.36932274  1
  O  O44  1  0.65556693  0.84665949  0.10634425  1
  O  O45  1  0.54762782  0.11113970  0.02403695  1
  O  O46  1  0.17464896  0.15609731  0.09335312  1
  O  O47  1  0.60967434  0.57637339  0.17527131  1
  O  O48  1  0.87986192  0.44426874  0.22980341  1
  O  O49  1  0.59766765  0.21740438  0.70299761  1
  O  O50  1  0.60824082  0.12986650  0.32976778  1
  O  O51  1  0.35131830  0.95337075  0.28204614  1
  O  O52  1  0.09532053  0.85239798  0.22665938  1
  O  O53  1  0.67896076  0.86568007  0.38221380  1
  O  O54  1  0.12960937  0.00457579  0.52241288  1
  O  O55  1  0.88623761  0.39962919  0.56462642  1
  O  O56  1  0.94015211  0.09293236  0.29627820  1
  O  O57  1  0.66708593  0.64199352  0.60549757  1
  O  O58  1  0.41756278  0.27978007  0.20732367  1
  O  O59  1  0.95692278  0.29068388  0.91274162  1
  O  O60  1  0.38283796  0.42373173  0.64819447  1
  O  O61  1  0.35542954  0.20166359  0.52546568  1
  O  O62  1  0.33832029  0.90653731  0.98601009  1
  O  O63  1  0.50208581  0.90784738  0.60364698  1
  O  O64  1  0.10305134  0.25071517  0.66682845  1
  O  O65  1  0.01927045  0.64918642  0.04301704  1
  O  O66  1  0.91394084  0.98515633  0.01171172  1
  O  O67  1  0.62432737  0.39307632  0.44433327  1
  O  O68  1  0.97146172  0.58614437  0.72708055  1
  O  O69  1  0.24351986  0.71884362  0.70105113  1
  O  O70  1  0.44983510  0.66826201  0.41786513  1
  O  O71  1  0.36719018  0.26055561  0.89176992  1
  O  O72  1  0.18312708  0.46720915  0.87501450  1
  O  O73  1  0.27358551  0.62978248  0.16325290  1
  O  O74  1  0.81762391  0.09570334  0.55513178  1
  O  O75  1  0.77451678  0.69943663  0.90078325  1
  O  O76  1  0.68037099  0.37554306  0.00687458  1
  O  O77  1  0.30184929  0.05209651  0.74791593  1
  O  O78  1  0.15809746  0.53637162  0.48065827  1
  O  O79  1  0.49773261  0.63474246  0.85438319  1
