# generated using pymatgen
data_GaB2N3
_symmetry_space_group_name_H-M   'P 1'
_cell_length_a   5.00057753
_cell_length_b   8.75588624
_cell_length_c   11.48973673
_cell_angle_alpha   89.99999597
_cell_angle_beta   90.10704726
_cell_angle_gamma   151.10270826
_symmetry_Int_Tables_number   1
_chemical_formula_structural   GaB2N3
_chemical_formula_sum   'Ga4 B8 N12'
_cell_volume   243.10331585
_cell_formula_units_Z   4
loop_
 _symmetry_equiv_pos_site_id
 _symmetry_equiv_pos_as_xyz
  1  'x, y, z'
loop_
 _atom_site_type_symbol
 _atom_site_label
 _atom_site_symmetry_multiplicity
 _atom_site_fract_x
 _atom_site_fract_y
 _atom_site_fract_z
 _atom_site_occupancy
  Ga  Ga0  1  0.24915700  0.08435000  0.61169600  1
  Ga  Ga1  1  0.75084300  0.83519200  0.88830400  1
  Ga  Ga2  1  0.75084300  0.91565000  0.38830400  1
  Ga  Ga3  1  0.24915700  0.16480800  0.11169600  1
  B  B4  1  0.81641500  0.18245700  0.94985600  1
  B  B5  1  0.18358500  0.36604300  0.55014400  1
  B  B6  1  0.18358500  0.81754300  0.05014400  1
  B  B7  1  0.81641500  0.63395700  0.44985600  1
  B  B8  1  0.53043900  0.94405500  0.70853800  1
  B  B9  1  0.46956100  0.41361600  0.79146200  1
  B  B10  1  0.46956100  0.05594500  0.29146200  1
  B  B11  1  0.53043900  0.58638400  0.20853800  1
  N  N12  1  0.00000000  0.67256700  0.75000000  1
  N  N13  1  0.00000000  0.32743300  0.25000000  1
  N  N14  1  0.73535000  0.16230200  0.62550400  1
  N  N15  1  0.26465000  0.42695100  0.87449600  1
  N  N16  1  0.26465000  0.83769800  0.37449600  1
  N  N17  1  0.73535000  0.57304900  0.12550400  1
  N  N18  1  0.37188800  0.06147600  0.99654100  1
  N  N19  1  0.62811200  0.68958700  0.50345900  1
  N  N20  1  0.62811200  0.93852400  0.00345900  1
  N  N21  1  0.37188800  0.31041300  0.49654100  1
  N  N22  1  0.00000000  0.06987600  0.75000000  1
  N  N23  1  0.00000000  0.93012400  0.25000000  1
