# generated using pymatgen
data_Cr5(SiN3)3
_symmetry_space_group_name_H-M   'P 1'
_cell_length_a   7.09507683
_cell_length_b   11.30231049
_cell_length_c   14.92718100
_cell_angle_alpha   90.00000000
_cell_angle_beta   90.00000000
_cell_angle_gamma   142.79619044
_symmetry_Int_Tables_number   1
_chemical_formula_structural   Cr5(SiN3)3
_chemical_formula_sum   'Cr20 Si12 N36'
_cell_volume   723.78184039
_cell_formula_units_Z   4
loop_
 _symmetry_equiv_pos_site_id
 _symmetry_equiv_pos_as_xyz
  1  'x, y, z'
loop_
 _atom_site_type_symbol
 _atom_site_label
 _atom_site_symmetry_multiplicity
 _atom_site_fract_x
 _atom_site_fract_y
 _atom_site_fract_z
 _atom_site_occupancy
  Cr  Cr0  1  0.00000000  0.57224900  0.86507800  1
  Cr  Cr1  1  0.00000000  0.42775100  0.13492200  1
  Cr  Cr2  1  0.00000000  0.92775100  0.36507800  1
  Cr  Cr3  1  0.00000000  0.07224900  0.63492200  1
  Cr  Cr4  1  0.44386800  0.06176400  0.86441200  1
  Cr  Cr5  1  0.44386800  0.38210400  0.13558800  1
  Cr  Cr6  1  0.44386800  0.88210400  0.36441200  1
  Cr  Cr7  1  0.44386800  0.56176400  0.63558800  1
  Cr  Cr8  1  0.55613200  0.93823600  0.13558800  1
  Cr  Cr9  1  0.55613200  0.61789600  0.86441200  1
  Cr  Cr10  1  0.55613200  0.11789600  0.63558800  1
  Cr  Cr11  1  0.55613200  0.43823600  0.36441200  1
  Cr  Cr12  1  0.00000000  0.45734100  0.57804800  1
  Cr  Cr13  1  0.00000000  0.54265900  0.42195200  1
  Cr  Cr14  1  0.00000000  0.04265900  0.07804800  1
  Cr  Cr15  1  0.00000000  0.95734100  0.92195200  1
  Cr  Cr16  1  0.63055700  0.31527800  0.00000000  1
  Cr  Cr17  1  0.63055700  0.81527800  0.50000000  1
  Cr  Cr18  1  0.36944300  0.68472200  0.00000000  1
  Cr  Cr19  1  0.36944300  0.18472200  0.50000000  1
  Si  Si20  1  0.00000000  0.76659400  0.02892200  1
  Si  Si21  1  0.00000000  0.23340600  0.97107800  1
  Si  Si22  1  0.00000000  0.73340600  0.52892200  1
  Si  Si23  1  0.00000000  0.26659400  0.47107800  1
  Si  Si24  1  0.00000000  0.27072000  0.74990200  1
  Si  Si25  1  0.00000000  0.72928000  0.25009800  1
  Si  Si26  1  0.00000000  0.22928000  0.24990200  1
  Si  Si27  1  0.00000000  0.77072000  0.75009800  1
  Si  Si28  1  0.50000000  0.83163000  0.75000000  1
  Si  Si29  1  0.50000000  0.66837000  0.25000000  1
  Si  Si30  1  0.50000000  0.16837000  0.25000000  1
  Si  Si31  1  0.50000000  0.33163000  0.75000000  1
  N  N32  1  0.00000000  0.40479700  0.69598000  1
  N  N33  1  0.00000000  0.59520300  0.30402000  1
  N  N34  1  0.00000000  0.09520300  0.19598000  1
  N  N35  1  0.00000000  0.90479700  0.80402000  1
  N  N36  1  0.00000000  0.26610100  0.86129400  1
  N  N37  1  0.00000000  0.73389900  0.13870600  1
  N  N38  1  0.00000000  0.23389900  0.36129400  1
  N  N39  1  0.00000000  0.76610100  0.63870600  1
  N  N40  1  0.00000000  0.62151500  0.98324200  1
  N  N41  1  0.00000000  0.37848500  0.01675800  1
  N  N42  1  0.00000000  0.87848500  0.48324200  1
  N  N43  1  0.00000000  0.12151500  0.51675800  1
  N  N44  1  0.71388200  0.54844300  0.80542900  1
  N  N45  1  0.71388200  0.16544000  0.19457100  1
  N  N46  1  0.71388200  0.66544000  0.30542900  1
  N  N47  1  0.71388200  0.04844300  0.69457100  1
  N  N48  1  0.28611800  0.45155700  0.19457100  1
  N  N49  1  0.28611800  0.83456000  0.80542900  1
  N  N50  1  0.28611800  0.33456000  0.69457100  1
  N  N51  1  0.28611800  0.95155700  0.30542900  1
  N  N52  1  0.59580200  0.28999900  0.84695500  1
  N  N53  1  0.59580200  0.30580300  0.15304500  1
  N  N54  1  0.59580200  0.80580300  0.34695500  1
  N  N55  1  0.59580200  0.78999900  0.65304500  1
  N  N56  1  0.40419800  0.71000100  0.15304500  1
  N  N57  1  0.40419800  0.69419700  0.84695500  1
  N  N58  1  0.40419800  0.19419700  0.65304500  1
  N  N59  1  0.40419800  0.21000100  0.34695500  1
  N  N60  1  0.29905100  0.01398100  0.98946400  1
  N  N61  1  0.29905100  0.28506900  0.01053600  1
  N  N62  1  0.29905100  0.78506900  0.48946400  1
  N  N63  1  0.29905100  0.51398100  0.51053600  1
  N  N64  1  0.70094900  0.98601900  0.01053600  1
  N  N65  1  0.70094900  0.71493100  0.98946400  1
  N  N66  1  0.70094900  0.21493100  0.51053600  1
  N  N67  1  0.70094900  0.48601900  0.48946400  1
