# generated using pymatgen
data_Y2Mg3N4
_symmetry_space_group_name_H-M   'P 1'
_cell_length_a   6.76261911
_cell_length_b   7.25264266
_cell_length_c   6.07136535
_cell_angle_alpha   90.00000227
_cell_angle_beta   88.24826428
_cell_angle_gamma   122.42738720
_symmetry_Int_Tables_number   1
_chemical_formula_structural   Y2Mg3N4
_chemical_formula_sum   'Y4 Mg6 N8'
_cell_volume   251.18397181
_cell_formula_units_Z   2
loop_
 _symmetry_equiv_pos_site_id
 _symmetry_equiv_pos_as_xyz
  1  'x, y, z'
loop_
 _atom_site_type_symbol
 _atom_site_label
 _atom_site_symmetry_multiplicity
 _atom_site_fract_x
 _atom_site_fract_y
 _atom_site_fract_z
 _atom_site_occupancy
  Y  Y0  1  0.51145100  0.13811700  0.71915900  1
  Y  Y1  1  0.48854900  0.62666700  0.78084100  1
  Y  Y2  1  0.48854900  0.86188300  0.28084100  1
  Y  Y3  1  0.51145100  0.37333300  0.21915900  1
  Mg  Mg4  1  0.11783000  0.91629800  0.06202900  1
  Mg  Mg5  1  0.88217000  0.79846700  0.43797100  1
  Mg  Mg6  1  0.88217000  0.08370200  0.93797100  1
  Mg  Mg7  1  0.11783000  0.20153300  0.56202900  1
  Mg  Mg8  1  0.00000000  0.53787000  0.75000000  1
  Mg  Mg9  1  0.00000000  0.46213000  0.25000000  1
  N  N10  1  0.25392900  0.02662100  0.39351600  1
  N  N11  1  0.74607000  0.77269200  0.10648400  1
  N  N12  1  0.74607000  0.97337900  0.60648400  1
  N  N13  1  0.25392900  0.22730800  0.89351600  1
  N  N14  1  0.74332300  0.26422800  0.03389000  1
  N  N15  1  0.25667700  0.52090600  0.46611000  1
  N  N16  1  0.25667700  0.73577200  0.96611000  1
  N  N17  1  0.74332300  0.47909400  0.53389000  1
