# generated using pymatgen
data_Y3Ge6N11
_symmetry_space_group_name_H-M   'P 1'
_cell_length_a   10.36962800
_cell_length_b   10.36962800
_cell_length_c   5.16525400
_cell_angle_alpha   90.00000000
_cell_angle_beta   90.00000000
_cell_angle_gamma   90.00000000
_symmetry_Int_Tables_number   1
_chemical_formula_structural   Y3Ge6N11
_chemical_formula_sum   'Y6 Ge12 N22'
_cell_volume   555.41555221
_cell_formula_units_Z   2
loop_
 _symmetry_equiv_pos_site_id
 _symmetry_equiv_pos_as_xyz
  1  'x, y, z'
loop_
 _atom_site_type_symbol
 _atom_site_label
 _atom_site_symmetry_multiplicity
 _atom_site_fract_x
 _atom_site_fract_y
 _atom_site_fract_z
 _atom_site_occupancy
  Y  Y0  1  0.31665500  0.81665500  0.96806600  1
  Y  Y1  1  0.68334500  0.18334500  0.96806600  1
  Y  Y2  1  0.18334500  0.31665500  0.96806600  1
  Y  Y3  1  0.81665500  0.68334500  0.96806600  1
  Y  Y4  1  0.50000000  0.50000000  0.96531000  1
  Y  Y5  1  0.00000000  0.00000000  0.96531000  1
  Ge  Ge6  1  0.41878000  0.29411200  0.52815100  1
  Ge  Ge7  1  0.58122000  0.70588800  0.52815100  1
  Ge  Ge8  1  0.08122000  0.79411200  0.52815100  1
  Ge  Ge9  1  0.91878000  0.20588800  0.52815100  1
  Ge  Ge10  1  0.29411200  0.58122000  0.52815100  1
  Ge  Ge11  1  0.70588800  0.41878000  0.52815100  1
  Ge  Ge12  1  0.79411200  0.91878000  0.52815100  1
  Ge  Ge13  1  0.20588800  0.08122000  0.52815100  1
  Ge  Ge14  1  0.87884300  0.37884300  0.04648300  1
  Ge  Ge15  1  0.12115700  0.62115700  0.04648300  1
  Ge  Ge16  1  0.62115700  0.87884300  0.04648300  1
  Ge  Ge17  1  0.37884300  0.12115700  0.04648300  1
  N  N18  1  0.31655700  0.42218000  0.67519000  1
  N  N19  1  0.68344300  0.57782000  0.67519000  1
  N  N20  1  0.18344300  0.92218000  0.67519000  1
  N  N21  1  0.81655700  0.07782000  0.67519000  1
  N  N22  1  0.42218000  0.68344300  0.67519000  1
  N  N23  1  0.57782000  0.31655700  0.67519000  1
  N  N24  1  0.92218000  0.81655700  0.67519000  1
  N  N25  1  0.07782000  0.18344300  0.67519000  1
  N  N26  1  0.41291100  0.28847800  0.16890600  1
  N  N27  1  0.58708900  0.71152200  0.16890600  1
  N  N28  1  0.08708900  0.78847800  0.16890600  1
  N  N29  1  0.91291100  0.21152200  0.16890600  1
  N  N30  1  0.28847800  0.58708900  0.16890600  1
  N  N31  1  0.71152200  0.41291100  0.16890600  1
  N  N32  1  0.78847800  0.91291100  0.16890600  1
  N  N33  1  0.21152200  0.08708900  0.16890600  1
  N  N34  1  0.84686400  0.34686400  0.69573600  1
  N  N35  1  0.15313600  0.65313600  0.69573600  1
  N  N36  1  0.65313600  0.84686400  0.69573600  1
  N  N37  1  0.34686400  0.15313600  0.69573600  1
  N  N38  1  0.50000000  0.00000000  0.09367400  1
  N  N39  1  0.00000000  0.50000000  0.09367400  1
