# generated using pymatgen
data_ScBN2
_symmetry_space_group_name_H-M   'P 1'
_cell_length_a   3.35490800
_cell_length_b   3.35492657
_cell_length_c   9.82435600
_cell_angle_alpha   90.00000000
_cell_angle_beta   90.00000000
_cell_angle_gamma   119.99981688
_symmetry_Int_Tables_number   1
_chemical_formula_structural   ScBN2
_chemical_formula_sum   'Sc2 B2 N4'
_cell_volume   95.76331225
_cell_formula_units_Z   2
loop_
 _symmetry_equiv_pos_site_id
 _symmetry_equiv_pos_as_xyz
  1  'x, y, z'
loop_
 _atom_site_type_symbol
 _atom_site_label
 _atom_site_symmetry_multiplicity
 _atom_site_fract_x
 _atom_site_fract_y
 _atom_site_fract_z
 _atom_site_occupancy
  Sc  Sc0  1  0.00000000  0.00000000  0.00000000  1
  Sc  Sc1  1  0.00000000  0.00000000  0.50000000  1
  B  B2  1  0.66667400  0.33334800  0.25000000  1
  B  B3  1  0.33332600  0.66665200  0.75000000  1
  N  N4  1  0.66667200  0.33334400  0.11373400  1
  N  N5  1  0.33332800  0.66665600  0.88626600  1
  N  N6  1  0.33332800  0.66665600  0.61373400  1
  N  N7  1  0.66667200  0.33334400  0.38626600  1
