# generated using pymatgen
data_Ba4VN4
_symmetry_space_group_name_H-M   'P 1'
_cell_length_a   7.28834410
_cell_length_b   6.77985781
_cell_length_c   9.96647201
_cell_angle_alpha   75.35387066
_cell_angle_beta   69.07744594
_cell_angle_gamma   69.31150332
_symmetry_Int_Tables_number   1
_chemical_formula_structural   Ba4VN4
_chemical_formula_sum   'Ba8 V2 N8'
_cell_volume   425.79973986
_cell_formula_units_Z   2
loop_
 _symmetry_equiv_pos_site_id
 _symmetry_equiv_pos_as_xyz
  1  'x, y, z'
loop_
 _atom_site_type_symbol
 _atom_site_label
 _atom_site_symmetry_multiplicity
 _atom_site_fract_x
 _atom_site_fract_y
 _atom_site_fract_z
 _atom_site_occupancy
  Ba  Ba0  1  0.80256600  0.61057100  0.14507200  1
  Ba  Ba1  1  0.19743400  0.38942900  0.85492800  1
  Ba  Ba2  1  0.67978900  0.17319500  0.02720000  1
  Ba  Ba3  1  0.32021100  0.82680500  0.97280000  1
  Ba  Ba4  1  0.79563400  0.41052300  0.65621000  1
  Ba  Ba5  1  0.20436600  0.58947700  0.34379000  1
  Ba  Ba6  1  0.25499400  0.91264900  0.55523700  1
  Ba  Ba7  1  0.74500600  0.08735100  0.44476300  1
  V  V8  1  0.81576600  0.82245300  0.78164700  1
  V  V9  1  0.18423400  0.17754700  0.21835300  1
  N  N10  1  0.94703900  0.75468600  0.59429400  1
  N  N11  1  0.05296100  0.24531400  0.40570600  1
  N  N12  1  0.00643400  0.85757500  0.84782400  1
  N  N13  1  0.99356600  0.14242500  0.15217600  1
  N  N14  1  0.73842800  0.58668800  0.89566600  1
  N  N15  1  0.26157200  0.41331200  0.10433400  1
  N  N16  1  0.40307000  0.93813700  0.21478000  1
  N  N17  1  0.59693000  0.06186300  0.78522000  1
