# generated using pymatgen
data_Mn9Ir2N9
_symmetry_space_group_name_H-M   'P 1'
_cell_length_a   6.55381380
_cell_length_b   7.64689300
_cell_length_c   17.00585495
_cell_angle_alpha   90.00000000
_cell_angle_beta   106.07728845
_cell_angle_gamma   90.00000000
_symmetry_Int_Tables_number   1
_chemical_formula_structural   Mn9Ir2N9
_chemical_formula_sum   'Mn36 Ir8 N36'
_cell_volume   818.93758937
_cell_formula_units_Z   4
loop_
 _symmetry_equiv_pos_site_id
 _symmetry_equiv_pos_as_xyz
  1  'x, y, z'
loop_
 _atom_site_type_symbol
 _atom_site_label
 _atom_site_symmetry_multiplicity
 _atom_site_fract_x
 _atom_site_fract_y
 _atom_site_fract_z
 _atom_site_occupancy
  Mn  Mn0  1  0.48217600  0.86420100  0.07687100  1
  Mn  Mn1  1  0.51782400  0.36420100  0.42312900  1
  Mn  Mn2  1  0.51782400  0.13579900  0.92312900  1
  Mn  Mn3  1  0.48217600  0.63579900  0.57687100  1
  Mn  Mn4  1  0.61545000  0.12720200  0.57999200  1
  Mn  Mn5  1  0.38455000  0.62720200  0.92000800  1
  Mn  Mn6  1  0.38455000  0.87279800  0.42000800  1
  Mn  Mn7  1  0.61545000  0.37279800  0.07999200  1
  Mn  Mn8  1  0.76625900  0.87212400  0.72333600  1
  Mn  Mn9  1  0.23374100  0.37212400  0.77666400  1
  Mn  Mn10  1  0.23374100  0.12787600  0.27666400  1
  Mn  Mn11  1  0.76625900  0.62787600  0.22333600  1
  Mn  Mn12  1  0.83455300  0.30849800  0.71153300  1
  Mn  Mn13  1  0.16544700  0.80849800  0.78846700  1
  Mn  Mn14  1  0.16544700  0.69150200  0.28846700  1
  Mn  Mn15  1  0.83455300  0.19150200  0.21153300  1
  Mn  Mn16  1  0.69242500  0.41423600  0.89160800  1
  Mn  Mn17  1  0.30757500  0.91423600  0.60839200  1
  Mn  Mn18  1  0.30757500  0.58576400  0.10839200  1
  Mn  Mn19  1  0.69242500  0.08576400  0.39160800  1
  Mn  Mn20  1  0.83246100  0.12181500  0.85207900  1
  Mn  Mn21  1  0.16753900  0.62181500  0.64792100  1
  Mn  Mn22  1  0.16753900  0.87818500  0.14792100  1
  Mn  Mn23  1  0.83246100  0.37818500  0.35207900  1
  Mn  Mn24  1  0.06379300  0.13482200  0.63661600  1
  Mn  Mn25  1  0.93620700  0.63482200  0.86338400  1
  Mn  Mn26  1  0.93620700  0.86517800  0.36338400  1
  Mn  Mn27  1  0.06379300  0.36517800  0.13661600  1
  Mn  Mn28  1  0.30724900  0.33672300  0.58044600  1
  Mn  Mn29  1  0.69275100  0.83672300  0.91955400  1
  Mn  Mn30  1  0.69275100  0.66327700  0.41955400  1
  Mn  Mn31  1  0.30724900  0.16327700  0.08044600  1
  Mn  Mn32  1  0.82741800  0.44370100  0.56977500  1
  Mn  Mn33  1  0.17258200  0.94370100  0.93022500  1
  Mn  Mn34  1  0.17258200  0.55629900  0.43022500  1
  Mn  Mn35  1  0.82741800  0.05629900  0.06977500  1
  Ir  Ir36  1  0.47087300  0.14793500  0.71744200  1
  Ir  Ir37  1  0.52912700  0.64793500  0.78255800  1
  Ir  Ir38  1  0.52912700  0.85206500  0.28255800  1
  Ir  Ir39  1  0.47087300  0.35206500  0.21744300  1
  Ir  Ir40  1  0.84292600  0.82520300  0.57155700  1
  Ir  Ir41  1  0.15707400  0.32520300  0.92844300  1
  Ir  Ir42  1  0.15707400  0.17479700  0.42844300  1
  Ir  Ir43  1  0.84292600  0.67479700  0.07155700  1
  N  N44  1  0.60333100  0.39631000  0.61431700  1
  N  N45  1  0.39666900  0.89631000  0.88568300  1
  N  N46  1  0.39666900  0.60369000  0.38568300  1
  N  N47  1  0.60333100  0.10369000  0.11431700  1
  N  N48  1  0.48483800  0.24462800  0.82500900  1
  N  N49  1  0.51516200  0.74462800  0.67499100  1
  N  N50  1  0.51516200  0.75537200  0.17499100  1
  N  N51  1  0.48483800  0.25537200  0.32500900  1
  N  N52  1  0.79566400  0.06250000  0.95673600  1
  N  N53  1  0.20433600  0.56250000  0.54326400  1
  N  N54  1  0.20433600  0.93750000  0.04326400  1
  N  N55  1  0.79566400  0.43750000  0.45673600  1
  N  N56  1  0.51184600  0.86429200  0.53952900  1
  N  N57  1  0.48815400  0.36429200  0.96047100  1
  N  N58  1  0.48815400  0.13570800  0.46047100  1
  N  N59  1  0.51184600  0.63570800  0.03952900  1
  N  N60  1  0.83194400  0.07807500  0.67702500  1
  N  N61  1  0.16805600  0.57807500  0.82297500  1
  N  N62  1  0.16805600  0.92192500  0.32297500  1
  N  N63  1  0.83194400  0.42192500  0.17702500  1
  N  N64  1  0.06515700  0.38337600  0.66144900  1
  N  N65  1  0.93484300  0.88337600  0.83855100  1
  N  N66  1  0.93484300  0.61662400  0.33855100  1
  N  N67  1  0.06515700  0.11662400  0.16144900  1
  N  N68  1  0.03599400  0.24068000  0.81294000  1
  N  N69  1  0.96400600  0.74068000  0.68706000  1
  N  N70  1  0.96400600  0.75932000  0.18706000  1
  N  N71  1  0.03599400  0.25932000  0.31294000  1
  N  N72  1  0.18417400  0.11994600  0.54685200  1
  N  N73  1  0.81582600  0.61994600  0.95314800  1
  N  N74  1  0.81582600  0.88005400  0.45314800  1
  N  N75  1  0.18417400  0.38005400  0.04685200  1
  N  N76  1  0.24081200  0.97315300  0.70820900  1
  N  N77  1  0.75918800  0.47315300  0.79179100  1
  N  N78  1  0.75918800  0.02684700  0.29179100  1
  N  N79  1  0.24081200  0.52684700  0.20820900  1
