# generated using pymatgen
data_Bi4Te3N2
_symmetry_space_group_name_H-M   'P 1'
_cell_length_a   7.58445800
_cell_length_b   11.31630300
_cell_length_c   11.71350900
_cell_angle_alpha   90.00000000
_cell_angle_beta   90.00000000
_cell_angle_gamma   90.00000000
_symmetry_Int_Tables_number   1
_chemical_formula_structural   Bi4Te3N2
_chemical_formula_sum   'Bi16 Te12 N8'
_cell_volume   1005.34734117
_cell_formula_units_Z   4
loop_
 _symmetry_equiv_pos_site_id
 _symmetry_equiv_pos_as_xyz
  1  'x, y, z'
loop_
 _atom_site_type_symbol
 _atom_site_label
 _atom_site_symmetry_multiplicity
 _atom_site_fract_x
 _atom_site_fract_y
 _atom_site_fract_z
 _atom_site_occupancy
  Bi  Bi0  1  0.58497600  0.25000000  0.82457700  1
  Bi  Bi1  1  0.08497600  0.25000000  0.67542300  1
  Bi  Bi2  1  0.41502400  0.75000000  0.17542300  1
  Bi  Bi3  1  0.91502400  0.75000000  0.32457700  1
  Bi  Bi4  1  0.74891000  0.25000000  0.47248900  1
  Bi  Bi5  1  0.24891000  0.25000000  0.02751100  1
  Bi  Bi6  1  0.25109000  0.75000000  0.52751100  1
  Bi  Bi7  1  0.75109000  0.75000000  0.97248900  1
  Bi  Bi8  1  0.66249700  0.44658100  0.09675500  1
  Bi  Bi9  1  0.16249700  0.05341900  0.40324500  1
  Bi  Bi10  1  0.33750300  0.94658100  0.90324500  1
  Bi  Bi11  1  0.83750300  0.55341900  0.59675500  1
  Bi  Bi12  1  0.33750300  0.55341900  0.90324500  1
  Bi  Bi13  1  0.83750300  0.94658100  0.59675500  1
  Bi  Bi14  1  0.66249700  0.05341900  0.09675500  1
  Bi  Bi15  1  0.16249700  0.44658100  0.40324500  1
  Te  Te16  1  0.94485600  0.25000000  0.26021400  1
  Te  Te17  1  0.44485600  0.25000000  0.23978600  1
  Te  Te18  1  0.05514400  0.75000000  0.73978600  1
  Te  Te19  1  0.55514400  0.75000000  0.76021400  1
  Te  Te20  1  0.60412600  0.55921800  0.35821400  1
  Te  Te21  1  0.10412600  0.94078200  0.14178600  1
  Te  Te22  1  0.39587400  0.05921800  0.64178600  1
  Te  Te23  1  0.89587400  0.44078200  0.85821400  1
  Te  Te24  1  0.39587400  0.44078200  0.64178600  1
  Te  Te25  1  0.89587400  0.05921800  0.85821400  1
  Te  Te26  1  0.60412600  0.94078200  0.35821400  1
  Te  Te27  1  0.10412600  0.55921800  0.14178600  1
  N  N28  1  0.54649100  0.62236500  0.04133000  1
  N  N29  1  0.04649100  0.87763500  0.45867000  1
  N  N30  1  0.45350900  0.12236500  0.95867000  1
  N  N31  1  0.95350900  0.37763500  0.54133000  1
  N  N32  1  0.45350900  0.37763500  0.95867000  1
  N  N33  1  0.95350900  0.12236500  0.54133000  1
  N  N34  1  0.54649100  0.87763500  0.04133000  1
  N  N35  1  0.04649100  0.62236500  0.45867000  1
