# generated using pymatgen
data_NaPdN
_symmetry_space_group_name_H-M   'P 1'
_cell_length_a   8.92566800
_cell_length_b   3.73485400
_cell_length_c   6.18594000
_cell_angle_alpha   90.00000000
_cell_angle_beta   90.00000000
_cell_angle_gamma   90.00000000
_symmetry_Int_Tables_number   1
_chemical_formula_structural   NaPdN
_chemical_formula_sum   'Na4 Pd4 N4'
_cell_volume   206.21490926
_cell_formula_units_Z   4
loop_
 _symmetry_equiv_pos_site_id
 _symmetry_equiv_pos_as_xyz
  1  'x, y, z'
loop_
 _atom_site_type_symbol
 _atom_site_label
 _atom_site_symmetry_multiplicity
 _atom_site_fract_x
 _atom_site_fract_y
 _atom_site_fract_z
 _atom_site_occupancy
  Na  Na0  1  0.66744100  0.25000000  0.07453000  1
  Na  Na1  1  0.16744100  0.25000000  0.42547000  1
  Na  Na2  1  0.33255900  0.75000000  0.92547000  1
  Na  Na3  1  0.83255900  0.75000000  0.57453000  1
  Pd  Pd4  1  0.54697000  0.25000000  0.63650900  1
  Pd  Pd5  1  0.04697000  0.25000000  0.86349100  1
  Pd  Pd6  1  0.45303000  0.75000000  0.36349100  1
  Pd  Pd7  1  0.95303000  0.75000000  0.13650900  1
  N  N8  1  0.92548400  0.25000000  0.22529000  1
  N  N9  1  0.42548400  0.25000000  0.27471000  1
  N  N10  1  0.07451600  0.75000000  0.77471000  1
  N  N11  1  0.57451600  0.75000000  0.72529000  1
