# generated using pymatgen
data_Sr11(GeN5)2
_symmetry_space_group_name_H-M   'P 1'
_cell_length_a   16.27689900
_cell_length_b   16.27689900
_cell_length_c   3.90283400
_cell_angle_alpha   90.00000000
_cell_angle_beta   90.00000000
_cell_angle_gamma   90.00000000
_symmetry_Int_Tables_number   1
_chemical_formula_structural   Sr11(GeN5)2
_chemical_formula_sum   'Sr22 Ge4 N20'
_cell_volume   1034.00685283
_cell_formula_units_Z   2
loop_
 _symmetry_equiv_pos_site_id
 _symmetry_equiv_pos_as_xyz
  1  'x, y, z'
loop_
 _atom_site_type_symbol
 _atom_site_label
 _atom_site_symmetry_multiplicity
 _atom_site_fract_x
 _atom_site_fract_y
 _atom_site_fract_z
 _atom_site_occupancy
  Sr  Sr0  1  0.50000000  0.50000000  0.50000000  1
  Sr  Sr1  1  0.00000000  0.00000000  0.00000000  1
  Sr  Sr2  1  0.00637600  0.77752700  0.50000000  1
  Sr  Sr3  1  0.99362400  0.22247300  0.50000000  1
  Sr  Sr4  1  0.49362400  0.27752700  0.00000000  1
  Sr  Sr5  1  0.50637600  0.72247300  0.00000000  1
  Sr  Sr6  1  0.77752700  0.00637600  0.50000000  1
  Sr  Sr7  1  0.22247300  0.99362400  0.50000000  1
  Sr  Sr8  1  0.27752700  0.49362400  0.00000000  1
  Sr  Sr9  1  0.72247300  0.50637600  0.00000000  1
  Sr  Sr10  1  0.70747300  0.70747300  0.50000000  1
  Sr  Sr11  1  0.29252700  0.29252700  0.50000000  1
  Sr  Sr12  1  0.79252700  0.20747300  0.00000000  1
  Sr  Sr13  1  0.20747300  0.79252700  0.00000000  1
  Sr  Sr14  1  0.39386300  0.87920800  0.50000000  1
  Sr  Sr15  1  0.60613700  0.12079200  0.50000000  1
  Sr  Sr16  1  0.10613700  0.37920800  0.00000000  1
  Sr  Sr17  1  0.89386300  0.62079200  0.00000000  1
  Sr  Sr18  1  0.87920800  0.39386300  0.50000000  1
  Sr  Sr19  1  0.12079200  0.60613700  0.50000000  1
  Sr  Sr20  1  0.37920800  0.10613700  0.00000000  1
  Sr  Sr21  1  0.62079200  0.89386300  0.00000000  1
  Ge  Ge22  1  0.35276900  0.64723100  0.50000000  1
  Ge  Ge23  1  0.64723100  0.35276900  0.50000000  1
  Ge  Ge24  1  0.14723100  0.14723100  0.00000000  1
  Ge  Ge25  1  0.85276900  0.85276900  0.00000000  1
  N  N26  1  0.07473900  0.92526100  0.50000000  1
  N  N27  1  0.92526100  0.07473900  0.50000000  1
  N  N28  1  0.42526100  0.42526100  0.00000000  1
  N  N29  1  0.57473900  0.57473900  0.00000000  1
  N  N30  1  0.45393600  0.17773300  0.50000000  1
  N  N31  1  0.54606400  0.82226700  0.50000000  1
  N  N32  1  0.04606400  0.67773300  0.00000000  1
  N  N33  1  0.95393600  0.32226700  0.00000000  1
  N  N34  1  0.17773300  0.45393600  0.50000000  1
  N  N35  1  0.82226700  0.54606400  0.50000000  1
  N  N36  1  0.67773300  0.04606400  0.00000000  1
  N  N37  1  0.32226700  0.95393600  0.00000000  1
  N  N38  1  0.86919700  0.13080300  0.50000000  1
  N  N39  1  0.13080300  0.86919700  0.50000000  1
  N  N40  1  0.63080300  0.63080300  0.00000000  1
  N  N41  1  0.36919700  0.36919700  0.00000000  1
  N  N42  1  0.72505000  0.27495000  0.50000000  1
  N  N43  1  0.27495000  0.72505000  0.50000000  1
  N  N44  1  0.77495000  0.77495000  0.00000000  1
  N  N45  1  0.22505000  0.22505000  0.00000000  1
