# generated using pymatgen
data_Ca3TeN4
_symmetry_space_group_name_H-M   'P 1'
_cell_length_a   17.30787566
_cell_length_b   17.30787561
_cell_length_c   9.52318694
_cell_angle_alpha   89.99996154
_cell_angle_beta   89.99995974
_cell_angle_gamma   120.00001472
_symmetry_Int_Tables_number   1
_chemical_formula_structural   Ca3TeN4
_chemical_formula_sum   'Ca54 Te18 N72'
_cell_volume   2470.58846124
_cell_formula_units_Z   18
loop_
 _symmetry_equiv_pos_site_id
 _symmetry_equiv_pos_as_xyz
  1  'x, y, z'
loop_
 _atom_site_type_symbol
 _atom_site_label
 _atom_site_symmetry_multiplicity
 _atom_site_fract_x
 _atom_site_fract_y
 _atom_site_fract_z
 _atom_site_occupancy
  Ca  Ca0  1  0.99998938  0.99999908  0.75010121  1
  Ca  Ca1  1  0.99999908  0.99998938  0.25010121  1
  Ca  Ca2  1  0.66666405  0.33332501  0.80792254  1
  Ca  Ca3  1  0.33332501  0.66666405  0.30792254  1
  Ca  Ca4  1  0.33333298  0.66666066  0.83041730  1
  Ca  Ca5  1  0.66666066  0.33333298  0.33041730  1
  Ca  Ca6  1  0.65741005  0.68698840  0.86113274  1
  Ca  Ca7  1  0.31302578  0.97042752  0.86111393  1
  Ca  Ca8  1  0.02958043  0.34258865  0.86113420  1
  Ca  Ca9  1  0.68698840  0.65741005  0.36113274  1
  Ca  Ca10  1  0.97042752  0.31302578  0.36111393  1
  Ca  Ca11  1  0.34258865  0.02958043  0.36113420  1
  Ca  Ca12  1  0.68270712  0.02891835  0.73900754  1
  Ca  Ca13  1  0.97109439  0.65377553  0.73926637  1
  Ca  Ca14  1  0.34621389  0.31730421  0.73912151  1
  Ca  Ca15  1  0.02891835  0.68270712  0.23900754  1
  Ca  Ca16  1  0.65377553  0.97109439  0.23926637  1
  Ca  Ca17  1  0.31730421  0.34621389  0.23912151  1
  Ca  Ca18  1  0.76522505  0.85463315  0.56553659  1
  Ca  Ca19  1  0.14535857  0.91057796  0.56551853  1
  Ca  Ca20  1  0.08942329  0.23478413  0.56552238  1
  Ca  Ca21  1  0.85463315  0.76522505  0.06553659  1
  Ca  Ca22  1  0.91057796  0.14535857  0.06551853  1
  Ca  Ca23  1  0.23478413  0.08942329  0.06552238  1
  Ca  Ca24  1  0.77600981  0.92349710  0.91326622  1
  Ca  Ca25  1  0.07652941  0.85255483  0.91326048  1
  Ca  Ca26  1  0.14746455  0.22397347  0.91326905  1
  Ca  Ca27  1  0.92349710  0.77600981  0.41326622  1
  Ca  Ca28  1  0.85255483  0.07652941  0.41326048  1
  Ca  Ca29  1  0.22397347  0.14746455  0.41326905  1
  Ca  Ca30  1  0.82312435  0.25742681  0.66526010  1
  Ca  Ca31  1  0.74257867  0.56569186  0.66526511  1
  Ca  Ca32  1  0.43430495  0.17688857  0.66527238  1
  Ca  Ca33  1  0.25742681  0.82312435  0.16526010  1
  Ca  Ca34  1  0.56569186  0.74257867  0.16526511  1
  Ca  Ca35  1  0.17688857  0.43430495  0.16527238  1
  Ca  Ca36  1  0.47901286  0.59973143  0.63939822  1
  Ca  Ca37  1  0.40027394  0.87927316  0.63940333  1
  Ca  Ca38  1  0.12072018  0.52098221  0.63941075  1
  Ca  Ca39  1  0.59973143  0.47901286  0.13939822  1
  Ca  Ca40  1  0.87927316  0.40027394  0.13940333  1
  Ca  Ca41  1  0.52098221  0.12072018  0.13941075  1
  Ca  Ca42  1  0.48071249  0.90196918  0.97867199  1
  Ca  Ca43  1  0.09805159  0.57871699  0.97868705  1
  Ca  Ca44  1  0.42127278  0.51931284  0.97866909  1
  Ca  Ca45  1  0.90196918  0.48071249  0.47867199  1
  Ca  Ca46  1  0.57871699  0.09805159  0.47868705  1
  Ca  Ca47  1  0.51931284  0.42127278  0.47866909  1
  Ca  Ca48  1  0.73903216  0.19238242  0.99607785  1
  Ca  Ca49  1  0.80758380  0.54662537  0.99607488  1
  Ca  Ca50  1  0.45336109  0.26096770  0.99607937  1
  Ca  Ca51  1  0.19238242  0.73903216  0.49607785  1
  Ca  Ca52  1  0.54662537  0.80758380  0.49607488  1
  Ca  Ca53  1  0.26096770  0.45336109  0.49607937  1
  Te  Te54  1  0.89597920  0.12141928  0.72690954  1
  Te  Te55  1  0.87858773  0.77455541  0.72691115  1
  Te  Te56  1  0.22543968  0.10402829  0.72691512  1
  Te  Te57  1  0.12141928  0.89597920  0.22690954  1
  Te  Te58  1  0.77455541  0.87858773  0.22691115  1
  Te  Te59  1  0.10402829  0.22543968  0.22691512  1
  Te  Te60  1  0.88991622  0.44468651  0.81939268  1
  Te  Te61  1  0.55530919  0.44522197  0.81938043  1
  Te  Te62  1  0.55476873  0.11008670  0.81939065  1
  Te  Te63  1  0.44468651  0.88991622  0.31939268  1
  Te  Te64  1  0.44522197  0.55530919  0.31938043  1
  Te  Te65  1  0.11008670  0.55476873  0.31939065  1
  Te  Te66  1  0.55814742  0.79152226  0.82449333  1
  Te  Te67  1  0.20847444  0.76662286  0.82455371  1
  Te  Te68  1  0.23337735  0.44184011  0.82453016  1
  Te  Te69  1  0.79152226  0.55814742  0.32449333  1
  Te  Te70  1  0.76662286  0.20847444  0.32455371  1
  Te  Te71  1  0.44184011  0.23337735  0.32453016  1
  N  N72  1  0.99505344  0.12600789  0.83159662  1
  N  N73  1  0.87396922  0.86904315  0.83155031  1
  N  N74  1  0.13094157  0.00495054  0.83159570  1
  N  N75  1  0.12600789  0.99505344  0.33159662  1
  N  N76  1  0.86904315  0.87396922  0.33155031  1
  N  N77  1  0.00495054  0.13094157  0.33159570  1
  N  N78  1  0.62974310  0.90673349  0.91601148  1
  N  N79  1  0.09330047  0.72305056  0.91618562  1
  N  N80  1  0.27696717  0.37024375  0.91609853  1
  N  N81  1  0.90673349  0.62974310  0.41601148  1
  N  N82  1  0.72305056  0.09330047  0.41618562  1
  N  N83  1  0.37024375  0.27696717  0.41609853  1
  N  N84  1  0.93508040  0.20968679  0.57516970  1
  N  N85  1  0.79033806  0.72538399  0.57515449  1
  N  N86  1  0.27460250  0.06492774  0.57517829  1
  N  N87  1  0.20968679  0.93508040  0.07516970  1
  N  N88  1  0.72538399  0.79033806  0.07515449  1
  N  N89  1  0.06492774  0.27460250  0.07517829  1
  N  N90  1  0.65802611  0.16055361  0.69305659  1
  N  N91  1  0.83946734  0.49748917  0.69304873  1
  N  N92  1  0.50250957  0.34197886  0.69303893  1
  N  N93  1  0.16055361  0.65802611  0.19305659  1
  N  N94  1  0.49748917  0.83946734  0.19304873  1
  N  N95  1  0.34197886  0.50250957  0.19303893  1
  N  N96  1  0.79545882  0.33418178  0.90205380  1
  N  N97  1  0.66581608  0.46127120  0.90201424  1
  N  N98  1  0.53870671  0.20453933  0.90201733  1
  N  N99  1  0.33418178  0.79545882  0.40205380  1
  N  N100  1  0.46127120  0.66581608  0.40201424  1
  N  N101  1  0.20453933  0.53870671  0.40201733  1
  N  N102  1  0.62686395  0.77000110  0.68062405  1
  N  N103  1  0.22996384  0.85684061  0.68065823  1
  N  N104  1  0.14315122  0.37313217  0.68064227  1
  N  N105  1  0.77000110  0.62686395  0.18062405  1
  N  N106  1  0.85684061  0.22996384  0.18065823  1
  N  N107  1  0.37313217  0.14315122  0.18064227  1
  N  N108  1  0.58747247  0.05742685  0.97329500  1
  N  N109  1  0.94259401  0.53009667  0.97323934  1
  N  N110  1  0.46993034  0.41251615  0.97326138  1
  N  N111  1  0.05742685  0.58747247  0.47329500  1
  N  N112  1  0.53009667  0.94259401  0.47323934  1
  N  N113  1  0.41251615  0.46993034  0.47326138  1
  N  N114  1  0.96946533  0.41357947  0.71998272  1
  N  N115  1  0.58641747  0.55588272  0.71995459  1
  N  N116  1  0.44413125  0.03053378  0.71993453  1
  N  N117  1  0.41357947  0.96946533  0.21998272  1
  N  N118  1  0.55588272  0.58641747  0.21995459  1
  N  N119  1  0.03053378  0.44413125  0.21993453  1
  N  N120  1  0.82319619  0.14639627  0.85545105  1
  N  N121  1  0.85359447  0.67679935  0.85548386  1
  N  N122  1  0.32319791  0.17680000  0.85546590  1
  N  N123  1  0.14639627  0.82319619  0.35545105  1
  N  N124  1  0.67679935  0.85359447  0.35548386  1
  N  N125  1  0.17680000  0.32319791  0.35546590  1
  N  N126  1  0.51369505  0.68064089  0.93450889  1
  N  N127  1  0.31937815  0.83306908  0.93450198  1
  N  N128  1  0.16694520  0.48629996  0.93451292  1
  N  N129  1  0.68064089  0.51369505  0.43450889  1
  N  N130  1  0.83306908  0.31937815  0.43450198  1
  N  N131  1  0.48629996  0.16694520  0.43451292  1
  N  N132  1  0.81451428  0.00171351  0.65190754  1
  N  N133  1  0.99829953  0.81278914  0.65195156  1
  N  N134  1  0.18720440  0.18549935  0.65192808  1
  N  N135  1  0.00171351  0.81451428  0.15190754  1
  N  N136  1  0.81278914  0.99829953  0.15195156  1
  N  N137  1  0.18549935  0.18720440  0.15192808  1
  N  N138  1  0.45856479  0.79480806  0.73588408  1
  N  N139  1  0.20514543  0.66372632  0.73597333  1
  N  N140  1  0.33626695  0.54142335  0.73593484  1
  N  N141  1  0.79480806  0.45856479  0.23588408  1
  N  N142  1  0.66372632  0.20514543  0.23597333  1
  N  N143  1  0.54142335  0.33626695  0.23593484  1
