# generated using pymatgen
data_As2W
_symmetry_space_group_name_H-M   'P 1'
_cell_length_a   4.87814565
_cell_length_b   4.87814565
_cell_length_c   7.80436044
_cell_angle_alpha   62.55409980
_cell_angle_beta   62.55409980
_cell_angle_gamma   40.11786260
_symmetry_Int_Tables_number   1
_chemical_formula_structural   As2W
_chemical_formula_sum   'As4 W2'
_cell_volume   104.27153816
_cell_formula_units_Z   2
loop_
 _symmetry_equiv_pos_site_id
 _symmetry_equiv_pos_as_xyz
  1  'x, y, z'
loop_
 _atom_site_type_symbol
 _atom_site_label
 _atom_site_symmetry_multiplicity
 _atom_site_fract_x
 _atom_site_fract_y
 _atom_site_fract_z
 _atom_site_occupancy
  As  As0  1  0.40395400  0.40395400  0.88954300  1
  As  As1  1  0.59604600  0.59604600  0.11045700  1
  As  As2  1  0.85454100  0.85454100  0.53161300  1
  As  As3  1  0.14545900  0.14545900  0.46838700  1
  W  W4  1  0.15182600  0.15182600  0.79868600  1
  W  W5  1  0.84817400  0.84817400  0.20131400  1
