# generated using pymatgen
data_Ti3C3N7
_symmetry_space_group_name_H-M   'P 1'
_cell_length_a   6.29625400
_cell_length_b   12.14480400
_cell_length_c   15.56495600
_cell_angle_alpha   90.00000000
_cell_angle_beta   90.00000000
_cell_angle_gamma   90.00000000
_symmetry_Int_Tables_number   1
_chemical_formula_structural   Ti3C3N7
_chemical_formula_sum   'Ti24 C24 N56'
_cell_volume   1190.20192241
_cell_formula_units_Z   8
loop_
 _symmetry_equiv_pos_site_id
 _symmetry_equiv_pos_as_xyz
  1  'x, y, z'
loop_
 _atom_site_type_symbol
 _atom_site_label
 _atom_site_symmetry_multiplicity
 _atom_site_fract_x
 _atom_site_fract_y
 _atom_site_fract_z
 _atom_site_occupancy
  Ti  Ti0  1  0.30592200  0.54607800  0.10464500  1
  Ti  Ti1  1  0.19407800  0.45392200  0.60464500  1
  Ti  Ti2  1  0.80592200  0.95392200  0.89535500  1
  Ti  Ti3  1  0.69407800  0.04607800  0.39535500  1
  Ti  Ti4  1  0.36788800  0.64934600  0.32905100  1
  Ti  Ti5  1  0.13211200  0.35065400  0.82905100  1
  Ti  Ti6  1  0.86788800  0.85065400  0.67094900  1
  Ti  Ti7  1  0.63211200  0.14934600  0.17094900  1
  Ti  Ti8  1  0.53271500  0.41148500  0.21345800  1
  Ti  Ti9  1  0.96728500  0.58851500  0.71345800  1
  Ti  Ti10  1  0.03271500  0.08851500  0.78654200  1
  Ti  Ti11  1  0.46728500  0.91148500  0.28654200  1
  Ti  Ti12  1  0.64082700  0.69152000  0.19316500  1
  Ti  Ti13  1  0.85917300  0.30848000  0.69316500  1
  Ti  Ti14  1  0.14082700  0.80848000  0.80683500  1
  Ti  Ti15  1  0.35917300  0.19152000  0.30683500  1
  Ti  Ti16  1  0.61488100  0.50510800  0.96433300  1
  Ti  Ti17  1  0.88511900  0.49489200  0.46433300  1
  Ti  Ti18  1  0.11488100  0.99489200  0.03566700  1
  Ti  Ti19  1  0.38511900  0.00510800  0.53566700  1
  Ti  Ti20  1  0.81534400  0.72847000  0.41455500  1
  Ti  Ti21  1  0.68465600  0.27153000  0.91455500  1
  Ti  Ti22  1  0.31534400  0.77153000  0.58544500  1
  Ti  Ti23  1  0.18465600  0.22847000  0.08544500  1
  C  C24  1  0.99347200  0.92097400  0.49408000  1
  C  C25  1  0.50652800  0.07902600  0.99408000  1
  C  C26  1  0.49347200  0.57902600  0.50592000  1
  C  C27  1  0.00652800  0.42097400  0.00592000  1
  C  C28  1  0.48438600  0.85946500  0.48131400  1
  C  C29  1  0.01561400  0.14053500  0.98131400  1
  C  C30  1  0.98438600  0.64053500  0.51868600  1
  C  C31  1  0.51561400  0.35946500  0.01868600  1
  C  C32  1  0.28311700  0.40121700  0.39428300  1
  C  C33  1  0.21688300  0.59878300  0.89428300  1
  C  C34  1  0.78311700  0.09878300  0.60571700  1
  C  C35  1  0.71688300  0.90121700  0.10571700  1
  C  C36  1  0.85516900  0.71946900  0.94790500  1
  C  C37  1  0.64483100  0.28053100  0.44790500  1
  C  C38  1  0.35516900  0.78053100  0.05209500  1
  C  C39  1  0.14483100  0.21946900  0.55209500  1
  C  C40  1  0.08286900  0.75587700  0.22393800  1
  C  C41  1  0.41713100  0.24412300  0.72393800  1
  C  C42  1  0.58286900  0.74412300  0.77606200  1
  C  C43  1  0.91713100  0.25587700  0.27606200  1
  C  C44  1  0.89797000  0.55099000  0.28925600  1
  C  C45  1  0.60203000  0.44901000  0.78925600  1
  C  C46  1  0.39797000  0.94901000  0.71074400  1
  C  C47  1  0.10203000  0.05099000  0.21074400  1
  N  N48  1  0.57703800  0.57971800  0.43286200  1
  N  N49  1  0.92296200  0.42028200  0.93286200  1
  N  N50  1  0.07703800  0.92028200  0.56713800  1
  N  N51  1  0.42296200  0.07971800  0.06713800  1
  N  N52  1  0.90860200  0.91720500  0.42320900  1
  N  N53  1  0.59139800  0.08279500  0.92320900  1
  N  N54  1  0.40860200  0.58279500  0.57679100  1
  N  N55  1  0.09139800  0.41720500  0.07679100  1
  N  N56  1  0.60436400  0.77846900  0.50452400  1
  N  N57  1  0.89563600  0.22153100  0.00452400  1
  N  N58  1  0.10436400  0.72153100  0.49547600  1
  N  N59  1  0.39563600  0.27846900  0.99547600  1
  N  N60  1  0.44969400  0.93339400  0.41872900  1
  N  N61  1  0.05030600  0.06660600  0.91872900  1
  N  N62  1  0.94969400  0.56660600  0.58127100  1
  N  N63  1  0.55030600  0.43339400  0.08127100  1
  N  N64  1  0.38123500  0.37191600  0.33006000  1
  N  N65  1  0.11876500  0.62808400  0.83006000  1
  N  N66  1  0.88123500  0.12808400  0.66994000  1
  N  N67  1  0.61876500  0.87191600  0.16994000  1
  N  N68  1  0.18293600  0.42962800  0.45860100  1
  N  N69  1  0.31706400  0.57037200  0.95860100  1
  N  N70  1  0.68293600  0.07037200  0.54139900  1
  N  N71  1  0.81706400  0.92962800  0.04139900  1
  N  N72  1  0.42390600  0.70101100  0.09502900  1
  N  N73  1  0.07609400  0.29898900  0.59502900  1
  N  N74  1  0.92390600  0.79898900  0.90497100  1
  N  N75  1  0.57609400  0.20101100  0.40497100  1
  N  N76  1  0.79128400  0.64105500  0.98749300  1
  N  N77  1  0.70871600  0.35894500  0.48749300  1
  N  N78  1  0.29128400  0.85894500  0.01250700  1
  N  N79  1  0.20871600  0.14105500  0.51250700  1
  N  N80  1  0.95776300  0.72080500  0.17127400  1
  N  N81  1  0.54223700  0.27919500  0.67127400  1
  N  N82  1  0.45776300  0.77919500  0.82872600  1
  N  N83  1  0.04223700  0.22080500  0.32872600  1
  N  N84  1  0.21747700  0.78556500  0.27822400  1
  N  N85  1  0.28252300  0.21443500  0.77822400  1
  N  N86  1  0.71747700  0.71443500  0.72177600  1
  N  N87  1  0.78252300  0.28556500  0.22177600  1
  N  N88  1  0.79222400  0.51883900  0.22920500  1
  N  N89  1  0.70777600  0.48116100  0.72920500  1
  N  N90  1  0.29222400  0.98116100  0.77079500  1
  N  N91  1  0.20777600  0.01883900  0.27079500  1
  N  N92  1  0.50223700  0.41090900  0.85224600  1
  N  N93  1  0.99776300  0.58909100  0.35224600  1
  N  N94  1  0.00223700  0.08909100  0.14775400  1
  N  N95  1  0.49776300  0.91090900  0.64775400  1
  N  N96  1  0.62132100  0.74741800  0.31160300  1
  N  N97  1  0.87867900  0.25258200  0.81160300  1
  N  N98  1  0.12132100  0.75258200  0.68839700  1
  N  N99  1  0.37867900  0.24741800  0.18839700  1
  N  N100  1  0.38641100  0.56642100  0.22776400  1
  N  N101  1  0.11358900  0.43357900  0.72776400  1
  N  N102  1  0.88641100  0.93357900  0.77223600  1
  N  N103  1  0.61358900  0.06642100  0.27223600  1
