# generated using pymatgen
data_Al2FeN3
_symmetry_space_group_name_H-M   'P 1'
_cell_length_a   5.49262666
_cell_length_b   5.49608747
_cell_length_c   5.08971600
_cell_angle_alpha   90.00000000
_cell_angle_beta   90.00000000
_cell_angle_gamma   120.02084299
_symmetry_Int_Tables_number   1
_chemical_formula_structural   Al2FeN3
_chemical_formula_sum   'Al4 Fe2 N6'
_cell_volume   133.03522414
_cell_formula_units_Z   2
loop_
 _symmetry_equiv_pos_site_id
 _symmetry_equiv_pos_as_xyz
  1  'x, y, z'
loop_
 _atom_site_type_symbol
 _atom_site_label
 _atom_site_symmetry_multiplicity
 _atom_site_fract_x
 _atom_site_fract_y
 _atom_site_fract_z
 _atom_site_occupancy
  Al  Al0  1  0.33583700  0.33236300  0.49214800  1
  Al  Al1  1  0.66416300  0.99652600  0.49214800  1
  Al  Al2  1  0.66416300  0.66763700  0.99214800  1
  Al  Al3  1  0.33583700  0.00347400  0.99214800  1
  Fe  Fe4  1  0.00000000  0.66941300  0.48690300  1
  Fe  Fe5  1  0.00000000  0.33058700  0.98690300  1
  N  N6  1  0.34573100  0.33414800  0.86710500  1
  N  N7  1  0.65426900  0.98841800  0.86710500  1
  N  N8  1  0.65426900  0.66585200  0.36710500  1
  N  N9  1  0.34573100  0.01158200  0.36710500  1
  N  N10  1  0.00000000  0.68118800  0.88259000  1
  N  N11  1  0.00000000  0.31881200  0.38259000  1
