# generated using pymatgen
data_SrCu2PbS4
_symmetry_space_group_name_H-M   'P 1'
_cell_length_a   6.43676500
_cell_length_b   6.43676524
_cell_length_c   15.73015700
_cell_angle_alpha   90.00000000
_cell_angle_beta   90.00000000
_cell_angle_gamma   120.00000389
_symmetry_Int_Tables_number   1
_chemical_formula_structural   SrCu2PbS4
_chemical_formula_sum   'Sr3 Cu6 Pb3 S12'
_cell_volume   564.41558313
_cell_formula_units_Z   3
loop_
 _symmetry_equiv_pos_site_id
 _symmetry_equiv_pos_as_xyz
  1  'x, y, z'
loop_
 _atom_site_type_symbol
 _atom_site_label
 _atom_site_symmetry_multiplicity
 _atom_site_fract_x
 _atom_site_fract_y
 _atom_site_fract_z
 _atom_site_occupancy
  Sr  Sr0  1  0.00000000  0.56718400  0.83333300  1
  Sr  Sr1  1  0.56718400  0.00000000  0.16666700  1
  Sr  Sr2  1  0.43281600  0.43281600  0.50000000  1
  Cu  Cu3  1  0.92693000  0.55532600  0.07878700  1
  Cu  Cu4  1  0.37160500  0.44467400  0.25454700  1
  Cu  Cu5  1  0.07307000  0.62839500  0.58788000  1
  Cu  Cu6  1  0.62839500  0.07307000  0.41212000  1
  Cu  Cu7  1  0.44467400  0.37160500  0.74545300  1
  Cu  Cu8  1  0.55532600  0.92693000  0.92121300  1
  Pb  Pb9  1  0.70307200  0.00000000  0.66666700  1
  Pb  Pb10  1  0.00000000  0.70307200  0.33333300  1
  Pb  Pb11  1  0.29692800  0.29692800  0.00000000  1
  S  S12  1  0.62917800  0.76404500  0.34191100  1
  S  S13  1  0.23595500  0.86513300  0.00857800  1
  S  S14  1  0.13486700  0.37082200  0.67524500  1
  S  S15  1  0.86513300  0.23595500  0.99142200  1
  S  S16  1  0.37082200  0.13486700  0.32475500  1
  S  S17  1  0.76404500  0.62917800  0.65808900  1
  S  S18  1  0.94789900  0.42029800  0.45890500  1
  S  S19  1  0.57970200  0.52760100  0.12557200  1
  S  S20  1  0.42029800  0.94789900  0.54109500  1
  S  S21  1  0.52760100  0.57970200  0.87442800  1
  S  S22  1  0.05210100  0.47239900  0.20776200  1
  S  S23  1  0.47239900  0.05210100  0.79223800  1
