# generated using pymatgen
data_Mn2SbN3
_symmetry_space_group_name_H-M   'P 1'
_cell_length_a   7.18548099
_cell_length_b   13.22938330
_cell_length_c   8.05596781
_cell_angle_alpha   89.99999518
_cell_angle_beta   92.34433355
_cell_angle_gamma   157.00860896
_symmetry_Int_Tables_number   1
_chemical_formula_structural   Mn2SbN3
_chemical_formula_sum   'Mn8 Sb4 N12'
_cell_volume   297.46969900
_cell_formula_units_Z   4
loop_
 _symmetry_equiv_pos_site_id
 _symmetry_equiv_pos_as_xyz
  1  'x, y, z'
loop_
 _atom_site_type_symbol
 _atom_site_label
 _atom_site_symmetry_multiplicity
 _atom_site_fract_x
 _atom_site_fract_y
 _atom_site_fract_z
 _atom_site_occupancy
  Mn  Mn0  1  0.55652300  0.03859500  0.84419600  1
  Mn  Mn1  1  0.44347700  0.48207200  0.65580400  1
  Mn  Mn2  1  0.44347700  0.96140500  0.15580400  1
  Mn  Mn3  1  0.55652300  0.51792800  0.34419600  1
  Mn  Mn4  1  0.69796100  0.01167500  0.57135800  1
  Mn  Mn5  1  0.30203900  0.31371400  0.92864200  1
  Mn  Mn6  1  0.30203900  0.98832500  0.42864200  1
  Mn  Mn7  1  0.69796100  0.68628600  0.07135800  1
  Sb  Sb8  1  0.56203600  0.29172600  0.61162500  1
  Sb  Sb9  1  0.43796400  0.72969000  0.88837500  1
  Sb  Sb10  1  0.43796400  0.70827400  0.38837500  1
  Sb  Sb11  1  0.56203600  0.27031000  0.11162500  1
  N  N12  1  0.00000000  0.72872500  0.75000000  1
  N  N13  1  0.00000000  0.27127500  0.25000000  1
  N  N14  1  0.72906300  0.16667200  0.62190900  1
  N  N15  1  0.27093700  0.43760900  0.87809100  1
  N  N16  1  0.27093700  0.83332800  0.37809100  1
  N  N17  1  0.72906300  0.56239100  0.12190900  1
  N  N18  1  0.31830100  0.00834700  0.99671500  1
  N  N19  1  0.68169900  0.69004600  0.50328500  1
  N  N20  1  0.68169900  0.99165300  0.00328500  1
  N  N21  1  0.31830100  0.30995400  0.49671500  1
  N  N22  1  0.00000000  0.06792700  0.75000000  1
  N  N23  1  0.00000000  0.93207300  0.25000000  1
