# generated using pymatgen
data_Fe4Se3N2
_symmetry_space_group_name_H-M   'P 1'
_cell_length_a   5.80877900
_cell_length_b   10.24227200
_cell_length_c   8.26244700
_cell_angle_alpha   90.00000000
_cell_angle_beta   90.00000000
_cell_angle_gamma   90.00000000
_symmetry_Int_Tables_number   1
_chemical_formula_structural   Fe4Se3N2
_chemical_formula_sum   'Fe16 Se12 N8'
_cell_volume   491.57506511
_cell_formula_units_Z   4
loop_
 _symmetry_equiv_pos_site_id
 _symmetry_equiv_pos_as_xyz
  1  'x, y, z'
loop_
 _atom_site_type_symbol
 _atom_site_label
 _atom_site_symmetry_multiplicity
 _atom_site_fract_x
 _atom_site_fract_y
 _atom_site_fract_z
 _atom_site_occupancy
  Fe  Fe0  1  0.54227300  0.25000000  0.85810800  1
  Fe  Fe1  1  0.04227300  0.25000000  0.64189200  1
  Fe  Fe2  1  0.45772700  0.75000000  0.14189200  1
  Fe  Fe3  1  0.95772700  0.75000000  0.35810800  1
  Fe  Fe4  1  0.74081800  0.25000000  0.42655300  1
  Fe  Fe5  1  0.24081800  0.25000000  0.07344700  1
  Fe  Fe6  1  0.25918200  0.75000000  0.57344700  1
  Fe  Fe7  1  0.75918200  0.75000000  0.92655300  1
  Fe  Fe8  1  0.68628700  0.46169600  0.06061700  1
  Fe  Fe9  1  0.18628700  0.03830400  0.43938300  1
  Fe  Fe10  1  0.31371300  0.96169600  0.93938300  1
  Fe  Fe11  1  0.81371300  0.53830400  0.56061700  1
  Fe  Fe12  1  0.31371300  0.53830400  0.93938300  1
  Fe  Fe13  1  0.81371300  0.96169600  0.56061700  1
  Fe  Fe14  1  0.68628700  0.03830400  0.06061700  1
  Fe  Fe15  1  0.18628700  0.46169600  0.43938300  1
  Se  Se16  1  0.84549900  0.25000000  0.15695800  1
  Se  Se17  1  0.34549900  0.25000000  0.34304200  1
  Se  Se18  1  0.15450100  0.75000000  0.84304200  1
  Se  Se19  1  0.65450100  0.75000000  0.65695800  1
  Se  Se20  1  0.55618600  0.55591800  0.32553800  1
  Se  Se21  1  0.05618600  0.94408200  0.17446200  1
  Se  Se22  1  0.44381400  0.05591800  0.67446200  1
  Se  Se23  1  0.94381400  0.44408200  0.82553800  1
  Se  Se24  1  0.44381400  0.44408200  0.67446200  1
  Se  Se25  1  0.94381400  0.05591800  0.82553800  1
  Se  Se26  1  0.55618600  0.94408200  0.32553800  1
  Se  Se27  1  0.05618600  0.55591800  0.17446200  1
  N  N28  1  0.58122400  0.62349700  0.99482000  1
  N  N29  1  0.08122400  0.87650300  0.50518000  1
  N  N30  1  0.41877600  0.12349700  0.00518000  1
  N  N31  1  0.91877600  0.37650300  0.49482000  1
  N  N32  1  0.41877600  0.37650300  0.00518000  1
  N  N33  1  0.91877600  0.12349700  0.49482000  1
  N  N34  1  0.58122400  0.87650300  0.99482000  1
  N  N35  1  0.08122400  0.62349700  0.50518000  1
