# generated using pymatgen
data_Zn(C4N3)2
_symmetry_space_group_name_H-M   'P 1'
_cell_length_a   5.39262200
_cell_length_b   7.49185500
_cell_length_c   10.65165600
_cell_angle_alpha   90.00000000
_cell_angle_beta   90.00000000
_cell_angle_gamma   90.00000000
_symmetry_Int_Tables_number   1
_chemical_formula_structural   Zn(C4N3)2
_chemical_formula_sum   'Zn2 C16 N12'
_cell_volume   430.33480693
_cell_formula_units_Z   2
loop_
 _symmetry_equiv_pos_site_id
 _symmetry_equiv_pos_as_xyz
  1  'x, y, z'
loop_
 _atom_site_type_symbol
 _atom_site_label
 _atom_site_symmetry_multiplicity
 _atom_site_fract_x
 _atom_site_fract_y
 _atom_site_fract_z
 _atom_site_occupancy
  Zn  Zn0  1  0.00000000  0.50000000  0.50000000  1
  Zn  Zn1  1  0.00000000  0.00000000  0.00000000  1
  C  C2  1  0.39303200  0.00000000  0.74821700  1
  C  C3  1  0.39303200  0.50000000  0.75178300  1
  C  C4  1  0.60696800  0.00000000  0.25178300  1
  C  C5  1  0.60696800  0.50000000  0.24821700  1
  C  C6  1  0.58559500  0.00000000  0.65893200  1
  C  C7  1  0.58559500  0.50000000  0.84106800  1
  C  C8  1  0.41440500  0.00000000  0.34106800  1
  C  C9  1  0.41440500  0.50000000  0.15893200  1
  C  C10  1  0.69143000  0.15946000  0.61570900  1
  C  C11  1  0.69143000  0.34054000  0.88429100  1
  C  C12  1  0.30857000  0.15946000  0.38429100  1
  C  C13  1  0.69143000  0.65946000  0.88429100  1
  C  C14  1  0.30857000  0.84054000  0.38429100  1
  C  C15  1  0.30857000  0.65946000  0.11570900  1
  C  C16  1  0.69143000  0.84054000  0.61570900  1
  C  C17  1  0.30857000  0.34054000  0.11570900  1
  N  N18  1  0.78317100  0.28998100  0.57735100  1
  N  N19  1  0.78317100  0.21001900  0.92264900  1
  N  N20  1  0.21682900  0.28998100  0.42264900  1
  N  N21  1  0.78317100  0.78998100  0.92264900  1
  N  N22  1  0.21682900  0.71001900  0.42264900  1
  N  N23  1  0.21682900  0.78998100  0.07735100  1
  N  N24  1  0.78317100  0.71001900  0.57735100  1
  N  N25  1  0.21682900  0.21001900  0.07735100  1
  N  N26  1  0.23456500  0.00000000  0.82343400  1
  N  N27  1  0.23456500  0.50000000  0.67656600  1
  N  N28  1  0.76543500  0.00000000  0.17656600  1
  N  N29  1  0.76543500  0.50000000  0.32343400  1
