# generated using pymatgen
data_CrFe2N3
_symmetry_space_group_name_H-M   'P 1'
_cell_length_a   5.23232865
_cell_length_b   5.12917750
_cell_length_c   4.89092000
_cell_angle_alpha   90.00000000
_cell_angle_beta   90.00000000
_cell_angle_gamma   119.34997461
_symmetry_Int_Tables_number   1
_chemical_formula_structural   CrFe2N3
_chemical_formula_sum   'Cr2 Fe4 N6'
_cell_volume   114.41197855
_cell_formula_units_Z   2
loop_
 _symmetry_equiv_pos_site_id
 _symmetry_equiv_pos_as_xyz
  1  'x, y, z'
loop_
 _atom_site_type_symbol
 _atom_site_label
 _atom_site_symmetry_multiplicity
 _atom_site_fract_x
 _atom_site_fract_y
 _atom_site_fract_z
 _atom_site_occupancy
  Cr  Cr0  1  0.00000000  0.67019700  0.52631100  1
  Cr  Cr1  1  0.00000000  0.32980300  0.02631100  1
  Fe  Fe2  1  0.37819200  0.38198900  0.47571700  1
  Fe  Fe3  1  0.62180800  0.00379700  0.47571700  1
  Fe  Fe4  1  0.62180800  0.61801100  0.97571700  1
  Fe  Fe5  1  0.37819200  0.99620300  0.97571700  1
  N  N6  1  0.29524300  0.29048100  0.84496500  1
  N  N7  1  0.70475700  0.99523900  0.84496500  1
  N  N8  1  0.70475700  0.70951900  0.34496500  1
  N  N9  1  0.29524300  0.00476100  0.34496500  1
  N  N10  1  0.00000000  0.67118400  0.90432500  1
  N  N11  1  0.00000000  0.32881600  0.40432500  1
