# generated using pymatgen
data_Ga2Sn3N4
_symmetry_space_group_name_H-M   'P 1'
_cell_length_a   6.39466600
_cell_length_b   10.82272600
_cell_length_c   8.67155300
_cell_angle_alpha   90.00000000
_cell_angle_beta   90.00000000
_cell_angle_gamma   90.00000000
_symmetry_Int_Tables_number   1
_chemical_formula_structural   Ga2Sn3N4
_chemical_formula_sum   'Ga8 Sn12 N16'
_cell_volume   600.13839447
_cell_formula_units_Z   4
loop_
 _symmetry_equiv_pos_site_id
 _symmetry_equiv_pos_as_xyz
  1  'x, y, z'
loop_
 _atom_site_type_symbol
 _atom_site_label
 _atom_site_symmetry_multiplicity
 _atom_site_fract_x
 _atom_site_fract_y
 _atom_site_fract_z
 _atom_site_occupancy
  Ga  Ga0  1  0.75000000  0.50000000  0.78882000  1
  Ga  Ga1  1  0.75000000  0.00000000  0.71118000  1
  Ga  Ga2  1  0.25000000  0.50000000  0.21118000  1
  Ga  Ga3  1  0.25000000  0.00000000  0.28882000  1
  Ga  Ga4  1  0.78911500  0.25000000  0.75000000  1
  Ga  Ga5  1  0.71088500  0.75000000  0.75000000  1
  Ga  Ga6  1  0.21088500  0.75000000  0.25000000  1
  Ga  Ga7  1  0.28911600  0.25000000  0.25000000  1
  Sn  Sn8  1  0.79212900  0.14162500  0.36894200  1
  Sn  Sn9  1  0.70787100  0.85837500  0.36894200  1
  Sn  Sn10  1  0.79212900  0.35837500  0.13105800  1
  Sn  Sn11  1  0.70787100  0.64162500  0.13105800  1
  Sn  Sn12  1  0.20787100  0.85837500  0.63105800  1
  Sn  Sn13  1  0.29212900  0.14162500  0.63105800  1
  Sn  Sn14  1  0.20787100  0.64162500  0.86894200  1
  Sn  Sn15  1  0.29212900  0.35837500  0.86894200  1
  Sn  Sn16  1  0.75000000  0.50000000  0.45152100  1
  Sn  Sn17  1  0.75000000  0.00000000  0.04847900  1
  Sn  Sn18  1  0.25000000  0.50000000  0.54847900  1
  Sn  Sn19  1  0.25000000  0.00000000  0.95152100  1
  N  N20  1  0.90613600  0.39595300  0.64147000  1
  N  N21  1  0.59386400  0.60404700  0.64147000  1
  N  N22  1  0.90613600  0.10404700  0.85853000  1
  N  N23  1  0.59386400  0.89595300  0.85853000  1
  N  N24  1  0.09386400  0.60404700  0.35853000  1
  N  N25  1  0.40613600  0.39595300  0.35853000  1
  N  N26  1  0.09386400  0.89595300  0.14147000  1
  N  N27  1  0.40613600  0.10404700  0.14147000  1
  N  N28  1  0.63591400  0.35658800  0.90371300  1
  N  N29  1  0.86408600  0.64341200  0.90371300  1
  N  N30  1  0.63591400  0.14341200  0.59628700  1
  N  N31  1  0.86408600  0.85658800  0.59628700  1
  N  N32  1  0.36408600  0.64341200  0.09628700  1
  N  N33  1  0.13591400  0.35658800  0.09628700  1
  N  N34  1  0.36408600  0.85658800  0.40371300  1
  N  N35  1  0.13591400  0.14341200  0.40371300  1
