# generated using pymatgen
data_Sr3(FeN2)2
_symmetry_space_group_name_H-M   'P 1'
_cell_length_a   7.07007624
_cell_length_b   8.60288118
_cell_length_c   5.50391755
_cell_angle_alpha   90.00000373
_cell_angle_beta   93.71125422
_cell_angle_gamma   127.47397566
_symmetry_Int_Tables_number   1
_chemical_formula_structural   Sr3(FeN2)2
_chemical_formula_sum   'Sr6 Fe4 N8'
_cell_volume   264.79427764
_cell_formula_units_Z   2
loop_
 _symmetry_equiv_pos_site_id
 _symmetry_equiv_pos_as_xyz
  1  'x, y, z'
loop_
 _atom_site_type_symbol
 _atom_site_label
 _atom_site_symmetry_multiplicity
 _atom_site_fract_x
 _atom_site_fract_y
 _atom_site_fract_z
 _atom_site_occupancy
  Sr  Sr0  1  0.25099000  0.99096900  0.05592300  1
  Sr  Sr1  1  0.74901000  0.73997900  0.44407700  1
  Sr  Sr2  1  0.74901000  0.00903100  0.94407700  1
  Sr  Sr3  1  0.25099000  0.26002100  0.55592300  1
  Sr  Sr4  1  0.00000000  0.59643800  0.75000000  1
  Sr  Sr5  1  0.00000000  0.40356200  0.25000000  1
  Fe  Fe6  1  0.58024500  0.16345700  0.57233800  1
  Fe  Fe7  1  0.41975500  0.58321200  0.92766200  1
  Fe  Fe8  1  0.41975500  0.83654300  0.42766200  1
  Fe  Fe9  1  0.58024500  0.41678800  0.07233800  1
  N  N10  1  0.25491600  0.93835000  0.52889300  1
  N  N11  1  0.74508400  0.68343300  0.97110700  1
  N  N12  1  0.74508400  0.06165000  0.47110700  1
  N  N13  1  0.25491600  0.31656700  0.02889300  1
  N  N14  1  0.64404300  0.26908200  0.88888100  1
  N  N15  1  0.35595700  0.62503900  0.61111900  1
  N  N16  1  0.35595700  0.73091800  0.11111900  1
  N  N17  1  0.64404300  0.37496100  0.38888100  1
