# generated using pymatgen
data_WN2
_symmetry_space_group_name_H-M   'P 1'
_cell_length_a   2.93420246
_cell_length_b   2.93420246
_cell_length_c   7.80370800
_cell_angle_alpha   90.00000000
_cell_angle_beta   90.00000000
_cell_angle_gamma   120.00001031
_symmetry_Int_Tables_number   1
_chemical_formula_structural   WN2
_chemical_formula_sum   'W2 N4'
_cell_volume   58.18509531
_cell_formula_units_Z   2
loop_
 _symmetry_equiv_pos_site_id
 _symmetry_equiv_pos_as_xyz
  1  'x, y, z'
loop_
 _atom_site_type_symbol
 _atom_site_label
 _atom_site_symmetry_multiplicity
 _atom_site_fract_x
 _atom_site_fract_y
 _atom_site_fract_z
 _atom_site_occupancy
  W  W0  1  0.66666700  0.33333300  0.25000000  1
  W  W1  1  0.33333300  0.66666700  0.75000000  1
  N  N2  1  0.00000000  0.00000000  0.40999400  1
  N  N3  1  0.00000000  0.00000000  0.59000600  1
  N  N4  1  0.00000000  0.00000000  0.90999400  1
  N  N5  1  0.00000000  0.00000000  0.09000600  1
