# generated using pymatgen
data_Mn7SiN6
_symmetry_space_group_name_H-M   'P 1'
_cell_length_a   8.62112844
_cell_length_b   5.91372461
_cell_length_c   10.52293314
_cell_angle_alpha   90.00000000
_cell_angle_beta   90.00000000
_cell_angle_gamma   90.00000000
_symmetry_Int_Tables_number   1
_chemical_formula_structural   Mn7SiN6
_chemical_formula_sum   'Mn28 Si4 N24'
_cell_volume   536.49048373
_cell_formula_units_Z   4
loop_
 _symmetry_equiv_pos_site_id
 _symmetry_equiv_pos_as_xyz
  1  'x, y, z'
loop_
 _atom_site_type_symbol
 _atom_site_label
 _atom_site_symmetry_multiplicity
 _atom_site_fract_x
 _atom_site_fract_y
 _atom_site_fract_z
 _atom_site_occupancy
  Mn  Mn0  1  0.00269475  0.67149271  0.96698788  1
  Mn  Mn1  1  0.49730525  0.82850729  0.46698788  1
  Mn  Mn2  1  0.50269475  0.82850729  0.03301212  1
  Mn  Mn3  1  0.99730525  0.67149271  0.53301212  1
  Mn  Mn4  1  0.99730525  0.32850729  0.03301212  1
  Mn  Mn5  1  0.50269475  0.17149271  0.53301212  1
  Mn  Mn6  1  0.49730525  0.17149271  0.96698788  1
  Mn  Mn7  1  0.00269475  0.32850729  0.46698788  1
  Mn  Mn8  1  0.24682546  0.69583254  0.66003705  1
  Mn  Mn9  1  0.25317454  0.80416746  0.16003705  1
  Mn  Mn10  1  0.74682546  0.80416746  0.33996295  1
  Mn  Mn11  1  0.75317454  0.69583254  0.83996295  1
  Mn  Mn12  1  0.75317454  0.30416746  0.33996295  1
  Mn  Mn13  1  0.74682546  0.19583254  0.83996295  1
  Mn  Mn14  1  0.25317454  0.19583254  0.66003705  1
  Mn  Mn15  1  0.24682546  0.30416746  0.16003705  1
  Mn  Mn16  1  0.29665620  0.69137596  0.91175578  1
  Mn  Mn17  1  0.20334380  0.80862404  0.41175578  1
  Mn  Mn18  1  0.79665620  0.80862404  0.08824422  1
  Mn  Mn19  1  0.70334380  0.69137596  0.58824422  1
  Mn  Mn20  1  0.70334380  0.30862404  0.08824422  1
  Mn  Mn21  1  0.79665620  0.19137596  0.58824422  1
  Mn  Mn22  1  0.20334380  0.19137596  0.91175578  1
  Mn  Mn23  1  0.29665620  0.30862404  0.41175578  1
  Mn  Mn24  1  0.00000000  0.44993737  0.75000000  1
  Mn  Mn25  1  0.50000000  0.05006263  0.25000000  1
  Mn  Mn26  1  0.00000000  0.55006263  0.25000000  1
  Mn  Mn27  1  0.50000000  0.94993737  0.75000000  1
  Si  Si28  1  0.00000000  0.95944721  0.75000000  1
  Si  Si29  1  0.50000000  0.54055279  0.25000000  1
  Si  Si30  1  0.00000000  0.04055279  0.25000000  1
  Si  Si31  1  0.50000000  0.45944721  0.75000000  1
  N  N32  1  0.11538572  0.72820403  0.81146529  1
  N  N33  1  0.38461428  0.77179597  0.31146529  1
  N  N34  1  0.61538572  0.77179597  0.18853471  1
  N  N35  1  0.88461428  0.72820403  0.68853471  1
  N  N36  1  0.88461428  0.27179597  0.18853471  1
  N  N37  1  0.61538572  0.22820403  0.68853471  1
  N  N38  1  0.38461428  0.22820403  0.81146529  1
  N  N39  1  0.11538572  0.27179597  0.31146529  1
  N  N40  1  0.20371239  0.54179040  0.50737315  1
  N  N41  1  0.29628761  0.95820960  0.00737315  1
  N  N42  1  0.70371239  0.95820960  0.49262685  1
  N  N43  1  0.79628761  0.54179040  0.99262685  1
  N  N44  1  0.79628761  0.45820960  0.49262685  1
  N  N45  1  0.70371239  0.04179040  0.99262685  1
  N  N46  1  0.29628761  0.04179040  0.50737315  1
  N  N47  1  0.20371239  0.45820960  0.00737315  1
  N  N48  1  0.48202281  0.67796983  0.63139440  1
  N  N49  1  0.01797719  0.82203017  0.13139440  1
  N  N50  1  0.98202281  0.82203017  0.36860560  1
  N  N51  1  0.51797719  0.67796983  0.86860560  1
  N  N52  1  0.51797719  0.32203017  0.36860560  1
  N  N53  1  0.98202281  0.17796983  0.86860560  1
  N  N54  1  0.01797719  0.17796983  0.63139440  1
  N  N55  1  0.48202281  0.32203017  0.13139440  1
