# generated using pymatgen
data_Si3Sb5N9
_symmetry_space_group_name_H-M   'P 1'
_cell_length_a   8.19707271
_cell_length_b   12.19859474
_cell_length_c   15.50448900
_cell_angle_alpha   90.00000000
_cell_angle_beta   90.00000000
_cell_angle_gamma   138.08035268
_symmetry_Int_Tables_number   1
_chemical_formula_structural   Si3Sb5N9
_chemical_formula_sum   'Si12 Sb20 N36'
_cell_volume   1035.76100305
_cell_formula_units_Z   4
loop_
 _symmetry_equiv_pos_site_id
 _symmetry_equiv_pos_as_xyz
  1  'x, y, z'
loop_
 _atom_site_type_symbol
 _atom_site_label
 _atom_site_symmetry_multiplicity
 _atom_site_fract_x
 _atom_site_fract_y
 _atom_site_fract_z
 _atom_site_occupancy
  Si  Si0  1  0.00000000  0.78910600  0.02427000  1
  Si  Si1  1  0.00000000  0.21089400  0.97573000  1
  Si  Si2  1  0.00000000  0.71089400  0.52427000  1
  Si  Si3  1  0.00000000  0.28910600  0.47573000  1
  Si  Si4  1  0.00000000  0.21091500  0.76910500  1
  Si  Si5  1  0.00000000  0.78908500  0.23089500  1
  Si  Si6  1  0.00000000  0.28908500  0.26910500  1
  Si  Si7  1  0.00000000  0.71091500  0.73089500  1
  Si  Si8  1  0.50000000  0.78887500  0.75000000  1
  Si  Si9  1  0.50000000  0.71112500  0.25000000  1
  Si  Si10  1  0.50000000  0.21112500  0.25000000  1
  Si  Si11  1  0.50000000  0.28887500  0.75000000  1
  Sb  Sb12  1  0.00000000  0.54874700  0.87570900  1
  Sb  Sb13  1  0.00000000  0.45125300  0.12429100  1
  Sb  Sb14  1  0.00000000  0.95125300  0.37570900  1
  Sb  Sb15  1  0.00000000  0.04874700  0.62429100  1
  Sb  Sb16  1  0.36083300  0.97499800  0.87314800  1
  Sb  Sb17  1  0.36083300  0.38583600  0.12685200  1
  Sb  Sb18  1  0.36083300  0.88583600  0.37314800  1
  Sb  Sb19  1  0.36083300  0.47499800  0.62685200  1
  Sb  Sb20  1  0.63916700  0.02500200  0.12685200  1
  Sb  Sb21  1  0.63916700  0.61416400  0.87314800  1
  Sb  Sb22  1  0.63916700  0.11416400  0.62685200  1
  Sb  Sb23  1  0.63916700  0.52500200  0.37314800  1
  Sb  Sb24  1  0.00000000  0.49769800  0.65567600  1
  Sb  Sb25  1  0.00000000  0.50230200  0.34432400  1
  Sb  Sb26  1  0.00000000  0.00230200  0.15567600  1
  Sb  Sb27  1  0.00000000  0.99769800  0.84432400  1
  Sb  Sb28  1  0.48340400  0.24170300  0.00000000  1
  Sb  Sb29  1  0.48340400  0.74170300  0.50000000  1
  Sb  Sb30  1  0.51659600  0.75829700  0.00000000  1
  Sb  Sb31  1  0.51659600  0.25829700  0.50000000  1
  N  N32  1  0.00000000  0.32572800  0.69781200  1
  N  N33  1  0.00000000  0.67427200  0.30218800  1
  N  N34  1  0.00000000  0.17427200  0.19781200  1
  N  N35  1  0.00000000  0.82572800  0.80218800  1
  N  N36  1  0.00000000  0.24310200  0.87146900  1
  N  N37  1  0.00000000  0.75689800  0.12853100  1
  N  N38  1  0.00000000  0.25689800  0.37146900  1
  N  N39  1  0.00000000  0.74310200  0.62853100  1
  N  N40  1  0.77122600  0.49953600  0.76912700  1
  N  N41  1  0.77122600  0.27168900  0.23087300  1
  N  N42  1  0.77122600  0.77168900  0.26912700  1
  N  N43  1  0.77122600  0.99953600  0.73087300  1
  N  N44  1  0.22877400  0.50046400  0.23087300  1
  N  N45  1  0.22877400  0.72831100  0.76912700  1
  N  N46  1  0.22877400  0.22831100  0.73087300  1
  N  N47  1  0.22877400  0.00046400  0.26912700  1
  N  N48  1  0.43163400  0.18208500  0.84487500  1
  N  N49  1  0.43163400  0.24954900  0.15512500  1
  N  N50  1  0.43163400  0.74954900  0.34487500  1
  N  N51  1  0.43163400  0.68208500  0.65512500  1
  N  N52  1  0.56836600  0.81791500  0.15512500  1
  N  N53  1  0.56836600  0.75045100  0.84487500  1
  N  N54  1  0.56836600  0.25045100  0.65512500  1
  N  N55  1  0.56836600  0.31791500  0.34487500  1
  N  N56  1  0.26065400  0.99431800  0.99045800  1
  N  N57  1  0.26065400  0.26633700  0.00954200  1
  N  N58  1  0.26065400  0.76633700  0.49045800  1
  N  N59  1  0.26065400  0.49431800  0.50954200  1
  N  N60  1  0.73934600  0.00568200  0.00954200  1
  N  N61  1  0.73934600  0.73366300  0.99045800  1
  N  N62  1  0.73934600  0.23366300  0.50954200  1
  N  N63  1  0.73934600  0.50568200  0.49045800  1
  N  N64  1  0.00000000  0.68873600  0.94428500  1
  N  N65  1  0.00000000  0.31126400  0.05571500  1
  N  N66  1  0.00000000  0.81126400  0.44428500  1
  N  N67  1  0.00000000  0.18873600  0.55571500  1
