# generated using pymatgen
data_Pb4SBr6
_symmetry_space_group_name_H-M   'P 1'
_cell_length_a   4.32026049
_cell_length_b   9.90634865
_cell_length_c   9.85528538
_cell_angle_alpha   62.18622498
_cell_angle_beta   77.38082310
_cell_angle_gamma   77.49320985
_symmetry_Int_Tables_number   1
_chemical_formula_structural   Pb4SBr6
_chemical_formula_sum   'Pb4 S1 Br6'
_cell_volume   360.82113899
_cell_formula_units_Z   1
loop_
 _symmetry_equiv_pos_site_id
 _symmetry_equiv_pos_as_xyz
  1  'x, y, z'
loop_
 _atom_site_type_symbol
 _atom_site_label
 _atom_site_symmetry_multiplicity
 _atom_site_fract_x
 _atom_site_fract_y
 _atom_site_fract_z
 _atom_site_occupancy
  Pb  Pb0  1  0.99665000  0.98073800  0.02017100  1
  Pb  Pb1  1  0.25117600  0.53447400  0.97197800  1
  Pb  Pb2  1  0.49652300  0.55421600  0.44676700  1
  Pb  Pb3  1  0.74921100  0.02926200  0.46939800  1
  S  S4  1  0.99882800  0.71518700  0.28186200  1
  Br  Br5  1  0.36211700  0.09643700  0.17466600  1
  Br  Br6  1  0.63148000  0.82785000  0.90171300  1
  Br  Br7  1  0.12032200  0.16858900  0.58823600  1
  Br  Br8  1  0.87458500  0.41506400  0.83226900  1
  Br  Br9  1  0.30853800  0.76934700  0.60878800  1
  Br  Br10  1  0.68918200  0.39051600  0.23244700  1
