# generated using pymatgen
data_Ca4PtN4
_symmetry_space_group_name_H-M   'P 1'
_cell_length_a   13.42121400
_cell_length_b   3.46068200
_cell_length_c   14.38307900
_cell_angle_alpha   90.00000000
_cell_angle_beta   90.00000000
_cell_angle_gamma   90.00000000
_symmetry_Int_Tables_number   1
_chemical_formula_structural   Ca4PtN4
_chemical_formula_sum   'Ca16 Pt4 N16'
_cell_volume   668.04445126
_cell_formula_units_Z   4
loop_
 _symmetry_equiv_pos_site_id
 _symmetry_equiv_pos_as_xyz
  1  'x, y, z'
loop_
 _atom_site_type_symbol
 _atom_site_label
 _atom_site_symmetry_multiplicity
 _atom_site_fract_x
 _atom_site_fract_y
 _atom_site_fract_z
 _atom_site_occupancy
  Ca  Ca0  1  0.04963400  0.25000000  0.21157600  1
  Ca  Ca1  1  0.54963400  0.25000000  0.28842400  1
  Ca  Ca2  1  0.95036600  0.75000000  0.78842400  1
  Ca  Ca3  1  0.45036600  0.75000000  0.71157600  1
  Ca  Ca4  1  0.88974400  0.25000000  0.03897900  1
  Ca  Ca5  1  0.38974400  0.25000000  0.46102100  1
  Ca  Ca6  1  0.11025600  0.75000000  0.96102100  1
  Ca  Ca7  1  0.61025600  0.75000000  0.53897900  1
  Ca  Ca8  1  0.38742700  0.25000000  0.92642600  1
  Ca  Ca9  1  0.88742700  0.25000000  0.57357400  1
  Ca  Ca10  1  0.61257300  0.75000000  0.07357400  1
  Ca  Ca11  1  0.11257300  0.75000000  0.42642600  1
  Ca  Ca12  1  0.19150100  0.25000000  0.75264900  1
  Ca  Ca13  1  0.69150100  0.25000000  0.74735100  1
  Ca  Ca14  1  0.80849900  0.75000000  0.24735100  1
  Ca  Ca15  1  0.30849900  0.75000000  0.25264900  1
  Pt  Pt16  1  0.43042200  0.25000000  0.11873000  1
  Pt  Pt17  1  0.93042200  0.25000000  0.38127000  1
  Pt  Pt18  1  0.56957800  0.75000000  0.88127000  1
  Pt  Pt19  1  0.06957800  0.75000000  0.61873000  1
  N  N20  1  0.74612000  0.25000000  0.12482800  1
  N  N21  1  0.24612000  0.25000000  0.37517200  1
  N  N22  1  0.25388000  0.75000000  0.87517200  1
  N  N23  1  0.75388000  0.75000000  0.62482800  1
  N  N24  1  0.05998400  0.25000000  0.84945200  1
  N  N25  1  0.55998400  0.25000000  0.65054800  1
  N  N26  1  0.94001600  0.75000000  0.15054800  1
  N  N27  1  0.44001600  0.75000000  0.34945200  1
  N  N28  1  0.98490700  0.25000000  0.90890400  1
  N  N29  1  0.48490700  0.25000000  0.59109600  1
  N  N30  1  0.01509300  0.75000000  0.09109600  1
  N  N31  1  0.51509300  0.75000000  0.40890400  1
  N  N32  1  0.67997400  0.25000000  0.19119500  1
  N  N33  1  0.17997400  0.25000000  0.30880500  1
  N  N34  1  0.32002600  0.75000000  0.80880500  1
  N  N35  1  0.82002600  0.75000000  0.69119500  1
