# generated using pymatgen
data_Ga3Pb3N5
_symmetry_space_group_name_H-M   'P 1'
_cell_length_a   6.04968394
_cell_length_b   7.51611315
_cell_length_c   8.76210387
_cell_angle_alpha   102.08856094
_cell_angle_beta   99.14052374
_cell_angle_gamma   96.34317867
_symmetry_Int_Tables_number   1
_chemical_formula_structural   Ga3Pb3N5
_chemical_formula_sum   'Ga6 Pb6 N10'
_cell_volume   380.34411190
_cell_formula_units_Z   2
loop_
 _symmetry_equiv_pos_site_id
 _symmetry_equiv_pos_as_xyz
  1  'x, y, z'
loop_
 _atom_site_type_symbol
 _atom_site_label
 _atom_site_symmetry_multiplicity
 _atom_site_fract_x
 _atom_site_fract_y
 _atom_site_fract_z
 _atom_site_occupancy
  Ga  Ga0  1  0.90244700  0.30969200  0.96579800  1
  Ga  Ga1  1  0.09755300  0.69030800  0.03420200  1
  Ga  Ga2  1  0.70173100  0.99939900  0.60320400  1
  Ga  Ga3  1  0.29826900  0.00060100  0.39679600  1
  Ga  Ga4  1  0.12745100  0.90984300  0.73131600  1
  Ga  Ga5  1  0.87254900  0.09015700  0.26868400  1
  Pb  Pb6  1  0.75666700  0.48234500  0.63647900  1
  Pb  Pb7  1  0.24333300  0.51765500  0.36352100  1
  Pb  Pb8  1  0.63416600  0.84638100  0.89268100  1
  Pb  Pb9  1  0.36583400  0.15361900  0.10731900  1
  Pb  Pb10  1  0.74748200  0.69184300  0.30809700  1
  Pb  Pb11  1  0.25251800  0.30815700  0.69190300  1
  N  N12  1  0.95754300  0.13899700  0.76751600  1
  N  N13  1  0.04245700  0.86100300  0.23248400  1
  N  N14  1  0.85652900  0.76825200  0.58854200  1
  N  N15  1  0.14347100  0.23174800  0.41145800  1
  N  N16  1  0.81646600  0.53582600  0.90139700  1
  N  N17  1  0.18353400  0.46417400  0.09860300  1
  N  N18  1  0.37629800  0.00840400  0.62882100  1
  N  N19  1  0.62370200  0.99159600  0.37117900  1
  N  N20  1  0.25812100  0.84850400  0.92487400  1
  N  N21  1  0.74187900  0.15149600  0.07512600  1
