# generated using pymatgen
data_Sr3Ir3N5
_symmetry_space_group_name_H-M   'P 1'
_cell_length_a   6.55282813
_cell_length_b   7.71457577
_cell_length_c   8.56617800
_cell_angle_alpha   101.49958644
_cell_angle_beta   117.27948698
_cell_angle_gamma   98.17255851
_symmetry_Int_Tables_number   1
_chemical_formula_structural   Sr3Ir3N5
_chemical_formula_sum   'Sr6 Ir6 N10'
_cell_volume   363.34119195
_cell_formula_units_Z   2
loop_
 _symmetry_equiv_pos_site_id
 _symmetry_equiv_pos_as_xyz
  1  'x, y, z'
loop_
 _atom_site_type_symbol
 _atom_site_label
 _atom_site_symmetry_multiplicity
 _atom_site_fract_x
 _atom_site_fract_y
 _atom_site_fract_z
 _atom_site_occupancy
  Sr  Sr0  1  0.72870200  0.40709600  0.60140100  1
  Sr  Sr1  1  0.27129800  0.59290400  0.39859900  1
  Sr  Sr2  1  0.67320200  0.87905000  0.87729200  1
  Sr  Sr3  1  0.32679800  0.12095000  0.12270800  1
  Sr  Sr4  1  0.69006000  0.69341600  0.21788500  1
  Sr  Sr5  1  0.30994000  0.30658400  0.78211500  1
  Ir  Ir6  1  0.88799000  0.34066400  0.99090400  1
  Ir  Ir7  1  0.11201000  0.65933600  0.00909600  1
  Ir  Ir8  1  0.76712600  0.99654000  0.57883400  1
  Ir  Ir9  1  0.23287400  0.00346000  0.42116600  1
  Ir  Ir10  1  0.08889500  0.79567600  0.71805800  1
  Ir  Ir11  1  0.91110500  0.20432400  0.28194200  1
  N  N12  1  0.95049200  0.14847000  0.83280500  1
  N  N13  1  0.04950800  0.85153000  0.16719500  1
  N  N14  1  0.72349000  0.73260300  0.55885500  1
  N  N15  1  0.27651000  0.26739700  0.44114500  1
  N  N16  1  0.73311600  0.53269800  0.90959800  1
  N  N17  1  0.26688300  0.46730200  0.09040200  1
  N  N18  1  0.24306800  0.89622900  0.60000400  1
  N  N19  1  0.75693200  0.10377100  0.39999600  1
  N  N20  1  0.33995400  0.77640200  0.94706600  1
  N  N21  1  0.66004600  0.22359800  0.05293400  1
