# generated using pymatgen
data_Si7PdN10
_symmetry_space_group_name_H-M   'P 1'
_cell_length_a   6.76013899
_cell_length_b   6.92741200
_cell_length_c   9.74329971
_cell_angle_alpha   90.00000000
_cell_angle_beta   104.01987601
_cell_angle_gamma   90.00000000
_symmetry_Int_Tables_number   1
_chemical_formula_structural   Si7PdN10
_chemical_formula_sum   'Si14 Pd2 N20'
_cell_volume   442.68951136
_cell_formula_units_Z   2
loop_
 _symmetry_equiv_pos_site_id
 _symmetry_equiv_pos_as_xyz
  1  'x, y, z'
loop_
 _atom_site_type_symbol
 _atom_site_label
 _atom_site_symmetry_multiplicity
 _atom_site_fract_x
 _atom_site_fract_y
 _atom_site_fract_z
 _atom_site_occupancy
  Si  Si0  1  0.54218600  0.98173300  0.82393400  1
  Si  Si1  1  0.54218600  0.01826700  0.32393400  1
  Si  Si2  1  0.35541300  0.02001300  0.02183100  1
  Si  Si3  1  0.35541300  0.97998700  0.52183100  1
  Si  Si4  1  0.11444700  0.40340500  0.07404600  1
  Si  Si5  1  0.11444700  0.59659500  0.57404600  1
  Si  Si6  1  0.65451000  0.36353700  0.98722100  1
  Si  Si7  1  0.65451000  0.63646300  0.48722100  1
  Si  Si8  1  0.84592300  0.61881500  0.81009500  1
  Si  Si9  1  0.84592300  0.38118500  0.31009500  1
  Si  Si10  1  0.29742100  0.62100900  0.88145600  1
  Si  Si11  1  0.29742100  0.37899100  0.38145600  1
  Si  Si12  1  0.48367900  0.36782900  0.68563000  1
  Si  Si13  1  0.48367900  0.63217100  0.18563000  1
  Pd  Pd14  1  0.97922900  0.90386200  0.68901200  1
  Pd  Pd15  1  0.97922900  0.09613800  0.18901200  1
  N  N16  1  0.74801300  0.84497600  0.81348500  1
  N  N17  1  0.74801300  0.15502400  0.31348500  1
  N  N18  1  0.55075300  0.14002400  0.96649300  1
  N  N19  1  0.55075300  0.85997600  0.46649300  1
  N  N20  1  0.32798400  0.86780100  0.87096700  1
  N  N21  1  0.32798400  0.13219900  0.37096700  1
  N  N22  1  0.16153600  0.16395800  0.04558800  1
  N  N23  1  0.16153600  0.83604200  0.54558800  1
  N  N24  1  0.28595000  0.50261600  0.72348100  1
  N  N25  1  0.28595000  0.49738400  0.22348100  1
  N  N26  1  0.45082800  0.12036400  0.67163100  1
  N  N27  1  0.45082800  0.87963600  0.17163100  1
  N  N28  1  0.87808300  0.38136400  0.12673900  1
  N  N29  1  0.87808300  0.61863600  0.62673900  1
  N  N30  1  0.07527700  0.56852500  0.93441400  1
  N  N31  1  0.07527700  0.43147500  0.43441400  1
  N  N32  1  0.69706500  0.41939000  0.82194700  1
  N  N33  1  0.69706500  0.58061000  0.32194700  1
  N  N34  1  0.49400200  0.53991600  0.02132900  1
  N  N35  1  0.49400200  0.46008400  0.52132900  1
