# generated using pymatgen
data_Ti2AgN3
_symmetry_space_group_name_H-M   'P 1'
_cell_length_a   3.06187900
_cell_length_b   3.06187875
_cell_length_c   26.03080000
_cell_angle_alpha   90.00000000
_cell_angle_beta   90.00000000
_cell_angle_gamma   119.99999187
_symmetry_Int_Tables_number   1
_chemical_formula_structural   Ti2AgN3
_chemical_formula_sum   'Ti6 Ag3 N9'
_cell_volume   211.34607943
_cell_formula_units_Z   3
loop_
 _symmetry_equiv_pos_site_id
 _symmetry_equiv_pos_as_xyz
  1  'x, y, z'
loop_
 _atom_site_type_symbol
 _atom_site_label
 _atom_site_symmetry_multiplicity
 _atom_site_fract_x
 _atom_site_fract_y
 _atom_site_fract_z
 _atom_site_occupancy
  Ti  Ti0  1  0.33300000  0.00589700  0.11552000  1
  Ti  Ti1  1  0.67289700  0.66700000  0.78218600  1
  Ti  Ti2  1  0.99410300  0.32710300  0.44885300  1
  Ti  Ti3  1  0.66700000  0.67289700  0.21781400  1
  Ti  Ti4  1  0.00589700  0.33300000  0.88448000  1
  Ti  Ti5  1  0.32710300  0.99410300  0.55114700  1
  Ag  Ag6  1  0.00000000  0.33114700  0.66666700  1
  Ag  Ag7  1  0.33114700  0.00000000  0.33333300  1
  Ag  Ag8  1  0.66885300  0.66885300  0.00000000  1
  N  N9  1  0.00000000  0.33918800  0.16666700  1
  N  N10  1  0.33918800  0.00000000  0.83333300  1
  N  N11  1  0.66081200  0.66081200  0.50000000  1
  N  N12  1  0.32750700  0.99394000  0.41459800  1
  N  N13  1  0.66643300  0.67249300  0.08126400  1
  N  N14  1  0.00606000  0.33356700  0.74793100  1
  N  N15  1  0.67249300  0.66643300  0.91873600  1
  N  N16  1  0.99394000  0.32750700  0.58540200  1
  N  N17  1  0.33356700  0.00606000  0.25206900  1
