# generated using pymatgen
data_HfFeN2
_symmetry_space_group_name_H-M   'P 1'
_cell_length_a   3.10218300
_cell_length_b   3.10218424
_cell_length_c   9.33807600
_cell_angle_alpha   90.00000000
_cell_angle_beta   90.00000000
_cell_angle_gamma   119.99997617
_symmetry_Int_Tables_number   1
_chemical_formula_structural   HfFeN2
_chemical_formula_sum   'Hf2 Fe2 N4'
_cell_volume   77.82571875
_cell_formula_units_Z   2
loop_
 _symmetry_equiv_pos_site_id
 _symmetry_equiv_pos_as_xyz
  1  'x, y, z'
loop_
 _atom_site_type_symbol
 _atom_site_label
 _atom_site_symmetry_multiplicity
 _atom_site_fract_x
 _atom_site_fract_y
 _atom_site_fract_z
 _atom_site_occupancy
  Hf  Hf0  1  0.66666100  0.33332200  0.25000000  1
  Hf  Hf1  1  0.33333900  0.66667800  0.75000000  1
  Fe  Fe2  1  0.00000000  0.00000000  0.00000000  1
  Fe  Fe3  1  0.00000000  0.00000000  0.50000000  1
  N  N4  1  0.66666900  0.33333700  0.89306600  1
  N  N5  1  0.33333100  0.66666300  0.10693400  1
  N  N6  1  0.33333100  0.66666300  0.39306600  1
  N  N7  1  0.66666900  0.33333700  0.60693400  1
