# generated using pymatgen
data_KCdN
_symmetry_space_group_name_H-M   'P 1'
_cell_length_a   5.12279600
_cell_length_b   5.12337844
_cell_length_c   4.01848200
_cell_angle_alpha   90.00000000
_cell_angle_beta   90.00000000
_cell_angle_gamma   119.99623950
_symmetry_Int_Tables_number   1
_chemical_formula_structural   KCdN
_chemical_formula_sum   'K1 Cd1 N1'
_cell_volume   91.34244078
_cell_formula_units_Z   1
loop_
 _symmetry_equiv_pos_site_id
 _symmetry_equiv_pos_as_xyz
  1  'x, y, z'
loop_
 _atom_site_type_symbol
 _atom_site_label
 _atom_site_symmetry_multiplicity
 _atom_site_fract_x
 _atom_site_fract_y
 _atom_site_fract_z
 _atom_site_occupancy
  K  K0  1  0.00000900  0.00001800  0.50000000  1
  Cd  Cd1  1  0.66670900  0.33341800  0.00000000  1
  N  N2  1  0.66668200  0.33336300  0.50000000  1
