# generated using pymatgen
data_NaMgN
_symmetry_space_group_name_H-M   'P 1'
_cell_length_a   6.63797500
_cell_length_b   3.74510300
_cell_length_c   6.20707200
_cell_angle_alpha   90.00000000
_cell_angle_beta   90.00000000
_cell_angle_gamma   90.00000000
_symmetry_Int_Tables_number   1
_chemical_formula_structural   NaMgN
_chemical_formula_sum   'Na4 Mg4 N4'
_cell_volume   154.30718975
_cell_formula_units_Z   4
loop_
 _symmetry_equiv_pos_site_id
 _symmetry_equiv_pos_as_xyz
  1  'x, y, z'
loop_
 _atom_site_type_symbol
 _atom_site_label
 _atom_site_symmetry_multiplicity
 _atom_site_fract_x
 _atom_site_fract_y
 _atom_site_fract_z
 _atom_site_occupancy
  Na  Na0  1  0.54319100  0.25000000  0.84514800  1
  Na  Na1  1  0.04319100  0.25000000  0.65485200  1
  Na  Na2  1  0.45680900  0.75000000  0.15485200  1
  Na  Na3  1  0.95680900  0.75000000  0.34514800  1
  Mg  Mg4  1  0.64489000  0.25000000  0.41633400  1
  Mg  Mg5  1  0.14489000  0.25000000  0.08366600  1
  Mg  Mg6  1  0.35511000  0.75000000  0.58366600  1
  Mg  Mg7  1  0.85511000  0.75000000  0.91633400  1
  N  N8  1  0.81426600  0.25000000  0.11117700  1
  N  N9  1  0.31426600  0.25000000  0.38882300  1
  N  N10  1  0.18573400  0.75000000  0.88882300  1
  N  N11  1  0.68573400  0.75000000  0.61117700  1
