# generated using pymatgen
data_Li3MoN2
_symmetry_space_group_name_H-M   'P 1'
_cell_length_a   8.50931800
_cell_length_b   9.82571373
_cell_length_c   9.82571296
_cell_angle_alpha   89.99999526
_cell_angle_beta   125.26438954
_cell_angle_gamma   54.73561367
_symmetry_Int_Tables_number   1
_chemical_formula_structural   Li3MoN2
_chemical_formula_sum   'Li24 Mo8 N16'
_cell_volume   474.31002929
_cell_formula_units_Z   8
loop_
 _symmetry_equiv_pos_site_id
 _symmetry_equiv_pos_as_xyz
  1  'x, y, z'
loop_
 _atom_site_type_symbol
 _atom_site_label
 _atom_site_symmetry_multiplicity
 _atom_site_fract_x
 _atom_site_fract_y
 _atom_site_fract_z
 _atom_site_occupancy
  Li  Li0  1  0.22041500  0.04606900  0.99337500  1
  Li  Li1  1  0.77958500  0.76648400  0.50662500  1
  Li  Li2  1  0.77958500  0.45393100  0.77296100  1
  Li  Li3  1  0.22041500  0.73351600  0.72703900  1
  Li  Li4  1  0.23366500  0.77296100  0.27310900  1
  Li  Li5  1  0.76633500  0.72703900  0.03944400  1
  Li  Li6  1  0.23366500  0.99337500  0.46055600  1
  Li  Li7  1  0.76633500  0.50662500  0.22689100  1
  Li  Li8  1  0.68744800  0.03944400  0.73351600  1
  Li  Li9  1  0.68744800  0.27310900  0.45393100  1
  Li  Li10  1  0.31255200  0.22689100  0.76648400  1
  Li  Li11  1  0.31255200  0.46055600  0.04606900  1
  Li  Li12  1  0.77958500  0.95393100  0.00662500  1
  Li  Li13  1  0.22041500  0.23351600  0.49337500  1
  Li  Li14  1  0.22041500  0.54606900  0.22703900  1
  Li  Li15  1  0.77958500  0.26648400  0.27296100  1
  Li  Li16  1  0.76633500  0.22703900  0.72689100  1
  Li  Li17  1  0.23366500  0.27296100  0.96055600  1
  Li  Li18  1  0.76633500  0.00662500  0.53944400  1
  Li  Li19  1  0.23366500  0.49337500  0.77310900  1
  Li  Li20  1  0.31255200  0.96055600  0.26648400  1
  Li  Li21  1  0.31255200  0.72689100  0.54606900  1
  Li  Li22  1  0.68744800  0.77310900  0.23351600  1
  Li  Li23  1  0.68744800  0.53944400  0.95393100  1
  Mo  Mo24  1  0.23214400  0.00000000  0.73214400  1
  Mo  Mo25  1  0.76785600  0.73214400  0.76785600  1
  Mo  Mo26  1  0.76785600  0.50000000  0.50000000  1
  Mo  Mo27  1  0.23214400  0.76785600  0.00000000  1
  Mo  Mo28  1  0.76785600  0.00000000  0.26785600  1
  Mo  Mo29  1  0.23214400  0.26785600  0.23214400  1
  Mo  Mo30  1  0.23214400  0.50000000  0.50000000  1
  Mo  Mo31  1  0.76785600  0.23214400  0.00000000  1
  N  N32  1  0.00000000  0.00000000  0.50000000  1
  N  N33  1  0.00000000  0.50000000  0.00000000  1
  N  N34  1  0.00000000  0.50000000  0.50000000  1
  N  N35  1  0.00000000  0.00000000  0.00000000  1
  N  N36  1  0.50000000  0.98003500  0.75000000  1
  N  N37  1  0.50000000  0.51996500  0.25000000  1
  N  N38  1  0.00000000  0.25000000  0.73003500  1
  N  N39  1  0.00000000  0.75000000  0.76996500  1
  N  N40  1  0.53993100  0.73003500  0.51996500  1
  N  N41  1  0.46006900  0.76996500  0.98003500  1
  N  N42  1  0.50000000  0.01996500  0.25000000  1
  N  N43  1  0.50000000  0.48003500  0.75000000  1
  N  N44  1  0.00000000  0.75000000  0.26996500  1
  N  N45  1  0.00000000  0.25000000  0.23003500  1
  N  N46  1  0.46006900  0.26996500  0.48003500  1
  N  N47  1  0.53993100  0.23003500  0.01996500  1
