# generated using pymatgen
data_K2Zr
_symmetry_space_group_name_H-M   'P 1'
_cell_length_a   6.56437567
_cell_length_b   6.56437567
_cell_length_c   7.86504800
_cell_angle_alpha   90.00000000
_cell_angle_beta   90.00000000
_cell_angle_gamma   119.99999672
_symmetry_Int_Tables_number   1
_chemical_formula_structural   K2Zr
_chemical_formula_sum   'K4 Zr2'
_cell_volume   293.50728045
_cell_formula_units_Z   2
loop_
 _symmetry_equiv_pos_site_id
 _symmetry_equiv_pos_as_xyz
  1  'x, y, z'
loop_
 _atom_site_type_symbol
 _atom_site_label
 _atom_site_symmetry_multiplicity
 _atom_site_fract_x
 _atom_site_fract_y
 _atom_site_fract_z
 _atom_site_occupancy
  K  K0  1  0.66666700  0.33333300  0.25000000  1
  K  K1  1  0.33333300  0.66666700  0.75000000  1
  K  K2  1  0.00000000  0.00000000  0.50000000  1
  K  K3  1  0.00000000  0.00000000  0.00000000  1
  Zr  Zr4  1  0.33333300  0.66666700  0.25000000  1
  Zr  Zr5  1  0.66666700  0.33333300  0.75000000  1
