# generated using pymatgen
data_Ca3(RuN2)2
_symmetry_space_group_name_H-M   'P 1'
_cell_length_a   6.97520584
_cell_length_b   8.60375253
_cell_length_c   5.36275290
_cell_angle_alpha   90.00000491
_cell_angle_beta   90.60262711
_cell_angle_gamma   128.07832735
_symmetry_Int_Tables_number   1
_chemical_formula_structural   Ca3(RuN2)2
_chemical_formula_sum   'Ca6 Ru4 N8'
_cell_volume   253.31539656
_cell_formula_units_Z   2
loop_
 _symmetry_equiv_pos_site_id
 _symmetry_equiv_pos_as_xyz
  1  'x, y, z'
loop_
 _atom_site_type_symbol
 _atom_site_label
 _atom_site_symmetry_multiplicity
 _atom_site_fract_x
 _atom_site_fract_y
 _atom_site_fract_z
 _atom_site_occupancy
  Ca  Ca0  1  0.23100300  0.97518900  0.04127100  1
  Ca  Ca1  1  0.76899700  0.74418500  0.45872900  1
  Ca  Ca2  1  0.76899700  0.02481100  0.95872900  1
  Ca  Ca3  1  0.23100300  0.25581500  0.54127100  1
  Ca  Ca4  1  0.00000000  0.59934900  0.75000000  1
  Ca  Ca5  1  0.00000000  0.40065100  0.25000000  1
  Ru  Ru6  1  0.57684200  0.17043800  0.58756300  1
  Ru  Ru7  1  0.42315800  0.59359600  0.91243700  1
  Ru  Ru8  1  0.42315800  0.82956200  0.41243700  1
  Ru  Ru9  1  0.57684200  0.40640400  0.08756300  1
  N  N10  1  0.22464400  0.93682800  0.52370300  1
  N  N11  1  0.77535600  0.71218300  0.97629700  1
  N  N12  1  0.77535600  0.06317200  0.47629700  1
  N  N13  1  0.22464400  0.28781700  0.02370300  1
  N  N14  1  0.68837200  0.26530100  0.93094500  1
  N  N15  1  0.31162800  0.57692900  0.56905500  1
  N  N16  1  0.31162800  0.73469900  0.06905500  1
  N  N17  1  0.68837200  0.42307100  0.43094500  1
