# generated using pymatgen
data_NaSbN2
_symmetry_space_group_name_H-M   'P 1'
_cell_length_a   3.20485026
_cell_length_b   3.20479517
_cell_length_c   6.11050233
_cell_angle_alpha   74.79718875
_cell_angle_beta   74.80447494
_cell_angle_gamma   60.00057533
_symmetry_Int_Tables_number   1
_chemical_formula_structural   NaSbN2
_chemical_formula_sum   'Na1 Sb1 N2'
_cell_volume   51.80182975
_cell_formula_units_Z   1
loop_
 _symmetry_equiv_pos_site_id
 _symmetry_equiv_pos_as_xyz
  1  'x, y, z'
loop_
 _atom_site_type_symbol
 _atom_site_label
 _atom_site_symmetry_multiplicity
 _atom_site_fract_x
 _atom_site_fract_y
 _atom_site_fract_z
 _atom_site_occupancy
  Na  Na0  1  0.50000000  0.50000000  0.50000000  1
  Sb  Sb1  1  0.00000000  0.00000000  0.00000000  1
  N  N2  1  0.26802600  0.26785900  0.19625600  1
  N  N3  1  0.73197400  0.73214100  0.80374400  1
