# generated using pymatgen
data_V(PbN)3
_symmetry_space_group_name_H-M   'P 1'
_cell_length_a   9.28041208
_cell_length_b   9.27449641
_cell_length_c   4.58123200
_cell_angle_alpha   90.00000000
_cell_angle_beta   90.00000000
_cell_angle_gamma   119.96613189
_symmetry_Int_Tables_number   1
_chemical_formula_structural   V(PbN)3
_chemical_formula_sum   'V2 Pb6 N6'
_cell_volume   341.60060342
_cell_formula_units_Z   2
loop_
 _symmetry_equiv_pos_site_id
 _symmetry_equiv_pos_as_xyz
  1  'x, y, z'
loop_
 _atom_site_type_symbol
 _atom_site_label
 _atom_site_symmetry_multiplicity
 _atom_site_fract_x
 _atom_site_fract_y
 _atom_site_fract_z
 _atom_site_occupancy
  V  V0  1  0.66668200  0.33331000  0.75000000  1
  V  V1  1  0.33331800  0.66669000  0.25000000  1
  Pb  Pb2  1  0.90538800  0.59534500  0.25000000  1
  Pb  Pb3  1  0.68990000  0.09441600  0.25000000  1
  Pb  Pb4  1  0.40466800  0.30988800  0.25000000  1
  Pb  Pb5  1  0.09461200  0.40465500  0.75000000  1
  Pb  Pb6  1  0.31010000  0.90558400  0.75000000  1
  Pb  Pb7  1  0.59533200  0.69011200  0.75000000  1
  N  N8  1  0.88674200  0.46980500  0.75000000  1
  N  N9  1  0.58298200  0.11305400  0.75000000  1
  N  N10  1  0.53009300  0.41701700  0.75000000  1
  N  N11  1  0.11325800  0.53019500  0.25000000  1
  N  N12  1  0.41701800  0.88694600  0.25000000  1
  N  N13  1  0.46990700  0.58298300  0.25000000  1
