# generated using pymatgen
data_ReN2
_symmetry_space_group_name_H-M   'P 1'
_cell_length_a   2.89267900
_cell_length_b   4.00947000
_cell_length_c   5.09724136
_cell_angle_alpha   86.67099290
_cell_angle_beta   90.00000000
_cell_angle_gamma   90.00000000
_symmetry_Int_Tables_number   1
_chemical_formula_structural   ReN2
_chemical_formula_sum   'Re2 N4'
_cell_volume   59.01860479
_cell_formula_units_Z   2
loop_
 _symmetry_equiv_pos_site_id
 _symmetry_equiv_pos_as_xyz
  1  'x, y, z'
loop_
 _atom_site_type_symbol
 _atom_site_label
 _atom_site_symmetry_multiplicity
 _atom_site_fract_x
 _atom_site_fract_y
 _atom_site_fract_z
 _atom_site_occupancy
  Re  Re0  1  0.50000000  0.43975800  0.22249300  1
  Re  Re1  1  0.00000000  0.01268700  0.78012800  1
  N  N2  1  0.00000000  0.22742600  0.43054800  1
  N  N3  1  0.50000000  0.91875900  0.08444300  1
  N  N4  1  0.50000000  0.39917200  0.81365100  1
  N  N5  1  0.50000000  0.66719700  0.63773700  1
