# generated using pymatgen
data_NaFeN
_symmetry_space_group_name_H-M   'P 1'
_cell_length_a   4.33314300
_cell_length_b   4.36330218
_cell_length_c   3.51684100
_cell_angle_alpha   90.00000000
_cell_angle_beta   90.00000000
_cell_angle_gamma   119.77160722
_symmetry_Int_Tables_number   1
_chemical_formula_structural   NaFeN
_chemical_formula_sum   'Na1 Fe1 N1'
_cell_volume   57.71604805
_cell_formula_units_Z   1
loop_
 _symmetry_equiv_pos_site_id
 _symmetry_equiv_pos_as_xyz
  1  'x, y, z'
loop_
 _atom_site_type_symbol
 _atom_site_label
 _atom_site_symmetry_multiplicity
 _atom_site_fract_x
 _atom_site_fract_y
 _atom_site_fract_z
 _atom_site_occupancy
  Na  Na0  1  0.99962300  0.99924600  0.50000000  1
  Fe  Fe1  1  0.66696800  0.33393500  0.00000000  1
  N  N2  1  0.66681000  0.33361900  0.50000000  1
