# generated using pymatgen
data_Sr7RuN6
_symmetry_space_group_name_H-M   'P 1'
_cell_length_a   11.88396153
_cell_length_b   6.69312614
_cell_length_c   13.96884592
_cell_angle_alpha   90.00000000
_cell_angle_beta   90.00000000
_cell_angle_gamma   90.00000000
_symmetry_Int_Tables_number   1
_chemical_formula_structural   Sr7RuN6
_chemical_formula_sum   'Sr28 Ru4 N24'
_cell_volume   1111.09392777
_cell_formula_units_Z   4
loop_
 _symmetry_equiv_pos_site_id
 _symmetry_equiv_pos_as_xyz
  1  'x, y, z'
loop_
 _atom_site_type_symbol
 _atom_site_label
 _atom_site_symmetry_multiplicity
 _atom_site_fract_x
 _atom_site_fract_y
 _atom_site_fract_z
 _atom_site_occupancy
  Sr  Sr0  1  0.03605157  0.73273701  0.98101229  1
  Sr  Sr1  1  0.46394843  0.76726299  0.48101229  1
  Sr  Sr2  1  0.53605157  0.76726299  0.01898771  1
  Sr  Sr3  1  0.96394843  0.73273701  0.51898771  1
  Sr  Sr4  1  0.96394843  0.26726299  0.01898771  1
  Sr  Sr5  1  0.53605157  0.23273701  0.51898771  1
  Sr  Sr6  1  0.46394843  0.23273701  0.98101229  1
  Sr  Sr7  1  0.03605157  0.26726299  0.48101229  1
  Sr  Sr8  1  0.21871214  0.86715360  0.62580512  1
  Sr  Sr9  1  0.28128786  0.63284640  0.12580512  1
  Sr  Sr10  1  0.71871214  0.63284640  0.37419488  1
  Sr  Sr11  1  0.78128786  0.86715360  0.87419488  1
  Sr  Sr12  1  0.78128786  0.13284640  0.37419488  1
  Sr  Sr13  1  0.71871214  0.36715360  0.87419488  1
  Sr  Sr14  1  0.28128786  0.36715360  0.62580512  1
  Sr  Sr15  1  0.21871214  0.13284640  0.12580512  1
  Sr  Sr16  1  0.28916442  0.60720097  0.87850365  1
  Sr  Sr17  1  0.21083558  0.89279903  0.37850365  1
  Sr  Sr18  1  0.78916442  0.89279903  0.12149635  1
  Sr  Sr19  1  0.71083558  0.60720097  0.62149635  1
  Sr  Sr20  1  0.71083558  0.39279903  0.12149635  1
  Sr  Sr21  1  0.78916442  0.10720097  0.62149635  1
  Sr  Sr22  1  0.21083558  0.10720097  0.87850365  1
  Sr  Sr23  1  0.28916442  0.39279903  0.37850365  1
  Sr  Sr24  1  0.00000000  0.43254316  0.75000000  1
  Sr  Sr25  1  0.50000000  0.06745684  0.25000000  1
  Sr  Sr26  1  0.00000000  0.56745684  0.25000000  1
  Sr  Sr27  1  0.50000000  0.93254316  0.75000000  1
  Ru  Ru28  1  0.00000000  0.92398766  0.75000000  1
  Ru  Ru29  1  0.50000000  0.57601234  0.25000000  1
  Ru  Ru30  1  0.00000000  0.07601234  0.25000000  1
  Ru  Ru31  1  0.50000000  0.42398766  0.75000000  1
  N  N32  1  0.12300279  0.75637663  0.79328501  1
  N  N33  1  0.37699721  0.74362337  0.29328501  1
  N  N34  1  0.62300279  0.74362337  0.20671499  1
  N  N35  1  0.87699721  0.75637663  0.70671499  1
  N  N36  1  0.87699721  0.24362337  0.20671499  1
  N  N37  1  0.62300279  0.25637663  0.70671499  1
  N  N38  1  0.37699721  0.25637663  0.79328501  1
  N  N39  1  0.12300279  0.24362337  0.29328501  1
  N  N40  1  0.16696305  0.59404107  0.50440880  1
  N  N41  1  0.33303695  0.90595893  0.00440880  1
  N  N42  1  0.66696305  0.90595893  0.49559120  1
  N  N43  1  0.83303695  0.59404107  0.99559120  1
  N  N44  1  0.83303695  0.40595893  0.49559120  1
  N  N45  1  0.66696305  0.09404107  0.99559120  1
  N  N46  1  0.33303695  0.09404107  0.50440880  1
  N  N47  1  0.16696305  0.40595893  0.00440880  1
  N  N48  1  0.46590021  0.59036590  0.64111989  1
  N  N49  1  0.03409979  0.90963410  0.14111989  1
  N  N50  1  0.96590021  0.90963410  0.35888011  1
  N  N51  1  0.53409979  0.59036590  0.85888011  1
  N  N52  1  0.53409979  0.40963410  0.35888011  1
  N  N53  1  0.96590021  0.09036590  0.85888011  1
  N  N54  1  0.03409979  0.09036590  0.64111989  1
  N  N55  1  0.46590021  0.40963410  0.14111989  1
