# generated using pymatgen
data_GeCN2
_symmetry_space_group_name_H-M   'P 1'
_cell_length_a   3.62679400
_cell_length_b   3.62687687
_cell_length_c   9.81963200
_cell_angle_alpha   90.00000000
_cell_angle_beta   90.00000000
_cell_angle_gamma   119.99922597
_symmetry_Int_Tables_number   1
_chemical_formula_structural   GeCN2
_chemical_formula_sum   'Ge2 C2 N4'
_cell_volume   111.86260567
_cell_formula_units_Z   2
loop_
 _symmetry_equiv_pos_site_id
 _symmetry_equiv_pos_as_xyz
  1  'x, y, z'
loop_
 _atom_site_type_symbol
 _atom_site_label
 _atom_site_symmetry_multiplicity
 _atom_site_fract_x
 _atom_site_fract_y
 _atom_site_fract_z
 _atom_site_occupancy
  Ge  Ge0  1  0.00000000  0.00000000  0.00000000  1
  Ge  Ge1  1  0.00000000  0.00000000  0.50000000  1
  C  C2  1  0.66668100  0.33336300  0.25000000  1
  C  C3  1  0.33331900  0.66663700  0.75000000  1
  N  N4  1  0.66668100  0.33336200  0.12389900  1
  N  N5  1  0.33331900  0.66663800  0.87610100  1
  N  N6  1  0.33331900  0.66663800  0.62389900  1
  N  N7  1  0.66668100  0.33336200  0.37610100  1
