# generated using pymatgen
data_Ca7RuN6
_symmetry_space_group_name_H-M   'P 1'
_cell_length_a   11.02265521
_cell_length_b   6.25306905
_cell_length_c   13.29659648
_cell_angle_alpha   90.00000000
_cell_angle_beta   90.00000000
_cell_angle_gamma   90.00000000
_symmetry_Int_Tables_number   1
_chemical_formula_structural   Ca7RuN6
_chemical_formula_sum   'Ca28 Ru4 N24'
_cell_volume   916.47355204
_cell_formula_units_Z   4
loop_
 _symmetry_equiv_pos_site_id
 _symmetry_equiv_pos_as_xyz
  1  'x, y, z'
loop_
 _atom_site_type_symbol
 _atom_site_label
 _atom_site_symmetry_multiplicity
 _atom_site_fract_x
 _atom_site_fract_y
 _atom_site_fract_z
 _atom_site_occupancy
  Ca  Ca0  1  0.03658372  0.72817433  0.97920692  1
  Ca  Ca1  1  0.46341628  0.77182567  0.47920692  1
  Ca  Ca2  1  0.53658372  0.77182567  0.02079308  1
  Ca  Ca3  1  0.96341628  0.72817433  0.52079308  1
  Ca  Ca4  1  0.96341628  0.27182567  0.02079308  1
  Ca  Ca5  1  0.53658372  0.22817433  0.52079308  1
  Ca  Ca6  1  0.46341628  0.22817433  0.97920692  1
  Ca  Ca7  1  0.03658372  0.27182567  0.47920692  1
  Ca  Ca8  1  0.22448458  0.86534905  0.62826948  1
  Ca  Ca9  1  0.27551542  0.63465095  0.12826948  1
  Ca  Ca10  1  0.72448458  0.63465095  0.37173052  1
  Ca  Ca11  1  0.77551542  0.86534905  0.87173052  1
  Ca  Ca12  1  0.77551542  0.13465095  0.37173052  1
  Ca  Ca13  1  0.72448458  0.36534905  0.87173052  1
  Ca  Ca14  1  0.27551542  0.36534905  0.62826948  1
  Ca  Ca15  1  0.22448458  0.13465095  0.12826948  1
  Ca  Ca16  1  0.29261984  0.60198980  0.88728707  1
  Ca  Ca17  1  0.20738016  0.89801020  0.38728707  1
  Ca  Ca18  1  0.79261984  0.89801020  0.11271293  1
  Ca  Ca19  1  0.70738016  0.60198980  0.61271293  1
  Ca  Ca20  1  0.70738016  0.39801020  0.11271293  1
  Ca  Ca21  1  0.79261984  0.10198980  0.61271293  1
  Ca  Ca22  1  0.20738016  0.10198980  0.88728707  1
  Ca  Ca23  1  0.29261984  0.39801020  0.38728707  1
  Ca  Ca24  1  0.00000000  0.43581989  0.75000000  1
  Ca  Ca25  1  0.50000000  0.06418011  0.25000000  1
  Ca  Ca26  1  0.00000000  0.56418011  0.25000000  1
  Ca  Ca27  1  0.50000000  0.93581989  0.75000000  1
  Ru  Ru28  1  0.00000000  0.92555763  0.75000000  1
  Ru  Ru29  1  0.50000000  0.57444237  0.25000000  1
  Ru  Ru30  1  0.00000000  0.07444237  0.25000000  1
  Ru  Ru31  1  0.50000000  0.42555763  0.75000000  1
  N  N32  1  0.13300986  0.74286716  0.79579002  1
  N  N33  1  0.36699014  0.75713284  0.29579002  1
  N  N34  1  0.63300986  0.75713284  0.20420998  1
  N  N35  1  0.86699014  0.74286716  0.70420998  1
  N  N36  1  0.86699014  0.25713284  0.20420998  1
  N  N37  1  0.63300986  0.24286716  0.70420998  1
  N  N38  1  0.36699014  0.24286716  0.79579002  1
  N  N39  1  0.13300986  0.25713284  0.29579002  1
  N  N40  1  0.16715699  0.59458869  0.51003007  1
  N  N41  1  0.33284301  0.90541131  0.01003007  1
  N  N42  1  0.66715699  0.90541131  0.48996993  1
  N  N43  1  0.83284301  0.59458869  0.98996993  1
  N  N44  1  0.83284301  0.40541131  0.48996993  1
  N  N45  1  0.66715699  0.09458869  0.98996993  1
  N  N46  1  0.33284301  0.09458869  0.51003007  1
  N  N47  1  0.16715699  0.40541131  0.01003007  1
  N  N48  1  0.46222478  0.60294818  0.63602102  1
  N  N49  1  0.03777522  0.89705182  0.13602102  1
  N  N50  1  0.96222478  0.89705182  0.36397898  1
  N  N51  1  0.53777522  0.60294818  0.86397898  1
  N  N52  1  0.53777522  0.39705182  0.36397898  1
  N  N53  1  0.96222478  0.10294818  0.86397898  1
  N  N54  1  0.03777522  0.10294818  0.63602102  1
  N  N55  1  0.46222478  0.39705182  0.13602102  1
