# generated using pymatgen
data_SrIrN2
_symmetry_space_group_name_H-M   'P 1'
_cell_length_a   6.10114847
_cell_length_b   8.29750900
_cell_length_c   5.29751145
_cell_angle_alpha   90.00000000
_cell_angle_beta   107.76170092
_cell_angle_gamma   90.00000000
_symmetry_Int_Tables_number   1
_chemical_formula_structural   SrIrN2
_chemical_formula_sum   'Sr4 Ir4 N8'
_cell_volume   255.39965191
_cell_formula_units_Z   4
loop_
 _symmetry_equiv_pos_site_id
 _symmetry_equiv_pos_as_xyz
  1  'x, y, z'
loop_
 _atom_site_type_symbol
 _atom_site_label
 _atom_site_symmetry_multiplicity
 _atom_site_fract_x
 _atom_site_fract_y
 _atom_site_fract_z
 _atom_site_occupancy
  Sr  Sr0  1  0.32204400  0.90083800  0.65287200  1
  Sr  Sr1  1  0.67795600  0.40083800  0.84712800  1
  Sr  Sr2  1  0.67795600  0.09916200  0.34712800  1
  Sr  Sr3  1  0.32204400  0.59916200  0.15287200  1
  Ir  Ir4  1  0.11989700  0.35684300  0.53988500  1
  Ir  Ir5  1  0.88010300  0.85684300  0.96011500  1
  Ir  Ir6  1  0.88010300  0.64315700  0.46011500  1
  Ir  Ir7  1  0.11989700  0.14315700  0.03988500  1
  N  N8  1  0.21686800  0.90220400  0.09930200  1
  N  N9  1  0.78313200  0.40220400  0.40069800  1
  N  N10  1  0.78313200  0.09779600  0.90069800  1
  N  N11  1  0.21686800  0.59779600  0.59930200  1
  N  N12  1  0.26711500  0.31831500  0.92888900  1
  N  N13  1  0.73288500  0.81831500  0.57111100  1
  N  N14  1  0.73288500  0.68168500  0.07111100  1
  N  N15  1  0.26711500  0.18168500  0.42888900  1
