# generated using pymatgen
data_In4S3N2
_symmetry_space_group_name_H-M   'P 1'
_cell_length_a   6.62916676
_cell_length_b   3.77626378
_cell_length_c   9.96872742
_cell_angle_alpha   89.99999640
_cell_angle_beta   50.83567395
_cell_angle_gamma   73.45179809
_symmetry_Int_Tables_number   1
_chemical_formula_structural   In4S3N2
_chemical_formula_sum   'In4 S3 N2'
_cell_volume   179.95885852
_cell_formula_units_Z   1
loop_
 _symmetry_equiv_pos_site_id
 _symmetry_equiv_pos_as_xyz
  1  'x, y, z'
loop_
 _atom_site_type_symbol
 _atom_site_label
 _atom_site_symmetry_multiplicity
 _atom_site_fract_x
 _atom_site_fract_y
 _atom_site_fract_z
 _atom_site_occupancy
  In  In0  1  0.25231800  0.87384100  0.65406000  1
  In  In1  1  0.74768200  0.12615900  0.34594000  1
  In  In2  1  0.57185200  0.71407400  0.13472100  1
  In  In3  1  0.42814800  0.28592600  0.86527900  1
  S  S4  1  0.00000000  0.00000000  0.00000000  1
  S  S5  1  0.77728400  0.61135800  0.80029200  1
  S  S6  1  0.22271600  0.38864200  0.19970800  1
  N  N7  1  0.54448200  0.72775900  0.36127800  1
  N  N8  1  0.45551800  0.27224100  0.63872200  1
