# generated using pymatgen
data_Sr3(MoN2)2
_symmetry_space_group_name_H-M   'P 1'
_cell_length_a   7.38118325
_cell_length_b   8.88467721
_cell_length_c   5.73900152
_cell_angle_alpha   89.99999953
_cell_angle_beta   91.09719450
_cell_angle_gamma   127.00226070
_symmetry_Int_Tables_number   1
_chemical_formula_structural   Sr3(MoN2)2
_chemical_formula_sum   'Sr6 Mo4 N8'
_cell_volume   300.47947338
_cell_formula_units_Z   2
loop_
 _symmetry_equiv_pos_site_id
 _symmetry_equiv_pos_as_xyz
  1  'x, y, z'
loop_
 _atom_site_type_symbol
 _atom_site_label
 _atom_site_symmetry_multiplicity
 _atom_site_fract_x
 _atom_site_fract_y
 _atom_site_fract_z
 _atom_site_occupancy
  Sr  Sr0  1  0.23423700  0.98489300  0.02799100  1
  Sr  Sr1  1  0.76576300  0.75065600  0.47200900  1
  Sr  Sr2  1  0.76576300  0.01510700  0.97200900  1
  Sr  Sr3  1  0.23423700  0.24934400  0.52799100  1
  Sr  Sr4  1  0.00000000  0.60201700  0.75000000  1
  Sr  Sr5  1  0.00000000  0.39798300  0.25000000  1
  Mo  Mo6  1  0.59510400  0.17216500  0.58720000  1
  Mo  Mo7  1  0.40489600  0.57706000  0.91280000  1
  Mo  Mo8  1  0.40489600  0.82783500  0.41280000  1
  Mo  Mo9  1  0.59510400  0.42294000  0.08720000  1
  N  N10  1  0.25458800  0.95335600  0.51415800  1
  N  N11  1  0.74541200  0.69876800  0.98584200  1
  N  N12  1  0.74541200  0.04664400  0.48584200  1
  N  N13  1  0.25458800  0.30123200  0.01415800  1
  N  N14  1  0.66537300  0.26529800  0.91302900  1
  N  N15  1  0.33462700  0.59992600  0.58697100  1
  N  N16  1  0.33462700  0.73470200  0.08697100  1
  N  N17  1  0.66537300  0.40007400  0.41302900  1
