# generated using pymatgen
data_Ge2SN2
_symmetry_space_group_name_H-M   'P 1'
_cell_length_a   6.41173196
_cell_length_b   8.11485961
_cell_length_c   4.65075156
_cell_angle_alpha   89.99999835
_cell_angle_beta   81.04156940
_cell_angle_gamma   129.25799560
_symmetry_Int_Tables_number   1
_chemical_formula_structural   Ge2SN2
_chemical_formula_sum   'Ge4 S2 N4'
_cell_volume   183.53816392
_cell_formula_units_Z   2
loop_
 _symmetry_equiv_pos_site_id
 _symmetry_equiv_pos_as_xyz
  1  'x, y, z'
loop_
 _atom_site_type_symbol
 _atom_site_label
 _atom_site_symmetry_multiplicity
 _atom_site_fract_x
 _atom_site_fract_y
 _atom_site_fract_z
 _atom_site_occupancy
  Ge  Ge0  1  0.02695000  0.79729800  0.92044000  1
  Ge  Ge1  1  0.02695000  0.22965200  0.92044000  1
  Ge  Ge2  1  0.40208000  0.35825000  0.22044800  1
  Ge  Ge3  1  0.40208000  0.04382900  0.22044800  1
  S  S4  1  0.35426300  0.67713200  0.43870300  1
  S  S5  1  0.88048300  0.94024200  0.66875900  1
  N  N6  1  0.21994000  0.77925000  0.55860800  1
  N  N7  1  0.21994000  0.44068900  0.55860800  1
  N  N8  1  0.75295800  0.17281600  0.18077200  1
  N  N9  1  0.75295800  0.58014200  0.18077200  1
