# generated using pymatgen
data_Sc3Ge6N11
_symmetry_space_group_name_H-M   'P 1'
_cell_length_a   10.19912100
_cell_length_b   10.19912100
_cell_length_c   5.10740400
_cell_angle_alpha   90.00000000
_cell_angle_beta   90.00000000
_cell_angle_gamma   90.00000000
_symmetry_Int_Tables_number   1
_chemical_formula_structural   Sc3Ge6N11
_chemical_formula_sum   'Sc6 Ge12 N22'
_cell_volume   531.28273218
_cell_formula_units_Z   2
loop_
 _symmetry_equiv_pos_site_id
 _symmetry_equiv_pos_as_xyz
  1  'x, y, z'
loop_
 _atom_site_type_symbol
 _atom_site_label
 _atom_site_symmetry_multiplicity
 _atom_site_fract_x
 _atom_site_fract_y
 _atom_site_fract_z
 _atom_site_occupancy
  Sc  Sc0  1  0.30427300  0.80427300  0.94138800  1
  Sc  Sc1  1  0.69572700  0.19572700  0.94138800  1
  Sc  Sc2  1  0.19572700  0.30427300  0.94138800  1
  Sc  Sc3  1  0.80427300  0.69572700  0.94138800  1
  Sc  Sc4  1  0.50000000  0.50000000  0.95317300  1
  Sc  Sc5  1  0.00000000  0.00000000  0.95317300  1
  Ge  Ge6  1  0.41942900  0.29521600  0.52544300  1
  Ge  Ge7  1  0.58057100  0.70478400  0.52544300  1
  Ge  Ge8  1  0.08057100  0.79521600  0.52544300  1
  Ge  Ge9  1  0.91942900  0.20478400  0.52544300  1
  Ge  Ge10  1  0.29521600  0.58057100  0.52544300  1
  Ge  Ge11  1  0.70478400  0.41942900  0.52544300  1
  Ge  Ge12  1  0.79521600  0.91942900  0.52544300  1
  Ge  Ge13  1  0.20478400  0.08057100  0.52544300  1
  Ge  Ge14  1  0.88038600  0.38038600  0.04975400  1
  Ge  Ge15  1  0.11961400  0.61961400  0.04975400  1
  Ge  Ge16  1  0.61961400  0.88038600  0.04975400  1
  Ge  Ge17  1  0.38038600  0.11961400  0.04975400  1
  N  N18  1  0.31763200  0.42245200  0.68746300  1
  N  N19  1  0.68236800  0.57754800  0.68746300  1
  N  N20  1  0.18236800  0.92245200  0.68746300  1
  N  N21  1  0.81763200  0.07754800  0.68746300  1
  N  N22  1  0.42245200  0.68236800  0.68746300  1
  N  N23  1  0.57754800  0.31763200  0.68746300  1
  N  N24  1  0.92245200  0.81763200  0.68746300  1
  N  N25  1  0.07754800  0.18236800  0.68746300  1
  N  N26  1  0.40600600  0.29435500  0.16528200  1
  N  N27  1  0.59399400  0.70564500  0.16528200  1
  N  N28  1  0.09399400  0.79435500  0.16528200  1
  N  N29  1  0.90600600  0.20564500  0.16528200  1
  N  N30  1  0.29435500  0.59399400  0.16528200  1
  N  N31  1  0.70564500  0.40600600  0.16528200  1
  N  N32  1  0.79435500  0.90600600  0.16528200  1
  N  N33  1  0.20564500  0.09399400  0.16528200  1
  N  N34  1  0.84554300  0.34554300  0.69838100  1
  N  N35  1  0.15445700  0.65445700  0.69838100  1
  N  N36  1  0.65445700  0.84554300  0.69838100  1
  N  N37  1  0.34554300  0.15445700  0.69838100  1
  N  N38  1  0.50000000  0.00000000  0.12356800  1
  N  N39  1  0.00000000  0.50000000  0.12356800  1
