# generated using pymatgen
data_Ca7CrN6
_symmetry_space_group_name_H-M   'P 1'
_cell_length_a   11.03758600
_cell_length_b   6.25116800
_cell_length_c   12.97875400
_cell_angle_alpha   90.00000000
_cell_angle_beta   90.00000000
_cell_angle_gamma   90.00000000
_symmetry_Int_Tables_number   1
_chemical_formula_structural   Ca7CrN6
_chemical_formula_sum   'Ca28 Cr4 N24'
_cell_volume   895.50552985
_cell_formula_units_Z   4
loop_
 _symmetry_equiv_pos_site_id
 _symmetry_equiv_pos_as_xyz
  1  'x, y, z'
loop_
 _atom_site_type_symbol
 _atom_site_label
 _atom_site_symmetry_multiplicity
 _atom_site_fract_x
 _atom_site_fract_y
 _atom_site_fract_z
 _atom_site_occupancy
  Ca  Ca0  1  0.03586100  0.73210100  0.97792300  1
  Ca  Ca1  1  0.46413900  0.76789900  0.47792300  1
  Ca  Ca2  1  0.53586100  0.76789900  0.02207700  1
  Ca  Ca3  1  0.96413900  0.73210100  0.52207700  1
  Ca  Ca4  1  0.96413900  0.26789900  0.02207700  1
  Ca  Ca5  1  0.53586100  0.23210100  0.52207700  1
  Ca  Ca6  1  0.46413900  0.23210100  0.97792300  1
  Ca  Ca7  1  0.03586100  0.26789900  0.47792300  1
  Ca  Ca8  1  0.22805600  0.84905500  0.62531900  1
  Ca  Ca9  1  0.27194400  0.65094500  0.12531900  1
  Ca  Ca10  1  0.72805600  0.65094500  0.37468100  1
  Ca  Ca11  1  0.77194400  0.84905500  0.87468100  1
  Ca  Ca12  1  0.77194400  0.15094500  0.37468100  1
  Ca  Ca13  1  0.72805600  0.34905500  0.87468100  1
  Ca  Ca14  1  0.27194400  0.34905500  0.62531900  1
  Ca  Ca15  1  0.22805600  0.15094500  0.12531900  1
  Ca  Ca16  1  0.29100100  0.61015000  0.87909600  1
  Ca  Ca17  1  0.20899900  0.88985000  0.37909600  1
  Ca  Ca18  1  0.79100100  0.88985000  0.12090400  1
  Ca  Ca19  1  0.70899900  0.61015000  0.62090400  1
  Ca  Ca20  1  0.70899900  0.38985000  0.12090400  1
  Ca  Ca21  1  0.79100100  0.11014900  0.62090400  1
  Ca  Ca22  1  0.20899900  0.11014900  0.87909600  1
  Ca  Ca23  1  0.29100100  0.38985000  0.37909600  1
  Ca  Ca24  1  0.00000000  0.44184700  0.75000000  1
  Ca  Ca25  1  0.50000000  0.05815300  0.25000000  1
  Ca  Ca26  1  0.00000000  0.55815300  0.25000000  1
  Ca  Ca27  1  0.50000000  0.94184700  0.75000000  1
  Cr  Cr28  1  0.00000000  0.93597800  0.75000000  1
  Cr  Cr29  1  0.50000000  0.56402200  0.25000000  1
  Cr  Cr30  1  0.00000000  0.06402200  0.25000000  1
  Cr  Cr31  1  0.50000000  0.43597800  0.75000000  1
  N  N32  1  0.12548200  0.76400400  0.79389600  1
  N  N33  1  0.37451800  0.73599600  0.29389600  1
  N  N34  1  0.62548200  0.73599600  0.20610400  1
  N  N35  1  0.87451800  0.76400400  0.70610400  1
  N  N36  1  0.87451800  0.23599600  0.20610400  1
  N  N37  1  0.62548200  0.26400400  0.70610400  1
  N  N38  1  0.37451800  0.26400400  0.79389600  1
  N  N39  1  0.12548200  0.23599600  0.29389600  1
  N  N40  1  0.16492600  0.58806100  0.50272500  1
  N  N41  1  0.33507400  0.91193900  0.00272500  1
  N  N42  1  0.66492600  0.91193900  0.49727500  1
  N  N43  1  0.83507400  0.58806100  0.99727500  1
  N  N44  1  0.83507400  0.41193900  0.49727500  1
  N  N45  1  0.66492600  0.08806100  0.99727500  1
  N  N46  1  0.33507400  0.08806100  0.50272500  1
  N  N47  1  0.16492600  0.41193900  0.00272500  1
  N  N48  1  0.44824000  0.60497100  0.64367100  1
  N  N49  1  0.05176000  0.89502900  0.14367100  1
  N  N50  1  0.94824000  0.89502900  0.35632900  1
  N  N51  1  0.55176000  0.60497100  0.85632900  1
  N  N52  1  0.55176000  0.39502900  0.35632900  1
  N  N53  1  0.94824000  0.10497100  0.85632900  1
  N  N54  1  0.05176000  0.10497100  0.64367100  1
  N  N55  1  0.44824000  0.39502900  0.14367100  1
