# generated using pymatgen
data_Ba2CuN2
_symmetry_space_group_name_H-M   'P 1'
_cell_length_a   4.11098400
_cell_length_b   4.12215300
_cell_length_c   7.16834081
_cell_angle_alpha   106.70982931
_cell_angle_beta   106.66324325
_cell_angle_gamma   90.00000000
_symmetry_Int_Tables_number   1
_chemical_formula_structural   Ba2CuN2
_chemical_formula_sum   'Ba2 Cu1 N2'
_cell_volume   111.00930776
_cell_formula_units_Z   1
loop_
 _symmetry_equiv_pos_site_id
 _symmetry_equiv_pos_as_xyz
  1  'x, y, z'
loop_
 _atom_site_type_symbol
 _atom_site_label
 _atom_site_symmetry_multiplicity
 _atom_site_fract_x
 _atom_site_fract_y
 _atom_site_fract_z
 _atom_site_occupancy
  Ba  Ba0  1  0.84997200  0.84997200  0.19994500  1
  Ba  Ba1  1  0.15002800  0.15002800  0.80005500  1
  Cu  Cu2  1  0.50000000  0.50000000  0.50000000  1
  N  N3  1  0.36188400  0.36188400  0.22376800  1
  N  N4  1  0.63811600  0.63811600  0.77623200  1
