# generated using pymatgen
data_Na2CrN2
_symmetry_space_group_name_H-M   'P 1'
_cell_length_a   2.97237538
_cell_length_b   2.97219356
_cell_length_c   8.80143487
_cell_angle_alpha   89.99999926
_cell_angle_beta   90.28607283
_cell_angle_gamma   119.99797595
_symmetry_Int_Tables_number   1
_chemical_formula_structural   Na2CrN2
_chemical_formula_sum   'Na2 Cr1 N2'
_cell_volume   67.33897395
_cell_formula_units_Z   1
loop_
 _symmetry_equiv_pos_site_id
 _symmetry_equiv_pos_as_xyz
  1  'x, y, z'
loop_
 _atom_site_type_symbol
 _atom_site_label
 _atom_site_symmetry_multiplicity
 _atom_site_fract_x
 _atom_site_fract_y
 _atom_site_fract_z
 _atom_site_occupancy
  Na  Na0  1  0.67281000  0.33640500  0.30502800  1
  Na  Na1  1  0.32719000  0.66359500  0.69497200  1
  Cr  Cr2  1  0.00000000  0.00000000  0.00000000  1
  N  N3  1  0.66433700  0.33216900  0.87979300  1
  N  N4  1  0.33566300  0.66783100  0.12020700  1
