# generated using pymatgen
data_Sr3W3N5
_symmetry_space_group_name_H-M   'P 1'
_cell_length_a   6.15627418
_cell_length_b   7.96197730
_cell_length_c   8.40771538
_cell_angle_alpha   108.33821056
_cell_angle_beta   103.33210517
_cell_angle_gamma   103.94557649
_symmetry_Int_Tables_number   1
_chemical_formula_structural   Sr3W3N5
_chemical_formula_sum   'Sr6 W6 N10'
_cell_volume   358.03773909
_cell_formula_units_Z   2
loop_
 _symmetry_equiv_pos_site_id
 _symmetry_equiv_pos_as_xyz
  1  'x, y, z'
loop_
 _atom_site_type_symbol
 _atom_site_label
 _atom_site_symmetry_multiplicity
 _atom_site_fract_x
 _atom_site_fract_y
 _atom_site_fract_z
 _atom_site_occupancy
  Sr  Sr0  1  0.75357600  0.44970200  0.60088500  1
  Sr  Sr1  1  0.24642400  0.55029800  0.39911500  1
  Sr  Sr2  1  0.65255600  0.85458300  0.88502900  1
  Sr  Sr3  1  0.34744400  0.14541700  0.11497100  1
  Sr  Sr4  1  0.67979000  0.68135000  0.23266500  1
  Sr  Sr5  1  0.32021000  0.31865000  0.76733500  1
  W  W6  1  0.90334700  0.30741100  0.95875700  1
  W  W7  1  0.09665300  0.69258900  0.04124300  1
  W  W8  1  0.72214800  0.01960300  0.59282400  1
  W  W9  1  0.27785200  0.98039700  0.40717600  1
  W  W10  1  0.08948200  0.87806000  0.67606000  1
  W  W11  1  0.91051800  0.12194000  0.32394000  1
  N  N12  1  0.99591500  0.08251700  0.83405600  1
  N  N13  1  0.00408500  0.91748300  0.16594400  1
  N  N14  1  0.72191700  0.74976300  0.56438900  1
  N  N15  1  0.27808300  0.25023700  0.43561100  1
  N  N16  1  0.76323800  0.51694200  0.92969300  1
  N  N17  1  0.23676200  0.48305800  0.07030700  1
  N  N18  1  0.39987600  0.94460600  0.63681400  1
  N  N19  1  0.60012400  0.05539400  0.36318600  1
  N  N20  1  0.18855400  0.77683200  0.86850800  1
  N  N21  1  0.81144600  0.22316800  0.13149200  1
