# generated using pymatgen
data_CaOsN2
_symmetry_space_group_name_H-M   'P 1'
_cell_length_a   5.45853212
_cell_length_b   5.45853217
_cell_length_c   5.45853203
_cell_angle_alpha   34.66668078
_cell_angle_beta   34.66667600
_cell_angle_gamma   34.66667798
_symmetry_Int_Tables_number   1
_chemical_formula_structural   CaOsN2
_chemical_formula_sum   'Ca1 Os1 N2'
_cell_volume   46.95652040
_cell_formula_units_Z   1
loop_
 _symmetry_equiv_pos_site_id
 _symmetry_equiv_pos_as_xyz
  1  'x, y, z'
loop_
 _atom_site_type_symbol
 _atom_site_label
 _atom_site_symmetry_multiplicity
 _atom_site_fract_x
 _atom_site_fract_y
 _atom_site_fract_z
 _atom_site_occupancy
  Ca  Ca0  1  0.00000000  0.00000000  0.00000000  1
  Os  Os1  1  0.50000000  0.50000000  0.50000000  1
  N  N2  1  0.76833600  0.76833600  0.76833600  1
  N  N3  1  0.23166400  0.23166400  0.23166400  1
