# generated using pymatgen
data_Cd(C4N3)2
_symmetry_space_group_name_H-M   'P 1'
_cell_length_a   5.56053100
_cell_length_b   7.90314800
_cell_length_c   10.96492400
_cell_angle_alpha   90.00000000
_cell_angle_beta   90.00000000
_cell_angle_gamma   90.00000000
_symmetry_Int_Tables_number   1
_chemical_formula_structural   Cd(C4N3)2
_chemical_formula_sum   'Cd2 C16 N12'
_cell_volume   481.86125461
_cell_formula_units_Z   2
loop_
 _symmetry_equiv_pos_site_id
 _symmetry_equiv_pos_as_xyz
  1  'x, y, z'
loop_
 _atom_site_type_symbol
 _atom_site_label
 _atom_site_symmetry_multiplicity
 _atom_site_fract_x
 _atom_site_fract_y
 _atom_site_fract_z
 _atom_site_occupancy
  Cd  Cd0  1  0.00000000  0.50000000  0.50000000  1
  Cd  Cd1  1  0.00000000  0.00000000  0.00000000  1
  C  C2  1  0.39865300  0.00000000  0.74549400  1
  C  C3  1  0.39865300  0.50000000  0.75450600  1
  C  C4  1  0.60134700  0.00000000  0.25450600  1
  C  C5  1  0.60134700  0.50000000  0.24549400  1
  C  C6  1  0.58706400  0.00000000  0.66004000  1
  C  C7  1  0.58706400  0.50000000  0.83996000  1
  C  C8  1  0.41293600  0.00000000  0.33996000  1
  C  C9  1  0.41293600  0.50000000  0.16004000  1
  C  C10  1  0.68758000  0.15200700  0.61827000  1
  C  C11  1  0.68758000  0.34799300  0.88173000  1
  C  C12  1  0.31242000  0.15200700  0.38173000  1
  C  C13  1  0.68758000  0.65200700  0.88173000  1
  C  C14  1  0.31242000  0.84799300  0.38173000  1
  C  C15  1  0.31242000  0.65200700  0.11827000  1
  C  C16  1  0.68758000  0.84799300  0.61827000  1
  C  C17  1  0.31242000  0.34799300  0.11827000  1
  N  N18  1  0.77298100  0.27749800  0.58188200  1
  N  N19  1  0.77298100  0.22250200  0.91811800  1
  N  N20  1  0.22701900  0.27749800  0.41811800  1
  N  N21  1  0.77298100  0.77749800  0.91811800  1
  N  N22  1  0.22701900  0.72250200  0.41811800  1
  N  N23  1  0.22701900  0.77749800  0.08188200  1
  N  N24  1  0.77298100  0.72250200  0.58188200  1
  N  N25  1  0.22701900  0.22250200  0.08188200  1
  N  N26  1  0.24196200  0.00000000  0.81686800  1
  N  N27  1  0.24196200  0.50000000  0.68313200  1
  N  N28  1  0.75803800  0.00000000  0.18313200  1
  N  N29  1  0.75803800  0.50000000  0.31686800  1
