# generated using pymatgen
data_Ca3B3N5
_symmetry_space_group_name_H-M   'P 1'
_cell_length_a   5.62670766
_cell_length_b   6.25087128
_cell_length_c   7.83470421
_cell_angle_alpha   109.68187315
_cell_angle_beta   111.30658595
_cell_angle_gamma   90.60769280
_symmetry_Int_Tables_number   1
_chemical_formula_structural   Ca3B3N5
_chemical_formula_sum   'Ca6 B6 N10'
_cell_volume   238.93364046
_cell_formula_units_Z   2
loop_
 _symmetry_equiv_pos_site_id
 _symmetry_equiv_pos_as_xyz
  1  'x, y, z'
loop_
 _atom_site_type_symbol
 _atom_site_label
 _atom_site_symmetry_multiplicity
 _atom_site_fract_x
 _atom_site_fract_y
 _atom_site_fract_z
 _atom_site_occupancy
  Ca  Ca0  1  0.84575500  0.39122200  0.60428500  1
  Ca  Ca1  1  0.15424500  0.60877800  0.39571500  1
  Ca  Ca2  1  0.63851700  0.85150300  0.85935800  1
  Ca  Ca3  1  0.36148300  0.14849700  0.14064200  1
  Ca  Ca4  1  0.62641300  0.68888500  0.20813400  1
  Ca  Ca5  1  0.37358700  0.31111500  0.79186600  1
  B  B6  1  0.93304100  0.32575900  0.97408300  1
  B  B7  1  0.06695900  0.67424100  0.02591700  1
  B  B8  1  0.68280400  0.96200700  0.57329500  1
  B  B9  1  0.31719600  0.03799300  0.42670500  1
  B  B10  1  0.01701900  0.86584400  0.74921000  1
  B  B11  1  0.98298100  0.13415600  0.25079000  1
  N  N12  1  0.93831100  0.10482400  0.78852300  1
  N  N13  1  0.06168900  0.89517600  0.21147700  1
  N  N14  1  0.81998800  0.73749800  0.54874000  1
  N  N15  1  0.18001200  0.26250200  0.45126000  1
  N  N16  1  0.78619200  0.51846700  0.91132400  1
  N  N17  1  0.21380800  0.48153300  0.08867600  1
  N  N18  1  0.41808900  0.95140600  0.59929400  1
  N  N19  1  0.58191100  0.04859400  0.40070600  1
  N  N20  1  0.18606000  0.76217000  0.88716400  1
  N  N21  1  0.81394000  0.23783000  0.11283600  1
