# generated using pymatgen
data_MnReN2
_symmetry_space_group_name_H-M   'P 1'
_cell_length_a   5.08805000
_cell_length_b   6.07242900
_cell_length_c   5.38841300
_cell_angle_alpha   90.00000000
_cell_angle_beta   90.00000000
_cell_angle_gamma   90.00000000
_symmetry_Int_Tables_number   1
_chemical_formula_structural   MnReN2
_chemical_formula_sum   'Mn4 Re4 N8'
_cell_volume   166.48483934
_cell_formula_units_Z   4
loop_
 _symmetry_equiv_pos_site_id
 _symmetry_equiv_pos_as_xyz
  1  'x, y, z'
loop_
 _atom_site_type_symbol
 _atom_site_label
 _atom_site_symmetry_multiplicity
 _atom_site_fract_x
 _atom_site_fract_y
 _atom_site_fract_z
 _atom_site_occupancy
  Mn  Mn0  1  0.57263700  0.88640200  0.94545400  1
  Mn  Mn1  1  0.42736300  0.11359800  0.44545400  1
  Mn  Mn2  1  0.92736300  0.38640200  0.44545400  1
  Mn  Mn3  1  0.07263700  0.61359800  0.94545400  1
  Re  Re4  1  0.61937500  0.32835200  0.05864300  1
  Re  Re5  1  0.38062500  0.67164800  0.55864300  1
  Re  Re6  1  0.88062500  0.82835200  0.55864300  1
  Re  Re7  1  0.11937500  0.17164800  0.05864300  1
  N  N8  1  0.58013000  0.86473300  0.30635700  1
  N  N9  1  0.41987000  0.13526700  0.80635700  1
  N  N10  1  0.91987000  0.36473300  0.80635700  1
  N  N11  1  0.08013000  0.63526700  0.30635700  1
  N  N12  1  0.55901300  0.41266700  0.41154800  1
  N  N13  1  0.44098700  0.58733300  0.91154800  1
  N  N14  1  0.94098700  0.91266700  0.91154800  1
  N  N15  1  0.05901300  0.08733300  0.41154800  1
