# generated using pymatgen
data_Y2Pt2S7
_symmetry_space_group_name_H-M   'P 1'
_cell_length_a   8.65749299
_cell_length_b   8.65749299
_cell_length_c   8.65749299
_cell_angle_alpha   60.00000000
_cell_angle_beta   60.00000000
_cell_angle_gamma   60.00000000
_symmetry_Int_Tables_number   1
_chemical_formula_structural   Y2Pt2S7
_chemical_formula_sum   'Y4 Pt4 S14'
_cell_volume   458.84018649
_cell_formula_units_Z   2
loop_
 _symmetry_equiv_pos_site_id
 _symmetry_equiv_pos_as_xyz
  1  'x, y, z'
loop_
 _atom_site_type_symbol
 _atom_site_label
 _atom_site_symmetry_multiplicity
 _atom_site_fract_x
 _atom_site_fract_y
 _atom_site_fract_z
 _atom_site_occupancy
  Y  Y0  1  0.50000000  0.00000000  0.50000000  1
  Y  Y1  1  0.50000000  0.50000000  0.00000000  1
  Y  Y2  1  0.00000000  0.50000000  0.50000000  1
  Y  Y3  1  0.50000000  0.50000000  0.50000000  1
  Pt  Pt4  1  0.00000000  0.00000000  0.00000000  1
  Pt  Pt5  1  0.50000000  0.00000000  0.00000000  1
  Pt  Pt6  1  0.00000000  0.00000000  0.50000000  1
  Pt  Pt7  1  0.00000000  0.50000000  0.00000000  1
  S  S8  1  0.66246400  0.08753600  0.08753600  1
  S  S9  1  0.91246400  0.33753600  0.33753600  1
  S  S10  1  0.08753600  0.08753600  0.66246400  1
  S  S11  1  0.66246400  0.66246400  0.08753600  1
  S  S12  1  0.37500000  0.37500000  0.37500000  1
  S  S13  1  0.66246400  0.08753600  0.66246400  1
  S  S14  1  0.08753600  0.66246400  0.08753600  1
  S  S15  1  0.33753600  0.91246400  0.33753600  1
  S  S16  1  0.91246400  0.91246400  0.33753600  1
  S  S17  1  0.33753600  0.33753600  0.91246400  1
  S  S18  1  0.62500000  0.62500000  0.62500000  1
  S  S19  1  0.91246400  0.33753600  0.91246400  1
  S  S20  1  0.08753600  0.66246400  0.66246400  1
  S  S21  1  0.33753600  0.91246400  0.91246400  1
