# generated using pymatgen
data_RbZnN
_symmetry_space_group_name_H-M   'P 1'
_cell_length_a   11.24984014
_cell_length_b   3.57102059
_cell_length_c   6.70920802
_cell_angle_alpha   90.00000000
_cell_angle_beta   90.00000000
_cell_angle_gamma   90.00000000
_symmetry_Int_Tables_number   1
_chemical_formula_structural   RbZnN
_chemical_formula_sum   'Rb4 Zn4 N4'
_cell_volume   269.53176976
_cell_formula_units_Z   4
loop_
 _symmetry_equiv_pos_site_id
 _symmetry_equiv_pos_as_xyz
  1  'x, y, z'
loop_
 _atom_site_type_symbol
 _atom_site_label
 _atom_site_symmetry_multiplicity
 _atom_site_fract_x
 _atom_site_fract_y
 _atom_site_fract_z
 _atom_site_occupancy
  Rb  Rb0  1  0.65697029  0.25000000  0.05534045  1
  Rb  Rb1  1  0.15697029  0.25000000  0.44465955  1
  Rb  Rb2  1  0.34302971  0.75000000  0.94465955  1
  Rb  Rb3  1  0.84302971  0.75000000  0.55534045  1
  Zn  Zn4  1  0.55498609  0.25000000  0.60719738  1
  Zn  Zn5  1  0.05498609  0.25000000  0.89280262  1
  Zn  Zn6  1  0.44501391  0.75000000  0.39280262  1
  Zn  Zn7  1  0.94501391  0.75000000  0.10719738  1
  N  N8  1  0.92033651  0.25000000  0.19621763  1
  N  N9  1  0.42033651  0.25000000  0.30378237  1
  N  N10  1  0.07966349  0.75000000  0.80378237  1
  N  N11  1  0.57966349  0.75000000  0.69621763  1
