# generated using pymatgen
data_PtCN2
_symmetry_space_group_name_H-M   'P 1'
_cell_length_a   3.14550564
_cell_length_b   4.41805567
_cell_length_c   5.10301600
_cell_angle_alpha   90.00000000
_cell_angle_beta   90.00000000
_cell_angle_gamma   110.85371138
_symmetry_Int_Tables_number   1
_chemical_formula_structural   PtCN2
_chemical_formula_sum   'Pt1 C1 N2'
_cell_volume   66.27112499
_cell_formula_units_Z   1
loop_
 _symmetry_equiv_pos_site_id
 _symmetry_equiv_pos_as_xyz
  1  'x, y, z'
loop_
 _atom_site_type_symbol
 _atom_site_label
 _atom_site_symmetry_multiplicity
 _atom_site_fract_x
 _atom_site_fract_y
 _atom_site_fract_z
 _atom_site_occupancy
  Pt  Pt0  1  0.00000000  0.00000000  0.00000000  1
  C  C1  1  0.50000000  0.00000000  0.50000000  1
  N  N2  1  0.50000000  0.00000000  0.25826900  1
  N  N3  1  0.50000000  0.00000000  0.74173100  1
