# generated using pymatgen
data_Sr3(WN2)2
_symmetry_space_group_name_H-M   'P 1'
_cell_length_a   6.01096722
_cell_length_b   10.61026417
_cell_length_c   9.86954582
_cell_angle_alpha   90.00000000
_cell_angle_beta   90.00000000
_cell_angle_gamma   90.00000000
_symmetry_Int_Tables_number   1
_chemical_formula_structural   Sr3(WN2)2
_chemical_formula_sum   'Sr12 W8 N16'
_cell_volume   629.45940103
_cell_formula_units_Z   4
loop_
 _symmetry_equiv_pos_site_id
 _symmetry_equiv_pos_as_xyz
  1  'x, y, z'
loop_
 _atom_site_type_symbol
 _atom_site_label
 _atom_site_symmetry_multiplicity
 _atom_site_fract_x
 _atom_site_fract_y
 _atom_site_fract_z
 _atom_site_occupancy
  Sr  Sr0  1  0.61993802  0.15932416  0.41947665  1
  Sr  Sr1  1  0.88006198  0.84067584  0.41947665  1
  Sr  Sr2  1  0.61993802  0.34067584  0.08052335  1
  Sr  Sr3  1  0.88006198  0.65932416  0.08052335  1
  Sr  Sr4  1  0.38006198  0.84067584  0.58052335  1
  Sr  Sr5  1  0.11993802  0.15932416  0.58052335  1
  Sr  Sr6  1  0.38006198  0.65932416  0.91947665  1
  Sr  Sr7  1  0.11993802  0.34067584  0.91947665  1
  Sr  Sr8  1  0.75000000  0.50000000  0.39888787  1
  Sr  Sr9  1  0.75000000  -0.00000000  0.10111213  1
  Sr  Sr10  1  0.25000000  0.50000000  0.60111213  1
  Sr  Sr11  1  0.25000000  -0.00000000  0.89888787  1
  W  W12  1  0.75000000  0.50000000  0.73590399  1
  W  W13  1  0.75000000  0.00000000  0.76409601  1
  W  W14  1  0.25000000  0.50000000  0.26409601  1
  W  W15  1  0.25000000  0.00000000  0.23590399  1
  W  W16  1  0.62040704  0.25000000  0.75000000  1
  W  W17  1  0.87959296  0.75000000  0.75000000  1
  W  W18  1  0.37959296  0.75000000  0.25000000  1
  W  W19  1  0.12040704  0.25000000  0.25000000  1
  N  N20  1  0.82986128  0.34714806  0.62658003  1
  N  N21  1  0.67013872  0.65285194  0.62658003  1
  N  N22  1  0.82986128  0.15285194  0.87341997  1
  N  N23  1  0.67013872  0.84714806  0.87341997  1
  N  N24  1  0.17013872  0.65285194  0.37341997  1
  N  N25  1  0.32986128  0.34714806  0.37341997  1
  N  N26  1  0.17013872  0.84714806  0.12658003  1
  N  N27  1  0.32986128  0.15285194  0.12658003  1
  N  N28  1  0.50879204  0.41749533  0.83862505  1
  N  N29  1  0.99120796  0.58250467  0.83862505  1
  N  N30  1  0.50879204  0.08250467  0.66137495  1
  N  N31  1  0.99120796  0.91749533  0.66137495  1
  N  N32  1  0.49120796  0.58250467  0.16137495  1
  N  N33  1  0.00879204  0.41749533  0.16137495  1
  N  N34  1  0.49120796  0.91749533  0.33862505  1
  N  N35  1  0.00879204  0.08250467  0.33862505  1
