# generated using pymatgen
data_Ba3Sc2N4
_symmetry_space_group_name_H-M   'P 1'
_cell_length_a   7.64519564
_cell_length_b   9.88611356
_cell_length_c   6.57229264
_cell_angle_alpha   90.00000011
_cell_angle_beta   92.77231840
_cell_angle_gamma   130.28253700
_symmetry_Int_Tables_number   1
_chemical_formula_structural   Ba3Sc2N4
_chemical_formula_sum   'Ba6 Sc4 N8'
_cell_volume   378.18506440
_cell_formula_units_Z   2
loop_
 _symmetry_equiv_pos_site_id
 _symmetry_equiv_pos_as_xyz
  1  'x, y, z'
loop_
 _atom_site_type_symbol
 _atom_site_label
 _atom_site_symmetry_multiplicity
 _atom_site_fract_x
 _atom_site_fract_y
 _atom_site_fract_z
 _atom_site_occupancy
  Ba  Ba0  1  0.22790100  0.94835200  0.08018300  1
  Ba  Ba1  1  0.77209900  0.72045100  0.41981700  1
  Ba  Ba2  1  0.77209900  0.05164800  0.91981700  1
  Ba  Ba3  1  0.22790100  0.27954900  0.58018300  1
  Ba  Ba4  1  0.00000000  0.58534200  0.75000000  1
  Ba  Ba5  1  0.00000000  0.41465800  0.25000000  1
  Sc  Sc6  1  0.54560100  0.16138800  0.57484000  1
  Sc  Sc7  1  0.45439900  0.61578700  0.92516000  1
  Sc  Sc8  1  0.45439900  0.83861200  0.42516000  1
  Sc  Sc9  1  0.54560100  0.38421300  0.07484000  1
  N  N10  1  0.24049900  0.89638500  0.49955000  1
  N  N11  1  0.75950100  0.65588600  0.00045000  1
  N  N12  1  0.75950100  0.10361500  0.50045000  1
  N  N13  1  0.24049900  0.34411400  0.99955000  1
  N  N14  1  0.61647900  0.24482700  0.89195900  1
  N  N15  1  0.38352100  0.62834900  0.60804100  1
  N  N16  1  0.38352100  0.75517300  0.10804100  1
  N  N17  1  0.61647900  0.37165100  0.39195900  1
