# generated using pymatgen
data_CoC2N3
_symmetry_space_group_name_H-M   'P 1'
_cell_length_a   8.39775186
_cell_length_b   11.71575896
_cell_length_c   5.04966860
_cell_angle_alpha   90.00000226
_cell_angle_beta   91.41049233
_cell_angle_gamma   45.76896142
_symmetry_Int_Tables_number   1
_chemical_formula_structural   CoC2N3
_chemical_formula_sum   'Co4 C8 N12'
_cell_volume   355.77548550
_cell_formula_units_Z   4
loop_
 _symmetry_equiv_pos_site_id
 _symmetry_equiv_pos_as_xyz
  1  'x, y, z'
loop_
 _atom_site_type_symbol
 _atom_site_label
 _atom_site_symmetry_multiplicity
 _atom_site_fract_x
 _atom_site_fract_y
 _atom_site_fract_z
 _atom_site_occupancy
  Co  Co0  1  0.00000000  0.01664300  0.75000000  1
  Co  Co1  1  0.00000000  0.98335700  0.25000000  1
  Co  Co2  1  0.00000000  0.52214800  0.75000000  1
  Co  Co3  1  0.00000000  0.47785200  0.25000000  1
  C  C4  1  0.23150200  0.69555800  0.62198000  1
  C  C5  1  0.76849800  0.92705900  0.87802000  1
  C  C6  1  0.76849800  0.30444200  0.37802000  1
  C  C7  1  0.23150200  0.07294100  0.12198000  1
  C  C8  1  0.21836100  0.53100500  0.85320600  1
  C  C9  1  0.78163900  0.74936700  0.64679400  1
  C  C10  1  0.78163900  0.46899500  0.14679400  1
  C  C11  1  0.21836100  0.25063300  0.35320600  1
  N  N12  1  0.15771800  0.81906500  0.52384300  1
  N  N13  1  0.84228200  0.97678300  0.97615700  1
  N  N14  1  0.84228200  0.18093500  0.47615700  1
  N  N15  1  0.15771800  0.02321700  0.02384300  1
  N  N16  1  0.32033000  0.56812600  0.74184800  1
  N  N17  1  0.67967000  0.88845600  0.75815200  1
  N  N18  1  0.67967000  0.43187400  0.25815200  1
  N  N19  1  0.32033000  0.11154400  0.24184800  1
  N  N20  1  0.19987200  0.48349000  0.05693200  1
  N  N21  1  0.80012800  0.68336100  0.44306800  1
  N  N22  1  0.80012800  0.51651000  0.94306800  1
  N  N23  1  0.19987200  0.31663900  0.55693200  1
