# generated using pymatgen
data_VGaN2
_symmetry_space_group_name_H-M   'P 1'
_cell_length_a   5.61060300
_cell_length_b   6.50771100
_cell_length_c   5.20212600
_cell_angle_alpha   90.00000000
_cell_angle_beta   90.00000000
_cell_angle_gamma   90.00000000
_symmetry_Int_Tables_number   1
_chemical_formula_structural   VGaN2
_chemical_formula_sum   'V4 Ga4 N8'
_cell_volume   189.94097577
_cell_formula_units_Z   4
loop_
 _symmetry_equiv_pos_site_id
 _symmetry_equiv_pos_as_xyz
  1  'x, y, z'
loop_
 _atom_site_type_symbol
 _atom_site_label
 _atom_site_symmetry_multiplicity
 _atom_site_fract_x
 _atom_site_fract_y
 _atom_site_fract_z
 _atom_site_occupancy
  V  V0  1  0.57772000  0.87596900  0.99799400  1
  V  V1  1  0.42228000  0.12403100  0.49799400  1
  V  V2  1  0.92228000  0.37596900  0.49799400  1
  V  V3  1  0.07772000  0.62403100  0.99799400  1
  Ga  Ga4  1  0.58561500  0.37635700  0.00469100  1
  Ga  Ga5  1  0.41438500  0.62364300  0.50469100  1
  Ga  Ga6  1  0.91438500  0.87635700  0.50469100  1
  Ga  Ga7  1  0.08561500  0.12364300  0.00469100  1
  N  N8  1  0.58593900  0.37634800  0.38638300  1
  N  N9  1  0.41406100  0.62365200  0.88638300  1
  N  N10  1  0.91406100  0.87634800  0.88638300  1
  N  N11  1  0.08593900  0.12365200  0.38638300  1
  N  N12  1  0.58301800  0.87091300  0.38093200  1
  N  N13  1  0.41698200  0.12908700  0.88093200  1
  N  N14  1  0.91698200  0.37091300  0.88093200  1
  N  N15  1  0.08301800  0.62908700  0.38093200  1
