# generated using pymatgen
data_Sr3Mo3N5
_symmetry_space_group_name_H-M   'P 1'
_cell_length_a   6.12973440
_cell_length_b   7.36117150
_cell_length_c   8.92538232
_cell_angle_alpha   108.37442678
_cell_angle_beta   104.28570472
_cell_angle_gamma   95.51903775
_symmetry_Int_Tables_number   1
_chemical_formula_structural   Sr3Mo3N5
_chemical_formula_sum   'Sr6 Mo6 N10'
_cell_volume   363.69378334
_cell_formula_units_Z   2
loop_
 _symmetry_equiv_pos_site_id
 _symmetry_equiv_pos_as_xyz
  1  'x, y, z'
loop_
 _atom_site_type_symbol
 _atom_site_label
 _atom_site_symmetry_multiplicity
 _atom_site_fract_x
 _atom_site_fract_y
 _atom_site_fract_z
 _atom_site_occupancy
  Sr  Sr0  1  0.82014900  0.43971100  0.61938200  1
  Sr  Sr1  1  0.17985100  0.56028900  0.38061800  1
  Sr  Sr2  1  0.66203300  0.86853000  0.89076800  1
  Sr  Sr3  1  0.33796700  0.13147000  0.10923100  1
  Sr  Sr4  1  0.65333100  0.65542200  0.20657000  1
  Sr  Sr5  1  0.34666900  0.34457800  0.79343000  1
  Mo  Mo6  1  0.90168000  0.32209700  0.96468800  1
  Mo  Mo7  1  0.09832000  0.67790300  0.03531200  1
  Mo  Mo8  1  0.70406000  0.96263600  0.57453100  1
  Mo  Mo9  1  0.29594000  0.03736400  0.42546900  1
  Mo  Mo10  1  0.12470600  0.88416500  0.69996900  1
  Mo  Mo11  1  0.87529400  0.11583500  0.30003100  1
  N  N12  1  0.97504800  0.10818800  0.79662700  1
  N  N13  1  0.02495200  0.89181200  0.20337300  1
  N  N14  1  0.85212800  0.72538900  0.51010300  1
  N  N15  1  0.14787200  0.27461100  0.48989700  1
  N  N16  1  0.75581800  0.54137200  0.91094800  1
  N  N17  1  0.24418200  0.45862800  0.08905200  1
  N  N18  1  0.39620800  0.93978400  0.62353800  1
  N  N19  1  0.60379200  0.06021600  0.37646200  1
  N  N20  1  0.19387600  0.76033600  0.86786100  1
  N  N21  1  0.80612400  0.23966400  0.13213900  1
