# generated using pymatgen
data_MgOsN2
_symmetry_space_group_name_H-M   'P 1'
_cell_length_a   5.44572500
_cell_length_b   6.70225800
_cell_length_c   5.52792300
_cell_angle_alpha   90.00000000
_cell_angle_beta   90.00000000
_cell_angle_gamma   90.00000000
_symmetry_Int_Tables_number   1
_chemical_formula_structural   MgOsN2
_chemical_formula_sum   'Mg4 Os4 N8'
_cell_volume   201.76174862
_cell_formula_units_Z   4
loop_
 _symmetry_equiv_pos_site_id
 _symmetry_equiv_pos_as_xyz
  1  'x, y, z'
loop_
 _atom_site_type_symbol
 _atom_site_label
 _atom_site_symmetry_multiplicity
 _atom_site_fract_x
 _atom_site_fract_y
 _atom_site_fract_z
 _atom_site_occupancy
  Mg  Mg0  1  0.59799500  0.87841400  0.99908400  1
  Mg  Mg1  1  0.40200500  0.12158600  0.49908400  1
  Mg  Mg2  1  0.90200500  0.37841400  0.49908400  1
  Mg  Mg3  1  0.09799500  0.62158600  0.99908400  1
  Os  Os4  1  0.55594300  0.34258200  0.02586800  1
  Os  Os5  1  0.44405700  0.65741800  0.52586800  1
  Os  Os6  1  0.94405700  0.84258200  0.52586800  1
  Os  Os7  1  0.05594300  0.15741800  0.02586800  1
  N  N8  1  0.54590100  0.39937900  0.36488200  1
  N  N9  1  0.45409900  0.60062100  0.86488200  1
  N  N10  1  0.95409900  0.89937900  0.86488200  1
  N  N11  1  0.04590100  0.10062100  0.36488200  1
  N  N12  1  0.61354700  0.88184900  0.38016700  1
  N  N13  1  0.38645300  0.11815100  0.88016700  1
  N  N14  1  0.88645300  0.38184900  0.88016700  1
  N  N15  1  0.11354700  0.61815100  0.38016700  1
