# generated using pymatgen
data_Na3ScN2
_symmetry_space_group_name_H-M   'P 1'
_cell_length_a   9.71801600
_cell_length_b   11.22139922
_cell_length_c   11.22139894
_cell_angle_alpha   90.00000123
_cell_angle_beta   125.26439157
_cell_angle_gamma   54.73560945
_symmetry_Int_Tables_number   1
_chemical_formula_structural   Na3ScN2
_chemical_formula_sum   'Na24 Sc8 N16'
_cell_volume   706.49806741
_cell_formula_units_Z   8
loop_
 _symmetry_equiv_pos_site_id
 _symmetry_equiv_pos_as_xyz
  1  'x, y, z'
loop_
 _atom_site_type_symbol
 _atom_site_label
 _atom_site_symmetry_multiplicity
 _atom_site_fract_x
 _atom_site_fract_y
 _atom_site_fract_z
 _atom_site_occupancy
  Na  Na0  1  0.20572100  0.05523200  0.97294100  1
  Na  Na1  1  0.79427900  0.76095200  0.52705900  1
  Na  Na2  1  0.79427900  0.44476800  0.76722000  1
  Na  Na3  1  0.20572100  0.73904800  0.73278000  1
  Na  Na4  1  0.25983800  0.76722000  0.28801100  1
  Na  Na5  1  0.74016200  0.73278000  0.02817300  1
  Na  Na6  1  0.25983800  0.97294100  0.47182700  1
  Na  Na7  1  0.74016200  0.52705900  0.21198900  1
  Na  Na8  1  0.68381600  0.02817300  0.73904800  1
  Na  Na9  1  0.68381600  0.28801100  0.44476800  1
  Na  Na10  1  0.31618400  0.21198900  0.76095200  1
  Na  Na11  1  0.31618400  0.47182700  0.05523200  1
  Na  Na12  1  0.79427900  0.94476800  0.02705900  1
  Na  Na13  1  0.20572100  0.23904800  0.47294100  1
  Na  Na14  1  0.20572100  0.55523200  0.23278000  1
  Na  Na15  1  0.79427900  0.26095200  0.26722000  1
  Na  Na16  1  0.74016200  0.23278000  0.71198900  1
  Na  Na17  1  0.25983800  0.26722000  0.97182700  1
  Na  Na18  1  0.74016200  0.02705900  0.52817300  1
  Na  Na19  1  0.25983800  0.47294100  0.78801100  1
  Na  Na20  1  0.31618400  0.97182700  0.26095200  1
  Na  Na21  1  0.31618400  0.71198900  0.55523200  1
  Na  Na22  1  0.68381600  0.78801100  0.23904800  1
  Na  Na23  1  0.68381600  0.52817300  0.94476800  1
  Sc  Sc24  1  0.22163600  0.00000000  0.72163600  1
  Sc  Sc25  1  0.77836400  0.72163600  0.77836400  1
  Sc  Sc26  1  0.77836400  0.50000000  0.50000000  1
  Sc  Sc27  1  0.22163600  0.77836400  0.00000000  1
  Sc  Sc28  1  0.77836400  0.00000000  0.27836400  1
  Sc  Sc29  1  0.22163600  0.27836400  0.22163600  1
  Sc  Sc30  1  0.22163600  0.50000000  0.50000000  1
  Sc  Sc31  1  0.77836400  0.22163600  0.00000000  1
  N  N32  1  0.00000000  0.00000000  0.50000000  1
  N  N33  1  0.00000000  0.50000000  0.00000000  1
  N  N34  1  0.00000000  0.50000000  0.50000000  1
  N  N35  1  0.00000000  0.00000000  0.00000000  1
  N  N36  1  0.50000000  0.94457200  0.75000000  1
  N  N37  1  0.50000000  0.55542800  0.25000000  1
  N  N38  1  0.00000000  0.25000000  0.69457200  1
  N  N39  1  0.00000000  0.75000000  0.80542800  1
  N  N40  1  0.61085600  0.69457200  0.55542800  1
  N  N41  1  0.38914400  0.80542800  0.94457200  1
  N  N42  1  0.50000000  0.05542800  0.25000000  1
  N  N43  1  0.50000000  0.44457200  0.75000000  1
  N  N44  1  0.00000000  0.75000000  0.30542800  1
  N  N45  1  0.00000000  0.25000000  0.19457200  1
  N  N46  1  0.38914400  0.30542800  0.44457200  1
  N  N47  1  0.61085600  0.19457200  0.05542800  1
