# generated using pymatgen
data_Ca3Zr2N4
_symmetry_space_group_name_H-M   'P 1'
_cell_length_a   9.14449669
_cell_length_b   7.12730772
_cell_length_c   6.48851829
_cell_angle_alpha   89.99999573
_cell_angle_beta   83.95870850
_cell_angle_gamma   112.93612737
_symmetry_Int_Tables_number   1
_chemical_formula_structural   Ca3Zr2N4
_chemical_formula_sum   'Ca6 Zr4 N8'
_cell_volume   386.90781804
_cell_formula_units_Z   2
loop_
 _symmetry_equiv_pos_site_id
 _symmetry_equiv_pos_as_xyz
  1  'x, y, z'
loop_
 _atom_site_type_symbol
 _atom_site_label
 _atom_site_symmetry_multiplicity
 _atom_site_fract_x
 _atom_site_fract_y
 _atom_site_fract_z
 _atom_site_occupancy
  Ca  Ca0  1  0.26468300  0.01086200  0.93311200  1
  Ca  Ca1  1  0.73531700  0.74617900  0.56688800  1
  Ca  Ca2  1  0.73531700  0.98913800  0.06688800  1
  Ca  Ca3  1  0.26468300  0.25382100  0.43311200  1
  Ca  Ca4  1  0.00000000  0.41337200  0.75000000  1
  Ca  Ca5  1  0.00000000  0.58662800  0.25000000  1
  Zr  Zr6  1  0.63180400  0.20062300  0.55757300  1
  Zr  Zr7  1  0.36819600  0.56881700  0.94242700  1
  Zr  Zr8  1  0.36819600  0.79937700  0.44242700  1
  Zr  Zr9  1  0.63180400  0.43118300  0.05757300  1
  N  N10  1  0.38313300  0.06712200  0.59099100  1
  N  N11  1  0.61686700  0.68398800  0.90900900  1
  N  N12  1  0.61686700  0.93287800  0.40900900  1
  N  N13  1  0.38313300  0.31601200  0.09099100  1
  N  N14  1  0.72104500  0.25984700  0.85247600  1
  N  N15  1  0.27895500  0.53880100  0.64752400  1
  N  N16  1  0.27895500  0.74015300  0.14752400  1
  N  N17  1  0.72104500  0.46119900  0.35247600  1
