# generated using pymatgen
data_Ca4SeN4
_symmetry_space_group_name_H-M   'P 1'
_cell_length_a   6.35412040
_cell_length_b   6.32013079
_cell_length_c   8.91579142
_cell_angle_alpha   82.76934550
_cell_angle_beta   69.68290799
_cell_angle_gamma   71.07897420
_symmetry_Int_Tables_number   1
_chemical_formula_structural   Ca4SeN4
_chemical_formula_sum   'Ca8 Se2 N8'
_cell_volume   317.59376530
_cell_formula_units_Z   2
loop_
 _symmetry_equiv_pos_site_id
 _symmetry_equiv_pos_as_xyz
  1  'x, y, z'
loop_
 _atom_site_type_symbol
 _atom_site_label
 _atom_site_symmetry_multiplicity
 _atom_site_fract_x
 _atom_site_fract_y
 _atom_site_fract_z
 _atom_site_occupancy
  Ca  Ca0  1  0.82372600  0.59856400  0.16323000  1
  Ca  Ca1  1  0.17627400  0.40143600  0.83677000  1
  Ca  Ca2  1  0.70506000  0.20712000  0.99997700  1
  Ca  Ca3  1  0.29494000  0.79288000  0.00002300  1
  Ca  Ca4  1  0.70940600  0.49139100  0.57768600  1
  Ca  Ca5  1  0.29059400  0.50860900  0.42231400  1
  Ca  Ca6  1  0.23665100  0.98533800  0.57519800  1
  Ca  Ca7  1  0.76334900  0.01466200  0.42480200  1
  Se  Se8  1  0.79876900  0.80673900  0.79592000  1
  Se  Se9  1  0.20123100  0.19326100  0.20408000  1
  N  N10  1  0.95118300  0.75539500  0.58954600  1
  N  N11  1  0.04881700  0.24460500  0.41045400  1
  N  N12  1  0.01710000  0.82621400  0.88126600  1
  N  N13  1  0.98290000  0.17378600  0.11873400  1
  N  N14  1  0.72890200  0.54755400  0.88153700  1
  N  N15  1  0.27109800  0.45244600  0.11846300  1
  N  N16  1  0.56197800  0.74139800  0.39732200  1
  N  N17  1  0.43802200  0.25860200  0.60267800  1
