# generated using pymatgen
data_RbIrN2
_symmetry_space_group_name_H-M   'P 1'
_cell_length_a   5.82918100
_cell_length_b   11.73355400
_cell_length_c   17.24420100
_cell_angle_alpha   90.00000000
_cell_angle_beta   90.00000000
_cell_angle_gamma   90.00000000
_symmetry_Int_Tables_number   1
_chemical_formula_structural   RbIrN2
_chemical_formula_sum   'Rb16 Ir16 N32'
_cell_volume   1179.45178892
_cell_formula_units_Z   16
loop_
 _symmetry_equiv_pos_site_id
 _symmetry_equiv_pos_as_xyz
  1  'x, y, z'
loop_
 _atom_site_type_symbol
 _atom_site_label
 _atom_site_symmetry_multiplicity
 _atom_site_fract_x
 _atom_site_fract_y
 _atom_site_fract_z
 _atom_site_occupancy
  Rb  Rb0  1  0.24928900  0.01099400  0.43732700  1
  Rb  Rb1  1  0.74928900  0.48900600  0.56267300  1
  Rb  Rb2  1  0.75071100  0.51099400  0.06267300  1
  Rb  Rb3  1  0.25071100  0.98900600  0.93732700  1
  Rb  Rb4  1  0.75071100  0.98900600  0.56267300  1
  Rb  Rb5  1  0.25071100  0.51099400  0.43732700  1
  Rb  Rb6  1  0.24928900  0.48900600  0.93732700  1
  Rb  Rb7  1  0.74928900  0.01099400  0.06267300  1
  Rb  Rb8  1  0.32536900  0.26173400  0.31416500  1
  Rb  Rb9  1  0.82536900  0.23826600  0.68583500  1
  Rb  Rb10  1  0.67463100  0.76173400  0.18583500  1
  Rb  Rb11  1  0.17463100  0.73826600  0.81416500  1
  Rb  Rb12  1  0.67463100  0.73826600  0.68583500  1
  Rb  Rb13  1  0.17463100  0.76173400  0.31416500  1
  Rb  Rb14  1  0.32536900  0.23826600  0.81416500  1
  Rb  Rb15  1  0.82536900  0.26173400  0.18583500  1
  Ir  Ir16  1  0.75219300  0.01035700  0.31067600  1
  Ir  Ir17  1  0.25219300  0.48964300  0.68932400  1
  Ir  Ir18  1  0.24780700  0.51035700  0.18932400  1
  Ir  Ir19  1  0.74780700  0.98964300  0.81067600  1
  Ir  Ir20  1  0.24780700  0.98964300  0.68932400  1
  Ir  Ir21  1  0.74780700  0.51035700  0.31067600  1
  Ir  Ir22  1  0.75219300  0.48964300  0.81067600  1
  Ir  Ir23  1  0.25219300  0.01035700  0.18932400  1
  Ir  Ir24  1  0.80465800  0.25991800  0.43585800  1
  Ir  Ir25  1  0.30465800  0.24008200  0.56414200  1
  Ir  Ir26  1  0.19534200  0.75991800  0.06414200  1
  Ir  Ir27  1  0.69534200  0.74008200  0.93585800  1
  Ir  Ir28  1  0.19534200  0.74008200  0.56414200  1
  Ir  Ir29  1  0.69534200  0.75991800  0.43585800  1
  Ir  Ir30  1  0.80465800  0.24008200  0.93585800  1
  Ir  Ir31  1  0.30465800  0.25991800  0.06414200  1
  N  N32  1  0.07689800  0.29111700  0.49276800  1
  N  N33  1  0.57689800  0.20888300  0.50723200  1
  N  N34  1  0.92310200  0.79111700  0.00723200  1
  N  N35  1  0.42310200  0.70888300  0.99276800  1
  N  N36  1  0.92310200  0.70888300  0.50723200  1
  N  N37  1  0.42310200  0.79111700  0.49276800  1
  N  N38  1  0.07689800  0.20888300  0.99276800  1
  N  N39  1  0.57689800  0.29111700  0.00723200  1
  N  N40  1  0.70264300  0.40459200  0.39378900  1
  N  N41  1  0.20264300  0.09540800  0.60621100  1
  N  N42  1  0.29735700  0.90459200  0.10621100  1
  N  N43  1  0.79735700  0.59540800  0.89378900  1
  N  N44  1  0.29735700  0.59540800  0.60621100  1
  N  N45  1  0.79735700  0.90459200  0.39378900  1
  N  N46  1  0.70264300  0.09540800  0.89378900  1
  N  N47  1  0.20264300  0.40459200  0.10621100  1
  N  N48  1  0.82579300  0.15728800  0.34977000  1
  N  N49  1  0.32579300  0.34271200  0.65023000  1
  N  N50  1  0.17420700  0.65728800  0.15023000  1
  N  N51  1  0.67420700  0.84271200  0.84977000  1
  N  N52  1  0.17420700  0.84271200  0.65023000  1
  N  N53  1  0.67420700  0.65728800  0.34977000  1
  N  N54  1  0.82579300  0.34271200  0.84977000  1
  N  N55  1  0.32579300  0.15728800  0.15023000  1
  N  N56  1  0.55911600  0.48120000  0.22153400  1
  N  N57  1  0.05911600  0.01880000  0.77846600  1
  N  N58  1  0.44088400  0.98120000  0.27846600  1
  N  N59  1  0.94088400  0.51880000  0.72153400  1
  N  N60  1  0.44088400  0.51880000  0.77846600  1
  N  N61  1  0.94088400  0.98120000  0.22153400  1
  N  N62  1  0.55911600  0.01880000  0.72153400  1
  N  N63  1  0.05911600  0.48120000  0.27846600  1
