# generated using pymatgen
data_Nb2Pb3N4
_symmetry_space_group_name_H-M   'P 1'
_cell_length_a   6.72795700
_cell_length_b   11.62728800
_cell_length_c   9.69281700
_cell_angle_alpha   90.00000000
_cell_angle_beta   90.00000000
_cell_angle_gamma   90.00000000
_symmetry_Int_Tables_number   1
_chemical_formula_structural   Nb2Pb3N4
_chemical_formula_sum   'Nb8 Pb12 N16'
_cell_volume   758.24865784
_cell_formula_units_Z   4
loop_
 _symmetry_equiv_pos_site_id
 _symmetry_equiv_pos_as_xyz
  1  'x, y, z'
loop_
 _atom_site_type_symbol
 _atom_site_label
 _atom_site_symmetry_multiplicity
 _atom_site_fract_x
 _atom_site_fract_y
 _atom_site_fract_z
 _atom_site_occupancy
  Nb  Nb0  1  0.75000000  0.50000000  0.76640400  1
  Nb  Nb1  1  0.75000000  0.00000000  0.73359600  1
  Nb  Nb2  1  0.25000000  0.50000000  0.23359600  1
  Nb  Nb3  1  0.25000000  0.00000000  0.26640400  1
  Nb  Nb4  1  0.80581900  0.25000000  0.75000000  1
  Nb  Nb5  1  0.69418100  0.75000000  0.75000000  1
  Nb  Nb6  1  0.19418100  0.75000000  0.25000000  1
  Nb  Nb7  1  0.30581900  0.25000000  0.25000000  1
  Pb  Pb8  1  0.75780200  0.14293600  0.42024400  1
  Pb  Pb9  1  0.74219800  0.85706400  0.42024400  1
  Pb  Pb10  1  0.75780200  0.35706400  0.07975600  1
  Pb  Pb11  1  0.74219800  0.64293600  0.07975600  1
  Pb  Pb12  1  0.24219800  0.85706400  0.57975600  1
  Pb  Pb13  1  0.25780200  0.14293600  0.57975600  1
  Pb  Pb14  1  0.24219800  0.64293600  0.92024400  1
  Pb  Pb15  1  0.25780200  0.35706400  0.92024400  1
  Pb  Pb16  1  0.75000000  0.50000000  0.43232300  1
  Pb  Pb17  1  0.75000000  0.00000000  0.06767700  1
  Pb  Pb18  1  0.25000000  0.50000000  0.56767700  1
  Pb  Pb19  1  0.25000000  0.00000000  0.93232300  1
  N  N20  1  0.90238800  0.40019000  0.64088800  1
  N  N21  1  0.59761200  0.59981000  0.64088800  1
  N  N22  1  0.90238800  0.09981000  0.85911200  1
  N  N23  1  0.59761200  0.90019000  0.85911200  1
  N  N24  1  0.09761200  0.59981000  0.35911200  1
  N  N25  1  0.40238800  0.40019000  0.35911200  1
  N  N26  1  0.09761200  0.90019000  0.14088800  1
  N  N27  1  0.40238800  0.09981000  0.14088800  1
  N  N28  1  0.61862900  0.35418700  0.83802600  1
  N  N29  1  0.88137100  0.64581300  0.83802600  1
  N  N30  1  0.61862900  0.14581300  0.66197400  1
  N  N31  1  0.88137100  0.85418700  0.66197400  1
  N  N32  1  0.38137100  0.64581300  0.16197400  1
  N  N33  1  0.11862900  0.35418700  0.16197400  1
  N  N34  1  0.38137100  0.85418700  0.33802600  1
  N  N35  1  0.11862900  0.14581300  0.33802600  1
