# generated using pymatgen
data_ZrPb7N6
_symmetry_space_group_name_H-M   'P 1'
_cell_length_a   12.72619400
_cell_length_b   7.32880800
_cell_length_c   13.33826700
_cell_angle_alpha   90.00000000
_cell_angle_beta   90.00000000
_cell_angle_gamma   90.00000000
_symmetry_Int_Tables_number   1
_chemical_formula_structural   ZrPb7N6
_chemical_formula_sum   'Zr4 Pb28 N24'
_cell_volume   1244.03125102
_cell_formula_units_Z   4
loop_
 _symmetry_equiv_pos_site_id
 _symmetry_equiv_pos_as_xyz
  1  'x, y, z'
loop_
 _atom_site_type_symbol
 _atom_site_label
 _atom_site_symmetry_multiplicity
 _atom_site_fract_x
 _atom_site_fract_y
 _atom_site_fract_z
 _atom_site_occupancy
  Zr  Zr0  1  0.00000000  0.83478700  0.75000000  1
  Zr  Zr1  1  0.50000000  0.66521300  0.25000000  1
  Zr  Zr2  1  0.00000000  0.16521300  0.25000000  1
  Zr  Zr3  1  0.50000000  0.33478700  0.75000000  1
  Pb  Pb4  1  0.00453300  0.76748900  0.02526800  1
  Pb  Pb5  1  0.49546700  0.73251100  0.52526800  1
  Pb  Pb6  1  0.50453300  0.73251100  0.97473200  1
  Pb  Pb7  1  0.99546700  0.76748900  0.47473200  1
  Pb  Pb8  1  0.99546700  0.23251100  0.97473200  1
  Pb  Pb9  1  0.50453300  0.26748900  0.47473200  1
  Pb  Pb10  1  0.49546700  0.26748900  0.02526800  1
  Pb  Pb11  1  0.00453300  0.23251100  0.52526800  1
  Pb  Pb12  1  0.21661900  0.81079600  0.61633700  1
  Pb  Pb13  1  0.28338100  0.68920400  0.11633700  1
  Pb  Pb14  1  0.71661900  0.68920400  0.38366300  1
  Pb  Pb15  1  0.78338100  0.81079600  0.88366300  1
  Pb  Pb16  1  0.78338100  0.18920400  0.38366300  1
  Pb  Pb17  1  0.71661900  0.31079600  0.88366300  1
  Pb  Pb18  1  0.28338100  0.31079600  0.61633700  1
  Pb  Pb19  1  0.21661900  0.18920400  0.11633700  1
  Pb  Pb20  1  0.26354100  0.52217300  0.85943100  1
  Pb  Pb21  1  0.23645900  0.97782700  0.35943100  1
  Pb  Pb22  1  0.76354100  0.97782700  0.14056900  1
  Pb  Pb23  1  0.73645900  0.52217300  0.64056900  1
  Pb  Pb24  1  0.73645900  0.47782700  0.14056900  1
  Pb  Pb25  1  0.76354100  0.02217300  0.64056900  1
  Pb  Pb26  1  0.23645900  0.02217300  0.85943100  1
  Pb  Pb27  1  0.26354100  0.47782700  0.35943100  1
  Pb  Pb28  1  0.00000000  0.41263800  0.75000000  1
  Pb  Pb29  1  0.50000000  0.08736200  0.25000000  1
  Pb  Pb30  1  0.00000000  0.58736200  0.25000000  1
  Pb  Pb31  1  0.50000000  0.91263800  0.75000000  1
  N  N32  1  0.11960500  0.64441000  0.76653000  1
  N  N33  1  0.38039500  0.85559000  0.26653000  1
  N  N34  1  0.61960500  0.85559000  0.23347000  1
  N  N35  1  0.88039500  0.64441000  0.73347000  1
  N  N36  1  0.88039500  0.35559000  0.23347000  1
  N  N37  1  0.61960500  0.14441000  0.73347000  1
  N  N38  1  0.38039500  0.14441000  0.76653000  1
  N  N39  1  0.11960500  0.35559000  0.26653000  1
  N  N40  1  0.17903500  0.71372300  0.45618700  1
  N  N41  1  0.32096500  0.78627700  0.95618700  1
  N  N42  1  0.67903500  0.78627700  0.54381300  1
  N  N43  1  0.82096500  0.71372300  0.04381300  1
  N  N44  1  0.82096500  0.28627700  0.54381300  1
  N  N45  1  0.67903500  0.21372300  0.04381300  1
  N  N46  1  0.32096500  0.21372300  0.45618700  1
  N  N47  1  0.17903500  0.28627700  0.95618700  1
  N  N48  1  0.45551900  0.45483500  0.61077200  1
  N  N49  1  0.04448100  0.04516500  0.11077200  1
  N  N50  1  0.95551900  0.04516500  0.38922800  1
  N  N51  1  0.54448100  0.45483500  0.88922800  1
  N  N52  1  0.54448100  0.54516500  0.38922800  1
  N  N53  1  0.95551900  0.95483500  0.88922800  1
  N  N54  1  0.04448100  0.95483500  0.61077200  1
  N  N55  1  0.45551900  0.54516500  0.11077200  1
