# generated using pymatgen
data_RbC2
_symmetry_space_group_name_H-M   'P 1'
_cell_length_a   4.61518500
_cell_length_b   4.61518500
_cell_length_c   7.83063500
_cell_angle_alpha   90.00000000
_cell_angle_beta   90.00000000
_cell_angle_gamma   90.00000000
_symmetry_Int_Tables_number   1
_chemical_formula_structural   RbC2
_chemical_formula_sum   'Rb2 C4'
_cell_volume   166.79199759
_cell_formula_units_Z   2
loop_
 _symmetry_equiv_pos_site_id
 _symmetry_equiv_pos_as_xyz
  1  'x, y, z'
loop_
 _atom_site_type_symbol
 _atom_site_label
 _atom_site_symmetry_multiplicity
 _atom_site_fract_x
 _atom_site_fract_y
 _atom_site_fract_z
 _atom_site_occupancy
  Rb  Rb0  1  0.00000000  0.50000000  0.26151300  1
  Rb  Rb1  1  0.50000000  0.00000000  0.73848700  1
  C  C2  1  0.00000000  0.50000000  0.65199100  1
  C  C3  1  0.50000000  0.00000000  0.34800900  1
  C  C4  1  0.00000000  0.50000000  0.81330800  1
  C  C5  1  0.50000000  0.00000000  0.18669200  1
