# generated using pymatgen
data_Cr5(SiN3)2
_symmetry_space_group_name_H-M   'P 1'
_cell_length_a   4.79616241
_cell_length_b   5.06201793
_cell_length_c   14.07812307
_cell_angle_alpha   90.00000320
_cell_angle_beta   95.34165819
_cell_angle_gamma   121.85123678
_symmetry_Int_Tables_number   1
_chemical_formula_structural   Cr5(SiN3)2
_chemical_formula_sum   'Cr10 Si4 N12'
_cell_volume   288.57671647
_cell_formula_units_Z   2
loop_
 _symmetry_equiv_pos_site_id
 _symmetry_equiv_pos_as_xyz
  1  'x, y, z'
loop_
 _atom_site_type_symbol
 _atom_site_label
 _atom_site_symmetry_multiplicity
 _atom_site_fract_x
 _atom_site_fract_y
 _atom_site_fract_z
 _atom_site_occupancy
  Cr  Cr0  1  0.00000000  0.48132700  0.75000000  1
  Cr  Cr1  1  0.00000000  0.51867300  0.25000000  1
  Cr  Cr2  1  0.34030200  0.89942700  0.09168500  1
  Cr  Cr3  1  0.65969800  0.55912500  0.40831500  1
  Cr  Cr4  1  0.65969800  0.10057300  0.90831500  1
  Cr  Cr5  1  0.34030200  0.44087500  0.59168500  1
  Cr  Cr6  1  0.31354800  0.13690000  0.74165200  1
  Cr  Cr7  1  0.68645200  0.82335100  0.75834800  1
  Cr  Cr8  1  0.68645200  0.86310000  0.25834800  1
  Cr  Cr9  1  0.31354800  0.17664900  0.24165200  1
  Si  Si10  1  0.59023200  0.03799600  0.58905100  1
  Si  Si11  1  0.40976800  0.44776500  0.91094900  1
  Si  Si12  1  0.40976800  0.96200400  0.41094900  1
  Si  Si13  1  0.59023200  0.55223500  0.08905100  1
  N  N14  1  0.32217000  0.79886000  0.67099000  1
  N  N15  1  0.67783000  0.47669000  0.82901000  1
  N  N16  1  0.67783000  0.20114000  0.32901000  1
  N  N17  1  0.32217000  0.52331000  0.17099000  1
  N  N18  1  0.47602100  0.23014400  0.50732400  1
  N  N19  1  0.52397900  0.75412300  0.99267600  1
  N  N20  1  0.52397900  0.76985600  0.49267600  1
  N  N21  1  0.47602100  0.24587700  0.00732400  1
  N  N22  1  0.96067700  0.15222000  0.65755000  1
  N  N23  1  0.03932300  0.19154300  0.84245000  1
  N  N24  1  0.03932300  0.84778000  0.34245000  1
  N  N25  1  0.96067700  0.80845700  0.15755000  1
