# generated using pymatgen
data_Sn4CN4
_symmetry_space_group_name_H-M   'P 1'
_cell_length_a   10.70318300
_cell_length_b   3.30113600
_cell_length_c   19.77223600
_cell_angle_alpha   90.00000000
_cell_angle_beta   90.00000000
_cell_angle_gamma   90.00000000
_symmetry_Int_Tables_number   1
_chemical_formula_structural   Sn4CN4
_chemical_formula_sum   'Sn16 C4 N16'
_cell_volume   698.60574573
_cell_formula_units_Z   4
loop_
 _symmetry_equiv_pos_site_id
 _symmetry_equiv_pos_as_xyz
  1  'x, y, z'
loop_
 _atom_site_type_symbol
 _atom_site_label
 _atom_site_symmetry_multiplicity
 _atom_site_fract_x
 _atom_site_fract_y
 _atom_site_fract_z
 _atom_site_occupancy
  Sn  Sn0  1  0.13847500  0.25000000  0.16234300  1
  Sn  Sn1  1  0.63847500  0.25000000  0.33765700  1
  Sn  Sn2  1  0.86152500  0.75000000  0.83765700  1
  Sn  Sn3  1  0.36152500  0.75000000  0.66234300  1
  Sn  Sn4  1  0.89556400  0.25000000  0.06061300  1
  Sn  Sn5  1  0.39556400  0.25000000  0.43938700  1
  Sn  Sn6  1  0.10443600  0.75000000  0.93938700  1
  Sn  Sn7  1  0.60443600  0.75000000  0.56061300  1
  Sn  Sn8  1  0.42157400  0.25000000  0.84317600  1
  Sn  Sn9  1  0.92157400  0.25000000  0.65682400  1
  Sn  Sn10  1  0.57842600  0.75000000  0.15682400  1
  Sn  Sn11  1  0.07842600  0.75000000  0.34317600  1
  Sn  Sn12  1  0.14570500  0.25000000  0.79043000  1
  Sn  Sn13  1  0.64570500  0.25000000  0.70957000  1
  Sn  Sn14  1  0.85429500  0.75000000  0.20957000  1
  Sn  Sn15  1  0.35429500  0.75000000  0.29043000  1
  C  C16  1  0.37526400  0.25000000  0.08286900  1
  C  C17  1  0.87526400  0.25000000  0.41713100  1
  C  C18  1  0.62473600  0.75000000  0.91713100  1
  C  C19  1  0.12473600  0.75000000  0.58286900  1
  N  N20  1  0.76632600  0.25000000  0.14745800  1
  N  N21  1  0.26632600  0.25000000  0.35254200  1
  N  N22  1  0.23367400  0.75000000  0.85254200  1
  N  N23  1  0.73367400  0.75000000  0.64745800  1
  N  N24  1  0.99474800  0.25000000  0.87234800  1
  N  N25  1  0.49474800  0.25000000  0.62765200  1
  N  N26  1  0.00525200  0.75000000  0.12765200  1
  N  N27  1  0.50525200  0.75000000  0.37234800  1
  N  N28  1  0.26255500  0.25000000  0.07381200  1
  N  N29  1  0.76255500  0.25000000  0.42618800  1
  N  N30  1  0.73744500  0.75000000  0.92618800  1
  N  N31  1  0.23744500  0.75000000  0.57381200  1
  N  N32  1  0.49153400  0.25000000  0.09152100  1
  N  N33  1  0.99153400  0.25000000  0.40847900  1
  N  N34  1  0.50846600  0.75000000  0.90847900  1
  N  N35  1  0.00846600  0.75000000  0.59152100  1
