# generated using pymatgen
data_Sr3(InN2)2
_symmetry_space_group_name_H-M   'P 1'
_cell_length_a   6.26154534
_cell_length_b   11.12978269
_cell_length_c   9.75998860
_cell_angle_alpha   90.00000000
_cell_angle_beta   90.00000000
_cell_angle_gamma   90.00000000
_symmetry_Int_Tables_number   1
_chemical_formula_structural   Sr3(InN2)2
_chemical_formula_sum   'Sr12 In8 N16'
_cell_volume   680.17008157
_cell_formula_units_Z   4
loop_
 _symmetry_equiv_pos_site_id
 _symmetry_equiv_pos_as_xyz
  1  'x, y, z'
loop_
 _atom_site_type_symbol
 _atom_site_label
 _atom_site_symmetry_multiplicity
 _atom_site_fract_x
 _atom_site_fract_y
 _atom_site_fract_z
 _atom_site_occupancy
  Sr  Sr0  1  0.60920212  0.15553303  0.41133334  1
  Sr  Sr1  1  0.89079788  0.84446697  0.41133334  1
  Sr  Sr2  1  0.60920212  0.34446697  0.08866666  1
  Sr  Sr3  1  0.89079788  0.65553303  0.08866666  1
  Sr  Sr4  1  0.39079788  0.84446697  0.58866666  1
  Sr  Sr5  1  0.10920212  0.15553303  0.58866666  1
  Sr  Sr6  1  0.39079788  0.65553303  0.91133334  1
  Sr  Sr7  1  0.10920212  0.34446697  0.91133334  1
  Sr  Sr8  1  0.75000000  0.50000000  0.40260791  1
  Sr  Sr9  1  0.75000000  0.00000000  0.09739209  1
  Sr  Sr10  1  0.25000000  0.50000000  0.59739209  1
  Sr  Sr11  1  0.25000000  0.00000000  0.90260791  1
  In  In12  1  0.75000000  0.50000000  0.73548045  1
  In  In13  1  0.75000000  0.00000000  0.76451955  1
  In  In14  1  0.25000000  0.50000000  0.26451955  1
  In  In15  1  0.25000000  0.00000000  0.23548045  1
  In  In16  1  0.64781782  0.25000000  0.75000000  1
  In  In17  1  0.85218218  0.75000000  0.75000000  1
  In  In18  1  0.35218218  0.75000000  0.25000000  1
  In  In19  1  0.14781782  0.25000000  0.25000000  1
  N  N20  1  0.89823308  0.35310802  0.61899505  1
  N  N21  1  0.60176692  0.64689198  0.61899505  1
  N  N22  1  0.89823308  0.14689198  0.88100495  1
  N  N23  1  0.60176692  0.85310802  0.88100495  1
  N  N24  1  0.10176692  0.64689198  0.38100495  1
  N  N25  1  0.39823308  0.35310802  0.38100495  1
  N  N26  1  0.10176692  0.85310802  0.11899505  1
  N  N27  1  0.39823308  0.14689198  0.11899505  1
  N  N28  1  0.48406613  0.40642346  0.84216490  1
  N  N29  1  0.01593387  0.59357654  0.84216490  1
  N  N30  1  0.48406613  0.09357654  0.65783510  1
  N  N31  1  0.01593387  0.90642346  0.65783510  1
  N  N32  1  0.51593387  0.59357654  0.15783510  1
  N  N33  1  0.98406613  0.40642346  0.15783510  1
  N  N34  1  0.51593387  0.90642346  0.34216490  1
  N  N35  1  0.98406613  0.09357654  0.34216490  1
