# generated using pymatgen
data_Ba3(VN2)2
_symmetry_space_group_name_H-M   'P 1'
_cell_length_a   6.22033400
_cell_length_b   10.38435200
_cell_length_c   10.32387300
_cell_angle_alpha   90.00000000
_cell_angle_beta   90.00000000
_cell_angle_gamma   90.00000000
_symmetry_Int_Tables_number   1
_chemical_formula_structural   Ba3(VN2)2
_chemical_formula_sum   'Ba12 V8 N16'
_cell_volume   666.86167533
_cell_formula_units_Z   4
loop_
 _symmetry_equiv_pos_site_id
 _symmetry_equiv_pos_as_xyz
  1  'x, y, z'
loop_
 _atom_site_type_symbol
 _atom_site_label
 _atom_site_symmetry_multiplicity
 _atom_site_fract_x
 _atom_site_fract_y
 _atom_site_fract_z
 _atom_site_occupancy
  Ba  Ba0  1  0.62086600  0.15756100  0.41885300  1
  Ba  Ba1  1  0.87913400  0.84243900  0.41885300  1
  Ba  Ba2  1  0.62086600  0.34243900  0.08114700  1
  Ba  Ba3  1  0.87913400  0.65756100  0.08114700  1
  Ba  Ba4  1  0.37913400  0.84243900  0.58114700  1
  Ba  Ba5  1  0.12086600  0.15756100  0.58114700  1
  Ba  Ba6  1  0.37913400  0.65756100  0.91885300  1
  Ba  Ba7  1  0.12086600  0.34243900  0.91885300  1
  Ba  Ba8  1  0.75000000  0.50000000  0.40351600  1
  Ba  Ba9  1  0.75000000  0.00000000  0.09648400  1
  Ba  Ba10  1  0.25000000  0.50000000  0.59648400  1
  Ba  Ba11  1  0.25000000  0.00000000  0.90351600  1
  V  V12  1  0.75000000  0.50000000  0.73589700  1
  V  V13  1  0.75000000  0.00000000  0.76410300  1
  V  V14  1  0.25000000  0.50000000  0.26410300  1
  V  V15  1  0.25000000  0.00000000  0.23589700  1
  V  V16  1  0.65796000  0.25000000  0.75000000  1
  V  V17  1  0.84204000  0.75000000  0.75000000  1
  V  V18  1  0.34204000  0.75000000  0.25000000  1
  V  V19  1  0.15796000  0.25000000  0.25000000  1
  N  N20  1  0.84297200  0.35386100  0.64163900  1
  N  N21  1  0.65702800  0.64613900  0.64163900  1
  N  N22  1  0.84297200  0.14613900  0.85836100  1
  N  N23  1  0.65702800  0.85386100  0.85836100  1
  N  N24  1  0.15702800  0.64613900  0.35836100  1
  N  N25  1  0.34297200  0.35386100  0.35836100  1
  N  N26  1  0.15702800  0.85386100  0.14163900  1
  N  N27  1  0.34297200  0.14613900  0.14163900  1
  N  N28  1  0.53465200  0.41100800  0.82728000  1
  N  N29  1  0.96534800  0.58899200  0.82728000  1
  N  N30  1  0.53465200  0.08899200  0.67272000  1
  N  N31  1  0.96534800  0.91100800  0.67272000  1
  N  N32  1  0.46534800  0.58899200  0.17272000  1
  N  N33  1  0.03465200  0.41100800  0.17272000  1
  N  N34  1  0.46534800  0.91100800  0.32728000  1
  N  N35  1  0.03465200  0.08899200  0.32728000  1
