# generated using pymatgen
data_Cr2Pb3N4
_symmetry_space_group_name_H-M   'P 1'
_cell_length_a   7.46843393
_cell_length_b   9.07525766
_cell_length_c   5.89182663
_cell_angle_alpha   89.99999943
_cell_angle_beta   95.86531282
_cell_angle_gamma   127.41431205
_symmetry_Int_Tables_number   1
_chemical_formula_structural   Cr2Pb3N4
_chemical_formula_sum   'Cr4 Pb6 N8'
_cell_volume   314.54160047
_cell_formula_units_Z   2
loop_
 _symmetry_equiv_pos_site_id
 _symmetry_equiv_pos_as_xyz
  1  'x, y, z'
loop_
 _atom_site_type_symbol
 _atom_site_label
 _atom_site_symmetry_multiplicity
 _atom_site_fract_x
 _atom_site_fract_y
 _atom_site_fract_z
 _atom_site_occupancy
  Cr  Cr0  1  0.53522400  0.15533600  0.51445900  1
  Cr  Cr1  1  0.46477600  0.62011200  0.98554100  1
  Cr  Cr2  1  0.46477600  0.84466400  0.48554100  1
  Cr  Cr3  1  0.53522400  0.37988800  0.01445900  1
  Pb  Pb4  1  0.16460000  0.93774500  0.04218700  1
  Pb  Pb5  1  0.83540000  0.77314500  0.45781300  1
  Pb  Pb6  1  0.83540000  0.06225500  0.95781300  1
  Pb  Pb7  1  0.16460000  0.22685500  0.54218700  1
  Pb  Pb8  1  0.00000000  0.56538100  0.75000000  1
  Pb  Pb9  1  0.00000000  0.43461900  0.25000000  1
  N  N10  1  0.27728200  0.91456400  0.44866500  1
  N  N11  1  0.72271800  0.63728300  0.05133500  1
  N  N12  1  0.72271800  0.08543600  0.55133500  1
  N  N13  1  0.27728200  0.36271700  0.94866500  1
  N  N14  1  0.55052900  0.27317300  0.76806100  1
  N  N15  1  0.44947100  0.72264400  0.73193900  1
  N  N16  1  0.44947100  0.72682700  0.23193900  1
  N  N17  1  0.55052900  0.27735600  0.26806100  1
