# generated using pymatgen
data_Ti4Te3N2
_symmetry_space_group_name_H-M   'P 1'
_cell_length_a   6.74883100
_cell_length_b   10.74133400
_cell_length_c   9.79697500
_cell_angle_alpha   90.00000000
_cell_angle_beta   90.00000000
_cell_angle_gamma   90.00000000
_symmetry_Int_Tables_number   1
_chemical_formula_structural   Ti4Te3N2
_chemical_formula_sum   'Ti16 Te12 N8'
_cell_volume   710.19690260
_cell_formula_units_Z   4
loop_
 _symmetry_equiv_pos_site_id
 _symmetry_equiv_pos_as_xyz
  1  'x, y, z'
loop_
 _atom_site_type_symbol
 _atom_site_label
 _atom_site_symmetry_multiplicity
 _atom_site_fract_x
 _atom_site_fract_y
 _atom_site_fract_z
 _atom_site_occupancy
  Ti  Ti0  1  0.59116900  0.25000000  0.90202100  1
  Ti  Ti1  1  0.09116900  0.25000000  0.59797900  1
  Ti  Ti2  1  0.40883100  0.75000000  0.09797900  1
  Ti  Ti3  1  0.90883100  0.75000000  0.40202100  1
  Ti  Ti4  1  0.79261500  0.25000000  0.40562600  1
  Ti  Ti5  1  0.29261500  0.25000000  0.09437400  1
  Ti  Ti6  1  0.20738500  0.75000000  0.59437400  1
  Ti  Ti7  1  0.70738500  0.75000000  0.90562600  1
  Ti  Ti8  1  0.69078400  0.48855200  0.05558400  1
  Ti  Ti9  1  0.19078400  0.01144800  0.44441600  1
  Ti  Ti10  1  0.30921600  0.98855200  0.94441600  1
  Ti  Ti11  1  0.80921600  0.51144800  0.55558400  1
  Ti  Ti12  1  0.30921600  0.51144800  0.94441600  1
  Ti  Ti13  1  0.80921600  0.98855200  0.55558400  1
  Ti  Ti14  1  0.69078400  0.01144800  0.05558400  1
  Ti  Ti15  1  0.19078400  0.48855200  0.44441600  1
  Te  Te16  1  0.88082800  0.25000000  0.12978900  1
  Te  Te17  1  0.38082800  0.25000000  0.37021100  1
  Te  Te18  1  0.11917200  0.75000000  0.87021100  1
  Te  Te19  1  0.61917200  0.75000000  0.62978900  1
  Te  Te20  1  0.57876800  0.57320000  0.31907400  1
  Te  Te21  1  0.07876800  0.92680000  0.18092600  1
  Te  Te22  1  0.42123200  0.07320000  0.68092600  1
  Te  Te23  1  0.92123200  0.42680000  0.81907400  1
  Te  Te24  1  0.42123200  0.42680000  0.68092600  1
  Te  Te25  1  0.92123200  0.07320000  0.81907400  1
  Te  Te26  1  0.57876800  0.92680000  0.31907400  1
  Te  Te27  1  0.07876800  0.57320000  0.18092600  1
  N  N28  1  0.53801700  0.62081300  0.96396300  1
  N  N29  1  0.03801700  0.87918700  0.53603700  1
  N  N30  1  0.46198300  0.12081300  0.03603700  1
  N  N31  1  0.96198300  0.37918700  0.46396300  1
  N  N32  1  0.46198300  0.37918700  0.03603700  1
  N  N33  1  0.96198300  0.12081300  0.46396300  1
  N  N34  1  0.53801700  0.87918700  0.96396300  1
  N  N35  1  0.03801700  0.62081300  0.53603700  1
