# generated using pymatgen
data_Ca4SN4
_symmetry_space_group_name_H-M   'P 1'
_cell_length_a   6.22735802
_cell_length_b   6.20696422
_cell_length_c   8.63459080
_cell_angle_alpha   83.24746805
_cell_angle_beta   69.69569010
_cell_angle_gamma   73.42837243
_symmetry_Int_Tables_number   1
_chemical_formula_structural   Ca4SN4
_chemical_formula_sum   'Ca8 S2 N8'
_cell_volume   299.94860150
_cell_formula_units_Z   2
loop_
 _symmetry_equiv_pos_site_id
 _symmetry_equiv_pos_as_xyz
  1  'x, y, z'
loop_
 _atom_site_type_symbol
 _atom_site_label
 _atom_site_symmetry_multiplicity
 _atom_site_fract_x
 _atom_site_fract_y
 _atom_site_fract_z
 _atom_site_occupancy
  Ca  Ca0  1  0.82237500  0.60094100  0.15825100  1
  Ca  Ca1  1  0.17762500  0.39905900  0.84174900  1
  Ca  Ca2  1  0.69496800  0.19482400  0.00066500  1
  Ca  Ca3  1  0.30503200  0.80517600  0.99933500  1
  Ca  Ca4  1  0.71159300  0.48971600  0.57940300  1
  Ca  Ca5  1  0.28840700  0.51028400  0.42059700  1
  Ca  Ca6  1  0.23392300  0.98751800  0.57325500  1
  Ca  Ca7  1  0.76607700  0.01248200  0.42674500  1
  S  S8  1  0.81419300  0.78677800  0.80201500  1
  S  S9  1  0.18580700  0.21322200  0.19798500  1
  N  N10  1  0.94178100  0.75604100  0.60748300  1
  N  N11  1  0.05821900  0.24395900  0.39251700  1
  N  N12  1  0.00741400  0.82156900  0.88233800  1
  N  N13  1  0.99258600  0.17843100  0.11766200  1
  N  N14  1  0.73611000  0.55322300  0.88174900  1
  N  N15  1  0.26389000  0.44677700  0.11825100  1
  N  N16  1  0.56172300  0.74162300  0.39728500  1
  N  N17  1  0.43827700  0.25837700  0.60271500  1
