# generated using pymatgen
data_Li3BiN2
_symmetry_space_group_name_H-M   'P 1'
_cell_length_a   9.33182300
_cell_length_b   10.77546077
_cell_length_c   10.77546022
_cell_angle_alpha   90.00000055
_cell_angle_beta   125.26439060
_cell_angle_gamma   54.73561146
_symmetry_Int_Tables_number   1
_chemical_formula_structural   Li3BiN2
_chemical_formula_sum   'Li24 Bi8 N16'
_cell_volume   625.57235745
_cell_formula_units_Z   8
loop_
 _symmetry_equiv_pos_site_id
 _symmetry_equiv_pos_as_xyz
  1  'x, y, z'
loop_
 _atom_site_type_symbol
 _atom_site_label
 _atom_site_symmetry_multiplicity
 _atom_site_fract_x
 _atom_site_fract_y
 _atom_site_fract_z
 _atom_site_occupancy
  Li  Li0  1  0.21873000  0.04557400  0.01029500  1
  Li  Li1  1  0.78127000  0.76430400  0.48970500  1
  Li  Li2  1  0.78127000  0.45442600  0.79156500  1
  Li  Li3  1  0.21873000  0.73569600  0.70843500  1
  Li  Li4  1  0.19814000  0.79156500  0.25400900  1
  Li  Li5  1  0.80186000  0.70843500  0.05586900  1
  Li  Li6  1  0.19814000  0.01029500  0.44413100  1
  Li  Li7  1  0.80186000  0.48970500  0.24599100  1
  Li  Li8  1  0.69012200  0.05586900  0.73569600  1
  Li  Li9  1  0.69012200  0.25400900  0.45442600  1
  Li  Li10  1  0.30987800  0.24599100  0.76430400  1
  Li  Li11  1  0.30987800  0.44413100  0.04557400  1
  Li  Li12  1  0.78127000  0.95442600  0.98970500  1
  Li  Li13  1  0.21873000  0.23569600  0.51029500  1
  Li  Li14  1  0.21873000  0.54557400  0.20843500  1
  Li  Li15  1  0.78127000  0.26430400  0.29156500  1
  Li  Li16  1  0.80186000  0.20843500  0.74599100  1
  Li  Li17  1  0.19814000  0.29156500  0.94413100  1
  Li  Li18  1  0.80186000  0.98970500  0.55586900  1
  Li  Li19  1  0.19814000  0.51029500  0.75400900  1
  Li  Li20  1  0.30987800  0.94413100  0.26430400  1
  Li  Li21  1  0.30987800  0.74599100  0.54557400  1
  Li  Li22  1  0.69012200  0.75400900  0.23569600  1
  Li  Li23  1  0.69012200  0.55586900  0.95442600  1
  Bi  Bi24  1  0.26162200  0.00000000  0.76162200  1
  Bi  Bi25  1  0.73837800  0.76162200  0.73837800  1
  Bi  Bi26  1  0.73837800  0.50000000  0.50000000  1
  Bi  Bi27  1  0.26162200  0.73837800  0.00000000  1
  Bi  Bi28  1  0.73837800  0.00000000  0.23837800  1
  Bi  Bi29  1  0.26162200  0.23837800  0.26162200  1
  Bi  Bi30  1  0.26162200  0.50000000  0.50000000  1
  Bi  Bi31  1  0.73837800  0.26162200  0.00000000  1
  N  N32  1  0.00000000  0.00000000  0.50000000  1
  N  N33  1  0.00000000  0.50000000  0.00000000  1
  N  N34  1  0.00000000  0.50000000  0.50000000  1
  N  N35  1  0.00000000  0.00000000  0.00000000  1
  N  N36  1  0.50000000  0.01881400  0.75000000  1
  N  N37  1  0.50000000  0.48118600  0.25000000  1
  N  N38  1  0.00000000  0.25000000  0.76881400  1
  N  N39  1  0.00000000  0.75000000  0.73118600  1
  N  N40  1  0.46237200  0.76881400  0.48118600  1
  N  N41  1  0.53762800  0.73118600  0.01881400  1
  N  N42  1  0.50000000  0.98118600  0.25000000  1
  N  N43  1  0.50000000  0.51881400  0.75000000  1
  N  N44  1  0.00000000  0.75000000  0.23118600  1
  N  N45  1  0.00000000  0.25000000  0.26881400  1
  N  N46  1  0.53762800  0.23118600  0.51881400  1
  N  N47  1  0.46237200  0.26881400  0.98118600  1
