# generated using pymatgen
data_Ca3(VN2)2
_symmetry_space_group_name_H-M   'P 1'
_cell_length_a   5.64932300
_cell_length_b   9.88805900
_cell_length_c   9.20100000
_cell_angle_alpha   90.00000000
_cell_angle_beta   90.00000000
_cell_angle_gamma   90.00000000
_symmetry_Int_Tables_number   1
_chemical_formula_structural   Ca3(VN2)2
_chemical_formula_sum   'Ca12 V8 N16'
_cell_volume   513.97558087
_cell_formula_units_Z   4
loop_
 _symmetry_equiv_pos_site_id
 _symmetry_equiv_pos_as_xyz
  1  'x, y, z'
loop_
 _atom_site_type_symbol
 _atom_site_label
 _atom_site_symmetry_multiplicity
 _atom_site_fract_x
 _atom_site_fract_y
 _atom_site_fract_z
 _atom_site_occupancy
  Ca  Ca0  1  0.61533000  0.15537300  0.41791600  1
  Ca  Ca1  1  0.88467000  0.84462700  0.41791600  1
  Ca  Ca2  1  0.61533000  0.34462700  0.08208400  1
  Ca  Ca3  1  0.88467000  0.65537300  0.08208400  1
  Ca  Ca4  1  0.38467000  0.84462700  0.58208400  1
  Ca  Ca5  1  0.11533000  0.15537300  0.58208400  1
  Ca  Ca6  1  0.38467000  0.65537300  0.91791600  1
  Ca  Ca7  1  0.11533000  0.34462700  0.91791600  1
  Ca  Ca8  1  0.75000000  0.50000000  0.40309900  1
  Ca  Ca9  1  0.75000000  0.00000000  0.09690100  1
  Ca  Ca10  1  0.25000000  0.50000000  0.59690100  1
  Ca  Ca11  1  0.25000000  0.00000000  0.90309900  1
  V  V12  1  0.75000000  0.50000000  0.73605800  1
  V  V13  1  0.75000000  0.00000000  0.76394200  1
  V  V14  1  0.25000000  0.50000000  0.26394100  1
  V  V15  1  0.25000000  0.00000000  0.23605900  1
  V  V16  1  0.65053200  0.25000000  0.75000000  1
  V  V17  1  0.84946800  0.75000000  0.75000000  1
  V  V18  1  0.34946800  0.75000000  0.25000000  1
  V  V19  1  0.15053200  0.25000000  0.25000000  1
  N  N20  1  0.86291700  0.35235000  0.62428700  1
  N  N21  1  0.63708300  0.64765000  0.62428700  1
  N  N22  1  0.86291700  0.14765000  0.87571300  1
  N  N23  1  0.63708300  0.85235000  0.87571300  1
  N  N24  1  0.13708300  0.64765000  0.37571300  1
  N  N25  1  0.36291700  0.35235000  0.37571300  1
  N  N26  1  0.13708300  0.85235000  0.12428700  1
  N  N27  1  0.36291700  0.14765000  0.12428700  1
  N  N28  1  0.50231600  0.41320000  0.83749100  1
  N  N29  1  0.99768400  0.58680000  0.83749100  1
  N  N30  1  0.50231600  0.08680000  0.66250900  1
  N  N31  1  0.99768400  0.91320000  0.66250900  1
  N  N32  1  0.49768400  0.58680000  0.16250900  1
  N  N33  1  0.00231600  0.41320000  0.16250900  1
  N  N34  1  0.49768400  0.91320000  0.33749100  1
  N  N35  1  0.00231600  0.08680000  0.33749100  1
