# generated using pymatgen
data_Zr4Te3N2
_symmetry_space_group_name_H-M   'P 1'
_cell_length_a   7.39434500
_cell_length_b   10.41330600
_cell_length_c   10.07543500
_cell_angle_alpha   90.00000000
_cell_angle_beta   90.00000000
_cell_angle_gamma   90.00000000
_symmetry_Int_Tables_number   1
_chemical_formula_structural   Zr4Te3N2
_chemical_formula_sum   'Zr16 Te12 N8'
_cell_volume   775.80423465
_cell_formula_units_Z   4
loop_
 _symmetry_equiv_pos_site_id
 _symmetry_equiv_pos_as_xyz
  1  'x, y, z'
loop_
 _atom_site_type_symbol
 _atom_site_label
 _atom_site_symmetry_multiplicity
 _atom_site_fract_x
 _atom_site_fract_y
 _atom_site_fract_z
 _atom_site_occupancy
  Zr  Zr0  1  0.53868900  0.25000000  0.82453600  1
  Zr  Zr1  1  0.03868900  0.25000000  0.67546400  1
  Zr  Zr2  1  0.46131100  0.75000000  0.17546400  1
  Zr  Zr3  1  0.96131100  0.75000000  0.32453600  1
  Zr  Zr4  1  0.70897900  0.25000000  0.48401300  1
  Zr  Zr5  1  0.20897900  0.25000000  0.01598700  1
  Zr  Zr6  1  0.29102100  0.75000000  0.51598700  1
  Zr  Zr7  1  0.79102100  0.75000000  0.98401300  1
  Zr  Zr8  1  0.59795800  0.42957200  0.11600500  1
  Zr  Zr9  1  0.09795800  0.07042800  0.38399500  1
  Zr  Zr10  1  0.40204200  0.92957200  0.88399500  1
  Zr  Zr11  1  0.90204200  0.57042800  0.61600500  1
  Zr  Zr12  1  0.40204200  0.57042800  0.88399500  1
  Zr  Zr13  1  0.90204200  0.92957200  0.61600500  1
  Zr  Zr14  1  0.59795800  0.07042800  0.11600500  1
  Zr  Zr15  1  0.09795800  0.42957200  0.38399500  1
  Te  Te16  1  0.88481700  0.25000000  0.20409500  1
  Te  Te17  1  0.38481700  0.25000000  0.29590500  1
  Te  Te18  1  0.11518300  0.75000000  0.79590500  1
  Te  Te19  1  0.61518300  0.75000000  0.70409500  1
  Te  Te20  1  0.63545200  0.57648400  0.37444700  1
  Te  Te21  1  0.13545200  0.92351600  0.12555300  1
  Te  Te22  1  0.36454800  0.07648400  0.62555300  1
  Te  Te23  1  0.86454800  0.42351600  0.87444700  1
  Te  Te24  1  0.36454800  0.42351600  0.62555300  1
  Te  Te25  1  0.86454800  0.07648400  0.87444700  1
  Te  Te26  1  0.63545200  0.92351600  0.37444700  1
  Te  Te27  1  0.13545200  0.57648400  0.12555300  1
  N  N28  1  0.59697400  0.61507400  0.03386100  1
  N  N29  1  0.09697400  0.88492600  0.46613900  1
  N  N30  1  0.40302600  0.11507400  0.96613900  1
  N  N31  1  0.90302600  0.38492600  0.53386100  1
  N  N32  1  0.40302600  0.38492600  0.96613900  1
  N  N33  1  0.90302600  0.11507400  0.53386100  1
  N  N34  1  0.59697400  0.88492600  0.03386100  1
  N  N35  1  0.09697400  0.61507400  0.46613900  1
