# generated using pymatgen
data_Sr3(CrN2)2
_symmetry_space_group_name_H-M   'P 1'
_cell_length_a   5.86531900
_cell_length_b   9.92316500
_cell_length_c   9.63374700
_cell_angle_alpha   90.00000000
_cell_angle_beta   90.00000000
_cell_angle_gamma   90.00000000
_symmetry_Int_Tables_number   1
_chemical_formula_structural   Sr3(CrN2)2
_chemical_formula_sum   'Sr12 Cr8 N16'
_cell_volume   560.70843158
_cell_formula_units_Z   4
loop_
 _symmetry_equiv_pos_site_id
 _symmetry_equiv_pos_as_xyz
  1  'x, y, z'
loop_
 _atom_site_type_symbol
 _atom_site_label
 _atom_site_symmetry_multiplicity
 _atom_site_fract_x
 _atom_site_fract_y
 _atom_site_fract_z
 _atom_site_occupancy
  Sr  Sr0  1  0.61973000  0.15711200  0.41778600  1
  Sr  Sr1  1  0.88027000  0.84288800  0.41778600  1
  Sr  Sr2  1  0.61973000  0.34288800  0.08221400  1
  Sr  Sr3  1  0.88027000  0.65711200  0.08221400  1
  Sr  Sr4  1  0.38027000  0.84288800  0.58221400  1
  Sr  Sr5  1  0.11973000  0.15711200  0.58221400  1
  Sr  Sr6  1  0.38027000  0.65711200  0.91778600  1
  Sr  Sr7  1  0.11973000  0.34288800  0.91778600  1
  Sr  Sr8  1  0.75000000  0.50000000  0.40270500  1
  Sr  Sr9  1  0.75000000  0.00000000  0.09729500  1
  Sr  Sr10  1  0.25000000  0.50000000  0.59729500  1
  Sr  Sr11  1  0.25000000  0.00000000  0.90270500  1
  Cr  Cr12  1  0.75000000  0.50000000  0.73602800  1
  Cr  Cr13  1  0.75000000  0.00000000  0.76397200  1
  Cr  Cr14  1  0.25000000  0.50000000  0.26397200  1
  Cr  Cr15  1  0.25000000  0.00000000  0.23602800  1
  Cr  Cr16  1  0.65711900  0.25000000  0.75000000  1
  Cr  Cr17  1  0.84288100  0.75000000  0.75000000  1
  Cr  Cr18  1  0.34288100  0.75000000  0.25000000  1
  Cr  Cr19  1  0.15711900  0.25000000  0.25000000  1
  N  N20  1  0.85618400  0.35314800  0.63245000  1
  N  N21  1  0.64381600  0.64685200  0.63245000  1
  N  N22  1  0.85618400  0.14685200  0.86755000  1
  N  N23  1  0.64381600  0.85314800  0.86755000  1
  N  N24  1  0.14381600  0.64685200  0.36755000  1
  N  N25  1  0.35618400  0.35314800  0.36755000  1
  N  N26  1  0.14381600  0.85314800  0.13245000  1
  N  N27  1  0.35618400  0.14685200  0.13245000  1
  N  N28  1  0.52165800  0.41130300  0.83332900  1
  N  N29  1  0.97834200  0.58869700  0.83332900  1
  N  N30  1  0.52165800  0.08869700  0.66667100  1
  N  N31  1  0.97834200  0.91130300  0.66667100  1
  N  N32  1  0.47834200  0.58869700  0.16667100  1
  N  N33  1  0.02165800  0.41130300  0.16667100  1
  N  N34  1  0.47834200  0.91130300  0.33332900  1
  N  N35  1  0.02165800  0.08869700  0.33332900  1
