# generated using pymatgen
data_Fe(C2N3)3
_symmetry_space_group_name_H-M   'P 1'
_cell_length_a   7.76570136
_cell_length_b   13.79533805
_cell_length_c   11.82408400
_cell_angle_alpha   90.00000000
_cell_angle_beta   90.00000000
_cell_angle_gamma   27.34929694
_symmetry_Int_Tables_number   1
_chemical_formula_structural   Fe(C2N3)3
_chemical_formula_sum   'Fe2 C12 N18'
_cell_volume   581.94871383
_cell_formula_units_Z   2
loop_
 _symmetry_equiv_pos_site_id
 _symmetry_equiv_pos_as_xyz
  1  'x, y, z'
loop_
 _atom_site_type_symbol
 _atom_site_label
 _atom_site_symmetry_multiplicity
 _atom_site_fract_x
 _atom_site_fract_y
 _atom_site_fract_z
 _atom_site_occupancy
  Fe  Fe0  1  0.00000000  0.28477000  0.25000000  1
  Fe  Fe1  1  0.00000000  0.71523000  0.75000000  1
  C  C2  1  0.68181600  0.79123300  0.25000000  1
  C  C3  1  0.68181600  0.52695100  0.75000000  1
  C  C4  1  0.31818400  0.20876700  0.75000000  1
  C  C5  1  0.31818400  0.47304900  0.25000000  1
  C  C6  1  0.68213600  0.30227400  0.90406000  1
  C  C7  1  0.68213600  0.01559000  0.09594000  1
  C  C8  1  0.68213600  0.30227400  0.59594000  1
  C  C9  1  0.68213600  0.01559000  0.40406000  1
  C  C10  1  0.31786400  0.69772600  0.09594000  1
  C  C11  1  0.31786400  0.98441000  0.90406000  1
  C  C12  1  0.31786400  0.69772600  0.40406000  1
  C  C13  1  0.31786400  0.98441000  0.59594000  1
  N  N14  1  0.00000000  0.58775800  0.25000000  1
  N  N15  1  0.00000000  0.41224300  0.75000000  1
  N  N16  1  0.38072000  0.97720600  0.25000000  1
  N  N17  1  0.38072000  0.64207300  0.75000000  1
  N  N18  1  0.61928000  0.02279400  0.75000000  1
  N  N19  1  0.61928000  0.35792700  0.25000000  1
  N  N20  1  0.00000000  0.12471300  0.95081600  1
  N  N21  1  0.00000000  0.87528700  0.04918400  1
  N  N22  1  0.00000000  0.12471300  0.54918400  1
  N  N23  1  0.00000000  0.87528700  0.45081600  1
  N  N24  1  0.38095300  0.46772100  0.86679300  1
  N  N25  1  0.38095300  0.15132600  0.13320700  1
  N  N26  1  0.38095300  0.46772100  0.63320700  1
  N  N27  1  0.38095300  0.15132600  0.36679300  1
  N  N28  1  0.61904700  0.53227900  0.13320700  1
  N  N29  1  0.61904700  0.84867400  0.86679300  1
  N  N30  1  0.61904700  0.53227900  0.36679300  1
  N  N31  1  0.61904700  0.84867400  0.63320700  1
