# generated using pymatgen
data_Sr3VN3
_symmetry_space_group_name_H-M   'P 1'
_cell_length_a   7.76215500
_cell_length_b   7.76203253
_cell_length_c   5.39499400
_cell_angle_alpha   90.00000000
_cell_angle_beta   90.00000000
_cell_angle_gamma   119.99969520
_symmetry_Int_Tables_number   1
_chemical_formula_structural   Sr3VN3
_chemical_formula_sum   'Sr6 V2 N6'
_cell_volume   281.50149180
_cell_formula_units_Z   2
loop_
 _symmetry_equiv_pos_site_id
 _symmetry_equiv_pos_as_xyz
  1  'x, y, z'
loop_
 _atom_site_type_symbol
 _atom_site_label
 _atom_site_symmetry_multiplicity
 _atom_site_fract_x
 _atom_site_fract_y
 _atom_site_fract_z
 _atom_site_occupancy
  Sr  Sr0  1  0.90471200  0.63052000  0.25000000  1
  Sr  Sr1  1  0.72580300  0.09528200  0.25000000  1
  Sr  Sr2  1  0.36948200  0.27419900  0.25000000  1
  Sr  Sr3  1  0.09528800  0.36948000  0.75000000  1
  Sr  Sr4  1  0.27419700  0.90471800  0.75000000  1
  Sr  Sr5  1  0.63051800  0.72580100  0.75000000  1
  V  V6  1  0.66665500  0.33333300  0.75000000  1
  V  V7  1  0.33334500  0.66666700  0.25000000  1
  N  N8  1  0.87571800  0.58636500  0.75000000  1
  N  N9  1  0.71065200  0.12428200  0.75000000  1
  N  N10  1  0.41364900  0.28935500  0.75000000  1
  N  N11  1  0.12428200  0.41363500  0.25000000  1
  N  N12  1  0.28934800  0.87571800  0.25000000  1
  N  N13  1  0.58635100  0.71064500  0.25000000  1
