# generated using pymatgen
data_Ba3(RuN2)2
_symmetry_space_group_name_H-M   'P 1'
_cell_length_a   7.77890818
_cell_length_b   9.47977693
_cell_length_c   5.74277562
_cell_angle_alpha   89.99999824
_cell_angle_beta   94.15905937
_cell_angle_gamma   127.54077141
_symmetry_Int_Tables_number   1
_chemical_formula_structural   Ba3(RuN2)2
_chemical_formula_sum   'Ba6 Ru4 N8'
_cell_volume   334.38257431
_cell_formula_units_Z   2
loop_
 _symmetry_equiv_pos_site_id
 _symmetry_equiv_pos_as_xyz
  1  'x, y, z'
loop_
 _atom_site_type_symbol
 _atom_site_label
 _atom_site_symmetry_multiplicity
 _atom_site_fract_x
 _atom_site_fract_y
 _atom_site_fract_z
 _atom_site_occupancy
  Ba  Ba0  1  0.25485200  0.99333600  0.04506500  1
  Ba  Ba1  1  0.74514800  0.73848400  0.45493500  1
  Ba  Ba2  1  0.74514800  0.00666400  0.95493500  1
  Ba  Ba3  1  0.25485200  0.26151600  0.54506500  1
  Ba  Ba4  1  0.00000000  0.59443200  0.75000000  1
  Ba  Ba5  1  0.00000000  0.40556800  0.25000000  1
  Ru  Ru6  1  0.57793900  0.16011700  0.57304100  1
  Ru  Ru7  1  0.42206100  0.58217800  0.92695900  1
  Ru  Ru8  1  0.42206100  0.83988300  0.42695900  1
  Ru  Ru9  1  0.57793900  0.41782200  0.07304100  1
  N  N10  1  0.26396500  0.93597800  0.54219900  1
  N  N11  1  0.73603500  0.67201300  0.95780100  1
  N  N12  1  0.73603500  0.06402200  0.45780100  1
  N  N13  1  0.26396500  0.32798700  0.04219900  1
  N  N14  1  0.64154000  0.27246800  0.89236100  1
  N  N15  1  0.35846000  0.63092600  0.60763900  1
  N  N16  1  0.35846000  0.72753200  0.10763900  1
  N  N17  1  0.64154000  0.36907400  0.39236100  1
