# generated using pymatgen
data_Sr4RuN4
_symmetry_space_group_name_H-M   'P 1'
_cell_length_a   6.39045710
_cell_length_b   6.47249526
_cell_length_c   9.02165270
_cell_angle_alpha   71.25861834
_cell_angle_beta   80.72692393
_cell_angle_gamma   69.78056054
_symmetry_Int_Tables_number   1
_chemical_formula_structural   Sr4RuN4
_chemical_formula_sum   'Sr8 Ru2 N8'
_cell_volume   331.06669953
_cell_formula_units_Z   2
loop_
 _symmetry_equiv_pos_site_id
 _symmetry_equiv_pos_as_xyz
  1  'x, y, z'
loop_
 _atom_site_type_symbol
 _atom_site_label
 _atom_site_symmetry_multiplicity
 _atom_site_fract_x
 _atom_site_fract_y
 _atom_site_fract_z
 _atom_site_occupancy
  Sr  Sr0  1  0.78201300  0.57201300  0.14573400  1
  Sr  Sr1  1  0.21798700  0.42798700  0.85426600  1
  Sr  Sr2  1  0.72664200  0.19750800  0.96913100  1
  Sr  Sr3  1  0.27335700  0.80249200  0.03086900  1
  Sr  Sr4  1  0.73271500  0.49977800  0.56415400  1
  Sr  Sr5  1  0.26728500  0.50022200  0.43584600  1
  Sr  Sr6  1  0.21692900  0.95432100  0.62151800  1
  Sr  Sr7  1  0.78307100  0.04567900  0.37848200  1
  Ru  Ru8  1  0.71767000  0.85292000  0.75635300  1
  Ru  Ru9  1  0.28233000  0.14708000  0.24364700  1
  N  N10  1  0.97970200  0.69255700  0.61984500  1
  N  N11  1  0.02029800  0.30744300  0.38015500  1
  N  N12  1  0.95647500  0.82333000  0.89164300  1
  N  N13  1  0.04352500  0.17667000  0.10835700  1
  N  N14  1  0.54769400  0.63741100  0.80712800  1
  N  N15  1  0.45230600  0.36258900  0.19287200  1
  N  N16  1  0.46318500  0.85087100  0.33257900  1
  N  N17  1  0.53681500  0.14912900  0.66742100  1
