# generated using pymatgen
data_Mg(C4N3)2
_symmetry_space_group_name_H-M   'P 1'
_cell_length_a   5.38970900
_cell_length_b   7.56969700
_cell_length_c   10.64035100
_cell_angle_alpha   90.00000000
_cell_angle_beta   90.00000000
_cell_angle_gamma   90.00000000
_symmetry_Int_Tables_number   1
_chemical_formula_structural   Mg(C4N3)2
_chemical_formula_sum   'Mg2 C16 N12'
_cell_volume   434.10997773
_cell_formula_units_Z   2
loop_
 _symmetry_equiv_pos_site_id
 _symmetry_equiv_pos_as_xyz
  1  'x, y, z'
loop_
 _atom_site_type_symbol
 _atom_site_label
 _atom_site_symmetry_multiplicity
 _atom_site_fract_x
 _atom_site_fract_y
 _atom_site_fract_z
 _atom_site_occupancy
  Mg  Mg0  1  0.00000000  0.50000000  0.50000000  1
  Mg  Mg1  1  0.00000000  0.00000000  0.00000000  1
  C  C2  1  0.39216700  0.00000000  0.74991900  1
  C  C3  1  0.39216700  0.50000000  0.75008100  1
  C  C4  1  0.60783300  0.00000000  0.25008100  1
  C  C5  1  0.60783300  0.50000000  0.24991900  1
  C  C6  1  0.58318400  0.00000000  0.65978200  1
  C  C7  1  0.58318400  0.50000000  0.84021800  1
  C  C8  1  0.41681600  0.00000000  0.34021800  1
  C  C9  1  0.41681600  0.50000000  0.15978200  1
  C  C10  1  0.68951300  0.15776900  0.61671100  1
  C  C11  1  0.68951300  0.34223100  0.88328900  1
  C  C12  1  0.31048700  0.15776900  0.38328900  1
  C  C13  1  0.68951300  0.65776900  0.88328900  1
  C  C14  1  0.31048700  0.84223100  0.38328900  1
  C  C15  1  0.31048700  0.65776900  0.11671100  1
  C  C16  1  0.68951300  0.84223100  0.61671100  1
  C  C17  1  0.31048700  0.34223100  0.11671100  1
  N  N18  1  0.78282300  0.28659800  0.57858300  1
  N  N19  1  0.78282300  0.21340200  0.92141700  1
  N  N20  1  0.21717700  0.28659800  0.42141700  1
  N  N21  1  0.78282300  0.78659800  0.92141700  1
  N  N22  1  0.21717700  0.71340200  0.42141700  1
  N  N23  1  0.21717700  0.78659800  0.07858300  1
  N  N24  1  0.78282300  0.71340200  0.57858300  1
  N  N25  1  0.21717700  0.21340200  0.07858300  1
  N  N26  1  0.23617700  0.00000000  0.82656000  1
  N  N27  1  0.23617700  0.50000000  0.67344000  1
  N  N28  1  0.76382300  0.00000000  0.17344000  1
  N  N29  1  0.76382300  0.50000000  0.32656000  1
