# generated using pymatgen
data_Ca(GaN)2
_symmetry_space_group_name_H-M   'P 1'
_cell_length_a   5.88655815
_cell_length_b   9.85151500
_cell_length_c   5.71154425
_cell_angle_alpha   90.00000000
_cell_angle_beta   105.72247262
_cell_angle_gamma   90.00000000
_symmetry_Int_Tables_number   1
_chemical_formula_structural   Ca(GaN)2
_chemical_formula_sum   'Ca4 Ga8 N8'
_cell_volume   318.82864951
_cell_formula_units_Z   4
loop_
 _symmetry_equiv_pos_site_id
 _symmetry_equiv_pos_as_xyz
  1  'x, y, z'
loop_
 _atom_site_type_symbol
 _atom_site_label
 _atom_site_symmetry_multiplicity
 _atom_site_fract_x
 _atom_site_fract_y
 _atom_site_fract_z
 _atom_site_occupancy
  Ca  Ca0  1  0.94391100  0.12685300  0.76697000  1
  Ca  Ca1  1  0.05608900  0.62685300  0.73303000  1
  Ca  Ca2  1  0.05608900  0.87314700  0.23303000  1
  Ca  Ca3  1  0.94391100  0.37314700  0.26697000  1
  Ga  Ga4  1  0.32775500  0.37688200  0.89282800  1
  Ga  Ga5  1  0.67224500  0.87688200  0.60717200  1
  Ga  Ga6  1  0.67224500  0.62311800  0.10717200  1
  Ga  Ga7  1  0.32775500  0.12311800  0.39282800  1
  Ga  Ga8  1  0.58029300  0.36889700  0.55544500  1
  Ga  Ga9  1  0.41970700  0.86889700  0.94455500  1
  Ga  Ga10  1  0.41970700  0.63110300  0.44455500  1
  Ga  Ga11  1  0.58029300  0.13110300  0.05544500  1
  N  N12  1  0.35434500  0.80068300  0.60246300  1
  N  N13  1  0.64565500  0.30068300  0.89753700  1
  N  N14  1  0.64565500  0.19931700  0.39753700  1
  N  N15  1  0.35434500  0.69931700  0.10246300  1
  N  N16  1  0.28228100  0.46917400  0.56034100  1
  N  N17  1  0.71771900  0.96917400  0.93965900  1
  N  N18  1  0.71771900  0.53082600  0.43965900  1
  N  N19  1  0.28228100  0.03082600  0.06034100  1
