# generated using pymatgen
data_Ca3(TaN2)2
_symmetry_space_group_name_H-M   'P 1'
_cell_length_a   6.15485400
_cell_length_b   10.33374000
_cell_length_c   9.38642600
_cell_angle_alpha   90.00000000
_cell_angle_beta   90.00000000
_cell_angle_gamma   90.00000000
_symmetry_Int_Tables_number   1
_chemical_formula_structural   Ca3(TaN2)2
_chemical_formula_sum   'Ca12 Ta8 N16'
_cell_volume   597.00167064
_cell_formula_units_Z   4
loop_
 _symmetry_equiv_pos_site_id
 _symmetry_equiv_pos_as_xyz
  1  'x, y, z'
loop_
 _atom_site_type_symbol
 _atom_site_label
 _atom_site_symmetry_multiplicity
 _atom_site_fract_x
 _atom_site_fract_y
 _atom_site_fract_z
 _atom_site_occupancy
  Ca  Ca0  1  0.61630100  0.15327500  0.42569000  1
  Ca  Ca1  1  0.88369900  0.84672500  0.42569000  1
  Ca  Ca2  1  0.61630100  0.34672500  0.07431000  1
  Ca  Ca3  1  0.88369900  0.65327500  0.07431000  1
  Ca  Ca4  1  0.38369900  0.84672500  0.57431000  1
  Ca  Ca5  1  0.11630100  0.15327500  0.57431000  1
  Ca  Ca6  1  0.38369900  0.65327500  0.92569000  1
  Ca  Ca7  1  0.11630100  0.34672500  0.92569000  1
  Ca  Ca8  1  0.75000000  0.50000000  0.39122200  1
  Ca  Ca9  1  0.75000000  0.00000000  0.10877800  1
  Ca  Ca10  1  0.25000000  0.50000000  0.60877800  1
  Ca  Ca11  1  0.25000000  0.00000000  0.89122200  1
  Ta  Ta12  1  0.75000000  0.50000000  0.72722900  1
  Ta  Ta13  1  0.75000000  0.00000000  0.77277100  1
  Ta  Ta14  1  0.25000000  0.50000000  0.27277100  1
  Ta  Ta15  1  0.25000000  0.00000000  0.22722900  1
  Ta  Ta16  1  0.57484200  0.25000000  0.75000000  1
  Ta  Ta17  1  0.92515800  0.75000000  0.75000000  1
  Ta  Ta18  1  0.42515800  0.75000000  0.25000000  1
  Ta  Ta19  1  0.07484200  0.25000000  0.25000000  1
  N  N20  1  0.76697600  0.34011600  0.60417500  1
  N  N21  1  0.73302400  0.65988400  0.60417500  1
  N  N22  1  0.76697600  0.15988400  0.89582500  1
  N  N23  1  0.73302400  0.84011600  0.89582500  1
  N  N24  1  0.23302400  0.65988400  0.39582500  1
  N  N25  1  0.26697600  0.34011600  0.39582500  1
  N  N26  1  0.23302400  0.84011600  0.10417500  1
  N  N27  1  0.26697600  0.15988400  0.10417500  1
  N  N28  1  0.48658600  0.43286200  0.83611600  1
  N  N29  1  0.01341400  0.56713800  0.83611600  1
  N  N30  1  0.48658600  0.06713800  0.66388400  1
  N  N31  1  0.01341400  0.93286200  0.66388400  1
  N  N32  1  0.51341400  0.56713800  0.16388400  1
  N  N33  1  0.98658600  0.43286200  0.16388400  1
  N  N34  1  0.51341400  0.93286200  0.33611600  1
  N  N35  1  0.98658600  0.06713800  0.33611600  1
