# generated using pymatgen
data_Ba5(SnN3)2
_symmetry_space_group_name_H-M   'P 1'
_cell_length_a   6.71238011
_cell_length_b   7.36719423
_cell_length_c   14.72419908
_cell_angle_alpha   89.99999944
_cell_angle_beta   96.96431548
_cell_angle_gamma   123.28312606
_symmetry_Int_Tables_number   1
_chemical_formula_structural   Ba5(SnN3)2
_chemical_formula_sum   'Ba10 Sn4 N12'
_cell_volume   602.25939231
_cell_formula_units_Z   2
loop_
 _symmetry_equiv_pos_site_id
 _symmetry_equiv_pos_as_xyz
  1  'x, y, z'
loop_
 _atom_site_type_symbol
 _atom_site_label
 _atom_site_symmetry_multiplicity
 _atom_site_fract_x
 _atom_site_fract_y
 _atom_site_fract_z
 _atom_site_occupancy
  Ba  Ba0  1  0.09086000  0.77036000  0.98783700  1
  Ba  Ba1  1  0.90914000  0.67950000  0.51216300  1
  Ba  Ba2  1  0.90914000  0.22964000  0.01216300  1
  Ba  Ba3  1  0.09086000  0.32050000  0.48783700  1
  Ba  Ba4  1  0.31486100  0.08126600  0.71088200  1
  Ba  Ba5  1  0.68513900  0.76640600  0.78911800  1
  Ba  Ba6  1  0.68513900  0.91873400  0.28911800  1
  Ba  Ba7  1  0.31486100  0.23359400  0.21088200  1
  Ba  Ba8  1  0.00000000  0.38465400  0.75000000  1
  Ba  Ba9  1  0.00000000  0.61534600  0.25000000  1
  Sn  Sn10  1  0.55649000  0.89687100  0.57601700  1
  Sn  Sn11  1  0.44351000  0.34038000  0.92398300  1
  Sn  Sn12  1  0.44351000  0.10312900  0.42398300  1
  Sn  Sn13  1  0.55649000  0.65962000  0.07601700  1
  N  N14  1  0.89844100  0.97159800  0.62362800  1
  N  N15  1  0.10155900  0.07315700  0.87637200  1
  N  N16  1  0.10155900  0.02840200  0.37637200  1
  N  N17  1  0.89844100  0.92684300  0.12362800  1
  N  N18  1  0.28770700  0.70834300  0.65734800  1
  N  N19  1  0.71229300  0.42063600  0.84265200  1
  N  N20  1  0.71229300  0.29165700  0.34265200  1
  N  N21  1  0.28770700  0.57936400  0.15734800  1
  N  N22  1  0.61264100  0.22094400  0.56395100  1
  N  N23  1  0.38735900  0.60830300  0.93604900  1
  N  N24  1  0.38735900  0.77905600  0.43604900  1
  N  N25  1  0.61264100  0.39169700  0.06395100  1
