# generated using pymatgen
data_MgV2(CrS4)2
_symmetry_space_group_name_H-M   'P 1'
_cell_length_a   6.95960364
_cell_length_b   7.02941575
_cell_length_c   7.03026119
_cell_angle_alpha   60.79303457
_cell_angle_beta   60.28925266
_cell_angle_gamma   60.28783025
_symmetry_Int_Tables_number   1
_chemical_formula_structural   MgV2(CrS4)2
_chemical_formula_sum   'Mg1 V2 Cr2 S8'
_cell_volume   245.69642190
_cell_formula_units_Z   1
loop_
 _symmetry_equiv_pos_site_id
 _symmetry_equiv_pos_as_xyz
  1  'x, y, z'
loop_
 _atom_site_type_symbol
 _atom_site_label
 _atom_site_symmetry_multiplicity
 _atom_site_fract_x
 _atom_site_fract_y
 _atom_site_fract_z
 _atom_site_occupancy
  Mg  Mg0  1  0.13128500  0.11909100  0.11888700  1
  V  V1  1  0.51987200  0.51390800  0.51379400  1
  V  V2  1  0.95226300  0.51381900  0.51390800  1
  Cr  Cr3  1  0.50576700  0.50305300  0.98543700  1
  Cr  Cr4  1  0.50578300  0.98522500  0.50302600  1
  S  S5  1  0.74776500  0.74358600  0.74356400  1
  S  S6  1  0.26474400  0.26592400  0.70446400  1
  S  S7  1  0.26467100  0.70458400  0.26597600  1
  S  S8  1  0.70870900  0.26489800  0.26499900  1
  S  S9  1  0.74892100  0.25588800  0.74636900  1
  S  S10  1  0.26473900  0.74377100  0.74382700  1
  S  S11  1  0.26146600  0.26489400  0.26492200  1
  S  S12  1  0.74903100  0.74635600  0.25581000  1
