# generated using pymatgen
data_Zn2Ge5N8
_symmetry_space_group_name_H-M   'P 1'
_cell_length_a   11.28794650
_cell_length_b   10.42053320
_cell_length_c   14.13894662
_cell_angle_alpha   90.00000000
_cell_angle_beta   90.00000000
_cell_angle_gamma   90.00000000
_symmetry_Int_Tables_number   1
_chemical_formula_structural   Zn2Ge5N8
_chemical_formula_sum   'Zn16 Ge40 N64'
_cell_volume   1663.11369134
_cell_formula_units_Z   8
loop_
 _symmetry_equiv_pos_site_id
 _symmetry_equiv_pos_as_xyz
  1  'x, y, z'
loop_
 _atom_site_type_symbol
 _atom_site_label
 _atom_site_symmetry_multiplicity
 _atom_site_fract_x
 _atom_site_fract_y
 _atom_site_fract_z
 _atom_site_occupancy
  Zn  Zn0  1  0.07322837  0.13028323  0.01783887  1
  Zn  Zn1  1  0.57322837  0.36971677  0.98216113  1
  Zn  Zn2  1  0.92677163  0.63028323  0.48216113  1
  Zn  Zn3  1  0.42677163  0.86971677  0.51783887  1
  Zn  Zn4  1  0.92677163  0.86971677  0.98216113  1
  Zn  Zn5  1  0.42677163  0.63028323  0.01783887  1
  Zn  Zn6  1  0.07322837  0.36971677  0.51783887  1
  Zn  Zn7  1  0.57322837  0.13028323  0.48216113  1
  Zn  Zn8  1  0.34187824  0.10640721  0.03455564  1
  Zn  Zn9  1  0.84187824  0.39359279  0.96544436  1
  Zn  Zn10  1  0.65812176  0.60640721  0.46544436  1
  Zn  Zn11  1  0.15812176  0.89359279  0.53455564  1
  Zn  Zn12  1  0.65812176  0.89359279  0.96544436  1
  Zn  Zn13  1  0.15812176  0.60640721  0.03455564  1
  Zn  Zn14  1  0.34187824  0.39359279  0.53455564  1
  Zn  Zn15  1  0.84187824  0.10640721  0.46544436  1
  Ge  Ge16  1  0.39863264  0.23877260  0.83918527  1
  Ge  Ge17  1  0.89863264  0.26122740  0.16081473  1
  Ge  Ge18  1  0.60136736  0.73877260  0.66081473  1
  Ge  Ge19  1  0.10136736  0.76122740  0.33918527  1
  Ge  Ge20  1  0.60136736  0.76122740  0.16081473  1
  Ge  Ge21  1  0.10136736  0.73877260  0.83918527  1
  Ge  Ge22  1  0.39863264  0.26122740  0.33918527  1
  Ge  Ge23  1  0.89863264  0.23877260  0.66081473  1
  Ge  Ge24  1  0.16396968  0.24124723  0.71844175  1
  Ge  Ge25  1  0.66396968  0.25875277  0.28155825  1
  Ge  Ge26  1  0.83603032  0.74124723  0.78155825  1
  Ge  Ge27  1  0.33603032  0.75875277  0.21844175  1
  Ge  Ge28  1  0.83603032  0.75875277  0.28155825  1
  Ge  Ge29  1  0.33603032  0.74124723  0.71844175  1
  Ge  Ge30  1  0.16396968  0.25875277  0.21844175  1
  Ge  Ge31  1  0.66396968  0.24124723  0.78155825  1
  Ge  Ge32  1  0.25373806  0.98214027  0.83662125  1
  Ge  Ge33  1  0.75373806  0.51785973  0.16337875  1
  Ge  Ge34  1  0.74626194  0.48214027  0.66337875  1
  Ge  Ge35  1  0.24626194  0.01785973  0.33662125  1
  Ge  Ge36  1  0.74626194  0.01785973  0.16337875  1
  Ge  Ge37  1  0.24626194  0.48214027  0.83662125  1
  Ge  Ge38  1  0.25373806  0.51785973  0.33662125  1
  Ge  Ge39  1  0.75373806  0.98214027  0.66337875  1
  Ge  Ge40  1  0.98444396  0.00614540  0.78483948  1
  Ge  Ge41  1  0.48444396  0.49385460  0.21516052  1
  Ge  Ge42  1  0.01555604  0.50614540  0.71516052  1
  Ge  Ge43  1  0.51555604  0.99385460  0.28483948  1
  Ge  Ge44  1  0.01555604  0.99385460  0.21516052  1
  Ge  Ge45  1  0.51555604  0.50614540  0.78483948  1
  Ge  Ge46  1  0.98444396  0.49385460  0.28483948  1
  Ge  Ge47  1  0.48444396  0.00614540  0.71516052  1
  Ge  Ge48  1  0.82239697  0.13788900  0.96100462  1
  Ge  Ge49  1  0.32239697  0.36211100  0.03899538  1
  Ge  Ge50  1  0.17760303  0.63788900  0.53899538  1
  Ge  Ge51  1  0.67760303  0.86211100  0.46100462  1
  Ge  Ge52  1  0.17760303  0.86211100  0.03899538  1
  Ge  Ge53  1  0.67760303  0.63788900  0.96100462  1
  Ge  Ge54  1  0.82239697  0.36211100  0.46100462  1
  Ge  Ge55  1  0.32239697  0.13788900  0.53899538  1
  N  N56  1  0.92395002  0.24904861  0.03116361  1
  N  N57  1  0.42395002  0.25095139  0.96883639  1
  N  N58  1  0.07604998  0.74904861  0.46883639  1
  N  N59  1  0.57604998  0.75095139  0.53116361  1
  N  N60  1  0.07604998  0.75095139  0.96883639  1
  N  N61  1  0.57604998  0.74904861  0.03116361  1
  N  N62  1  0.92395002  0.25095139  0.53116361  1
  N  N63  1  0.42395002  0.24904861  0.46883639  1
  N  N64  1  0.94523741  0.04155039  0.90828514  1
  N  N65  1  0.44523741  0.45844961  0.09171486  1
  N  N66  1  0.05476259  0.54155039  0.59171486  1
  N  N67  1  0.55476259  0.95844961  0.40828514  1
  N  N68  1  0.05476259  0.95844961  0.09171486  1
  N  N69  1  0.55476259  0.54155039  0.90828514  1
  N  N70  1  0.94523741  0.45844961  0.40828514  1
  N  N71  1  0.44523741  0.04155039  0.59171486  1
  N  N72  1  0.72593660  0.26536185  0.90344414  1
  N  N73  1  0.22593660  0.23463815  0.09655586  1
  N  N74  1  0.27406340  0.76536185  0.59655586  1
  N  N75  1  0.77406340  0.73463815  0.40344414  1
  N  N76  1  0.27406340  0.73463815  0.09655586  1
  N  N77  1  0.77406340  0.76536185  0.90344414  1
  N  N78  1  0.72593660  0.23463815  0.40344414  1
  N  N79  1  0.22593660  0.26536185  0.59655586  1
  N  N80  1  0.25888356  0.97796530  0.96632867  1
  N  N81  1  0.75888356  0.52203470  0.03367133  1
  N  N82  1  0.74111644  0.47796530  0.53367133  1
  N  N83  1  0.24111644  0.02203470  0.46632867  1
  N  N84  1  0.74111644  0.02203470  0.03367133  1
  N  N85  1  0.24111644  0.47796530  0.96632867  1
  N  N86  1  0.25888356  0.52203470  0.46632867  1
  N  N87  1  0.75888356  0.97796530  0.53367133  1
  N  N88  1  0.02401454  0.14603163  0.70898877  1
  N  N89  1  0.52401454  0.35396837  0.29101123  1
  N  N90  1  0.97598546  0.64603163  0.79101123  1
  N  N91  1  0.47598546  0.85396837  0.20898877  1
  N  N92  1  0.97598546  0.85396837  0.29101123  1
  N  N93  1  0.47598546  0.64603163  0.70898877  1
  N  N94  1  0.02401454  0.35396837  0.20898877  1
  N  N95  1  0.52401454  0.14603163  0.79101123  1
  N  N96  1  0.37594219  0.89877333  0.77468463  1
  N  N97  1  0.87594219  0.60122667  0.22531537  1
  N  N98  1  0.62405781  0.39877333  0.72531537  1
  N  N99  1  0.12405781  0.10122667  0.27468463  1
  N  N100  1  0.62405781  0.10122667  0.22531537  1
  N  N101  1  0.12405781  0.39877333  0.77468463  1
  N  N102  1  0.37594219  0.60122667  0.27468463  1
  N  N103  1  0.87594219  0.89877333  0.72531537  1
  N  N104  1  0.26097839  0.15502535  0.80327449  1
  N  N105  1  0.76097839  0.34497465  0.19672551  1
  N  N106  1  0.73902161  0.65502535  0.69672551  1
  N  N107  1  0.23902161  0.84497465  0.30327449  1
  N  N108  1  0.73902161  0.84497465  0.19672551  1
  N  N109  1  0.23902161  0.65502535  0.80327449  1
  N  N110  1  0.26097839  0.34497465  0.30327449  1
  N  N111  1  0.76097839  0.15502535  0.69672551  1
  N  N112  1  0.11893454  0.90372047  0.78977401  1
  N  N113  1  0.61893454  0.59627953  0.21022599  1
  N  N114  1  0.88106546  0.40372047  0.71022599  1
  N  N115  1  0.38106546  0.09627953  0.28977401  1
  N  N116  1  0.88106546  0.09627953  0.21022599  1
  N  N117  1  0.38106546  0.40372047  0.78977401  1
  N  N118  1  0.11893454  0.59627953  0.28977401  1
  N  N119  1  0.61893454  0.90372047  0.71022599  1
