# generated using pymatgen
data_Fe2Pb3N4
_symmetry_space_group_name_H-M   'P 1'
_cell_length_a   8.78454484
_cell_length_b   7.91966252
_cell_length_c   5.33988738
_cell_angle_alpha   89.99999903
_cell_angle_beta   71.21664724
_cell_angle_gamma   116.79325873
_symmetry_Int_Tables_number   1
_chemical_formula_structural   Fe2Pb3N4
_chemical_formula_sum   'Fe4 Pb6 N8'
_cell_volume   309.28879298
_cell_formula_units_Z   2
loop_
 _symmetry_equiv_pos_site_id
 _symmetry_equiv_pos_as_xyz
  1  'x, y, z'
loop_
 _atom_site_type_symbol
 _atom_site_label
 _atom_site_symmetry_multiplicity
 _atom_site_fract_x
 _atom_site_fract_y
 _atom_site_fract_z
 _atom_site_occupancy
  Fe  Fe0  1  0.55608000  0.16203200  0.54099300  1
  Fe  Fe1  1  0.44392000  0.60595400  0.95900700  1
  Fe  Fe2  1  0.44392000  0.83796800  0.45900700  1
  Fe  Fe3  1  0.55608000  0.39404600  0.04099300  1
  Pb  Pb4  1  0.24593800  0.94438600  0.11961400  1
  Pb  Pb5  1  0.75406200  0.69844900  0.38038600  1
  Pb  Pb6  1  0.75406200  0.05561400  0.88038600  1
  Pb  Pb7  1  0.24593800  0.30155100  0.61961400  1
  Pb  Pb8  1  0.00000000  0.62567800  0.75000000  1
  Pb  Pb9  1  0.00000000  0.37432200  0.25000000  1
  N  N10  1  0.31932700  0.96217700  0.62651800  1
  N  N11  1  0.68067300  0.64285000  0.87348200  1
  N  N12  1  0.68067300  0.03782300  0.37348200  1
  N  N13  1  0.31932700  0.35715000  0.12651800  1
  N  N14  1  0.59985400  0.23339100  0.83943200  1
  N  N15  1  0.40014600  0.63353800  0.66056800  1
  N  N16  1  0.40014600  0.76660900  0.16056800  1
  N  N17  1  0.59985400  0.36646200  0.33943200  1
