# generated using pymatgen
data_Sr3(IrN2)2
_symmetry_space_group_name_H-M   'P 1'
_cell_length_a   7.37304374
_cell_length_b   9.36306578
_cell_length_c   5.57648989
_cell_angle_alpha   89.99999466
_cell_angle_beta   91.97326471
_cell_angle_gamma   129.41646633
_symmetry_Int_Tables_number   1
_chemical_formula_structural   Sr3(IrN2)2
_chemical_formula_sum   'Sr6 Ir4 N8'
_cell_volume   297.11271120
_cell_formula_units_Z   2
loop_
 _symmetry_equiv_pos_site_id
 _symmetry_equiv_pos_as_xyz
  1  'x, y, z'
loop_
 _atom_site_type_symbol
 _atom_site_label
 _atom_site_symmetry_multiplicity
 _atom_site_fract_x
 _atom_site_fract_y
 _atom_site_fract_z
 _atom_site_occupancy
  Sr  Sr0  1  0.23979300  0.96623900  0.05541300  1
  Sr  Sr1  1  0.76020700  0.72644500  0.44458700  1
  Sr  Sr2  1  0.76020700  0.03376100  0.94458700  1
  Sr  Sr3  1  0.23979300  0.27355500  0.55541300  1
  Sr  Sr4  1  0.00000000  0.59336100  0.75000000  1
  Sr  Sr5  1  0.00000000  0.40663900  0.25000000  1
  Ir  Ir6  1  0.53197000  0.15024100  0.58418900  1
  Ir  Ir7  1  0.46803000  0.61827200  0.91581100  1
  Ir  Ir8  1  0.46803000  0.84975900  0.41581100  1
  Ir  Ir9  1  0.53197000  0.38172800  0.08418900  1
  N  N10  1  0.21533300  0.92960300  0.53947200  1
  N  N11  1  0.78466700  0.71427000  0.96052800  1
  N  N12  1  0.78466700  0.07039700  0.46052800  1
  N  N13  1  0.21533300  0.28573000  0.03947200  1
  N  N14  1  0.66484400  0.26860300  0.92415400  1
  N  N15  1  0.33515600  0.60376000  0.57584600  1
  N  N16  1  0.33515600  0.73139700  0.07584600  1
  N  N17  1  0.66484400  0.39624000  0.42415400  1
