# generated using pymatgen
data_KOsN2
_symmetry_space_group_name_H-M   'P 1'
_cell_length_a   6.25293100
_cell_length_b   12.16506300
_cell_length_c   15.23194500
_cell_angle_alpha   90.00000000
_cell_angle_beta   90.00000000
_cell_angle_gamma   90.00000000
_symmetry_Int_Tables_number   1
_chemical_formula_structural   KOsN2
_chemical_formula_sum   'K16 Os16 N32'
_cell_volume   1158.65292304
_cell_formula_units_Z   16
loop_
 _symmetry_equiv_pos_site_id
 _symmetry_equiv_pos_as_xyz
  1  'x, y, z'
loop_
 _atom_site_type_symbol
 _atom_site_label
 _atom_site_symmetry_multiplicity
 _atom_site_fract_x
 _atom_site_fract_y
 _atom_site_fract_z
 _atom_site_occupancy
  K  K0  1  0.25767400  0.99169000  0.42770800  1
  K  K1  1  0.75767400  0.50831000  0.57229200  1
  K  K2  1  0.74232600  0.49169000  0.07229200  1
  K  K3  1  0.24232600  0.00831000  0.92770800  1
  K  K4  1  0.74232600  0.00831000  0.57229200  1
  K  K5  1  0.24232600  0.49169000  0.42770800  1
  K  K6  1  0.25767400  0.50831000  0.92770800  1
  K  K7  1  0.75767400  0.99169000  0.07229200  1
  K  K8  1  0.41084300  0.25576300  0.30887400  1
  K  K9  1  0.91084300  0.24423700  0.69112600  1
  K  K10  1  0.58915700  0.75576300  0.19112600  1
  K  K11  1  0.08915700  0.74423700  0.80887400  1
  K  K12  1  0.58915700  0.74423700  0.69112600  1
  K  K13  1  0.08915700  0.75576300  0.30887400  1
  K  K14  1  0.41084300  0.24423700  0.80887400  1
  K  K15  1  0.91084300  0.25576300  0.19112600  1
  Os  Os16  1  0.75594400  0.01091400  0.31631100  1
  Os  Os17  1  0.25594400  0.48908600  0.68368900  1
  Os  Os18  1  0.24405600  0.51091400  0.18368900  1
  Os  Os19  1  0.74405600  0.98908600  0.81631100  1
  Os  Os20  1  0.24405600  0.98908600  0.68368900  1
  Os  Os21  1  0.74405600  0.51091400  0.31631100  1
  Os  Os22  1  0.75594400  0.48908600  0.81631100  1
  Os  Os23  1  0.25594400  0.01091400  0.18368900  1
  Os  Os24  1  0.85634500  0.26318300  0.44269800  1
  Os  Os25  1  0.35634500  0.23681700  0.55730200  1
  Os  Os26  1  0.14365500  0.76318300  0.05730200  1
  Os  Os27  1  0.64365500  0.73681700  0.94269800  1
  Os  Os28  1  0.14365500  0.73681700  0.55730200  1
  Os  Os29  1  0.64365500  0.76318300  0.44269800  1
  Os  Os30  1  0.85634500  0.23681700  0.94269800  1
  Os  Os31  1  0.35634500  0.26318300  0.05730200  1
  N  N32  1  0.15481700  0.26140200  0.46705400  1
  N  N33  1  0.65481700  0.23859800  0.53294600  1
  N  N34  1  0.84518300  0.76140200  0.03294600  1
  N  N35  1  0.34518300  0.73859800  0.96705400  1
  N  N36  1  0.84518300  0.73859800  0.53294600  1
  N  N37  1  0.34518300  0.76140200  0.46705400  1
  N  N38  1  0.15481700  0.23859800  0.96705400  1
  N  N39  1  0.65481700  0.26140200  0.03294600  1
  N  N40  1  0.78899100  0.40646700  0.40481600  1
  N  N41  1  0.28899100  0.09353300  0.59518400  1
  N  N42  1  0.21100900  0.90646700  0.09518400  1
  N  N43  1  0.71100900  0.59353300  0.90481600  1
  N  N44  1  0.21100900  0.59353300  0.59518400  1
  N  N45  1  0.71100900  0.90646700  0.40481600  1
  N  N46  1  0.78899100  0.09353300  0.90481600  1
  N  N47  1  0.28899100  0.40646700  0.09518400  1
  N  N48  1  0.79383100  0.15498900  0.35970800  1
  N  N49  1  0.29383100  0.34501100  0.64029200  1
  N  N50  1  0.20616900  0.65498900  0.14029200  1
  N  N51  1  0.70616900  0.84501100  0.85970800  1
  N  N52  1  0.20616900  0.84501100  0.64029200  1
  N  N53  1  0.70616900  0.65498900  0.35970800  1
  N  N54  1  0.79383100  0.34501100  0.85970800  1
  N  N55  1  0.29383100  0.15498900  0.14029200  1
  N  N56  1  0.48389300  0.49427400  0.25525200  1
  N  N57  1  0.98389300  0.00572600  0.74474800  1
  N  N58  1  0.51610700  0.99427400  0.24474800  1
  N  N59  1  0.01610700  0.50572600  0.75525200  1
  N  N60  1  0.51610700  0.50572600  0.74474800  1
  N  N61  1  0.01610700  0.99427400  0.25525200  1
  N  N62  1  0.48389300  0.00572600  0.75525200  1
  N  N63  1  0.98389300  0.49427400  0.24474800  1
