# generated using pymatgen
data_Sc5(SiN3)3
_symmetry_space_group_name_H-M   'P 1'
_cell_length_a   7.35831209
_cell_length_b   10.53344545
_cell_length_c   14.66567300
_cell_angle_alpha   90.00000000
_cell_angle_beta   90.00000000
_cell_angle_gamma   135.70481750
_symmetry_Int_Tables_number   1
_chemical_formula_structural   Sc5(SiN3)3
_chemical_formula_sum   'Sc20 Si12 N36'
_cell_volume   793.82900791
_cell_formula_units_Z   4
loop_
 _symmetry_equiv_pos_site_id
 _symmetry_equiv_pos_as_xyz
  1  'x, y, z'
loop_
 _atom_site_type_symbol
 _atom_site_label
 _atom_site_symmetry_multiplicity
 _atom_site_fract_x
 _atom_site_fract_y
 _atom_site_fract_z
 _atom_site_occupancy
  Sc  Sc0  1  0.00000000  0.50698700  0.83242700  1
  Sc  Sc1  1  0.00000000  0.49301300  0.16757300  1
  Sc  Sc2  1  0.00000000  0.99301300  0.33242700  1
  Sc  Sc3  1  0.00000000  0.00698700  0.66757300  1
  Sc  Sc4  1  0.37122000  0.96447000  0.86642600  1
  Sc  Sc5  1  0.37122000  0.40675000  0.13357400  1
  Sc  Sc6  1  0.37122000  0.90675000  0.36642600  1
  Sc  Sc7  1  0.37122000  0.46447000  0.63357400  1
  Sc  Sc8  1  0.62878000  0.03553000  0.13357400  1
  Sc  Sc9  1  0.62878000  0.59325000  0.86642600  1
  Sc  Sc10  1  0.62878000  0.09325000  0.63357400  1
  Sc  Sc11  1  0.62878000  0.53553000  0.36642600  1
  Sc  Sc12  1  0.00000000  0.50952200  0.60349000  1
  Sc  Sc13  1  0.00000000  0.49047800  0.39651000  1
  Sc  Sc14  1  0.00000000  0.99047800  0.10349000  1
  Sc  Sc15  1  0.00000000  0.00952200  0.89651000  1
  Sc  Sc16  1  0.55517300  0.27758600  0.00000000  1
  Sc  Sc17  1  0.55517300  0.77758600  0.50000000  1
  Sc  Sc18  1  0.44482700  0.72241400  0.00000000  1
  Sc  Sc19  1  0.44482700  0.22241400  0.50000000  1
  Si  Si20  1  0.00000000  0.75334600  0.01497000  1
  Si  Si21  1  0.00000000  0.24665400  0.98503000  1
  Si  Si22  1  0.00000000  0.74665400  0.51497000  1
  Si  Si23  1  0.00000000  0.25334600  0.48503000  1
  Si  Si24  1  0.00000000  0.24584200  0.77807100  1
  Si  Si25  1  0.00000000  0.75415800  0.22192900  1
  Si  Si26  1  0.00000000  0.25415800  0.27807100  1
  Si  Si27  1  0.00000000  0.74584200  0.72192900  1
  Si  Si28  1  0.50000000  0.79086900  0.75000000  1
  Si  Si29  1  0.50000000  0.70913100  0.25000000  1
  Si  Si30  1  0.50000000  0.20913100  0.25000000  1
  Si  Si31  1  0.50000000  0.29086900  0.75000000  1
  N  N32  1  0.00000000  0.36428700  0.69582300  1
  N  N33  1  0.00000000  0.63571300  0.30417700  1
  N  N34  1  0.00000000  0.13571300  0.19582300  1
  N  N35  1  0.00000000  0.86428700  0.80417700  1
  N  N36  1  0.00000000  0.31294600  0.88133200  1
  N  N37  1  0.00000000  0.68705400  0.11866800  1
  N  N38  1  0.00000000  0.18705400  0.38133200  1
  N  N39  1  0.00000000  0.81294600  0.61866800  1
  N  N40  1  0.74811800  0.52137200  0.74159600  1
  N  N41  1  0.74811800  0.22674500  0.25840400  1
  N  N42  1  0.74811800  0.72674500  0.24159600  1
  N  N43  1  0.74811800  0.02137200  0.75840400  1
  N  N44  1  0.25188200  0.47862800  0.25840400  1
  N  N45  1  0.25188200  0.77325500  0.74159600  1
  N  N46  1  0.25188200  0.27325500  0.75840400  1
  N  N47  1  0.25188200  0.97862800  0.24159600  1
  N  N48  1  0.54076500  0.23035300  0.85116600  1
  N  N49  1  0.54076500  0.31041100  0.14883400  1
  N  N50  1  0.54076500  0.81041100  0.35116600  1
  N  N51  1  0.54076500  0.73035300  0.64883400  1
  N  N52  1  0.45923500  0.76964700  0.14883400  1
  N  N53  1  0.45923500  0.68958900  0.85116600  1
  N  N54  1  0.45923500  0.18958900  0.64883400  1
  N  N55  1  0.45923500  0.26964700  0.35116600  1
  N  N56  1  0.26015300  0.99138000  0.99991100  1
  N  N57  1  0.26015300  0.26877500  0.00008900  1
  N  N58  1  0.26015300  0.76877500  0.49991100  1
  N  N59  1  0.26015300  0.49138000  0.50008900  1
  N  N60  1  0.73984700  0.00862000  0.00008900  1
  N  N61  1  0.73984700  0.73122500  0.99991100  1
  N  N62  1  0.73984700  0.23122500  0.50008900  1
  N  N63  1  0.73984700  0.50862000  0.49991100  1
  N  N64  1  0.00000000  0.63721400  0.93438000  1
  N  N65  1  0.00000000  0.36278600  0.06562000  1
  N  N66  1  0.00000000  0.86278600  0.43438000  1
  N  N67  1  0.00000000  0.13721400  0.56562000  1
