# generated using pymatgen
data_Ba3(InN2)2
_symmetry_space_group_name_H-M   'P 1'
_cell_length_a   7.78618977
_cell_length_b   9.66834357
_cell_length_c   6.39984985
_cell_angle_alpha   90.00000178
_cell_angle_beta   91.59254949
_cell_angle_gamma   128.37931371
_symmetry_Int_Tables_number   1
_chemical_formula_structural   Ba3(InN2)2
_chemical_formula_sum   'Ba6 In4 N8'
_cell_volume   377.43676437
_cell_formula_units_Z   2
loop_
 _symmetry_equiv_pos_site_id
 _symmetry_equiv_pos_as_xyz
  1  'x, y, z'
loop_
 _atom_site_type_symbol
 _atom_site_label
 _atom_site_symmetry_multiplicity
 _atom_site_fract_x
 _atom_site_fract_y
 _atom_site_fract_z
 _atom_site_occupancy
  Ba  Ba0  1  0.23537400  0.97756200  0.06622500  1
  Ba  Ba1  1  0.76462600  0.74218800  0.43377500  1
  Ba  Ba2  1  0.76462600  0.02243800  0.93377500  1
  Ba  Ba3  1  0.23537400  0.25781200  0.56622500  1
  Ba  Ba4  1  0.00000000  0.60276900  0.75000000  1
  Ba  Ba5  1  0.00000000  0.39723100  0.25000000  1
  In  In6  1  0.58448700  0.17478300  0.58892600  1
  In  In7  1  0.41551300  0.59029700  0.91107400  1
  In  In8  1  0.41551300  0.82521700  0.41107400  1
  In  In9  1  0.58448700  0.40970300  0.08892600  1
  N  N10  1  0.23829800  0.93590000  0.50995200  1
  N  N11  1  0.76170200  0.69760200  0.99004800  1
  N  N12  1  0.76170200  0.06410000  0.49004800  1
  N  N13  1  0.23829800  0.30239800  0.00995200  1
  N  N14  1  0.67194200  0.25597900  0.92694900  1
  N  N15  1  0.32805800  0.58403700  0.57305100  1
  N  N16  1  0.32805800  0.74402100  0.07305100  1
  N  N17  1  0.67194200  0.41596300  0.42694900  1
