# generated using pymatgen
data_TaMn2N3
_symmetry_space_group_name_H-M   'P 1'
_cell_length_a   5.78273820
_cell_length_b   5.79834224
_cell_length_c   4.36869300
_cell_angle_alpha   90.00000000
_cell_angle_beta   90.00000000
_cell_angle_gamma   120.08929391
_symmetry_Int_Tables_number   1
_chemical_formula_structural   TaMn2N3
_chemical_formula_sum   'Ta2 Mn4 N6'
_cell_volume   126.74418982
_cell_formula_units_Z   2
loop_
 _symmetry_equiv_pos_site_id
 _symmetry_equiv_pos_as_xyz
  1  'x, y, z'
loop_
 _atom_site_type_symbol
 _atom_site_label
 _atom_site_symmetry_multiplicity
 _atom_site_fract_x
 _atom_site_fract_y
 _atom_site_fract_z
 _atom_site_occupancy
  Ta  Ta0  1  0.00000000  0.67839900  0.42554400  1
  Ta  Ta1  1  0.00000000  0.32160100  0.92554400  1
  Mn  Mn2  1  0.36477800  0.38502400  0.47092400  1
  Mn  Mn3  1  0.63522200  0.02024400  0.47092400  1
  Mn  Mn4  1  0.63522200  0.61497600  0.97092400  1
  Mn  Mn5  1  0.36477800  0.97975600  0.97092400  1
  N  N6  1  0.32865700  0.28806300  0.90094400  1
  N  N7  1  0.67134300  0.95940700  0.90094400  1
  N  N8  1  0.67134300  0.71193700  0.40094400  1
  N  N9  1  0.32865700  0.04059300  0.40094400  1
  N  N10  1  0.00000000  0.68004600  0.91872100  1
  N  N11  1  0.00000000  0.31995400  0.41872100  1
