# generated using pymatgen
data_Ca4CrN4
_symmetry_space_group_name_H-M   'P 1'
_cell_length_a   11.20389100
_cell_length_b   4.93625600
_cell_length_c   10.98023500
_cell_angle_alpha   90.00000000
_cell_angle_beta   90.00000000
_cell_angle_gamma   90.00000000
_symmetry_Int_Tables_number   1
_chemical_formula_structural   Ca4CrN4
_chemical_formula_sum   'Ca16 Cr4 N16'
_cell_volume   607.26490715
_cell_formula_units_Z   4
loop_
 _symmetry_equiv_pos_site_id
 _symmetry_equiv_pos_as_xyz
  1  'x, y, z'
loop_
 _atom_site_type_symbol
 _atom_site_label
 _atom_site_symmetry_multiplicity
 _atom_site_fract_x
 _atom_site_fract_y
 _atom_site_fract_z
 _atom_site_occupancy
  Ca  Ca0  1  0.09215900  0.25000000  0.18578000  1
  Ca  Ca1  1  0.59215900  0.25000000  0.31422000  1
  Ca  Ca2  1  0.90784100  0.75000000  0.81422000  1
  Ca  Ca3  1  0.40784100  0.75000000  0.68578000  1
  Ca  Ca4  1  0.77400300  0.25000000  0.97361500  1
  Ca  Ca5  1  0.27400300  0.25000000  0.52638500  1
  Ca  Ca6  1  0.22599700  0.75000000  0.02638500  1
  Ca  Ca7  1  0.72599700  0.75000000  0.47361500  1
  Ca  Ca8  1  0.44221500  0.25000000  0.88836900  1
  Ca  Ca9  1  0.94221500  0.25000000  0.61163100  1
  Ca  Ca10  1  0.55778500  0.75000000  0.11163100  1
  Ca  Ca11  1  0.05778500  0.75000000  0.38836900  1
  Ca  Ca12  1  0.12754800  0.25000000  0.84095200  1
  Ca  Ca13  1  0.62754800  0.25000000  0.65904800  1
  Ca  Ca14  1  0.87245200  0.75000000  0.15904800  1
  Ca  Ca15  1  0.37245200  0.75000000  0.34095200  1
  Cr  Cr16  1  0.36725200  0.25000000  0.14919800  1
  Cr  Cr17  1  0.86725200  0.25000000  0.35080200  1
  Cr  Cr18  1  0.63274800  0.75000000  0.85080200  1
  Cr  Cr19  1  0.13274800  0.75000000  0.64919800  1
  N  N20  1  0.83366600  0.25000000  0.19719200  1
  N  N21  1  0.33366600  0.25000000  0.30280800  1
  N  N22  1  0.16633400  0.75000000  0.80280800  1
  N  N23  1  0.66633400  0.75000000  0.69719200  1
  N  N24  1  0.92428300  0.25000000  0.82912200  1
  N  N25  1  0.42428300  0.25000000  0.67087800  1
  N  N26  1  0.07571700  0.75000000  0.17087800  1
  N  N27  1  0.57571700  0.75000000  0.32912200  1
  N  N28  1  0.26200300  0.25000000  0.03072000  1
  N  N29  1  0.76200300  0.25000000  0.46928000  1
  N  N30  1  0.73799700  0.75000000  0.96928000  1
  N  N31  1  0.23799700  0.75000000  0.53072000  1
  N  N32  1  0.51328600  0.25000000  0.10612700  1
  N  N33  1  0.01328600  0.25000000  0.39387300  1
  N  N34  1  0.48671400  0.75000000  0.89387300  1
  N  N35  1  0.98671400  0.75000000  0.60612700  1
