# generated using pymatgen
data_Ca5MgN4
_symmetry_space_group_name_H-M   'P 1'
_cell_length_a   7.93676800
_cell_length_b   7.58977000
_cell_length_c   5.86616400
_cell_angle_alpha   90.00000000
_cell_angle_beta   90.00000000
_cell_angle_gamma   90.00000000
_symmetry_Int_Tables_number   1
_chemical_formula_structural   Ca5MgN4
_chemical_formula_sum   'Ca10 Mg2 N8'
_cell_volume   353.36741640
_cell_formula_units_Z   2
loop_
 _symmetry_equiv_pos_site_id
 _symmetry_equiv_pos_as_xyz
  1  'x, y, z'
loop_
 _atom_site_type_symbol
 _atom_site_label
 _atom_site_symmetry_multiplicity
 _atom_site_fract_x
 _atom_site_fract_y
 _atom_site_fract_z
 _atom_site_occupancy
  Ca  Ca0  1  0.55072900  0.50198900  0.24505700  1
  Ca  Ca1  1  0.94927100  0.50198900  0.24505700  1
  Ca  Ca2  1  0.55072900  0.99801100  0.24505700  1
  Ca  Ca3  1  0.94927100  0.99801100  0.24505700  1
  Ca  Ca4  1  0.44927100  0.49801100  0.75494300  1
  Ca  Ca5  1  0.05072900  0.49801100  0.75494300  1
  Ca  Ca6  1  0.44927100  0.00198900  0.75494300  1
  Ca  Ca7  1  0.05072900  0.00198900  0.75494300  1
  Ca  Ca8  1  0.75000000  0.75000000  0.70277100  1
  Ca  Ca9  1  0.25000000  0.25000000  0.29722900  1
  Mg  Mg10  1  0.75000000  0.25000000  0.71861900  1
  Mg  Mg11  1  0.25000000  0.75000000  0.28138100  1
  N  N12  1  0.75000000  0.00938700  0.92268700  1
  N  N13  1  0.75000000  0.49061300  0.92268700  1
  N  N14  1  0.25000000  0.99061300  0.07731300  1
  N  N15  1  0.25000000  0.50938700  0.07731300  1
  N  N16  1  0.49087600  0.75000000  0.48785600  1
  N  N17  1  0.00912400  0.75000000  0.48785600  1
  N  N18  1  0.50912400  0.25000000  0.51214400  1
  N  N19  1  0.99087600  0.25000000  0.51214400  1
