# generated using pymatgen
data_MgVN2
_symmetry_space_group_name_H-M   'P 1'
_cell_length_a   5.74842600
_cell_length_b   6.64512800
_cell_length_c   5.07491900
_cell_angle_alpha   90.00000000
_cell_angle_beta   90.00000000
_cell_angle_gamma   90.00000000
_symmetry_Int_Tables_number   1
_chemical_formula_structural   MgVN2
_chemical_formula_sum   'Mg4 V4 N8'
_cell_volume   193.85696571
_cell_formula_units_Z   4
loop_
 _symmetry_equiv_pos_site_id
 _symmetry_equiv_pos_as_xyz
  1  'x, y, z'
loop_
 _atom_site_type_symbol
 _atom_site_label
 _atom_site_symmetry_multiplicity
 _atom_site_fract_x
 _atom_site_fract_y
 _atom_site_fract_z
 _atom_site_occupancy
  Mg  Mg0  1  0.58806900  0.87834900  0.99025000  1
  Mg  Mg1  1  0.41193100  0.12165100  0.49025000  1
  Mg  Mg2  1  0.91193100  0.37834900  0.49025000  1
  Mg  Mg3  1  0.08806900  0.62165100  0.99025000  1
  V  V4  1  0.57584600  0.37438300  0.99964600  1
  V  V5  1  0.42415400  0.62561700  0.49964600  1
  V  V6  1  0.92415400  0.87438300  0.49964600  1
  V  V7  1  0.07584600  0.12561700  0.99964600  1
  N  N8  1  0.56558800  0.39067300  0.36767900  1
  N  N9  1  0.43441200  0.60932700  0.86767900  1
  N  N10  1  0.93441200  0.89067300  0.86767900  1
  N  N11  1  0.06558800  0.10932700  0.36767900  1
  N  N12  1  0.60424400  0.85638700  0.41242500  1
  N  N13  1  0.39575600  0.14361300  0.91242500  1
  N  N14  1  0.89575600  0.35638700  0.91242500  1
  N  N15  1  0.10424400  0.64361300  0.41242500  1
