# generated using pymatgen
data_V2Pb3N4
_symmetry_space_group_name_H-M   'P 1'
_cell_length_a   6.67674000
_cell_length_b   10.37721000
_cell_length_c   10.34710500
_cell_angle_alpha   90.00000000
_cell_angle_beta   90.00000000
_cell_angle_gamma   90.00000000
_symmetry_Int_Tables_number   1
_chemical_formula_structural   V2Pb3N4
_chemical_formula_sum   'V8 Pb12 N16'
_cell_volume   716.90882476
_cell_formula_units_Z   4
loop_
 _symmetry_equiv_pos_site_id
 _symmetry_equiv_pos_as_xyz
  1  'x, y, z'
loop_
 _atom_site_type_symbol
 _atom_site_label
 _atom_site_symmetry_multiplicity
 _atom_site_fract_x
 _atom_site_fract_y
 _atom_site_fract_z
 _atom_site_occupancy
  V  V0  1  0.75000000  0.50000000  0.75780000  1
  V  V1  1  0.75000000  0.00000000  0.74220000  1
  V  V2  1  0.25000000  0.50000000  0.24220000  1
  V  V3  1  0.25000000  0.00000000  0.25780000  1
  V  V4  1  0.78575800  0.25000000  0.75000000  1
  V  V5  1  0.71424200  0.75000000  0.75000000  1
  V  V6  1  0.21424200  0.75000000  0.25000000  1
  V  V7  1  0.28575800  0.25000000  0.25000000  1
  Pb  Pb8  1  0.79596500  0.16264800  0.39222800  1
  Pb  Pb9  1  0.70403500  0.83735200  0.39222800  1
  Pb  Pb10  1  0.79596500  0.33735200  0.10777200  1
  Pb  Pb11  1  0.70403500  0.66264800  0.10777200  1
  Pb  Pb12  1  0.20403500  0.83735200  0.60777300  1
  Pb  Pb13  1  0.29596500  0.16264800  0.60777300  1
  Pb  Pb14  1  0.20403500  0.66264800  0.89222700  1
  Pb  Pb15  1  0.29596500  0.33735200  0.89222700  1
  Pb  Pb16  1  0.75000000  0.50000000  0.39213900  1
  Pb  Pb17  1  0.75000000  0.00000000  0.10786100  1
  Pb  Pb18  1  0.25000000  0.50000000  0.60786100  1
  Pb  Pb19  1  0.25000000  0.00000000  0.89213900  1
  N  N20  1  0.90690000  0.38531500  0.66729100  1
  N  N21  1  0.59310000  0.61468500  0.66729100  1
  N  N22  1  0.90690000  0.11468500  0.83270900  1
  N  N23  1  0.59310000  0.88531500  0.83270900  1
  N  N24  1  0.09310000  0.61468500  0.33270900  1
  N  N25  1  0.40690000  0.38531500  0.33270900  1
  N  N26  1  0.09310000  0.88531500  0.16729100  1
  N  N27  1  0.40690000  0.11468500  0.16729100  1
  N  N28  1  0.64766000  0.36563200  0.85563500  1
  N  N29  1  0.85234000  0.63436800  0.85563500  1
  N  N30  1  0.64766000  0.13436800  0.64436500  1
  N  N31  1  0.85234000  0.86563200  0.64436500  1
  N  N32  1  0.35234000  0.63436800  0.14436500  1
  N  N33  1  0.14766000  0.36563200  0.14436500  1
  N  N34  1  0.35234000  0.86563200  0.35563500  1
  N  N35  1  0.14766000  0.13436800  0.35563500  1
