# generated using pymatgen
data_MgInMoS4
_symmetry_space_group_name_H-M   'P 1'
_cell_length_a   7.57820965
_cell_length_b   7.57568105
_cell_length_c   7.57608942
_cell_angle_alpha   59.78870970
_cell_angle_beta   59.98866591
_cell_angle_gamma   59.98662287
_symmetry_Int_Tables_number   1
_chemical_formula_structural   MgInMoS4
_chemical_formula_sum   'Mg2 In2 Mo2 S8'
_cell_volume   307.00059942
_cell_formula_units_Z   2
loop_
 _symmetry_equiv_pos_site_id
 _symmetry_equiv_pos_as_xyz
  1  'x, y, z'
loop_
 _atom_site_type_symbol
 _atom_site_label
 _atom_site_symmetry_multiplicity
 _atom_site_fract_x
 _atom_site_fract_y
 _atom_site_fract_z
 _atom_site_occupancy
  Mg  Mg0  1  0.87445800  0.87547700  0.87563900  1
  Mg  Mg1  1  0.12557900  0.12437700  0.12452000  1
  In  In2  1  0.49990300  0.50006400  0.49998400  1
  In  In3  1  0.99989200  0.49990600  0.50003100  1
  Mo  Mo4  1  0.50002200  0.50000700  0.99997100  1
  Mo  Mo5  1  0.50002200  0.00005600  0.50001600  1
  S  S6  1  0.72635700  0.74651500  0.74651300  1
  S  S7  1  0.26576200  0.24390000  0.72464900  1
  S  S8  1  0.26577400  0.72459200  0.24379000  1
  S  S9  1  0.71937300  0.25357800  0.25344700  1
  S  S10  1  0.73420300  0.27533800  0.75610500  1
  S  S11  1  0.28068900  0.74654400  0.74648800  1
  S  S12  1  0.27372000  0.25346700  0.25346600  1
  S  S13  1  0.73424900  0.75617500  0.27538200  1
