# generated using pymatgen
data_Ba3In3N5
_symmetry_space_group_name_H-M   'P 1'
_cell_length_a   6.62613927
_cell_length_b   7.87270953
_cell_length_c   9.59557026
_cell_angle_alpha   108.06905530
_cell_angle_beta   104.14045562
_cell_angle_gamma   95.04696379
_symmetry_Int_Tables_number   1
_chemical_formula_structural   Ba3In3N5
_chemical_formula_sum   'Ba6 In6 N10'
_cell_volume   454.11675688
_cell_formula_units_Z   2
loop_
 _symmetry_equiv_pos_site_id
 _symmetry_equiv_pos_as_xyz
  1  'x, y, z'
loop_
 _atom_site_type_symbol
 _atom_site_label
 _atom_site_symmetry_multiplicity
 _atom_site_fract_x
 _atom_site_fract_y
 _atom_site_fract_z
 _atom_site_occupancy
  Ba  Ba0  1  0.81150900  0.41346200  0.60761600  1
  Ba  Ba1  1  0.18849100  0.58653800  0.39238400  1
  Ba  Ba2  1  0.66243700  0.86312200  0.87392400  1
  Ba  Ba3  1  0.33756300  0.13687800  0.12607600  1
  Ba  Ba4  1  0.65751000  0.64780700  0.19940500  1
  Ba  Ba5  1  0.34249000  0.35219300  0.80059500  1
  In  In6  1  0.90563900  0.31076300  0.96962700  1
  In  In7  1  0.09436100  0.68923700  0.03037300  1
  In  In8  1  0.71635100  0.95259300  0.56284800  1
  In  In9  1  0.28364900  0.04740700  0.43715200  1
  In  In10  1  0.13184700  0.87237800  0.71813400  1
  In  In11  1  0.86815300  0.12762200  0.28186600  1
  N  N12  1  0.96732500  0.10883400  0.77476200  1
  N  N13  1  0.03267500  0.89116600  0.22523800  1
  N  N14  1  0.85384300  0.70361500  0.51741300  1
  N  N15  1  0.14615700  0.29638500  0.48258700  1
  N  N16  1  0.76227600  0.53041500  0.90172700  1
  N  N17  1  0.23772400  0.46958500  0.09827300  1
  N  N18  1  0.39778000  0.93774700  0.61998100  1
  N  N19  1  0.60222000  0.06225300  0.38001900  1
  N  N20  1  0.28237800  0.78084900  0.90265000  1
  N  N21  1  0.71762200  0.21915100  0.09735000  1
