# generated using pymatgen
data_Ca4IrN4
_symmetry_space_group_name_H-M   'P 1'
_cell_length_a   11.20569700
_cell_length_b   3.48318200
_cell_length_c   15.83006900
_cell_angle_alpha   90.00000000
_cell_angle_beta   90.00000000
_cell_angle_gamma   90.00000000
_symmetry_Int_Tables_number   1
_chemical_formula_structural   Ca4IrN4
_chemical_formula_sum   'Ca16 Ir4 N16'
_cell_volume   617.87105462
_cell_formula_units_Z   4
loop_
 _symmetry_equiv_pos_site_id
 _symmetry_equiv_pos_as_xyz
  1  'x, y, z'
loop_
 _atom_site_type_symbol
 _atom_site_label
 _atom_site_symmetry_multiplicity
 _atom_site_fract_x
 _atom_site_fract_y
 _atom_site_fract_z
 _atom_site_occupancy
  Ca  Ca0  1  0.08178000  0.25000000  0.15726800  1
  Ca  Ca1  1  0.58178000  0.25000000  0.34273200  1
  Ca  Ca2  1  0.91822000  0.75000000  0.84273200  1
  Ca  Ca3  1  0.41822000  0.75000000  0.65726800  1
  Ca  Ca4  1  0.82943200  0.25000000  0.02604500  1
  Ca  Ca5  1  0.32943200  0.25000000  0.47395500  1
  Ca  Ca6  1  0.17056800  0.75000000  0.97395500  1
  Ca  Ca7  1  0.67056800  0.75000000  0.52604500  1
  Ca  Ca8  1  0.46104500  0.25000000  0.89677100  1
  Ca  Ca9  1  0.96104500  0.25000000  0.60322900  1
  Ca  Ca10  1  0.53895500  0.75000000  0.10322900  1
  Ca  Ca11  1  0.03895500  0.75000000  0.39677100  1
  Ca  Ca12  1  0.20436000  0.25000000  0.76413200  1
  Ca  Ca13  1  0.70436000  0.25000000  0.73586800  1
  Ca  Ca14  1  0.79564000  0.75000000  0.23586800  1
  Ca  Ca15  1  0.29564000  0.75000000  0.26413200  1
  Ir  Ir16  1  0.32112600  0.25000000  0.09818200  1
  Ir  Ir17  1  0.82112600  0.25000000  0.40181800  1
  Ir  Ir18  1  0.67887400  0.75000000  0.90181800  1
  Ir  Ir19  1  0.17887400  0.75000000  0.59818200  1
  N  N20  1  0.69671000  0.25000000  0.13716600  1
  N  N21  1  0.19671000  0.25000000  0.36283400  1
  N  N22  1  0.30329000  0.75000000  0.86283400  1
  N  N23  1  0.80329000  0.75000000  0.63716600  1
  N  N24  1  0.07351600  0.25000000  0.87326900  1
  N  N25  1  0.57351600  0.25000000  0.62673100  1
  N  N26  1  0.92648400  0.75000000  0.12673100  1
  N  N27  1  0.42648400  0.75000000  0.37326900  1
  N  N28  1  0.99691300  0.25000000  0.93271600  1
  N  N29  1  0.49691300  0.25000000  0.56728400  1
  N  N30  1  0.00308700  0.75000000  0.06728400  1
  N  N31  1  0.50308700  0.75000000  0.43271600  1
  N  N32  1  0.63629100  0.25000000  0.20679600  1
  N  N33  1  0.13629100  0.25000000  0.29320400  1
  N  N34  1  0.36370900  0.75000000  0.79320400  1
  N  N35  1  0.86370900  0.75000000  0.70679600  1
