# generated using pymatgen
data_Co(C4N3)2
_symmetry_space_group_name_H-M   'P 1'
_cell_length_a   12.32090764
_cell_length_b   12.93210470
_cell_length_c   5.85384896
_cell_angle_alpha   76.35496781
_cell_angle_beta   97.11171062
_cell_angle_gamma   121.65500559
_symmetry_Int_Tables_number   1
_chemical_formula_structural   Co(C4N3)2
_chemical_formula_sum   'Co3 C24 N18'
_cell_volume   771.54835730
_cell_formula_units_Z   3
loop_
 _symmetry_equiv_pos_site_id
 _symmetry_equiv_pos_as_xyz
  1  'x, y, z'
loop_
 _atom_site_type_symbol
 _atom_site_label
 _atom_site_symmetry_multiplicity
 _atom_site_fract_x
 _atom_site_fract_y
 _atom_site_fract_z
 _atom_site_occupancy
  Co  Co0  1  0.00000000  0.00840900  0.98996200  1
  Co  Co1  1  0.33532700  0.67451800  0.94749700  1
  Co  Co2  1  0.66467300  0.33919000  0.94749700  1
  C  C3  1  0.00000000  0.62716100  0.26443600  1
  C  C4  1  0.66364100  0.99491400  0.18982300  1
  C  C5  1  0.33635900  0.33127300  0.18982300  1
  C  C6  1  0.00000000  0.69427400  0.42277100  1
  C  C7  1  0.77869900  0.00178300  0.16626200  1
  C  C8  1  0.22130100  0.22308500  0.16626200  1
  C  C9  1  0.11318400  0.64947600  0.17986700  1
  C  C10  1  0.55126100  0.88723800  0.14881600  1
  C  C11  1  0.33803800  0.43778800  0.21123700  1
  C  C12  1  0.88681600  0.53629200  0.17986700  1
  C  C13  1  0.66196200  0.09975000  0.21123700  1
  C  C14  1  0.44873900  0.33597800  0.14881600  1
  C  C15  1  0.67255100  0.68266500  0.75663500  1
  C  C16  1  0.00000000  0.35041300  0.72973300  1
  C  C17  1  0.32744900  0.01011400  0.75663500  1
  C  C18  1  0.78550700  0.78411900  0.81680100  1
  C  C19  1  0.00000000  0.24503400  0.70491100  1
  C  C20  1  0.21449300  0.99861200  0.81680100  1
  C  C21  1  0.55946300  0.68101100  0.77628100  1
  C  C22  1  0.11450800  0.45914600  0.76001900  1
  C  C23  1  0.32987100  0.91022900  0.70821500  1
  C  C24  1  0.44053700  0.12154800  0.77628100  1
  C  C25  1  0.67012900  0.58035800  0.70821500  1
  C  C26  1  0.88549200  0.34463800  0.76001900  1
  N  N27  1  0.00000000  0.74997600  0.55455000  1
  N  N28  1  0.87205500  0.00261200  0.14117700  1
  N  N29  1  0.12794500  0.13055600  0.14117700  1
  N  N30  1  0.20339200  0.66158200  0.10351600  1
  N  N31  1  0.46132700  0.79672800  0.10698600  1
  N  N32  1  0.33901000  0.52796100  0.22049100  1
  N  N33  1  0.79660800  0.45818900  0.10351600  1
  N  N34  1  0.66099000  0.18895100  0.22049100  1
  N  N35  1  0.53867300  0.33540000  0.10698600  1
  N  N36  1  0.87320400  0.87126000  0.87486600  1
  N  N37  1  0.00000000  0.15517500  0.69341100  1
  N  N38  1  0.12679600  0.99805600  0.87486600  1
  N  N39  1  0.46843400  0.68515500  0.79583700  1
  N  N40  1  0.20711900  0.55097500  0.79011100  1
  N  N41  1  0.33349900  0.82566500  0.67695600  1
  N  N42  1  0.53156600  0.21672100  0.79583700  1
  N  N43  1  0.66650100  0.49216500  0.67695600  1
  N  N44  1  0.79288100  0.34385600  0.79011100  1
