# generated using pymatgen
data_Rh2(CN2)3
_symmetry_space_group_name_H-M   'P 1'
_cell_length_a   9.02043841
_cell_length_b   3.18320525
_cell_length_c   5.14995702
_cell_angle_alpha   89.99999765
_cell_angle_beta   66.00161215
_cell_angle_gamma   79.83729240
_symmetry_Int_Tables_number   1
_chemical_formula_structural   Rh2(CN2)3
_chemical_formula_sum   'Rh2 C3 N6'
_cell_volume   132.54895789
_cell_formula_units_Z   1
loop_
 _symmetry_equiv_pos_site_id
 _symmetry_equiv_pos_as_xyz
  1  'x, y, z'
loop_
 _atom_site_type_symbol
 _atom_site_label
 _atom_site_symmetry_multiplicity
 _atom_site_fract_x
 _atom_site_fract_y
 _atom_site_fract_z
 _atom_site_occupancy
  Rh  Rh0  1  0.33782600  0.83108700  0.00815700  1
  Rh  Rh1  1  0.66217400  0.16891300  0.99184300  1
  C  C2  1  0.65128400  0.67435900  0.50234700  1
  C  C3  1  0.34871600  0.32564100  0.49765300  1
  C  C4  1  0.00000000  0.00000000  0.50000000  1
  N  N5  1  0.31936100  0.34031900  0.74882400  1
  N  N6  1  0.68063900  0.65968100  0.25117600  1
  N  N7  1  0.39569400  0.30215400  0.22922800  1
  N  N8  1  0.60430600  0.69784600  0.77077200  1
  N  N9  1  0.09679500  0.95160300  0.24686200  1
  N  N10  1  0.90320500  0.04839700  0.75313800  1
