# generated using pymatgen
data_Ca3(IrN2)2
_symmetry_space_group_name_H-M   'P 1'
_cell_length_a   6.05480100
_cell_length_b   9.38029700
_cell_length_c   9.47002600
_cell_angle_alpha   90.00000000
_cell_angle_beta   90.00000000
_cell_angle_gamma   90.00000000
_symmetry_Int_Tables_number   1
_chemical_formula_structural   Ca3(IrN2)2
_chemical_formula_sum   'Ca12 Ir8 N16'
_cell_volume   537.85800247
_cell_formula_units_Z   4
loop_
 _symmetry_equiv_pos_site_id
 _symmetry_equiv_pos_as_xyz
  1  'x, y, z'
loop_
 _atom_site_type_symbol
 _atom_site_label
 _atom_site_symmetry_multiplicity
 _atom_site_fract_x
 _atom_site_fract_y
 _atom_site_fract_z
 _atom_site_occupancy
  Ca  Ca0  1  0.62742800  0.16261500  0.43182700  1
  Ca  Ca1  1  0.87257200  0.83738500  0.43182700  1
  Ca  Ca2  1  0.62742800  0.33738500  0.06817300  1
  Ca  Ca3  1  0.87257200  0.66261500  0.06817300  1
  Ca  Ca4  1  0.37257200  0.83738500  0.56817300  1
  Ca  Ca5  1  0.12742800  0.16261500  0.56817300  1
  Ca  Ca6  1  0.37257200  0.66261500  0.93182700  1
  Ca  Ca7  1  0.12742800  0.33738500  0.93182700  1
  Ca  Ca8  1  0.75000000  0.50000000  0.38765200  1
  Ca  Ca9  1  0.75000000  0.00000000  0.11234800  1
  Ca  Ca10  1  0.25000000  0.50000000  0.61234800  1
  Ca  Ca11  1  0.25000000  0.00000000  0.88765200  1
  Ir  Ir12  1  0.75000000  0.50000000  0.70893300  1
  Ir  Ir13  1  0.75000000  0.00000000  0.79106700  1
  Ir  Ir14  1  0.25000000  0.50000000  0.29106700  1
  Ir  Ir15  1  0.25000000  0.00000000  0.20893300  1
  Ir  Ir16  1  0.56243900  0.25000000  0.75000000  1
  Ir  Ir17  1  0.93756100  0.75000000  0.75000000  1
  Ir  Ir18  1  0.43756100  0.75000000  0.25000000  1
  Ir  Ir19  1  0.06243900  0.25000000  0.25000000  1
  N  N20  1  0.90100700  0.36184900  0.59828300  1
  N  N21  1  0.59899300  0.63815100  0.59828300  1
  N  N22  1  0.90100700  0.13815100  0.90171700  1
  N  N23  1  0.59899300  0.86184900  0.90171700  1
  N  N24  1  0.09899300  0.63815100  0.40171700  1
  N  N25  1  0.40100700  0.36184900  0.40171700  1
  N  N26  1  0.09899300  0.86184900  0.09828300  1
  N  N27  1  0.40100700  0.13815100  0.09828300  1
  N  N28  1  0.49090600  0.43255300  0.84123700  1
  N  N29  1  0.00909400  0.56744700  0.84123700  1
  N  N30  1  0.49090600  0.06744700  0.65876300  1
  N  N31  1  0.00909400  0.93255300  0.65876300  1
  N  N32  1  0.50909400  0.56744700  0.15876300  1
  N  N33  1  0.99090600  0.43255300  0.15876300  1
  N  N34  1  0.50909400  0.93255300  0.34123700  1
  N  N35  1  0.99090600  0.06744700  0.34123700  1
