# generated using pymatgen
data_ZnCuN
_symmetry_space_group_name_H-M   'P 1'
_cell_length_a   3.37225800
_cell_length_b   3.60423608
_cell_length_c   3.74157100
_cell_angle_alpha   90.00000000
_cell_angle_beta   90.00000000
_cell_angle_gamma   117.89279589
_symmetry_Int_Tables_number   1
_chemical_formula_structural   ZnCuN
_chemical_formula_sum   'Zn1 Cu1 N1'
_cell_volume   40.19333380
_cell_formula_units_Z   1
loop_
 _symmetry_equiv_pos_site_id
 _symmetry_equiv_pos_as_xyz
  1  'x, y, z'
loop_
 _atom_site_type_symbol
 _atom_site_label
 _atom_site_symmetry_multiplicity
 _atom_site_fract_x
 _atom_site_fract_y
 _atom_site_fract_z
 _atom_site_occupancy
  Zn  Zn0  1  0.67935600  0.35871400  0.00000000  1
  Cu  Cu1  1  0.98330500  0.96660900  0.50000000  1
  N  N2  1  0.67073900  0.34147700  0.50000000  1
