# generated using pymatgen
data_Sr3(RhN2)2
_symmetry_space_group_name_H-M   'P 1'
_cell_length_a   6.36666100
_cell_length_b   10.32612100
_cell_length_c   9.05849100
_cell_angle_alpha   90.00000000
_cell_angle_beta   90.00000000
_cell_angle_gamma   90.00000000
_symmetry_Int_Tables_number   1
_chemical_formula_structural   Sr3(RhN2)2
_chemical_formula_sum   'Sr12 Rh8 N16'
_cell_volume   595.53157532
_cell_formula_units_Z   4
loop_
 _symmetry_equiv_pos_site_id
 _symmetry_equiv_pos_as_xyz
  1  'x, y, z'
loop_
 _atom_site_type_symbol
 _atom_site_label
 _atom_site_symmetry_multiplicity
 _atom_site_fract_x
 _atom_site_fract_y
 _atom_site_fract_z
 _atom_site_occupancy
  Sr  Sr0  1  0.62232300  0.15495300  0.41878500  1
  Sr  Sr1  1  0.87767700  0.84504700  0.41878500  1
  Sr  Sr2  1  0.62232300  0.34504700  0.08121500  1
  Sr  Sr3  1  0.87767700  0.65495300  0.08121500  1
  Sr  Sr4  1  0.37767700  0.84504700  0.58121500  1
  Sr  Sr5  1  0.12232300  0.15495300  0.58121500  1
  Sr  Sr6  1  0.37767700  0.65495300  0.91878500  1
  Sr  Sr7  1  0.12232300  0.34504700  0.91878500  1
  Sr  Sr8  1  0.75000000  0.50000000  0.40812900  1
  Sr  Sr9  1  0.75000000  0.00000000  0.09187100  1
  Sr  Sr10  1  0.25000000  0.50000000  0.59187100  1
  Sr  Sr11  1  0.25000000  0.00000000  0.90812900  1
  Rh  Rh12  1  0.75000000  0.50000000  0.74571400  1
  Rh  Rh13  1  0.75000000  0.00000000  0.75428600  1
  Rh  Rh14  1  0.25000000  0.50000000  0.25428600  1
  Rh  Rh15  1  0.25000000  0.00000000  0.24571400  1
  Rh  Rh16  1  0.68012300  0.25000000  0.75000000  1
  Rh  Rh17  1  0.81987700  0.75000000  0.75000000  1
  Rh  Rh18  1  0.31987700  0.75000000  0.25000000  1
  Rh  Rh19  1  0.18012300  0.25000000  0.25000000  1
  N  N20  1  0.92076400  0.35672300  0.65730700  1
  N  N21  1  0.57923600  0.64327700  0.65730700  1
  N  N22  1  0.92076400  0.14327700  0.84269300  1
  N  N23  1  0.57923600  0.85672300  0.84269300  1
  N  N24  1  0.07923600  0.64327700  0.34269300  1
  N  N25  1  0.42076400  0.35672300  0.34269300  1
  N  N26  1  0.07923600  0.85672300  0.15730700  1
  N  N27  1  0.42076400  0.14327700  0.15730700  1
  N  N28  1  0.47402100  0.40051500  0.80797200  1
  N  N29  1  0.02597900  0.59948500  0.80797200  1
  N  N30  1  0.47402100  0.09948500  0.69202800  1
  N  N31  1  0.02597900  0.90051500  0.69202800  1
  N  N32  1  0.52597900  0.59948500  0.19202800  1
  N  N33  1  0.97402100  0.40051500  0.19202800  1
  N  N34  1  0.52597900  0.90051500  0.30797200  1
  N  N35  1  0.97402100  0.09948500  0.30797200  1
