# generated using pymatgen
data_Ga3Ge3N5
_symmetry_space_group_name_H-M   'P 1'
_cell_length_a   5.43196166
_cell_length_b   6.80786217
_cell_length_c   9.45090098
_cell_angle_alpha   111.59598335
_cell_angle_beta   95.45990630
_cell_angle_gamma   75.05292556
_symmetry_Int_Tables_number   1
_chemical_formula_structural   Ga3Ge3N5
_chemical_formula_sum   'Ga6 Ge6 N10'
_cell_volume   313.96579386
_cell_formula_units_Z   2
loop_
 _symmetry_equiv_pos_site_id
 _symmetry_equiv_pos_as_xyz
  1  'x, y, z'
loop_
 _atom_site_type_symbol
 _atom_site_label
 _atom_site_symmetry_multiplicity
 _atom_site_fract_x
 _atom_site_fract_y
 _atom_site_fract_z
 _atom_site_occupancy
  Ga  Ga0  1  0.70154600  0.30569700  0.96051100  1
  Ga  Ga1  1  0.29845400  0.69430300  0.03948900  1
  Ga  Ga2  1  0.71586400  0.98887400  0.59545100  1
  Ga  Ga3  1  0.28413600  0.01112600  0.40454900  1
  Ga  Ga4  1  0.18886600  0.87589300  0.72925400  1
  Ga  Ga5  1  0.81113400  0.12410700  0.27074600  1
  Ge  Ge6  1  0.82617200  0.50576100  0.61246200  1
  Ge  Ge7  1  0.17382800  0.49423900  0.38753800  1
  Ge  Ge8  1  0.71793800  0.80115300  0.93154300  1
  Ge  Ge9  1  0.28206200  0.19884700  0.06845700  1
  Ge  Ge10  1  0.85754600  0.69736700  0.25130300  1
  Ge  Ge11  1  0.14245400  0.30263300  0.74869700  1
  N  N12  1  0.89619500  0.15324400  0.77715200  1
  N  N13  1  0.10380500  0.84675600  0.22284800  1
  N  N14  1  0.98118600  0.71619700  0.58067400  1
  N  N15  1  0.01881400  0.28380300  0.41932600  1
  N  N16  1  0.68314600  0.62515800  0.06180900  1
  N  N17  1  0.31685400  0.37484200  0.93819100  1
  N  N18  1  0.35220900  0.01727600  0.62099900  1
  N  N19  1  0.64779100  0.98272400  0.37900100  1
  N  N20  1  0.33934700  0.87212400  0.91876200  1
  N  N21  1  0.66065300  0.12787600  0.08123800  1
