# generated using pymatgen
data_Mg2GaMo3S8
_symmetry_space_group_name_H-M   'P 1'
_cell_length_a   7.42179218
_cell_length_b   7.42536173
_cell_length_c   7.42488335
_cell_angle_alpha   59.91124019
_cell_angle_beta   59.94994916
_cell_angle_gamma   59.89307122
_symmetry_Int_Tables_number   1
_chemical_formula_structural   Mg2GaMo3S8
_chemical_formula_sum   'Mg2 Ga1 Mo3 S8'
_cell_volume   288.79727551
_cell_formula_units_Z   1
loop_
 _symmetry_equiv_pos_site_id
 _symmetry_equiv_pos_as_xyz
  1  'x, y, z'
loop_
 _atom_site_type_symbol
 _atom_site_label
 _atom_site_symmetry_multiplicity
 _atom_site_fract_x
 _atom_site_fract_y
 _atom_site_fract_z
 _atom_site_occupancy
  Mg  Mg0  1  0.87564600  0.87566000  0.87549000  1
  Mg  Mg1  1  0.12435000  0.12434300  0.12452000  1
  Ga  Ga2  1  0.50000500  0.50001500  0.49997600  1
  Mo  Mo3  1  0.50000300  0.49998500  0.00001100  1
  Mo  Mo4  1  0.99999200  0.49999900  0.50001000  1
  Mo  Mo5  1  0.50001300  0.99999400  0.50000100  1
  S  S6  1  0.73955900  0.73969300  0.73952300  1
  S  S7  1  0.26058600  0.26065900  0.71604900  1
  S  S8  1  0.26063200  0.71617900  0.26060200  1
  S  S9  1  0.71611600  0.26066000  0.26055700  1
  S  S10  1  0.73935800  0.28383000  0.73938200  1
  S  S11  1  0.28388600  0.73932800  0.73943500  1
  S  S12  1  0.26043400  0.26030100  0.26049400  1
  S  S13  1  0.73942300  0.73935000  0.28395200  1
