# generated using pymatgen
data_BaMg2N2
_symmetry_space_group_name_H-M   'P 1'
_cell_length_a   6.28794468
_cell_length_b   6.88986694
_cell_length_c   7.95062798
_cell_angle_alpha   89.99999600
_cell_angle_beta   50.78648642
_cell_angle_gamma   56.77946636
_symmetry_Int_Tables_number   1
_chemical_formula_structural   BaMg2N2
_chemical_formula_sum   'Ba2 Mg4 N4'
_cell_volume   188.70919412
_cell_formula_units_Z   2
loop_
 _symmetry_equiv_pos_site_id
 _symmetry_equiv_pos_as_xyz
  1  'x, y, z'
loop_
 _atom_site_type_symbol
 _atom_site_label
 _atom_site_symmetry_multiplicity
 _atom_site_fract_x
 _atom_site_fract_y
 _atom_site_fract_z
 _atom_site_occupancy
  Ba  Ba0  1  0.00000000  0.00000000  0.25000000  1
  Ba  Ba1  1  0.00000000  0.00000000  0.75000000  1
  Mg  Mg2  1  0.74174200  0.50000000  0.62912900  1
  Mg  Mg3  1  0.25825800  0.50000000  0.37087100  1
  Mg  Mg4  1  0.25825800  0.24174200  0.87087100  1
  Mg  Mg5  1  0.74174200  0.75825800  0.12912900  1
  N  N6  1  0.66558700  0.50000000  0.16720700  1
  N  N7  1  0.33441300  0.50000000  0.83279300  1
  N  N8  1  0.33441300  0.16558700  0.33279300  1
  N  N9  1  0.66558700  0.83441300  0.66720700  1
