# generated using pymatgen
data_Mg2InMo3S8
_symmetry_space_group_name_H-M   'P 1'
_cell_length_a   7.52564628
_cell_length_b   7.52497693
_cell_length_c   7.52508636
_cell_angle_alpha   59.61725458
_cell_angle_beta   59.59892577
_cell_angle_gamma   59.55381781
_symmetry_Int_Tables_number   1
_chemical_formula_structural   Mg2InMo3S8
_chemical_formula_sum   'Mg2 In1 Mo3 S8'
_cell_volume   298.52371340
_cell_formula_units_Z   1
loop_
 _symmetry_equiv_pos_site_id
 _symmetry_equiv_pos_as_xyz
  1  'x, y, z'
loop_
 _atom_site_type_symbol
 _atom_site_label
 _atom_site_symmetry_multiplicity
 _atom_site_fract_x
 _atom_site_fract_y
 _atom_site_fract_z
 _atom_site_occupancy
  Mg  Mg0  1  0.87522100  0.87515500  0.87525600  1
  Mg  Mg1  1  0.12478900  0.12475000  0.12482300  1
  In  In2  1  0.49997700  0.50004100  0.50001800  1
  Mo  Mo3  1  0.50006700  0.49984900  0.00015200  1
  Mo  Mo4  1  0.00009000  0.49991200  0.50000900  1
  Mo  Mo5  1  0.49998200  0.99988600  0.49996100  1
  S  S6  1  0.73883300  0.73870000  0.73892500  1
  S  S7  1  0.25293200  0.25312200  0.72096100  1
  S  S8  1  0.25284100  0.72100900  0.25296100  1
  S  S9  1  0.72093200  0.25291000  0.25305200  1
  S  S10  1  0.74726400  0.27907300  0.74693000  1
  S  S11  1  0.27883600  0.74725400  0.74695800  1
  S  S12  1  0.26115700  0.26122200  0.26120200  1
  S  S13  1  0.74708200  0.74711100  0.27879300  1
