# generated using pymatgen
data_Zn(PbN)2
_symmetry_space_group_name_H-M   'P 1'
_cell_length_a   3.64673137
_cell_length_b   6.60781603
_cell_length_c   11.48220362
_cell_angle_alpha   90.00000000
_cell_angle_beta   90.00000000
_cell_angle_gamma   90.00000000
_symmetry_Int_Tables_number   1
_chemical_formula_structural   Zn(PbN)2
_chemical_formula_sum   'Zn2 Pb4 N4'
_cell_volume   276.68585692
_cell_formula_units_Z   2
loop_
 _symmetry_equiv_pos_site_id
 _symmetry_equiv_pos_as_xyz
  1  'x, y, z'
loop_
 _atom_site_type_symbol
 _atom_site_label
 _atom_site_symmetry_multiplicity
 _atom_site_fract_x
 _atom_site_fract_y
 _atom_site_fract_z
 _atom_site_occupancy
  Zn  Zn0  1  0.75000000  0.38190956  0.75000000  1
  Zn  Zn1  1  0.25000000  0.61809044  0.25000000  1
  Pb  Pb2  1  0.75000000  0.73131038  0.98640502  1
  Pb  Pb3  1  0.75000000  0.73131038  0.51359498  1
  Pb  Pb4  1  0.25000000  0.26868962  0.01359498  1
  Pb  Pb5  1  0.25000000  0.26868962  0.48640502  1
  N  N6  1  0.75000000  0.39716145  0.59064436  1
  N  N7  1  0.75000000  0.39716145  0.90935564  1
  N  N8  1  0.25000000  0.60283855  0.40935564  1
  N  N9  1  0.25000000  0.60283855  0.09064436  1
