# generated using pymatgen
data_Rb6WN4
_symmetry_space_group_name_H-M   'P 1'
_cell_length_a   8.55652900
_cell_length_b   8.55652900
_cell_length_c   7.21645700
_cell_angle_alpha   90.00000000
_cell_angle_beta   90.00000000
_cell_angle_gamma   90.00000000
_symmetry_Int_Tables_number   1
_chemical_formula_structural   Rb6WN4
_chemical_formula_sum   'Rb12 W2 N8'
_cell_volume   528.34704330
_cell_formula_units_Z   2
loop_
 _symmetry_equiv_pos_site_id
 _symmetry_equiv_pos_as_xyz
  1  'x, y, z'
loop_
 _atom_site_type_symbol
 _atom_site_label
 _atom_site_symmetry_multiplicity
 _atom_site_fract_x
 _atom_site_fract_y
 _atom_site_fract_z
 _atom_site_occupancy
  Rb  Rb0  1  0.00000000  0.50000000  0.70308800  1
  Rb  Rb1  1  0.50000000  0.00000000  0.79691200  1
  Rb  Rb2  1  0.50000000  0.00000000  0.29691200  1
  Rb  Rb3  1  0.00000000  0.50000000  0.20308800  1
  Rb  Rb4  1  0.20425500  0.20425500  0.50000000  1
  Rb  Rb5  1  0.79574500  0.79574500  0.50000000  1
  Rb  Rb6  1  0.70425500  0.70425500  0.00000000  1
  Rb  Rb7  1  0.29574500  0.29574500  0.00000000  1
  Rb  Rb8  1  0.79574500  0.20425500  0.50000000  1
  Rb  Rb9  1  0.20425500  0.79574500  0.50000000  1
  Rb  Rb10  1  0.29574500  0.70425500  0.00000000  1
  Rb  Rb11  1  0.70425500  0.29574500  0.00000000  1
  W  W12  1  0.50000000  0.50000000  0.50000000  1
  W  W13  1  0.00000000  0.00000000  0.00000000  1
  N  N14  1  0.31067500  0.50000000  0.35535800  1
  N  N15  1  0.68932500  0.50000000  0.35535800  1
  N  N16  1  0.81067500  0.00000000  0.14464200  1
  N  N17  1  0.18932500  0.00000000  0.14464200  1
  N  N18  1  0.50000000  0.31067500  0.64464200  1
  N  N19  1  0.50000000  0.68932500  0.64464200  1
  N  N20  1  0.00000000  0.81067500  0.85535800  1
  N  N21  1  0.00000000  0.18932500  0.85535800  1
