# generated using pymatgen
data_CsGe2N3
_symmetry_space_group_name_H-M   'P 1'
_cell_length_a   5.99357187
_cell_length_b   6.18117742
_cell_length_c   5.48383600
_cell_angle_alpha   90.00000000
_cell_angle_beta   90.00000000
_cell_angle_gamma   121.04094713
_symmetry_Int_Tables_number   1
_chemical_formula_structural   CsGe2N3
_chemical_formula_sum   'Cs2 Ge4 N6'
_cell_volume   174.06856030
_cell_formula_units_Z   2
loop_
 _symmetry_equiv_pos_site_id
 _symmetry_equiv_pos_as_xyz
  1  'x, y, z'
loop_
 _atom_site_type_symbol
 _atom_site_label
 _atom_site_symmetry_multiplicity
 _atom_site_fract_x
 _atom_site_fract_y
 _atom_site_fract_z
 _atom_site_occupancy
  Cs  Cs0  1  0.00000000  0.65298100  0.48606500  1
  Cs  Cs1  1  0.00000000  0.34701900  0.98606500  1
  Ge  Ge2  1  0.34831700  0.31129200  0.49045300  1
  Ge  Ge3  1  0.65168300  0.96297500  0.49045300  1
  Ge  Ge4  1  0.65168300  0.68870800  0.99045300  1
  Ge  Ge5  1  0.34831700  0.03702500  0.99045300  1
  N  N6  1  0.48639200  0.35927600  0.82077000  1
  N  N7  1  0.51360800  0.87288300  0.82077000  1
  N  N8  1  0.51360800  0.64072400  0.32077000  1
  N  N9  1  0.48639200  0.12711700  0.32077000  1
  N  N10  1  0.00000000  0.83500200  0.97949000  1
  N  N11  1  0.00000000  0.16499800  0.47949000  1
