# generated using pymatgen
data_Dy3Mg2TiS8
_symmetry_space_group_name_H-M   'P 1'
_cell_length_a   7.82014467
_cell_length_b   7.71035879
_cell_length_c   7.81852712
_cell_angle_alpha   59.53164093
_cell_angle_beta   60.02442035
_cell_angle_gamma   59.51742674
_symmetry_Int_Tables_number   1
_chemical_formula_structural   Dy3Mg2TiS8
_chemical_formula_sum   'Dy3 Mg2 Ti1 S8'
_cell_volume   330.99346475
_cell_formula_units_Z   1
loop_
 _symmetry_equiv_pos_site_id
 _symmetry_equiv_pos_as_xyz
  1  'x, y, z'
loop_
 _atom_site_type_symbol
 _atom_site_label
 _atom_site_symmetry_multiplicity
 _atom_site_fract_x
 _atom_site_fract_y
 _atom_site_fract_z
 _atom_site_occupancy
  Dy  Dy0  1  0.50000200  0.50001400  0.49998400  1
  Dy  Dy1  1  0.50000100  0.49999300  0.99999900  1
  Dy  Dy2  1  0.00000000  0.49999300  0.50001000  1
  Mg  Mg3  1  0.87543600  0.87358800  0.87551100  1
  Mg  Mg4  1  0.12456900  0.12641000  0.12449500  1
  Ti  Ti5  1  0.49999300  0.99999900  0.50000600  1
  S  S6  1  0.73308600  0.76556900  0.73314600  1
  S  S7  1  0.26695900  0.23442800  0.73183100  1
  S  S8  1  0.25438200  0.73656800  0.25444900  1
  S  S9  1  0.73188000  0.23437900  0.26692100  1
  S  S10  1  0.74560600  0.26343300  0.74553700  1
  S  S11  1  0.26812200  0.76562100  0.73307400  1
  S  S12  1  0.26691200  0.23442200  0.26686800  1
  S  S13  1  0.73305600  0.76557800  0.26817000  1
