# generated using pymatgen
data_Ca3Sc2N4
_symmetry_space_group_name_H-M   'P 1'
_cell_length_a   5.88687500
_cell_length_b   11.28470700
_cell_length_c   9.33264500
_cell_angle_alpha   90.00000000
_cell_angle_beta   90.00000000
_cell_angle_gamma   90.00000000
_symmetry_Int_Tables_number   1
_chemical_formula_structural   Ca3Sc2N4
_chemical_formula_sum   'Ca12 Sc8 N16'
_cell_volume   619.98309507
_cell_formula_units_Z   4
loop_
 _symmetry_equiv_pos_site_id
 _symmetry_equiv_pos_as_xyz
  1  'x, y, z'
loop_
 _atom_site_type_symbol
 _atom_site_label
 _atom_site_symmetry_multiplicity
 _atom_site_fract_x
 _atom_site_fract_y
 _atom_site_fract_z
 _atom_site_occupancy
  Ca  Ca0  1  0.64602300  0.16769300  0.40095100  1
  Ca  Ca1  1  0.85397700  0.83230700  0.40095100  1
  Ca  Ca2  1  0.64602300  0.33230700  0.09904900  1
  Ca  Ca3  1  0.85397700  0.66769300  0.09904900  1
  Ca  Ca4  1  0.35397700  0.83230700  0.59904900  1
  Ca  Ca5  1  0.14602300  0.16769300  0.59904900  1
  Ca  Ca6  1  0.35397700  0.66769300  0.90095100  1
  Ca  Ca7  1  0.14602300  0.33230700  0.90095100  1
  Ca  Ca8  1  0.75000000  0.50000000  0.42500600  1
  Ca  Ca9  1  0.75000000  0.00000000  0.07499400  1
  Ca  Ca10  1  0.25000000  0.50000000  0.57499400  1
  Ca  Ca11  1  0.25000000  0.00000000  0.92500600  1
  Sc  Sc12  1  0.75000000  0.50000000  0.77279100  1
  Sc  Sc13  1  0.75000000  0.00000000  0.72720900  1
  Sc  Sc14  1  0.25000000  0.50000000  0.22720900  1
  Sc  Sc15  1  0.25000000  0.00000000  0.27279100  1
  Sc  Sc16  1  0.69385300  0.25000000  0.75000000  1
  Sc  Sc17  1  0.80614700  0.75000000  0.75000000  1
  Sc  Sc18  1  0.30614700  0.75000000  0.25000000  1
  Sc  Sc19  1  0.19385300  0.25000000  0.25000000  1
  N  N20  1  0.93325300  0.37339800  0.65072600  1
  N  N21  1  0.56674700  0.62660200  0.65072600  1
  N  N22  1  0.93325300  0.12660200  0.84927400  1
  N  N23  1  0.56674700  0.87339800  0.84927400  1
  N  N24  1  0.06674700  0.62660200  0.34927400  1
  N  N25  1  0.43325300  0.37339800  0.34927400  1
  N  N26  1  0.06674700  0.87339800  0.15072600  1
  N  N27  1  0.43325300  0.12660200  0.15072600  1
  N  N28  1  0.52489900  0.37787600  0.86620000  1
  N  N29  1  0.97510100  0.62212400  0.86620000  1
  N  N30  1  0.52489900  0.12212400  0.63380000  1
  N  N31  1  0.97510100  0.87787600  0.63380000  1
  N  N32  1  0.47510100  0.62212400  0.13380000  1
  N  N33  1  0.02489900  0.37787600  0.13380000  1
  N  N34  1  0.47510100  0.87787600  0.36620000  1
  N  N35  1  0.02489900  0.12212400  0.36620000  1
