# generated using pymatgen
data_Ca3(MoN2)2
_symmetry_space_group_name_H-M   'P 1'
_cell_length_a   7.04236519
_cell_length_b   8.55334875
_cell_length_c   5.50287938
_cell_angle_alpha   90.00000169
_cell_angle_beta   90.58006323
_cell_angle_gamma   127.39295568
_symmetry_Int_Tables_number   1
_chemical_formula_structural   Ca3(MoN2)2
_chemical_formula_sum   'Ca6 Mo4 N8'
_cell_volume   263.32827869
_cell_formula_units_Z   2
loop_
 _symmetry_equiv_pos_site_id
 _symmetry_equiv_pos_as_xyz
  1  'x, y, z'
loop_
 _atom_site_type_symbol
 _atom_site_label
 _atom_site_symmetry_multiplicity
 _atom_site_fract_x
 _atom_site_fract_y
 _atom_site_fract_z
 _atom_site_occupancy
  Ca  Ca0  1  0.22641200  0.97946300  0.02966800  1
  Ca  Ca1  1  0.77358800  0.75305100  0.47033200  1
  Ca  Ca2  1  0.77358800  0.02053700  0.97033200  1
  Ca  Ca3  1  0.22641200  0.24694900  0.52966800  1
  Ca  Ca4  1  0.00000000  0.60325700  0.75000000  1
  Ca  Ca5  1  0.00000000  0.39674300  0.25000000  1
  Mo  Mo6  1  0.59303500  0.17494600  0.58794100  1
  Mo  Mo7  1  0.40696500  0.58191100  0.91205900  1
  Mo  Mo8  1  0.40696500  0.82505400  0.41205900  1
  Mo  Mo9  1  0.59303500  0.41808900  0.08794100  1
  N  N10  1  0.23562100  0.94658300  0.52141800  1
  N  N11  1  0.76437900  0.71096200  0.97858200  1
  N  N12  1  0.76437900  0.05341700  0.47858200  1
  N  N13  1  0.23562100  0.28903800  0.02141800  1
  N  N14  1  0.69360600  0.26495000  0.92643300  1
  N  N15  1  0.30639400  0.57134400  0.57356700  1
  N  N16  1  0.30639400  0.73505000  0.07356700  1
  N  N17  1  0.69360600  0.42865600  0.42643300  1
