# generated using pymatgen
data_DyMgMoS4
_symmetry_space_group_name_H-M   'P 1'
_cell_length_a   7.70563270
_cell_length_b   7.64605717
_cell_length_c   7.64611955
_cell_angle_alpha   59.98179032
_cell_angle_beta   59.74132955
_cell_angle_gamma   59.74257670
_symmetry_Int_Tables_number   1
_chemical_formula_structural   DyMgMoS4
_chemical_formula_sum   'Dy2 Mg2 Mo2 S8'
_cell_volume   317.25438145
_cell_formula_units_Z   2
loop_
 _symmetry_equiv_pos_site_id
 _symmetry_equiv_pos_as_xyz
  1  'x, y, z'
loop_
 _atom_site_type_symbol
 _atom_site_label
 _atom_site_symmetry_multiplicity
 _atom_site_fract_x
 _atom_site_fract_y
 _atom_site_fract_z
 _atom_site_occupancy
  Dy  Dy0  1  0.50000200  0.50001800  0.49997900  1
  Dy  Dy1  1  0.99999700  0.49999100  0.50001600  1
  Mg  Mg2  1  0.87323200  0.87677000  0.87676900  1
  Mg  Mg3  1  0.12677200  0.12323200  0.12322900  1
  Mo  Mo4  1  0.50000200  0.49999400  0.00000000  1
  Mo  Mo5  1  0.50000000  0.99999800  0.50000500  1
  S  S6  1  0.71829900  0.75346500  0.75346300  1
  S  S7  1  0.26532400  0.23713000  0.73222800  1
  S  S8  1  0.26532100  0.73223000  0.23712300  1
  S  S9  1  0.72522600  0.24653700  0.24653200  1
  S  S10  1  0.73466100  0.26776900  0.76287200  1
  S  S11  1  0.27477600  0.75345600  0.75346900  1
  S  S12  1  0.28169800  0.24652700  0.24654700  1
  S  S13  1  0.73469400  0.76287900  0.26776900  1
