# generated using pymatgen
data_Zr5(GeN3)3
_symmetry_space_group_name_H-M   'P 1'
_cell_length_a   6.87196072
_cell_length_b   10.31406789
_cell_length_c   20.77508300
_cell_angle_alpha   90.00000000
_cell_angle_beta   90.00000000
_cell_angle_gamma   138.62899878
_symmetry_Int_Tables_number   1
_chemical_formula_structural   Zr5(GeN3)3
_chemical_formula_sum   'Zr20 Ge12 N36'
_cell_volume   973.21834663
_cell_formula_units_Z   4
loop_
 _symmetry_equiv_pos_site_id
 _symmetry_equiv_pos_as_xyz
  1  'x, y, z'
loop_
 _atom_site_type_symbol
 _atom_site_label
 _atom_site_symmetry_multiplicity
 _atom_site_fract_x
 _atom_site_fract_y
 _atom_site_fract_z
 _atom_site_occupancy
  Zr  Zr0  1  0.00000000  0.43275400  0.84420400  1
  Zr  Zr1  1  0.00000000  0.56724600  0.15579600  1
  Zr  Zr2  1  0.00000000  0.06724600  0.34420400  1
  Zr  Zr3  1  0.00000000  0.93275400  0.65579600  1
  Zr  Zr4  1  0.36005000  0.91646700  0.89605400  1
  Zr  Zr5  1  0.36005000  0.44358300  0.10394600  1
  Zr  Zr6  1  0.36005000  0.94358300  0.39605400  1
  Zr  Zr7  1  0.36005000  0.41646700  0.60394600  1
  Zr  Zr8  1  0.63995000  0.08353300  0.10394600  1
  Zr  Zr9  1  0.63995000  0.55641700  0.89605400  1
  Zr  Zr10  1  0.63995000  0.05641700  0.60394600  1
  Zr  Zr11  1  0.63995000  0.58353300  0.39605400  1
  Zr  Zr12  1  0.00000000  0.54900600  0.63560200  1
  Zr  Zr13  1  0.00000000  0.45099400  0.36439800  1
  Zr  Zr14  1  0.00000000  0.95099400  0.13560200  1
  Zr  Zr15  1  0.00000000  0.04900600  0.86439800  1
  Zr  Zr16  1  0.57809400  0.28904700  0.00000000  1
  Zr  Zr17  1  0.57809400  0.78904700  0.50000000  1
  Zr  Zr18  1  0.42190600  0.71095300  0.00000000  1
  Zr  Zr19  1  0.42190600  0.21095300  0.50000000  1
  Ge  Ge20  1  0.00000000  0.74145600  0.04262000  1
  Ge  Ge21  1  0.00000000  0.25854400  0.95738000  1
  Ge  Ge22  1  0.00000000  0.75854400  0.54262000  1
  Ge  Ge23  1  0.00000000  0.24145600  0.45738000  1
  Ge  Ge24  1  0.00000000  0.22019100  0.72175800  1
  Ge  Ge25  1  0.00000000  0.77980900  0.27824200  1
  Ge  Ge26  1  0.00000000  0.27980900  0.22175800  1
  Ge  Ge27  1  0.00000000  0.72019100  0.77824200  1
  Ge  Ge28  1  0.50000000  0.75352100  0.75000000  1
  Ge  Ge29  1  0.50000000  0.74647900  0.25000000  1
  Ge  Ge30  1  0.50000000  0.24647900  0.25000000  1
  Ge  Ge31  1  0.50000000  0.25352100  0.75000000  1
  N  N32  1  0.00000000  0.34867500  0.65295400  1
  N  N33  1  0.00000000  0.65132500  0.34704600  1
  N  N34  1  0.00000000  0.15132500  0.15295400  1
  N  N35  1  0.00000000  0.84867500  0.84704600  1
  N  N36  1  0.00000000  0.23558800  0.80983800  1
  N  N37  1  0.00000000  0.76441300  0.19016200  1
  N  N38  1  0.00000000  0.26441200  0.30983800  1
  N  N39  1  0.00000000  0.73558700  0.69016200  1
  N  N40  1  0.68954500  0.45887900  0.81389900  1
  N  N41  1  0.68954500  0.23066600  0.18610100  1
  N  N42  1  0.68954500  0.73066600  0.31389900  1
  N  N43  1  0.68954500  0.95887900  0.68610100  1
  N  N44  1  0.31045500  0.54112100  0.18610100  1
  N  N45  1  0.31045500  0.76933400  0.81389900  1
  N  N46  1  0.31045500  0.26933400  0.68610100  1
  N  N47  1  0.31045500  0.04112100  0.31389900  1
  N  N48  1  0.68603000  0.22518100  0.91588800  1
  N  N49  1  0.68603000  0.46085000  0.08411200  1
  N  N50  1  0.68603000  0.96085000  0.41588800  1
  N  N51  1  0.68603000  0.72518100  0.58411200  1
  N  N52  1  0.31397000  0.77481900  0.08411200  1
  N  N53  1  0.31397000  0.53915000  0.91588800  1
  N  N54  1  0.31397000  0.03915000  0.58411200  1
  N  N55  1  0.31397000  0.27481900  0.41588800  1
  N  N56  1  0.30193300  0.03443000  0.05875600  1
  N  N57  1  0.30193300  0.26750300  0.94124400  1
  N  N58  1  0.30193300  0.76750300  0.55875600  1
  N  N59  1  0.30193300  0.53443000  0.44124400  1
  N  N60  1  0.69806700  0.96557000  0.94124400  1
  N  N61  1  0.69806700  0.73249700  0.05875600  1
  N  N62  1  0.69806700  0.23249700  0.44124400  1
  N  N63  1  0.69806700  0.46557000  0.55875600  1
  N  N64  1  0.00000000  0.66341800  0.95995100  1
  N  N65  1  0.00000000  0.33658200  0.04004900  1
  N  N66  1  0.00000000  0.83658200  0.45995100  1
  N  N67  1  0.00000000  0.16341800  0.54004900  1
