# generated using pymatgen
data_Y3Pb3N5
_symmetry_space_group_name_H-M   'P 1'
_cell_length_a   6.44214963
_cell_length_b   7.00381322
_cell_length_c   10.33679044
_cell_angle_alpha   106.92347983
_cell_angle_beta   91.14886512
_cell_angle_gamma   88.07961868
_symmetry_Int_Tables_number   1
_chemical_formula_structural   Y3Pb3N5
_chemical_formula_sum   'Y6 Pb6 N10'
_cell_volume   445.91813149
_cell_formula_units_Z   2
loop_
 _symmetry_equiv_pos_site_id
 _symmetry_equiv_pos_as_xyz
  1  'x, y, z'
loop_
 _atom_site_type_symbol
 _atom_site_label
 _atom_site_symmetry_multiplicity
 _atom_site_fract_x
 _atom_site_fract_y
 _atom_site_fract_z
 _atom_site_occupancy
  Y  Y0  1  0.81850900  0.33841300  0.92551800  1
  Y  Y1  1  0.18149100  0.66158700  0.07448200  1
  Y  Y2  1  0.72571000  0.96032400  0.57409800  1
  Y  Y3  1  0.27429000  0.03967600  0.42590200  1
  Y  Y4  1  0.16056600  0.95007600  0.77023300  1
  Y  Y5  1  0.83943400  0.04992400  0.22976700  1
  Pb  Pb6  1  0.78301400  0.42698400  0.55874500  1
  Pb  Pb7  1  0.21698600  0.57301600  0.44125500  1
  Pb  Pb8  1  0.65185700  0.81824600  0.89694100  1
  Pb  Pb9  1  0.34814300  0.18175400  0.10305900  1
  Pb  Pb10  1  0.74830000  0.62958000  0.26235000  1
  Pb  Pb11  1  0.25170000  0.37042000  0.73765000  1
  N  N12  1  0.91771800  0.20894400  0.70320100  1
  N  N13  1  0.08228200  0.79105600  0.29679900  1
  N  N14  1  0.96741400  0.72188200  0.60804200  1
  N  N15  1  0.03258600  0.27811800  0.39195800  1
  N  N16  1  0.82370800  0.67413500  0.05015400  1
  N  N17  1  0.17629200  0.32586500  0.94984600  1
  N  N18  1  0.39065800  0.03895000  0.64328300  1
  N  N19  1  0.60934200  0.96105000  0.35671700  1
  N  N20  1  0.29487200  0.86279900  0.95914200  1
  N  N21  1  0.70512800  0.13720100  0.04085800  1
