# generated using pymatgen
data_CrNi2N3
_symmetry_space_group_name_H-M   'P 1'
_cell_length_a   5.03396006
_cell_length_b   5.09140854
_cell_length_c   5.31227500
_cell_angle_alpha   90.00000000
_cell_angle_beta   90.00000000
_cell_angle_gamma   120.37823794
_symmetry_Int_Tables_number   1
_chemical_formula_structural   CrNi2N3
_chemical_formula_sum   'Cr2 Ni4 N6'
_cell_volume   117.46026692
_cell_formula_units_Z   2
loop_
 _symmetry_equiv_pos_site_id
 _symmetry_equiv_pos_as_xyz
  1  'x, y, z'
loop_
 _atom_site_type_symbol
 _atom_site_label
 _atom_site_symmetry_multiplicity
 _atom_site_fract_x
 _atom_site_fract_y
 _atom_site_fract_z
 _atom_site_occupancy
  Cr  Cr0  1  0.00000000  0.66499000  0.45481600  1
  Cr  Cr1  1  0.00000000  0.33501000  0.95481600  1
  Ni  Ni2  1  0.29518500  0.33179100  0.52480600  1
  Ni  Ni3  1  0.70481500  0.03660700  0.52480600  1
  Ni  Ni4  1  0.70481500  0.66820900  0.02480600  1
  Ni  Ni5  1  0.29518500  0.96339300  0.02480600  1
  N  N6  1  0.34251100  0.32934500  0.88167100  1
  N  N7  1  0.65748900  0.98683400  0.88167100  1
  N  N8  1  0.65748900  0.67065500  0.38167100  1
  N  N9  1  0.34251100  0.01316600  0.38167100  1
  N  N10  1  0.00000000  0.66094400  0.80423200  1
  N  N11  1  0.00000000  0.33905600  0.30423200  1
