# generated using pymatgen
data_Sr3(SbN2)2
_symmetry_space_group_name_H-M   'P 1'
_cell_length_a   7.04786600
_cell_length_b   11.08142000
_cell_length_c   10.25051000
_cell_angle_alpha   90.00000000
_cell_angle_beta   90.00000000
_cell_angle_gamma   90.00000000
_symmetry_Int_Tables_number   1
_chemical_formula_structural   Sr3(SbN2)2
_chemical_formula_sum   'Sr12 Sb8 N16'
_cell_volume   800.56855449
_cell_formula_units_Z   4
loop_
 _symmetry_equiv_pos_site_id
 _symmetry_equiv_pos_as_xyz
  1  'x, y, z'
loop_
 _atom_site_type_symbol
 _atom_site_label
 _atom_site_symmetry_multiplicity
 _atom_site_fract_x
 _atom_site_fract_y
 _atom_site_fract_z
 _atom_site_occupancy
  Sr  Sr0  1  0.48124800  0.19278000  0.41398500  1
  Sr  Sr1  1  0.01875200  0.80722000  0.41398500  1
  Sr  Sr2  1  0.48124800  0.30722000  0.08601500  1
  Sr  Sr3  1  0.01875200  0.69278000  0.08601500  1
  Sr  Sr4  1  0.51875200  0.80722000  0.58601500  1
  Sr  Sr5  1  0.98124800  0.19278000  0.58601500  1
  Sr  Sr6  1  0.51875200  0.69278000  0.91398500  1
  Sr  Sr7  1  0.98124800  0.30722000  0.91398500  1
  Sr  Sr8  1  0.75000000  0.50000000  0.43004800  1
  Sr  Sr9  1  0.75000000  0.00000000  0.06995200  1
  Sr  Sr10  1  0.25000000  0.50000000  0.56995200  1
  Sr  Sr11  1  0.25000000  0.00000000  0.93004800  1
  Sb  Sb12  1  0.75000000  0.50000000  0.74418600  1
  Sb  Sb13  1  0.75000000  0.00000000  0.75581400  1
  Sb  Sb14  1  0.25000000  0.50000000  0.25581400  1
  Sb  Sb15  1  0.25000000  0.00000000  0.24418600  1
  Sb  Sb16  1  0.46089600  0.25000000  0.75000000  1
  Sb  Sb17  1  0.03910400  0.75000000  0.75000000  1
  Sb  Sb18  1  0.53910400  0.75000000  0.25000000  1
  Sb  Sb19  1  0.96089600  0.25000000  0.25000000  1
  N  N20  1  0.94222700  0.40568700  0.64566100  1
  N  N21  1  0.55777300  0.59431300  0.64566100  1
  N  N22  1  0.94222700  0.09431300  0.85433900  1
  N  N23  1  0.55777300  0.90568700  0.85433900  1
  N  N24  1  0.05777300  0.59431300  0.35433900  1
  N  N25  1  0.44222700  0.40568700  0.35433900  1
  N  N26  1  0.05777300  0.90568700  0.14566100  1
  N  N27  1  0.44222700  0.09431300  0.14566100  1
  N  N28  1  0.62686500  0.37266500  0.86752800  1
  N  N29  1  0.87313500  0.62733500  0.86752800  1
  N  N30  1  0.62686500  0.12733500  0.63247200  1
  N  N31  1  0.87313500  0.87266500  0.63247200  1
  N  N32  1  0.37313500  0.62733500  0.13247200  1
  N  N33  1  0.12686500  0.37266500  0.13247200  1
  N  N34  1  0.37313500  0.87266500  0.36752800  1
  N  N35  1  0.12686500  0.12733500  0.36752800  1
