# generated using pymatgen
data_U2S
_symmetry_space_group_name_H-M   'P 1'
_cell_length_a   6.16533000
_cell_length_b   6.89598505
_cell_length_c   8.46214748
_cell_angle_alpha   70.65328244
_cell_angle_beta   74.23759782
_cell_angle_gamma   73.80277294
_symmetry_Int_Tables_number   1
_chemical_formula_structural   U2S
_chemical_formula_sum   'U4 S2'
_cell_volume   319.54462498
_cell_formula_units_Z   2
loop_
 _symmetry_equiv_pos_site_id
 _symmetry_equiv_pos_as_xyz
  1  'x, y, z'
loop_
 _atom_site_type_symbol
 _atom_site_label
 _atom_site_symmetry_multiplicity
 _atom_site_fract_x
 _atom_site_fract_y
 _atom_site_fract_z
 _atom_site_occupancy
  U  U0  1  0.85582500  0.91340400  0.99449500  1
  U  U1  1  0.85192100  0.40725400  0.01109200  1
  U  U2  1  0.14807900  0.59274600  0.98890800  1
  U  U3  1  0.14417500  0.08659600  0.00550500  1
  S  S4  1  0.50317300  0.25453500  0.98681000  1
  S  S5  1  0.49682700  0.74546500  0.01319000  1
