# generated using pymatgen
data_Mg2AlMo3S8
_symmetry_space_group_name_H-M   'P 1'
_cell_length_a   7.37095795
_cell_length_b   7.37097937
_cell_length_c   7.37110518
_cell_angle_alpha   60.45649986
_cell_angle_beta   60.45570547
_cell_angle_gamma   60.45799079
_symmetry_Int_Tables_number   1
_chemical_formula_structural   Mg2AlMo3S8
_chemical_formula_sum   'Mg2 Al1 Mo3 S8'
_cell_volume   286.10657769
_cell_formula_units_Z   1
loop_
 _symmetry_equiv_pos_site_id
 _symmetry_equiv_pos_as_xyz
  1  'x, y, z'
loop_
 _atom_site_type_symbol
 _atom_site_label
 _atom_site_symmetry_multiplicity
 _atom_site_fract_x
 _atom_site_fract_y
 _atom_site_fract_z
 _atom_site_occupancy
  Mg  Mg0  1  0.87596933  0.87596357  0.87599240  1
  Mg  Mg1  1  0.12403441  0.12404138  0.12400818  1
  Al  Al2  1  0.50000654  0.50001318  0.49997461  1
  Mo  Mo3  1  0.49999704  0.49999493  0.99999916  1
  Mo  Mo4  1  -0.00000007  0.49999204  0.50001254  1
  Mo  Mo5  1  0.49999788  0.99999676  0.50000768  1
  S  S6  1  0.73924697  0.73923367  0.73928535  1
  S  S7  1  0.26570205  0.26568877  0.71465479  1
  S  S8  1  0.26566035  0.71466829  0.26567813  1
  S  S9  1  0.71466314  0.26566294  0.26569137  1
  S  S10  1  0.73433197  0.28533423  0.73431449  1
  S  S11  1  0.28534048  0.73433176  0.73430362  1
  S  S12  1  0.26074620  0.26076119  0.26073042  1
  S  S13  1  0.73430771  0.73431228  0.28534826  1
