# generated using pymatgen
data_Sr3(RuN2)2
_symmetry_space_group_name_H-M   'P 1'
_cell_length_a   7.27355484
_cell_length_b   8.99379695
_cell_length_c   5.64860678
_cell_angle_alpha   89.99999669
_cell_angle_beta   92.33764056
_cell_angle_gamma   128.18868449
_symmetry_Int_Tables_number   1
_chemical_formula_structural   Sr3(RuN2)2
_chemical_formula_sum   'Sr6 Ru4 N8'
_cell_volume   290.03907172
_cell_formula_units_Z   2
loop_
 _symmetry_equiv_pos_site_id
 _symmetry_equiv_pos_as_xyz
  1  'x, y, z'
loop_
 _atom_site_type_symbol
 _atom_site_label
 _atom_site_symmetry_multiplicity
 _atom_site_fract_x
 _atom_site_fract_y
 _atom_site_fract_z
 _atom_site_occupancy
  Sr  Sr0  1  0.24263000  0.98591500  0.04297800  1
  Sr  Sr1  1  0.75737000  0.74328400  0.45702200  1
  Sr  Sr2  1  0.75737000  0.01408500  0.95702200  1
  Sr  Sr3  1  0.24263000  0.25671600  0.54297800  1
  Sr  Sr4  1  0.00000000  0.59789700  0.75000000  1
  Sr  Sr5  1  0.00000000  0.40210300  0.25000000  1
  Ru  Ru6  1  0.58721500  0.16399800  0.58953200  1
  Ru  Ru7  1  0.41278500  0.57678200  0.91046800  1
  Ru  Ru8  1  0.41278500  0.83600200  0.41046800  1
  Ru  Ru9  1  0.58721500  0.42321800  0.08953200  1
  N  N10  1  0.24012100  0.93943200  0.52898900  1
  N  N11  1  0.75987900  0.69931000  0.97101100  1
  N  N12  1  0.75987900  0.06056800  0.47101100  1
  N  N13  1  0.24012100  0.30069000  0.02898900  1
  N  N14  1  0.66424800  0.27005800  0.91461500  1
  N  N15  1  0.33575200  0.60581000  0.58538500  1
  N  N16  1  0.33575200  0.72994200  0.08538500  1
  N  N17  1  0.66424800  0.39419000  0.41461500  1
