# generated using pymatgen
data_Ba4IrN4
_symmetry_space_group_name_H-M   'P 1'
_cell_length_a   7.46555304
_cell_length_b   6.97638734
_cell_length_c   9.82581727
_cell_angle_alpha   74.49033914
_cell_angle_beta   68.00470942
_cell_angle_gamma   68.06200361
_symmetry_Int_Tables_number   1
_chemical_formula_structural   Ba4IrN4
_chemical_formula_sum   'Ba8 Ir2 N8'
_cell_volume   435.28493480
_cell_formula_units_Z   2
loop_
 _symmetry_equiv_pos_site_id
 _symmetry_equiv_pos_as_xyz
  1  'x, y, z'
loop_
 _atom_site_type_symbol
 _atom_site_label
 _atom_site_symmetry_multiplicity
 _atom_site_fract_x
 _atom_site_fract_y
 _atom_site_fract_z
 _atom_site_occupancy
  Ba  Ba0  1  0.80777400  0.61125000  0.15663200  1
  Ba  Ba1  1  0.19222600  0.38875000  0.84336800  1
  Ba  Ba2  1  0.69283200  0.18668900  0.02551100  1
  Ba  Ba3  1  0.30716800  0.81331100  0.97448900  1
  Ba  Ba4  1  0.76753000  0.45369800  0.63974500  1
  Ba  Ba5  1  0.23247000  0.54630200  0.36025500  1
  Ba  Ba6  1  0.23277600  0.94107800  0.55773100  1
  Ba  Ba7  1  0.76722400  0.05892200  0.44226900  1
  Ir  Ir8  1  0.80106900  0.82911700  0.78989200  1
  Ir  Ir9  1  0.19893100  0.17088300  0.21010800  1
  N  N10  1  0.98807500  0.71702500  0.60020500  1
  N  N11  1  0.01192500  0.28297500  0.39979500  1
  N  N12  1  0.00193100  0.83620600  0.86920900  1
  N  N13  1  0.99806900  0.16379400  0.13079100  1
  N  N14  1  0.74044200  0.57022300  0.90116400  1
  N  N15  1  0.25955800  0.42977700  0.09883600  1
  N  N16  1  0.40701300  0.92767700  0.22868000  1
  N  N17  1  0.59298700  0.07232300  0.77132000  1
