# generated using pymatgen
data_Sr3(GeN2)2
_symmetry_space_group_name_H-M   'P 1'
_cell_length_a   6.14323944
_cell_length_b   10.16766580
_cell_length_c   9.76042014
_cell_angle_alpha   90.00000000
_cell_angle_beta   90.00000000
_cell_angle_gamma   90.00000000
_symmetry_Int_Tables_number   1
_chemical_formula_structural   Sr3(GeN2)2
_chemical_formula_sum   'Sr12 Ge8 N16'
_cell_volume   609.65932117
_cell_formula_units_Z   4
loop_
 _symmetry_equiv_pos_site_id
 _symmetry_equiv_pos_as_xyz
  1  'x, y, z'
loop_
 _atom_site_type_symbol
 _atom_site_label
 _atom_site_symmetry_multiplicity
 _atom_site_fract_x
 _atom_site_fract_y
 _atom_site_fract_z
 _atom_site_occupancy
  Sr  Sr0  1  0.12755832  0.33999728  0.56866390  1
  Sr  Sr1  1  0.37244168  0.66000272  0.56866390  1
  Sr  Sr2  1  0.12755832  0.16000272  0.93133610  1
  Sr  Sr3  1  0.37244168  0.83999728  0.93133610  1
  Sr  Sr4  1  0.87244168  0.66000272  0.43133610  1
  Sr  Sr5  1  0.62755832  0.33999728  0.43133610  1
  Sr  Sr6  1  0.87244168  0.83999728  0.06866390  1
  Sr  Sr7  1  0.62755832  0.16000272  0.06866390  1
  Sr  Sr8  1  0.75000000  0.50000000  0.10869570  1
  Sr  Sr9  1  0.75000000  0.00000000  0.39130430  1
  Sr  Sr10  1  0.25000000  0.50000000  0.89130430  1
  Sr  Sr11  1  0.25000000  0.00000000  0.60869570  1
  Ge  Ge12  1  0.55103064  0.25000000  0.75000000  1
  Ge  Ge13  1  0.94896936  0.75000000  0.75000000  1
  Ge  Ge14  1  0.44896936  0.75000000  0.25000000  1
  Ge  Ge15  1  0.05103064  0.25000000  0.25000000  1
  Ge  Ge16  1  0.75000000  0.50000000  0.76716700  1
  Ge  Ge17  1  0.75000000  0.00000000  0.73283300  1
  Ge  Ge18  1  0.25000000  0.50000000  0.23283300  1
  Ge  Ge19  1  0.25000000  0.00000000  0.26716700  1
  N  N20  1  0.50998745  0.45319598  0.66132970  1
  N  N21  1  0.99001255  0.54680402  0.66132970  1
  N  N22  1  0.50998745  0.04680402  0.83867030  1
  N  N23  1  0.99001255  0.95319598  0.83867030  1
  N  N24  1  0.49001255  0.54680402  0.33867030  1
  N  N25  1  0.00998745  0.45319598  0.33867030  1
  N  N26  1  0.49001255  0.95319598  0.16132970  1
  N  N27  1  0.00998745  0.04680402  0.16132970  1
  N  N28  1  0.75721391  0.15720191  0.61689372  1
  N  N29  1  0.74278609  0.84279809  0.61689372  1
  N  N30  1  0.75721391  0.34279809  0.88310628  1
  N  N31  1  0.74278609  0.65720191  0.88310628  1
  N  N32  1  0.24278609  0.84279809  0.38310628  1
  N  N33  1  0.25721391  0.15720191  0.38310628  1
  N  N34  1  0.24278609  0.65720191  0.11689372  1
  N  N35  1  0.25721391  0.34279809  0.11689372  1
