# generated using pymatgen
data_Co2CuN2
_symmetry_space_group_name_H-M   'P 1'
_cell_length_a   3.21036674
_cell_length_b   3.20528541
_cell_length_c   7.01423446
_cell_angle_alpha   90.00000539
_cell_angle_beta   116.53906426
_cell_angle_gamma   119.94763893
_symmetry_Int_Tables_number   1
_chemical_formula_structural   Co2CuN2
_chemical_formula_sum   'Co2 Cu1 N2'
_cell_volume   53.58435361
_cell_formula_units_Z   1
loop_
 _symmetry_equiv_pos_site_id
 _symmetry_equiv_pos_as_xyz
  1  'x, y, z'
loop_
 _atom_site_type_symbol
 _atom_site_label
 _atom_site_symmetry_multiplicity
 _atom_site_fract_x
 _atom_site_fract_y
 _atom_site_fract_z
 _atom_site_occupancy
  Co  Co0  1  0.84771900  0.42385900  0.13726200  1
  Co  Co1  1  0.15228100  0.57614100  0.86273800  1
  Cu  Cu2  1  0.00000000  0.00000000  0.50000000  1
  N  N3  1  0.41855800  0.20927900  0.80999600  1
  N  N4  1  0.58144200  0.79072100  0.19000400  1
