# generated using pymatgen
data_Cr4Te3N2
_symmetry_space_group_name_H-M   'P 1'
_cell_length_a   6.49530030
_cell_length_b   10.64626014
_cell_length_c   9.84961356
_cell_angle_alpha   90.00000000
_cell_angle_beta   90.00000000
_cell_angle_gamma   90.00000000
_symmetry_Int_Tables_number   1
_chemical_formula_structural   Cr4Te3N2
_chemical_formula_sum   'Cr16 Te12 N8'
_cell_volume   681.10724573
_cell_formula_units_Z   4
loop_
 _symmetry_equiv_pos_site_id
 _symmetry_equiv_pos_as_xyz
  1  'x, y, z'
loop_
 _atom_site_type_symbol
 _atom_site_label
 _atom_site_symmetry_multiplicity
 _atom_site_fract_x
 _atom_site_fract_y
 _atom_site_fract_z
 _atom_site_occupancy
  Cr  Cr0  1  0.58794528  0.25000000  0.87988406  1
  Cr  Cr1  1  0.08794528  0.25000000  0.62011594  1
  Cr  Cr2  1  0.41205472  0.75000000  0.12011594  1
  Cr  Cr3  1  0.91205472  0.75000000  0.37988406  1
  Cr  Cr4  1  0.80291957  0.25000000  0.41323758  1
  Cr  Cr5  1  0.30291957  0.25000000  0.08676242  1
  Cr  Cr6  1  0.19708043  0.75000000  0.58676242  1
  Cr  Cr7  1  0.69708043  0.75000000  0.91323758  1
  Cr  Cr8  1  0.69035568  0.47438427  0.06723829  1
  Cr  Cr9  1  0.19035568  0.02561573  0.43276171  1
  Cr  Cr10  1  0.30964432  0.97438427  0.93276171  1
  Cr  Cr11  1  0.80964432  0.52561573  0.56723829  1
  Cr  Cr12  1  0.30964432  0.52561573  0.93276171  1
  Cr  Cr13  1  0.80964432  0.97438427  0.56723829  1
  Cr  Cr14  1  0.69035568  0.02561573  0.06723829  1
  Cr  Cr15  1  0.19035568  0.47438427  0.43276171  1
  Te  Te16  1  0.88693217  0.25000000  0.14796671  1
  Te  Te17  1  0.38693217  0.25000000  0.35203329  1
  Te  Te18  1  0.11306783  0.75000000  0.85203329  1
  Te  Te19  1  0.61306783  0.75000000  0.64796671  1
  Te  Te20  1  0.57576192  0.57034457  0.32456627  1
  Te  Te21  1  0.07576192  0.92965543  0.17543373  1
  Te  Te22  1  0.42423808  0.07034457  0.67543373  1
  Te  Te23  1  0.92423808  0.42965543  0.82456627  1
  Te  Te24  1  0.42423808  0.42965543  0.67543373  1
  Te  Te25  1  0.92423808  0.07034457  0.82456627  1
  Te  Te26  1  0.57576192  0.92965543  0.32456627  1
  Te  Te27  1  0.07576192  0.57034457  0.17543373  1
  N  N28  1  0.54908036  0.62309091  0.99800679  1
  N  N29  1  0.04908036  0.87690909  0.50199321  1
  N  N30  1  0.45091964  0.12309091  0.00199321  1
  N  N31  1  0.95091964  0.37690909  0.49800679  1
  N  N32  1  0.45091964  0.37690909  0.00199321  1
  N  N33  1  0.95091964  0.12309091  0.49800679  1
  N  N34  1  0.54908036  0.87690909  0.99800679  1
  N  N35  1  0.04908036  0.62309091  0.50199321  1
