# generated using pymatgen
data_Li17Cl5O6
_symmetry_space_group_name_H-M   'P 1'
_cell_length_a   3.83637300
_cell_length_b   5.57916010
_cell_length_c   16.74330077
_cell_angle_alpha   93.16286926
_cell_angle_beta   90.00000000
_cell_angle_gamma   90.00000000
_symmetry_Int_Tables_number   1
_chemical_formula_structural   Li17Cl5O6
_chemical_formula_sum   'Li17 Cl5 O6'
_cell_volume   357.82334911
_cell_formula_units_Z   1
loop_
 _symmetry_equiv_pos_site_id
 _symmetry_equiv_pos_as_xyz
  1  'x, y, z'
loop_
 _atom_site_type_symbol
 _atom_site_label
 _atom_site_symmetry_multiplicity
 _atom_site_fract_x
 _atom_site_fract_y
 _atom_site_fract_z
 _atom_site_occupancy
  Li  Li0  1  0.50000000  0.26660700  0.90981200  1
  Li  Li1  1  0.50000000  0.24052200  0.56689100  1
  Li  Li2  1  0.50000000  0.33343700  0.24068100  1
  Li  Li3  1  0.50000000  0.71719500  0.75280800  1
  Li  Li4  1  0.50000000  0.67886900  0.43535000  1
  Li  Li5  1  0.50000000  0.77144100  0.08293000  1
  Li  Li6  1  0.50000000  0.20728600  0.74162200  1
  Li  Li7  1  0.50000000  0.27343000  0.07786200  1
  Li  Li8  1  0.50000000  0.75653600  0.91641600  1
  Li  Li9  1  0.50000000  0.72950400  0.59421500  1
  Li  Li10  1  0.50000000  0.80104200  0.24932600  1
  Li  Li11  1  0.00000000  0.99084300  0.82863400  1
  Li  Li12  1  0.00000000  0.97360800  0.50355200  1
  Li  Li13  1  0.00000000  0.04175600  0.15903800  1
  Li  Li14  1  0.00000000  0.51524600  0.99650700  1
  Li  Li15  1  0.00000000  0.46018100  0.66402000  1
  Li  Li16  1  0.00000000  0.52627700  0.34313100  1
  Cl  Cl17  1  0.00000000  0.49151200  0.83634400  1
  Cl  Cl18  1  0.00000000  0.44146000  0.49333800  1
  Cl  Cl19  1  0.00000000  0.53844200  0.16120300  1
  Cl  Cl20  1  0.00000000  0.01441000  0.00949000  1
  Cl  Cl21  1  0.00000000  0.96006800  0.67755400  1
  O  O22  1  0.50000000  0.99050200  0.83619100  1
  O  O23  1  0.50000000  0.93700200  0.51026000  1
  O  O24  1  0.50000000  0.04420400  0.17380000  1
  O  O25  1  0.50000000  0.51520600  0.99830800  1
  O  O26  1  0.50000000  0.46289200  0.66582700  1
  O  O27  1  0.50000000  0.57051700  0.32489200  1
