# generated using pymatgen
data_LaMg2Mn3S8
_symmetry_space_group_name_H-M   'P 1'
_cell_length_a   7.63759151
_cell_length_b   7.63534176
_cell_length_c   7.63482464
_cell_angle_alpha   57.93728278
_cell_angle_beta   57.91059574
_cell_angle_gamma   57.89527205
_symmetry_Int_Tables_number   1
_chemical_formula_structural   LaMg2Mn3S8
_chemical_formula_sum   'La1 Mg2 Mn3 S8'
_cell_volume   299.75607371
_cell_formula_units_Z   1
loop_
 _symmetry_equiv_pos_site_id
 _symmetry_equiv_pos_as_xyz
  1  'x, y, z'
loop_
 _atom_site_type_symbol
 _atom_site_label
 _atom_site_symmetry_multiplicity
 _atom_site_fract_x
 _atom_site_fract_y
 _atom_site_fract_z
 _atom_site_occupancy
  La  La0  1  0.49996800  0.50005600  0.49994200  1
  Mg  Mg1  1  0.87604500  0.87600200  0.87579000  1
  Mg  Mg2  1  0.12396200  0.12408500  0.12416400  1
  Mn  Mn3  1  0.50020400  0.49985400  0.00038500  1
  Mn  Mn4  1  0.99996700  0.50002200  0.49996500  1
  Mn  Mn5  1  0.49995100  0.99987100  0.49996900  1
  S  S6  1  0.74406200  0.74440500  0.74390400  1
  S  S7  1  0.23834600  0.23840500  0.71867000  1
  S  S8  1  0.23812200  0.71878100  0.23845700  1
  S  S9  1  0.71915500  0.23821200  0.23846400  1
  S  S10  1  0.76180000  0.28129400  0.76147200  1
  S  S11  1  0.28087300  0.76175900  0.76150400  1
  S  S12  1  0.25591400  0.25560800  0.25606400  1
  S  S13  1  0.76163700  0.76164200  0.28125200  1
