# generated using pymatgen
data_TaAgN2
_symmetry_space_group_name_H-M   'P 1'
_cell_length_a   5.92368400
_cell_length_b   11.86738200
_cell_length_c   14.48330000
_cell_angle_alpha   90.00000000
_cell_angle_beta   90.00000000
_cell_angle_gamma   90.00000000
_symmetry_Int_Tables_number   1
_chemical_formula_structural   TaAgN2
_chemical_formula_sum   'Ta16 Ag16 N32'
_cell_volume   1018.15601572
_cell_formula_units_Z   16
loop_
 _symmetry_equiv_pos_site_id
 _symmetry_equiv_pos_as_xyz
  1  'x, y, z'
loop_
 _atom_site_type_symbol
 _atom_site_label
 _atom_site_symmetry_multiplicity
 _atom_site_fract_x
 _atom_site_fract_y
 _atom_site_fract_z
 _atom_site_occupancy
  Ta  Ta0  1  0.66641000  0.03144600  0.31497700  1
  Ta  Ta1  1  0.16641000  0.46855400  0.68502300  1
  Ta  Ta2  1  0.33359000  0.53144600  0.18502300  1
  Ta  Ta3  1  0.83359000  0.96855400  0.81497700  1
  Ta  Ta4  1  0.33359000  0.96855400  0.68502300  1
  Ta  Ta5  1  0.83359000  0.53144600  0.31497700  1
  Ta  Ta6  1  0.66641000  0.46855400  0.81497700  1
  Ta  Ta7  1  0.16641000  0.03144600  0.18502300  1
  Ta  Ta8  1  0.77463800  0.28476200  0.44002500  1
  Ta  Ta9  1  0.27463800  0.21523800  0.55997500  1
  Ta  Ta10  1  0.22536200  0.78476200  0.05997500  1
  Ta  Ta11  1  0.72536200  0.71523800  0.94002500  1
  Ta  Ta12  1  0.22536200  0.71523800  0.55997500  1
  Ta  Ta13  1  0.72536200  0.78476200  0.44002500  1
  Ta  Ta14  1  0.77463800  0.21523800  0.94002500  1
  Ta  Ta15  1  0.27463800  0.28476200  0.05997500  1
  Ag  Ag16  1  0.21246700  0.99784500  0.43360800  1
  Ag  Ag17  1  0.71246700  0.50215500  0.56639200  1
  Ag  Ag18  1  0.78753300  0.49784500  0.06639200  1
  Ag  Ag19  1  0.28753300  0.00215500  0.93360800  1
  Ag  Ag20  1  0.78753300  0.00215500  0.56639200  1
  Ag  Ag21  1  0.28753300  0.49784500  0.43360800  1
  Ag  Ag22  1  0.21246700  0.50215500  0.93360800  1
  Ag  Ag23  1  0.71246700  0.99784500  0.06639200  1
  Ag  Ag24  1  0.19134900  0.27108700  0.30370600  1
  Ag  Ag25  1  0.69134900  0.22891300  0.69629400  1
  Ag  Ag26  1  0.80865100  0.77108700  0.19629400  1
  Ag  Ag27  1  0.30865100  0.72891300  0.80370600  1
  Ag  Ag28  1  0.80865100  0.72891300  0.69629400  1
  Ag  Ag29  1  0.30865100  0.77108700  0.30370600  1
  Ag  Ag30  1  0.19134900  0.22891300  0.80370600  1
  Ag  Ag31  1  0.69134900  0.27108700  0.19629400  1
  N  N32  1  0.10104600  0.26744300  0.45459100  1
  N  N33  1  0.60104600  0.23255700  0.54540900  1
  N  N34  1  0.89895400  0.76744300  0.04540900  1
  N  N35  1  0.39895400  0.73255700  0.95459100  1
  N  N36  1  0.89895400  0.73255700  0.54540900  1
  N  N37  1  0.39895400  0.76744300  0.45459100  1
  N  N38  1  0.10104600  0.23255700  0.95459100  1
  N  N39  1  0.60104600  0.26744300  0.04540900  1
  N  N40  1  0.71297100  0.44610800  0.41918700  1
  N  N41  1  0.21297100  0.05389200  0.58081300  1
  N  N42  1  0.28702900  0.94610800  0.08081300  1
  N  N43  1  0.78702900  0.55389200  0.91918700  1
  N  N44  1  0.28702900  0.55389200  0.58081300  1
  N  N45  1  0.78702900  0.94610800  0.41918700  1
  N  N46  1  0.71297100  0.05389200  0.91918700  1
  N  N47  1  0.21297100  0.44610800  0.08081300  1
  N  N48  1  0.68171300  0.19379700  0.33464300  1
  N  N49  1  0.18171300  0.30620300  0.66535700  1
  N  N50  1  0.31828700  0.69379700  0.16535700  1
  N  N51  1  0.81828700  0.80620300  0.83464300  1
  N  N52  1  0.31828700  0.80620300  0.66535700  1
  N  N53  1  0.81828700  0.69379700  0.33464300  1
  N  N54  1  0.68171300  0.30620300  0.83464300  1
  N  N55  1  0.18171300  0.19379700  0.16535700  1
  N  N56  1  0.64957100  0.48990500  0.20811800  1
  N  N57  1  0.14957100  0.01009500  0.79188200  1
  N  N58  1  0.35042900  0.98990500  0.29188200  1
  N  N59  1  0.85042900  0.51009500  0.70811800  1
  N  N60  1  0.35042900  0.51009500  0.79188200  1
  N  N61  1  0.85042900  0.98990500  0.20811800  1
  N  N62  1  0.64957100  0.01009500  0.70811800  1
  N  N63  1  0.14957100  0.48990500  0.29188200  1
