# generated using pymatgen
data_Cr8Fe3N8
_symmetry_space_group_name_H-M   'P 1'
_cell_length_a   8.25784158
_cell_length_b   3.93618904
_cell_length_c   6.02882148
_cell_angle_alpha   90.00001059
_cell_angle_beta   71.21801379
_cell_angle_gamma   76.21200352
_symmetry_Int_Tables_number   1
_chemical_formula_structural   Cr8Fe3N8
_chemical_formula_sum   'Cr8 Fe3 N8'
_cell_volume   179.55372312
_cell_formula_units_Z   1
loop_
 _symmetry_equiv_pos_site_id
 _symmetry_equiv_pos_as_xyz
  1  'x, y, z'
loop_
 _atom_site_type_symbol
 _atom_site_label
 _atom_site_symmetry_multiplicity
 _atom_site_fract_x
 _atom_site_fract_y
 _atom_site_fract_z
 _atom_site_occupancy
  Cr  Cr0  1  0.06313000  0.96843400  0.73699500  1
  Cr  Cr1  1  0.93687000  0.03156600  0.26300500  1
  Cr  Cr2  1  0.69658200  0.65170900  0.46999000  1
  Cr  Cr3  1  0.30341800  0.34829100  0.53001000  1
  Cr  Cr4  1  0.81900400  0.59049800  0.95470400  1
  Cr  Cr5  1  0.18099600  0.40950200  0.04529600  1
  Cr  Cr6  1  0.56418900  0.21790600  0.83839400  1
  Cr  Cr7  1  0.43581100  0.78209400  0.16160600  1
  Fe  Fe8  1  0.00000000  0.50000000  0.50000000  1
  Fe  Fe9  1  0.36725100  0.81637500  0.78407200  1
  Fe  Fe10  1  0.63274900  0.18362500  0.21592800  1
  N  N11  1  0.20814000  0.89593100  0.09154700  1
  N  N12  1  0.79186000  0.10406900  0.90845300  1
  N  N13  1  0.31080000  0.84460100  0.51196900  1
  N  N14  1  0.68920000  0.15539900  0.48803100  1
  N  N15  1  0.59921600  0.70039200  0.81807900  1
  N  N16  1  0.40078400  0.29960800  0.18192100  1
  N  N17  1  0.06953200  0.46523400  0.76908100  1
  N  N18  1  0.93046800  0.53476600  0.23091900  1
