# generated using pymatgen
data_Mg2MnCr3S8
_symmetry_space_group_name_H-M   'P 1'
_cell_length_a   7.23641786
_cell_length_b   7.23755473
_cell_length_c   7.23318869
_cell_angle_alpha   60.14825993
_cell_angle_beta   60.18084682
_cell_angle_gamma   60.14080522
_symmetry_Int_Tables_number   1
_chemical_formula_structural   Mg2MnCr3S8
_chemical_formula_sum   'Mg2 Mn1 Cr3 S8'
_cell_volume   268.82413321
_cell_formula_units_Z   1
loop_
 _symmetry_equiv_pos_site_id
 _symmetry_equiv_pos_as_xyz
  1  'x, y, z'
loop_
 _atom_site_type_symbol
 _atom_site_label
 _atom_site_symmetry_multiplicity
 _atom_site_fract_x
 _atom_site_fract_y
 _atom_site_fract_z
 _atom_site_occupancy
  Mg  Mg0  1  0.87572043  0.87592330  0.87573359  1
  Mg  Mg1  1  0.12424955  0.12413684  0.12425984  1
  Mn  Mn2  1  0.49992537  0.50017202  0.49987052  1
  Cr  Cr3  1  0.50006113  0.49990662  0.00001578  1
  Cr  Cr4  1  0.00006165  0.49996576  0.49996955  1
  Cr  Cr5  1  0.49999017  0.99987611  0.50015112  1
  S  S6  1  0.73663350  0.73666497  0.73666281  1
  S  S7  1  0.26030277  0.26036372  0.71153620  1
  S  S8  1  0.26049833  0.71134882  0.26061293  1
  S  S9  1  0.71126431  0.26047402  0.26058035  1
  S  S10  1  0.73947189  0.28873686  0.73931098  1
  S  S11  1  0.28868932  0.73949351  0.73947360  1
  S  S12  1  0.26340090  0.26328771  0.26336921  1
  S  S13  1  0.73973470  0.73964475  0.28845453  1
