# generated using pymatgen
data_Lu3Mg2MoS8
_symmetry_space_group_name_H-M   'P 1'
_cell_length_a   7.72852035
_cell_length_b   7.62694331
_cell_length_c   7.72865600
_cell_angle_alpha   59.55927018
_cell_angle_beta   59.99713913
_cell_angle_gamma   59.55953899
_symmetry_Int_Tables_number   1
_chemical_formula_structural   Lu3Mg2MoS8
_chemical_formula_sum   'Lu3 Mg2 Mo1 S8'
_cell_volume   319.96467273
_cell_formula_units_Z   1
loop_
 _symmetry_equiv_pos_site_id
 _symmetry_equiv_pos_as_xyz
  1  'x, y, z'
loop_
 _atom_site_type_symbol
 _atom_site_label
 _atom_site_symmetry_multiplicity
 _atom_site_fract_x
 _atom_site_fract_y
 _atom_site_fract_z
 _atom_site_occupancy
  Lu  Lu0  1  0.50000100  0.50002100  0.49997800  1
  Lu  Lu1  1  0.49999400  0.49999600  0.00000400  1
  Lu  Lu2  1  0.00000600  0.50000800  0.49999000  1
  Mg  Mg3  1  0.87470600  0.87584000  0.87473900  1
  Mg  Mg4  1  0.12528300  0.12415900  0.12526800  1
  Mo  Mo5  1  0.50000500  0.99998800  0.50001100  1
  S  S6  1  0.73588900  0.75751200  0.73590000  1
  S  S7  1  0.26410400  0.24248700  0.72928400  1
  S  S8  1  0.25612200  0.73163000  0.25611600  1
  S  S9  1  0.72931400  0.24247800  0.26409800  1
  S  S10  1  0.74386300  0.26837200  0.74387100  1
  S  S11  1  0.27069800  0.75751100  0.73590800  1
  S  S12  1  0.26411300  0.24246200  0.26412000  1
  S  S13  1  0.73590400  0.75753000  0.27071600  1
