# generated using pymatgen
data_Ca3(MnN2)2
_symmetry_space_group_name_H-M   'P 1'
_cell_length_a   6.73958363
_cell_length_b   8.26657645
_cell_length_c   5.32762810
_cell_angle_alpha   90.00000194
_cell_angle_beta   92.13514980
_cell_angle_gamma   127.82744254
_symmetry_Int_Tables_number   1
_chemical_formula_structural   Ca3(MnN2)2
_chemical_formula_sum   'Ca6 Mn4 N8'
_cell_volume   234.18542162
_cell_formula_units_Z   2
loop_
 _symmetry_equiv_pos_site_id
 _symmetry_equiv_pos_as_xyz
  1  'x, y, z'
loop_
 _atom_site_type_symbol
 _atom_site_label
 _atom_site_symmetry_multiplicity
 _atom_site_fract_x
 _atom_site_fract_y
 _atom_site_fract_z
 _atom_site_occupancy
  Ca  Ca0  1  0.23964900  0.98529300  0.04326200  1
  Ca  Ca1  1  0.76035100  0.74564400  0.45673800  1
  Ca  Ca2  1  0.76035100  0.01470700  0.95673800  1
  Ca  Ca3  1  0.23964900  0.25435600  0.54326200  1
  Ca  Ca4  1  0.00000000  0.59804800  0.75000000  1
  Ca  Ca5  1  0.00000000  0.40195200  0.25000000  1
  Mn  Mn6  1  0.58769600  0.16815700  0.58188100  1
  Mn  Mn7  1  0.41230400  0.58046000  0.91811900  1
  Mn  Mn8  1  0.41230400  0.83184300  0.41811900  1
  Mn  Mn9  1  0.58769600  0.41954000  0.08188100  1
  N  N10  1  0.24237900  0.94202200  0.52393000  1
  N  N11  1  0.75762100  0.69964300  0.97607000  1
  N  N12  1  0.75762100  0.05797800  0.47607000  1
  N  N13  1  0.24237900  0.30035700  0.02393000  1
  N  N14  1  0.66481300  0.26736500  0.91085900  1
  N  N15  1  0.33518700  0.60255000  0.58914100  1
  N  N16  1  0.33518700  0.73263500  0.08914100  1
  N  N17  1  0.66481300  0.39745000  0.41085900  1
