# generated using pymatgen
data_MnAgN
_symmetry_space_group_name_H-M   'P 1'
_cell_length_a   3.09676200
_cell_length_b   3.08575050
_cell_length_c   4.84727500
_cell_angle_alpha   90.00000000
_cell_angle_beta   90.00000000
_cell_angle_gamma   120.11811545
_symmetry_Int_Tables_number   1
_chemical_formula_structural   MnAgN
_chemical_formula_sum   'Mn1 Ag1 N1'
_cell_volume   40.06625905
_cell_formula_units_Z   1
loop_
 _symmetry_equiv_pos_site_id
 _symmetry_equiv_pos_as_xyz
  1  'x, y, z'
loop_
 _atom_site_type_symbol
 _atom_site_label
 _atom_site_symmetry_multiplicity
 _atom_site_fract_x
 _atom_site_fract_y
 _atom_site_fract_z
 _atom_site_occupancy
  Mn  Mn0  1  0.00018400  0.00036800  0.50000000  1
  Ag  Ag1  1  0.66696700  0.33393300  0.00000000  1
  N  N2  1  0.66624900  0.33249900  0.50000000  1
