# generated using pymatgen
data_ZrCrAgS4
_symmetry_space_group_name_H-M   'P 1'
_cell_length_a   11.98961643
_cell_length_b   7.10047191
_cell_length_c   13.09105938
_cell_angle_alpha   89.76570814
_cell_angle_beta   90.84813365
_cell_angle_gamma   90.35026159
_symmetry_Int_Tables_number   1
_chemical_formula_structural   ZrCrAgS4
_chemical_formula_sum   'Zr8 Cr8 Ag8 S32'
_cell_volume   1114.31538031
_cell_formula_units_Z   8
loop_
 _symmetry_equiv_pos_site_id
 _symmetry_equiv_pos_as_xyz
  1  'x, y, z'
loop_
 _atom_site_type_symbol
 _atom_site_label
 _atom_site_symmetry_multiplicity
 _atom_site_fract_x
 _atom_site_fract_y
 _atom_site_fract_z
 _atom_site_occupancy
  Zr  Zr0  1  0.11866500  0.90182800  0.68249100  1
  Zr  Zr1  1  0.88926900  0.10917900  0.18668300  1
  Zr  Zr2  1  0.38194300  0.89035500  0.18664200  1
  Zr  Zr3  1  0.60747100  0.08714100  0.69175300  1
  Zr  Zr4  1  0.88756600  0.60967400  0.83596800  1
  Zr  Zr5  1  0.39626700  0.38239500  0.83595500  1
  Zr  Zr6  1  0.62477100  0.60007100  0.34219800  1
  Zr  Zr7  1  0.88120300  0.39054200  0.49385400  1
  Cr  Cr8  1  0.12577600  0.36481500  0.33515900  1
  Cr  Cr9  1  0.15789600  0.63052000  0.93883300  1
  Cr  Cr10  1  0.33697600  0.62502900  0.43986000  1
  Cr  Cr11  1  0.66154100  0.36879900  0.94157500  1
  Cr  Cr12  1  0.12688000  0.14850500  0.03919100  1
  Cr  Cr13  1  0.85195000  0.92371400  0.47047500  1
  Cr  Cr14  1  0.35237600  0.11617700  0.45804100  1
  Cr  Cr15  1  0.62241900  0.86260700  0.02552400  1
  Ag  Ag16  1  0.11198900  0.36040500  0.65805100  1
  Ag  Ag17  1  0.88241000  0.61575600  0.17107600  1
  Ag  Ag18  1  0.39065700  0.39293300  0.16230300  1
  Ag  Ag19  1  0.60261800  0.63962600  0.67273100  1
  Ag  Ag20  1  0.11833500  0.87776700  0.31247000  1
  Ag  Ag21  1  0.88630000  0.13002200  0.82233400  1
  Ag  Ag22  1  0.38230200  0.88332800  0.80984000  1
  Ag  Ag23  1  0.61065300  0.12299200  0.30398700  1
  S  S24  1  0.03144800  0.86406800  0.86807600  1
  S  S25  1  0.97475200  0.13362900  0.37657900  1
  S  S26  1  0.46257500  0.86645700  0.37889600  1
  S  S27  1  0.53434900  0.11912700  0.88374200  1
  S  S28  1  0.04268100  0.35363000  0.16335500  1
  S  S29  1  0.96440900  0.60262700  0.64769600  1
  S  S30  1  0.46988100  0.36665400  0.66031600  1
  S  S31  1  0.54328200  0.65961900  0.15920400  1
  S  S32  1  0.02490400  0.38123300  0.91579100  1
  S  S33  1  0.98985700  0.59726400  0.37608300  1
  S  S34  1  0.47296500  0.39188800  0.40976400  1
  S  S35  1  0.53104000  0.61400100  0.91279500  1
  S  S36  1  0.02582200  0.89012500  0.12253400  1
  S  S37  1  0.95465800  0.08488300  0.61180700  1
  S  S38  1  0.46023300  0.89577000  0.62006800  1
  S  S39  1  0.52175100  0.11051500  0.12399200  1
  S  S40  1  0.22159100  0.86879000  0.51155700  1
  S  S41  1  0.76540100  0.11853000  0.02562700  1
  S  S42  1  0.26484100  0.88487900  0.02113000  1
  S  S43  1  0.71537900  0.14418900  0.51737400  1
  S  S44  1  0.22647000  0.36800900  0.49413400  1
  S  S45  1  0.77004000  0.62674100  0.00393100  1
  S  S46  1  0.26974900  0.37781900  0.00094400  1
  S  S47  1  0.73344700  0.65536000  0.51076700  1
  S  S48  1  0.23367600  0.14399200  0.76110200  1
  S  S49  1  0.77420600  0.87496100  0.30111600  1
  S  S50  1  0.26991600  0.13879800  0.29157700  1
  S  S51  1  0.74344400  0.86102900  0.76677900  1
  S  S52  1  0.23925500  0.62260700  0.78015100  1
  S  S53  1  0.76585600  0.37508100  0.29311100  1
  S  S54  1  0.25795900  0.60100300  0.28018500  1
  S  S55  1  0.73593100  0.37253800  0.78082900  1
