# generated using pymatgen
data_V4Te3N2
_symmetry_space_group_name_H-M   'P 1'
_cell_length_a   6.52613700
_cell_length_b   10.75463600
_cell_length_c   9.31177700
_cell_angle_alpha   90.00000000
_cell_angle_beta   90.00000000
_cell_angle_gamma   90.00000000
_symmetry_Int_Tables_number   1
_chemical_formula_structural   V4Te3N2
_chemical_formula_sum   'V16 Te12 N8'
_cell_volume   653.55850287
_cell_formula_units_Z   4
loop_
 _symmetry_equiv_pos_site_id
 _symmetry_equiv_pos_as_xyz
  1  'x, y, z'
loop_
 _atom_site_type_symbol
 _atom_site_label
 _atom_site_symmetry_multiplicity
 _atom_site_fract_x
 _atom_site_fract_y
 _atom_site_fract_z
 _atom_site_occupancy
  V  V0  1  0.60736000  0.25000000  0.91356400  1
  V  V1  1  0.10736000  0.25000000  0.58643600  1
  V  V2  1  0.39264000  0.75000000  0.08643600  1
  V  V3  1  0.89264000  0.75000000  0.41356400  1
  V  V4  1  0.75277100  0.25000000  0.43673800  1
  V  V5  1  0.25277100  0.25000000  0.06326200  1
  V  V6  1  0.24722900  0.75000000  0.56326200  1
  V  V7  1  0.74722900  0.75000000  0.93673800  1
  V  V8  1  0.67929700  0.47473300  0.05125900  1
  V  V9  1  0.17929700  0.02526700  0.44874100  1
  V  V10  1  0.32070300  0.97473300  0.94874100  1
  V  V11  1  0.82070300  0.52526700  0.55125900  1
  V  V12  1  0.32070300  0.52526700  0.94874100  1
  V  V13  1  0.82070300  0.97473300  0.55125900  1
  V  V14  1  0.67929700  0.02526700  0.05125900  1
  V  V15  1  0.17929700  0.47473300  0.44874100  1
  Te  Te16  1  0.85247500  0.25000000  0.15797800  1
  Te  Te17  1  0.35247500  0.25000000  0.34202200  1
  Te  Te18  1  0.14752500  0.75000000  0.84202200  1
  Te  Te19  1  0.64752500  0.75000000  0.65797800  1
  Te  Te20  1  0.55582500  0.57529100  0.32498700  1
  Te  Te21  1  0.05582500  0.92470900  0.17501300  1
  Te  Te22  1  0.44417500  0.07529100  0.67501300  1
  Te  Te23  1  0.94417500  0.42470900  0.82498700  1
  Te  Te24  1  0.44417500  0.42470900  0.67501300  1
  Te  Te25  1  0.94417500  0.07529100  0.82498700  1
  Te  Te26  1  0.55582500  0.92470900  0.32498700  1
  Te  Te27  1  0.05582500  0.57529100  0.17501300  1
  N  N28  1  0.56319300  0.62488300  0.97448000  1
  N  N29  1  0.06319300  0.87511700  0.52552000  1
  N  N30  1  0.43680700  0.12488300  0.02552000  1
  N  N31  1  0.93680700  0.37511700  0.47448000  1
  N  N32  1  0.43680700  0.37511700  0.02552000  1
  N  N33  1  0.93680700  0.12488300  0.47448000  1
  N  N34  1  0.56319300  0.87511700  0.97448000  1
  N  N35  1  0.06319300  0.62488300  0.52552000  1
