# generated using pymatgen
data_GaMoN3
_symmetry_space_group_name_H-M   'P 1'
_cell_length_a   12.50312458
_cell_length_b   5.88570007
_cell_length_c   9.48343573
_cell_angle_alpha   123.11594158
_cell_angle_beta   108.05698496
_cell_angle_gamma   117.09233012
_symmetry_Int_Tables_number   1
_chemical_formula_structural   GaMoN3
_chemical_formula_sum   'Ga4 Mo4 N12'
_cell_volume   344.57439650
_cell_formula_units_Z   4
loop_
 _symmetry_equiv_pos_site_id
 _symmetry_equiv_pos_as_xyz
  1  'x, y, z'
loop_
 _atom_site_type_symbol
 _atom_site_label
 _atom_site_symmetry_multiplicity
 _atom_site_fract_x
 _atom_site_fract_y
 _atom_site_fract_z
 _atom_site_occupancy
  Ga  Ga0  1  0.67929900  0.83281400  0.46179600  1
  Ga  Ga1  1  0.32070100  0.16718600  0.53820400  1
  Ga  Ga2  1  0.64062000  0.34116300  0.58243600  1
  Ga  Ga3  1  0.35938000  0.65883700  0.41756400  1
  Mo  Mo4  1  0.91033600  0.71568800  0.64150200  1
  Mo  Mo5  1  0.08966400  0.28431200  0.35849800  1
  Mo  Mo6  1  0.66886200  0.72493100  0.06081000  1
  Mo  Mo7  1  0.33113800  0.27506900  0.93919000  1
  N  N8  1  0.74333800  0.70028200  0.57948200  1
  N  N9  1  0.25666200  0.29971800  0.42051800  1
  N  N10  1  0.81549600  0.30313500  0.32483600  1
  N  N11  1  0.18450400  0.69686500  0.67516400  1
  N  N12  1  0.85312300  0.45348500  0.69926600  1
  N  N13  1  0.14687700  0.54651500  0.30073400  1
  N  N14  1  0.52978800  0.31271400  0.68153900  1
  N  N15  1  0.47021200  0.68728600  0.31846100  1
  N  N16  1  0.84286400  0.77437400  0.11925800  1
  N  N17  1  0.15713600  0.22562600  0.88074200  1
  N  N18  1  0.41037700  0.47484000  0.85826400  1
  N  N19  1  0.58962300  0.52516000  0.14173600  1
