# generated using pymatgen
data_V3CrO8
_symmetry_space_group_name_H-M   'P 1'
_cell_length_a   5.83408262
_cell_length_b   5.93066052
_cell_length_c   5.86536125
_cell_angle_alpha   61.30101060
_cell_angle_beta   60.76428500
_cell_angle_gamma   61.71673597
_symmetry_Int_Tables_number   1
_chemical_formula_structural   V3CrO8
_chemical_formula_sum   'V3 Cr1 O8'
_cell_volume   147.54913445
_cell_formula_units_Z   1
loop_
 _symmetry_equiv_pos_site_id
 _symmetry_equiv_pos_as_xyz
  1  'x, y, z'
loop_
 _atom_site_type_symbol
 _atom_site_label
 _atom_site_symmetry_multiplicity
 _atom_site_fract_x
 _atom_site_fract_y
 _atom_site_fract_z
 _atom_site_occupancy
  V  V0  1  0.49947600  0.50084200  0.49993100  1
  V  V1  1  0.50000600  0.49984100  0.99981800  1
  V  V2  1  0.99965000  0.49972100  0.50036100  1
  Cr  Cr3  1  0.50049700  0.00015900  0.49980000  1
  O  O4  1  0.73216400  0.72205600  0.74288300  1
  O  O5  1  0.26141800  0.27955900  0.69997300  1
  O  O6  1  0.27060800  0.70499000  0.27245700  1
  O  O7  1  0.70142100  0.28065200  0.27107700  1
  O  O8  1  0.72916700  0.29481900  0.72767300  1
  O  O9  1  0.29898900  0.71950300  0.72852600  1
  O  O10  1  0.26803400  0.27754800  0.25730600  1
  O  O11  1  0.73856400  0.72031500  0.30018400  1
