# generated using pymatgen
data_Sr5(MnN3)2
_symmetry_space_group_name_H-M   'P 1'
_cell_length_a   6.11696855
_cell_length_b   6.62888195
_cell_length_c   13.41905564
_cell_angle_alpha   90.00000198
_cell_angle_beta   100.07348039
_cell_angle_gamma   122.80924268
_symmetry_Int_Tables_number   1
_chemical_formula_structural   Sr5(MnN3)2
_chemical_formula_sum   'Sr10 Mn4 N12'
_cell_volume   447.31272187
_cell_formula_units_Z   2
loop_
 _symmetry_equiv_pos_site_id
 _symmetry_equiv_pos_as_xyz
  1  'x, y, z'
loop_
 _atom_site_type_symbol
 _atom_site_label
 _atom_site_symmetry_multiplicity
 _atom_site_fract_x
 _atom_site_fract_y
 _atom_site_fract_z
 _atom_site_occupancy
  Sr  Sr0  1  0.13213300  0.80288900  0.99647900  1
  Sr  Sr1  1  0.86786700  0.67075700  0.50352100  1
  Sr  Sr2  1  0.86786700  0.19711100  0.00352100  1
  Sr  Sr3  1  0.13213300  0.32924300  0.49647900  1
  Sr  Sr4  1  0.31664800  0.06651400  0.71981100  1
  Sr  Sr5  1  0.68335200  0.74986600  0.78018900  1
  Sr  Sr6  1  0.68335200  0.93348600  0.28018900  1
  Sr  Sr7  1  0.31664800  0.25013400  0.21981100  1
  Sr  Sr8  1  0.00000000  0.38318800  0.75000000  1
  Sr  Sr9  1  0.00000000  0.61681200  0.25000000  1
  Mn  Mn10  1  0.54800600  0.90630200  0.56946800  1
  Mn  Mn11  1  0.45199400  0.35829600  0.93053200  1
  Mn  Mn12  1  0.45199400  0.09369800  0.43053200  1
  Mn  Mn13  1  0.54800600  0.64170400  0.06946800  1
  N  N14  1  0.87683600  0.98708000  0.62526600  1
  N  N15  1  0.12316400  0.11024400  0.87473400  1
  N  N16  1  0.12316400  0.01292000  0.37473400  1
  N  N17  1  0.87683600  0.88975600  0.12526600  1
  N  N18  1  0.30226600  0.69672500  0.63971600  1
  N  N19  1  0.69773400  0.39445800  0.86028400  1
  N  N20  1  0.69773400  0.30327500  0.36028400  1
  N  N21  1  0.30226600  0.60554200  0.13971600  1
  N  N22  1  0.55995100  0.20694400  0.56764000  1
  N  N23  1  0.44004900  0.64699200  0.93236000  1
  N  N24  1  0.44004900  0.79305600  0.43236000  1
  N  N25  1  0.55995100  0.35300800  0.06764000  1
