# generated using pymatgen
data_Sr(VN2)2
_symmetry_space_group_name_H-M   'P 1'
_cell_length_a   10.56917600
_cell_length_b   10.56917600
_cell_length_c   10.56917600
_cell_angle_alpha   90.00000000
_cell_angle_beta   90.00000000
_cell_angle_gamma   90.00000000
_symmetry_Int_Tables_number   1
_chemical_formula_structural   Sr(VN2)2
_chemical_formula_sum   'Sr12 V24 N48'
_cell_volume   1180.65603058
_cell_formula_units_Z   12
loop_
 _symmetry_equiv_pos_site_id
 _symmetry_equiv_pos_as_xyz
  1  'x, y, z'
loop_
 _atom_site_type_symbol
 _atom_site_label
 _atom_site_symmetry_multiplicity
 _atom_site_fract_x
 _atom_site_fract_y
 _atom_site_fract_z
 _atom_site_occupancy
  Sr  Sr0  1  0.50000000  0.50000000  0.00000000  1
  Sr  Sr1  1  0.50000000  0.00000000  0.50000000  1
  Sr  Sr2  1  0.00000000  0.50000000  0.50000000  1
  Sr  Sr3  1  0.00000000  0.00000000  0.00000000  1
  Sr  Sr4  1  0.12233100  0.87766800  0.37766900  1
  Sr  Sr5  1  0.87766800  0.37766900  0.12233100  1
  Sr  Sr6  1  0.37766900  0.12233100  0.87766800  1
  Sr  Sr7  1  0.62233200  0.62233200  0.62233200  1
  Sr  Sr8  1  0.87766800  0.12233100  0.62233200  1
  Sr  Sr9  1  0.12233100  0.62233200  0.87766800  1
  Sr  Sr10  1  0.62233200  0.87766800  0.12233100  1
  Sr  Sr11  1  0.37766900  0.37766900  0.37766900  1
  V  V12  1  0.38302300  0.70218700  0.35495800  1
  V  V13  1  0.61697700  0.20218700  0.14504200  1
  V  V14  1  0.11697700  0.29781300  0.85495800  1
  V  V15  1  0.88302300  0.79781300  0.64504200  1
  V  V16  1  0.35495800  0.38302300  0.70218700  1
  V  V17  1  0.14504200  0.61697700  0.20218700  1
  V  V18  1  0.85495800  0.11697700  0.29781300  1
  V  V19  1  0.64504200  0.88302300  0.79781300  1
  V  V20  1  0.70218700  0.35495800  0.38302300  1
  V  V21  1  0.20218700  0.14504200  0.61697700  1
  V  V22  1  0.29781300  0.85495800  0.11697700  1
  V  V23  1  0.79781300  0.64504200  0.88302300  1
  V  V24  1  0.61697700  0.29781300  0.64504200  1
  V  V25  1  0.38302300  0.79781300  0.85495800  1
  V  V26  1  0.88302300  0.70218700  0.14504200  1
  V  V27  1  0.11697700  0.20218700  0.35495800  1
  V  V28  1  0.64504200  0.61697700  0.29781300  1
  V  V29  1  0.85495800  0.38302300  0.79781300  1
  V  V30  1  0.14504200  0.88302300  0.70218700  1
  V  V31  1  0.35495800  0.11697700  0.20218700  1
  V  V32  1  0.29781300  0.64504200  0.61697700  1
  V  V33  1  0.79781300  0.85495800  0.38302300  1
  V  V34  1  0.70218700  0.14504200  0.88302300  1
  V  V35  1  0.20218700  0.35495800  0.11697700  1
  N  N36  1  0.36037600  0.85634800  0.27516800  1
  N  N37  1  0.63962400  0.35634800  0.22483200  1
  N  N38  1  0.13962400  0.14365200  0.77516800  1
  N  N39  1  0.86037600  0.64365200  0.72483200  1
  N  N40  1  0.27516800  0.36037600  0.85634800  1
  N  N41  1  0.22483200  0.63962400  0.35634800  1
  N  N42  1  0.77516800  0.13962400  0.14365200  1
  N  N43  1  0.72483200  0.86037600  0.64365200  1
  N  N44  1  0.85634800  0.27516800  0.36037600  1
  N  N45  1  0.35634800  0.22483200  0.63962400  1
  N  N46  1  0.14365200  0.77516800  0.13962400  1
  N  N47  1  0.64365200  0.72483200  0.86037600  1
  N  N48  1  0.63962400  0.14365200  0.72483200  1
  N  N49  1  0.36037600  0.64365200  0.77516800  1
  N  N50  1  0.86037600  0.85634800  0.22483200  1
  N  N51  1  0.13962400  0.35634800  0.27516800  1
  N  N52  1  0.72483200  0.63962400  0.14365200  1
  N  N53  1  0.77516800  0.36037600  0.64365200  1
  N  N54  1  0.22483200  0.86037600  0.85634800  1
  N  N55  1  0.27516800  0.13962400  0.35634800  1
  N  N56  1  0.14365200  0.72483200  0.63962400  1
  N  N57  1  0.64365200  0.77516800  0.36037600  1
  N  N58  1  0.85634800  0.22483200  0.86037600  1
  N  N59  1  0.35634800  0.27516800  0.13962400  1
  N  N60  1  0.41788800  0.72484000  0.52088600  1
  N  N61  1  0.58211200  0.22484000  0.97911400  1
  N  N62  1  0.08211200  0.27516000  0.02088600  1
  N  N63  1  0.91788800  0.77516000  0.47911400  1
  N  N64  1  0.52088600  0.41788800  0.72484000  1
  N  N65  1  0.97911400  0.58211200  0.22484000  1
  N  N66  1  0.02088600  0.08211200  0.27516000  1
  N  N67  1  0.47911400  0.91788800  0.77516000  1
  N  N68  1  0.72484000  0.52088600  0.41788800  1
  N  N69  1  0.22484000  0.97911400  0.58211200  1
  N  N70  1  0.27516000  0.02088600  0.08211200  1
  N  N71  1  0.77516000  0.47911400  0.91788800  1
  N  N72  1  0.58211200  0.27516000  0.47911400  1
  N  N73  1  0.41788800  0.77516000  0.02088600  1
  N  N74  1  0.91788800  0.72484000  0.97911400  1
  N  N75  1  0.08211200  0.22484000  0.52088600  1
  N  N76  1  0.47911400  0.58211200  0.27516000  1
  N  N77  1  0.02088600  0.41788800  0.77516000  1
  N  N78  1  0.97911400  0.91788800  0.72484000  1
  N  N79  1  0.52088600  0.08211200  0.22484000  1
  N  N80  1  0.27516000  0.47911400  0.58211200  1
  N  N81  1  0.77516000  0.02088600  0.41788800  1
  N  N82  1  0.72484000  0.97911400  0.91788800  1
  N  N83  1  0.22484000  0.52088600  0.08211200  1
