# generated using pymatgen
data_SmMg2W3S8
_symmetry_space_group_name_H-M   'P 1'
_cell_length_a   7.64033747
_cell_length_b   7.64036359
_cell_length_c   7.46645584
_cell_angle_alpha   57.40671757
_cell_angle_beta   57.40597582
_cell_angle_gamma   59.34435100
_symmetry_Int_Tables_number   1
_chemical_formula_structural   SmMg2W3S8
_chemical_formula_sum   'Sm1 Mg2 W3 S8'
_cell_volume   294.18824844
_cell_formula_units_Z   1
loop_
 _symmetry_equiv_pos_site_id
 _symmetry_equiv_pos_as_xyz
  1  'x, y, z'
loop_
 _atom_site_type_symbol
 _atom_site_label
 _atom_site_symmetry_multiplicity
 _atom_site_fract_x
 _atom_site_fract_y
 _atom_site_fract_z
 _atom_site_occupancy
  Sm  Sm0  1  0.50000200  0.50001300  0.49998000  1
  Mg  Mg1  1  0.87622300  0.87622600  0.86787700  1
  Mg  Mg2  1  0.12377200  0.12376800  0.13215100  1
  W  W3  1  0.50017800  0.50017200  0.99964900  1
  W  W4  1  0.99984500  0.49999200  0.50017400  1
  W  W5  1  0.49999800  0.99984400  0.50016800  1
  S  S6  1  0.74279600  0.74279600  0.73503600  1
  S  S7  1  0.23999800  0.23999800  0.72507800  1
  S  S8  1  0.24491700  0.73008600  0.23964700  1
  S  S9  1  0.73008700  0.24492000  0.23964500  1
  S  S10  1  0.75507400  0.26981600  0.76033400  1
  S  S11  1  0.26981400  0.75508200  0.76034200  1
  S  S12  1  0.25730600  0.25729700  0.26495200  1
  S  S13  1  0.75999400  0.75998500  0.27496700  1
