# generated using pymatgen
data_Sr2SbN3
_symmetry_space_group_name_H-M   'P 1'
_cell_length_a   6.57207024
_cell_length_b   11.72023344
_cell_length_c   12.46368067
_cell_angle_alpha   90.00000047
_cell_angle_beta   90.00529496
_cell_angle_gamma   153.08382318
_symmetry_Int_Tables_number   1
_chemical_formula_structural   Sr2SbN3
_chemical_formula_sum   'Sr8 Sb4 N12'
_cell_volume   434.59255995
_cell_formula_units_Z   4
loop_
 _symmetry_equiv_pos_site_id
 _symmetry_equiv_pos_as_xyz
  1  'x, y, z'
loop_
 _atom_site_type_symbol
 _atom_site_label
 _atom_site_symmetry_multiplicity
 _atom_site_fract_x
 _atom_site_fract_y
 _atom_site_fract_z
 _atom_site_occupancy
  Sr  Sr0  1  0.50031400  0.03970300  0.85619900  1
  Sr  Sr1  1  0.49968600  0.53938900  0.64380100  1
  Sr  Sr2  1  0.49968600  0.96029700  0.14380100  1
  Sr  Sr3  1  0.50031400  0.46061100  0.35619900  1
  Sr  Sr4  1  0.49996400  0.86677700  0.57605300  1
  Sr  Sr5  1  0.50003600  0.36681300  0.92394700  1
  Sr  Sr6  1  0.50003600  0.13322300  0.42394700  1
  Sr  Sr7  1  0.49996400  0.63318700  0.07605300  1
  Sb  Sb8  1  0.50011200  0.24603900  0.65965700  1
  Sb  Sb9  1  0.49988800  0.74592700  0.84034300  1
  Sb  Sb10  1  0.49988800  0.75396100  0.34034300  1
  Sb  Sb11  1  0.50011200  0.25407300  0.15965700  1
  N  N12  1  0.00000000  0.56590400  0.75000000  1
  N  N13  1  0.00000000  0.43409600  0.25000000  1
  N  N14  1  0.50070800  0.07664000  0.64165700  1
  N  N15  1  0.49929200  0.57593200  0.85834300  1
  N  N16  1  0.49929200  0.92336000  0.35834300  1
  N  N17  1  0.50070800  0.42406800  0.14165700  1
  N  N18  1  0.49976000  0.15262400  0.03018200  1
  N  N19  1  0.50024000  0.65286400  0.46981800  1
  N  N20  1  0.50024000  0.84737600  0.96981800  1
  N  N21  1  0.49976000  0.34713600  0.53018200  1
  N  N22  1  0.00000000  0.06568900  0.75000000  1
  N  N23  1  0.00000000  0.93431100  0.25000000  1
