# generated using pymatgen
data_SiGeN2
_symmetry_space_group_name_H-M   'P 1'
_cell_length_a   4.89740300
_cell_length_b   10.85313800
_cell_length_c   14.67567200
_cell_angle_alpha   90.00000000
_cell_angle_beta   90.00000000
_cell_angle_gamma   90.00000000
_symmetry_Int_Tables_number   1
_chemical_formula_structural   SiGeN2
_chemical_formula_sum   'Si16 Ge16 N32'
_cell_volume   780.04411534
_cell_formula_units_Z   16
loop_
 _symmetry_equiv_pos_site_id
 _symmetry_equiv_pos_as_xyz
  1  'x, y, z'
loop_
 _atom_site_type_symbol
 _atom_site_label
 _atom_site_symmetry_multiplicity
 _atom_site_fract_x
 _atom_site_fract_y
 _atom_site_fract_z
 _atom_site_occupancy
  Si  Si0  1  0.68798400  0.98954400  0.18886600  1
  Si  Si1  1  0.18798400  0.51045600  0.81113400  1
  Si  Si2  1  0.31201600  0.48954400  0.31113400  1
  Si  Si3  1  0.81201600  0.01045600  0.68886600  1
  Si  Si4  1  0.31201600  0.01045600  0.81113400  1
  Si  Si5  1  0.81201600  0.48954400  0.18886600  1
  Si  Si6  1  0.68798400  0.51045600  0.68886600  1
  Si  Si7  1  0.18798400  0.98954400  0.31113400  1
  Si  Si8  1  0.83487600  0.24913900  0.06112600  1
  Si  Si9  1  0.33487600  0.25086100  0.93887400  1
  Si  Si10  1  0.16512400  0.74913900  0.43887400  1
  Si  Si11  1  0.66512400  0.75086100  0.56112600  1
  Si  Si12  1  0.16512400  0.75086100  0.93887400  1
  Si  Si13  1  0.66512400  0.74913900  0.06112600  1
  Si  Si14  1  0.83487600  0.25086100  0.56112600  1
  Si  Si15  1  0.33487600  0.24913900  0.43887400  1
  Ge  Ge16  1  0.68378400  0.96108900  0.42600800  1
  Ge  Ge17  1  0.18378400  0.53891100  0.57399200  1
  Ge  Ge18  1  0.31621600  0.46108900  0.07399200  1
  Ge  Ge19  1  0.81621600  0.03891100  0.92600800  1
  Ge  Ge20  1  0.31621600  0.03891100  0.57399200  1
  Ge  Ge21  1  0.81621600  0.46108900  0.42600800  1
  Ge  Ge22  1  0.68378400  0.53891100  0.92600800  1
  Ge  Ge23  1  0.18378400  0.96108900  0.07399200  1
  Ge  Ge24  1  0.91840500  0.23267600  0.31917400  1
  Ge  Ge25  1  0.41840500  0.26732400  0.68082600  1
  Ge  Ge26  1  0.08159500  0.73267600  0.18082600  1
  Ge  Ge27  1  0.58159500  0.76732400  0.81917400  1
  Ge  Ge28  1  0.08159500  0.76732400  0.68082600  1
  Ge  Ge29  1  0.58159500  0.73267600  0.31917400  1
  Ge  Ge30  1  0.91840500  0.26732400  0.81917400  1
  Ge  Ge31  1  0.41840500  0.23267600  0.18082600  1
  N  N32  1  0.66179900  0.47818300  0.29646100  1
  N  N33  1  0.16179900  0.02181700  0.70353900  1
  N  N34  1  0.33820100  0.97818300  0.20353900  1
  N  N35  1  0.83820100  0.52181700  0.79646100  1
  N  N36  1  0.33820100  0.52181700  0.70353900  1
  N  N37  1  0.83820100  0.97818300  0.29646100  1
  N  N38  1  0.66179900  0.02181700  0.79646100  1
  N  N39  1  0.16179900  0.47818300  0.20353900  1
  N  N40  1  0.68796300  0.27212500  0.45071600  1
  N  N41  1  0.18796300  0.22787500  0.54928400  1
  N  N42  1  0.31203700  0.77212500  0.04928400  1
  N  N43  1  0.81203700  0.72787500  0.95071600  1
  N  N44  1  0.31203700  0.72787500  0.54928400  1
  N  N45  1  0.81203700  0.77212500  0.45071600  1
  N  N46  1  0.68796300  0.22787500  0.95071600  1
  N  N47  1  0.18796300  0.27212500  0.04928400  1
  N  N48  1  0.66932800  0.37199600  0.11990000  1
  N  N49  1  0.16932800  0.12800400  0.88010000  1
  N  N50  1  0.33067200  0.87199600  0.38010000  1
  N  N51  1  0.83067200  0.62800400  0.61990000  1
  N  N52  1  0.33067200  0.62800400  0.88010000  1
  N  N53  1  0.83067200  0.87199600  0.11990000  1
  N  N54  1  0.66932800  0.12800400  0.61990000  1
  N  N55  1  0.16932800  0.37199600  0.38010000  1
  N  N56  1  0.72716500  0.12883700  0.13013900  1
  N  N57  1  0.22716500  0.37116300  0.86986100  1
  N  N58  1  0.27283500  0.62883700  0.36986100  1
  N  N59  1  0.77283500  0.87116300  0.63013900  1
  N  N60  1  0.27283500  0.87116300  0.86986100  1
  N  N61  1  0.77283500  0.62883700  0.13013900  1
  N  N62  1  0.72716500  0.37116300  0.63013900  1
  N  N63  1  0.22716500  0.12883700  0.36986100  1
