# generated using pymatgen
data_Li2ReN2
_symmetry_space_group_name_H-M   'P 1'
_cell_length_a   2.93560975
_cell_length_b   2.93584445
_cell_length_c   7.66993116
_cell_angle_alpha   89.99999700
_cell_angle_beta   89.88693943
_cell_angle_gamma   120.00265445
_symmetry_Int_Tables_number   1
_chemical_formula_structural   Li2ReN2
_chemical_formula_sum   'Li2 Re1 N2'
_cell_volume   57.24541592
_cell_formula_units_Z   1
loop_
 _symmetry_equiv_pos_site_id
 _symmetry_equiv_pos_as_xyz
  1  'x, y, z'
loop_
 _atom_site_type_symbol
 _atom_site_label
 _atom_site_symmetry_multiplicity
 _atom_site_fract_x
 _atom_site_fract_y
 _atom_site_fract_z
 _atom_site_occupancy
  Li  Li0  1  0.66461800  0.33230900  0.30234900  1
  Li  Li1  1  0.33538200  0.66769100  0.69765100  1
  Re  Re2  1  0.00000000  0.00000000  0.00000000  1
  N  N3  1  0.66788300  0.33394200  0.83626700  1
  N  N4  1  0.33211700  0.66605800  0.16373300  1
