# generated using pymatgen
data_Bi4S3N2
_symmetry_space_group_name_H-M   'P 1'
_cell_length_a   6.85827100
_cell_length_b   15.36249100
_cell_length_c   3.98172200
_cell_angle_alpha   90.00000000
_cell_angle_beta   90.00000000
_cell_angle_gamma   90.00000000
_symmetry_Int_Tables_number   1
_chemical_formula_structural   Bi4S3N2
_chemical_formula_sum   'Bi8 S6 N4'
_cell_volume   419.51473366
_cell_formula_units_Z   2
loop_
 _symmetry_equiv_pos_site_id
 _symmetry_equiv_pos_as_xyz
  1  'x, y, z'
loop_
 _atom_site_type_symbol
 _atom_site_label
 _atom_site_symmetry_multiplicity
 _atom_site_fract_x
 _atom_site_fract_y
 _atom_site_fract_z
 _atom_site_occupancy
  Bi  Bi0  1  0.71419700  0.93166000  0.50000000  1
  Bi  Bi1  1  0.28580300  0.06834000  0.50000000  1
  Bi  Bi2  1  0.21419700  0.56834000  0.00000000  1
  Bi  Bi3  1  0.78580300  0.43166000  0.00000000  1
  Bi  Bi4  1  0.77363800  0.65047100  0.50000000  1
  Bi  Bi5  1  0.22636200  0.34952900  0.50000000  1
  Bi  Bi6  1  0.27363800  0.84952900  0.00000000  1
  Bi  Bi7  1  0.72636200  0.15047100  0.00000000  1
  S  S8  1  0.50000000  0.50000000  0.50000000  1
  S  S9  1  0.00000000  0.00000000  0.00000000  1
  S  S10  1  0.85283100  0.29175400  0.50000000  1
  S  S11  1  0.14716900  0.70824600  0.50000000  1
  S  S12  1  0.35283100  0.20824600  0.00000000  1
  S  S13  1  0.64716900  0.79175400  0.00000000  1
  N  N14  1  0.62152400  0.07629100  0.50000000  1
  N  N15  1  0.37847600  0.92370900  0.50000000  1
  N  N16  1  0.12152400  0.42370900  0.00000000  1
  N  N17  1  0.87847600  0.57629100  0.00000000  1
