# generated using pymatgen
data_Mn3Sn8N9
_symmetry_space_group_name_H-M   'P 1'
_cell_length_a   6.96020299
_cell_length_b   11.03010575
_cell_length_c   18.83761827
_cell_angle_alpha   90.00000000
_cell_angle_beta   110.19842793
_cell_angle_gamma   90.00000000
_symmetry_Int_Tables_number   1
_chemical_formula_structural   Mn3Sn8N9
_chemical_formula_sum   'Mn12 Sn32 N36'
_cell_volume   1357.25986186
_cell_formula_units_Z   4
loop_
 _symmetry_equiv_pos_site_id
 _symmetry_equiv_pos_as_xyz
  1  'x, y, z'
loop_
 _atom_site_type_symbol
 _atom_site_label
 _atom_site_symmetry_multiplicity
 _atom_site_fract_x
 _atom_site_fract_y
 _atom_site_fract_z
 _atom_site_occupancy
  Mn  Mn0  1  0.58416304  0.07995381  0.74324152  1
  Mn  Mn1  1  0.41583696  0.57995381  0.75675848  1
  Mn  Mn2  1  0.41583696  0.92004619  0.25675848  1
  Mn  Mn3  1  0.58416304  0.42004619  0.24324152  1
  Mn  Mn4  1  0.83732915  0.90788634  0.57436294  1
  Mn  Mn5  1  0.16267085  0.40788634  0.92563706  1
  Mn  Mn6  1  0.16267085  0.09211366  0.42563706  1
  Mn  Mn7  1  0.83732915  0.59211366  0.07436294  1
  Mn  Mn8  1  0.70306311  0.32874043  0.59593223  1
  Mn  Mn9  1  0.29693689  0.82874043  0.90406777  1
  Mn  Mn10  1  0.29693689  0.67125957  0.40406777  1
  Mn  Mn11  1  0.70306311  0.17125957  0.09593223  1
  Sn  Sn12  1  0.50622022  0.86673135  0.09528337  1
  Sn  Sn13  1  0.49377978  0.36673135  0.40471663  1
  Sn  Sn14  1  0.49377978  0.13326865  0.90471663  1
  Sn  Sn15  1  0.50622022  0.63326865  0.59528337  1
  Sn  Sn16  1  0.46456215  0.13445181  0.59094332  1
  Sn  Sn17  1  0.53543785  0.63445181  0.90905668  1
  Sn  Sn18  1  0.53543785  0.86554819  0.40905668  1
  Sn  Sn19  1  0.46456215  0.36554819  0.09094332  1
  Sn  Sn20  1  0.79315613  0.85507141  0.73766011  1
  Sn  Sn21  1  0.20684387  0.35507141  0.76233989  1
  Sn  Sn22  1  0.20684387  0.14492859  0.26233989  1
  Sn  Sn23  1  0.79315613  0.64492859  0.23766011  1
  Sn  Sn24  1  0.69142560  0.34148377  0.75525447  1
  Sn  Sn25  1  0.30857440  0.84148377  0.74474553  1
  Sn  Sn26  1  0.30857440  0.65851623  0.24474553  1
  Sn  Sn27  1  0.69142560  0.15851623  0.25525447  1
  Sn  Sn28  1  0.81042035  0.38811691  0.97484423  1
  Sn  Sn29  1  0.18957965  0.88811691  0.52515577  1
  Sn  Sn30  1  0.18957965  0.61188309  0.02515577  1
  Sn  Sn31  1  0.81042035  0.11188309  0.47484423  1
  Sn  Sn32  1  0.00363292  0.12714009  0.86370961  1
  Sn  Sn33  1  0.99636708  0.62714009  0.63629039  1
  Sn  Sn34  1  0.99636708  0.87285991  0.13629039  1
  Sn  Sn35  1  0.00363292  0.37285991  0.36370961  1
  Sn  Sn36  1  0.01233902  0.08990812  0.66435611  1
  Sn  Sn37  1  0.98766098  0.58990812  0.83564389  1
  Sn  Sn38  1  0.98766098  0.91009188  0.33564389  1
  Sn  Sn39  1  0.01233902  0.41009188  0.16435611  1
  Sn  Sn40  1  0.08162370  0.36101511  0.55290355  1
  Sn  Sn41  1  0.91837630  0.86101511  0.94709645  1
  Sn  Sn42  1  0.91837630  0.63898489  0.44709645  1
  Sn  Sn43  1  0.08162370  0.13898489  0.05290355  1
  N  N44  1  0.52226651  0.43324639  0.58464540  1
  N  N45  1  0.47773349  0.93324639  0.91535460  1
  N  N46  1  0.47773349  0.56675361  0.41535460  1
  N  N47  1  0.52226651  0.06675361  0.08464540  1
  N  N48  1  0.66944801  0.17104581  0.83070640  1
  N  N49  1  0.33055199  0.67104581  0.66929360  1
  N  N50  1  0.33055199  0.82895419  0.16929360  1
  N  N51  1  0.66944801  0.32895419  0.33070640  1
  N  N52  1  0.74647104  0.19979850  0.00482915  1
  N  N53  1  0.25352896  0.69979850  0.49517085  1
  N  N54  1  0.25352896  0.80020150  0.99517085  1
  N  N55  1  0.74647104  0.30020150  0.50482915  1
  N  N56  1  0.60535348  0.94502192  0.57229831  1
  N  N57  1  0.39464652  0.44502192  0.92770169  1
  N  N58  1  0.39464652  0.05497808  0.42770169  1
  N  N59  1  0.60535348  0.55497808  0.07229831  1
  N  N60  1  0.87157356  0.05147898  0.74812085  1
  N  N61  1  0.12842644  0.55147898  0.75187915  1
  N  N62  1  0.12842644  0.94852102  0.25187915  1
  N  N63  1  0.87157356  0.44852102  0.24812085  1
  N  N64  1  0.99337745  0.28671546  0.65352059  1
  N  N65  1  0.00662255  0.78671546  0.84647941  1
  N  N66  1  0.00662255  0.71328454  0.34647941  1
  N  N67  1  0.99337745  0.21328454  0.15352059  1
  N  N68  1  0.01958591  0.32174850  0.83282933  1
  N  N69  1  0.98041409  0.82174850  0.66717067  1
  N  N70  1  0.98041409  0.67825150  0.16717067  1
  N  N71  1  0.01958591  0.17825150  0.33282933  1
  N  N72  1  0.15476199  0.17668390  0.51287013  1
  N  N73  1  0.84523801  0.67668390  0.98712987  1
  N  N74  1  0.84523801  0.82331610  0.48712987  1
  N  N75  1  0.15476199  0.32331610  0.01287013  1
  N  N76  1  0.31785557  0.03298036  0.71953878  1
  N  N77  1  0.68214443  0.53298036  0.78046122  1
  N  N78  1  0.68214443  0.96701964  0.28046122  1
  N  N79  1  0.31785557  0.46701964  0.21953878  1
