# generated using pymatgen
data_Ba5Zr2N6
_symmetry_space_group_name_H-M   'P 1'
_cell_length_a   6.80036535
_cell_length_b   7.53713096
_cell_length_c   14.99863876
_cell_angle_alpha   89.99999949
_cell_angle_beta   95.24229136
_cell_angle_gamma   123.65363435
_symmetry_Int_Tables_number   1
_chemical_formula_structural   Ba5Zr2N6
_chemical_formula_sum   'Ba10 Zr4 N12'
_cell_volume   636.05052620
_cell_formula_units_Z   2
loop_
 _symmetry_equiv_pos_site_id
 _symmetry_equiv_pos_as_xyz
  1  'x, y, z'
loop_
 _atom_site_type_symbol
 _atom_site_label
 _atom_site_symmetry_multiplicity
 _atom_site_fract_x
 _atom_site_fract_y
 _atom_site_fract_z
 _atom_site_occupancy
  Ba  Ba0  1  0.07468700  0.76652300  0.97906900  1
  Ba  Ba1  1  0.92531300  0.69183600  0.52093100  1
  Ba  Ba2  1  0.92531300  0.23347700  0.02093100  1
  Ba  Ba3  1  0.07468700  0.30816400  0.47906900  1
  Ba  Ba4  1  0.30935200  0.10187400  0.70598900  1
  Ba  Ba5  1  0.69064800  0.79252200  0.79401100  1
  Ba  Ba6  1  0.69064800  0.89812600  0.29401100  1
  Ba  Ba7  1  0.30935200  0.20747800  0.20598900  1
  Ba  Ba8  1  0.00000000  0.40782500  0.75000000  1
  Ba  Ba9  1  0.00000000  0.59217500  0.25000000  1
  Zr  Zr10  1  0.55225000  0.90005900  0.57729400  1
  Zr  Zr11  1  0.44775000  0.34780900  0.92270600  1
  Zr  Zr12  1  0.44775000  0.09994100  0.42270600  1
  Zr  Zr13  1  0.55225000  0.65219100  0.07729400  1
  N  N14  1  0.88223500  0.95603800  0.62059500  1
  N  N15  1  0.11776500  0.07380200  0.87940500  1
  N  N16  1  0.11776500  0.04396200  0.37940500  1
  N  N17  1  0.88223500  0.92619800  0.12059500  1
  N  N18  1  0.28847300  0.74279300  0.66277600  1
  N  N19  1  0.71152700  0.45432000  0.83722400  1
  N  N20  1  0.71152700  0.25720700  0.33722400  1
  N  N21  1  0.28847300  0.54568000  0.16277600  1
  N  N22  1  0.60604000  0.20290600  0.55767800  1
  N  N23  1  0.39396000  0.59686600  0.94232200  1
  N  N24  1  0.39396000  0.79709400  0.44232200  1
  N  N25  1  0.60604000  0.40313400  0.05767800  1
