# generated using pymatgen
data_Co2Ge5N8
_symmetry_space_group_name_H-M   'P 1'
_cell_length_a   11.20484455
_cell_length_b   10.42141694
_cell_length_c   14.07947159
_cell_angle_alpha   90.00000000
_cell_angle_beta   90.00000000
_cell_angle_gamma   90.00000000
_symmetry_Int_Tables_number   1
_chemical_formula_structural   Co2Ge5N8
_chemical_formula_sum   'Co16 Ge40 N64'
_cell_volume   1644.06492117
_cell_formula_units_Z   8
loop_
 _symmetry_equiv_pos_site_id
 _symmetry_equiv_pos_as_xyz
  1  'x, y, z'
loop_
 _atom_site_type_symbol
 _atom_site_label
 _atom_site_symmetry_multiplicity
 _atom_site_fract_x
 _atom_site_fract_y
 _atom_site_fract_z
 _atom_site_occupancy
  Co  Co0  1  0.05091326  0.13540181  0.01346899  1
  Co  Co1  1  0.55091326  0.36459819  0.98653101  1
  Co  Co2  1  0.94908674  0.63540181  0.48653101  1
  Co  Co3  1  0.44908674  0.86459819  0.51346899  1
  Co  Co4  1  0.94908674  0.86459819  0.98653101  1
  Co  Co5  1  0.44908674  0.63540181  0.01346899  1
  Co  Co6  1  0.05091326  0.36459819  0.51346899  1
  Co  Co7  1  0.55091326  0.13540181  0.48653101  1
  Co  Co8  1  0.31471364  0.12046399  0.02979478  1
  Co  Co9  1  0.81471364  0.37953601  0.97020522  1
  Co  Co10  1  0.68528636  0.62046399  0.47020522  1
  Co  Co11  1  0.18528636  0.87953601  0.52979478  1
  Co  Co12  1  0.68528636  0.87953601  0.97020522  1
  Co  Co13  1  0.18528636  0.62046399  0.02979478  1
  Co  Co14  1  0.31471364  0.37953601  0.52979478  1
  Co  Co15  1  0.81471364  0.12046399  0.47020522  1
  Ge  Ge16  1  0.39282662  0.25501047  0.83409482  1
  Ge  Ge17  1  0.89282662  0.24498953  0.16590518  1
  Ge  Ge18  1  0.60717338  0.75501047  0.66590518  1
  Ge  Ge19  1  0.10717338  0.74498953  0.33409482  1
  Ge  Ge20  1  0.60717338  0.74498953  0.16590518  1
  Ge  Ge21  1  0.10717338  0.75501047  0.83409482  1
  Ge  Ge22  1  0.39282662  0.24498953  0.33409482  1
  Ge  Ge23  1  0.89282662  0.25501047  0.66590518  1
  Ge  Ge24  1  0.15513740  0.25331414  0.71455636  1
  Ge  Ge25  1  0.65513740  0.24668586  0.28544364  1
  Ge  Ge26  1  0.84486260  0.75331414  0.78544364  1
  Ge  Ge27  1  0.34486260  0.74668586  0.21455636  1
  Ge  Ge28  1  0.84486260  0.74668586  0.28544364  1
  Ge  Ge29  1  0.34486260  0.75331414  0.71455636  1
  Ge  Ge30  1  0.15513740  0.24668586  0.21455636  1
  Ge  Ge31  1  0.65513740  0.25331414  0.78544364  1
  Ge  Ge32  1  0.25752204  0.99919224  0.83051341  1
  Ge  Ge33  1  0.75752204  0.50080776  0.16948659  1
  Ge  Ge34  1  0.74247796  0.49919224  0.66948659  1
  Ge  Ge35  1  0.24247796  0.00080776  0.33051341  1
  Ge  Ge36  1  0.74247796  0.00080776  0.16948659  1
  Ge  Ge37  1  0.24247796  0.49919224  0.83051341  1
  Ge  Ge38  1  0.25752204  0.50080776  0.33051341  1
  Ge  Ge39  1  0.75752204  0.99919224  0.66948659  1
  Ge  Ge40  1  0.98277893  0.02204694  0.79580046  1
  Ge  Ge41  1  0.48277893  0.47795306  0.20419954  1
  Ge  Ge42  1  0.01722107  0.52204694  0.70419954  1
  Ge  Ge43  1  0.51722107  0.97795306  0.29580046  1
  Ge  Ge44  1  0.01722107  0.97795306  0.20419954  1
  Ge  Ge45  1  0.51722107  0.52204694  0.79580046  1
  Ge  Ge46  1  0.98277893  0.47795306  0.29580046  1
  Ge  Ge47  1  0.48277893  0.02204694  0.70419954  1
  Ge  Ge48  1  0.79815766  0.13297352  0.96957555  1
  Ge  Ge49  1  0.29815766  0.36702648  0.03042445  1
  Ge  Ge50  1  0.20184234  0.63297352  0.53042445  1
  Ge  Ge51  1  0.70184234  0.86702648  0.46957555  1
  Ge  Ge52  1  0.20184234  0.86702648  0.03042445  1
  Ge  Ge53  1  0.70184234  0.63297352  0.96957555  1
  Ge  Ge54  1  0.79815766  0.36702648  0.46957555  1
  Ge  Ge55  1  0.29815766  0.13297352  0.53042445  1
  N  N56  1  0.91016682  0.24495228  0.03388227  1
  N  N57  1  0.41016682  0.25504772  0.96611773  1
  N  N58  1  0.08983318  0.74495228  0.46611773  1
  N  N59  1  0.58983318  0.75504772  0.53388227  1
  N  N60  1  0.08983318  0.75504772  0.96611773  1
  N  N61  1  0.58983318  0.74495228  0.03388227  1
  N  N62  1  0.91016682  0.25504772  0.53388227  1
  N  N63  1  0.41016682  0.24495228  0.46611773  1
  N  N64  1  0.93770722  0.04584539  0.92357127  1
  N  N65  1  0.43770722  0.45415461  0.07642873  1
  N  N66  1  0.06229278  0.54584539  0.57642873  1
  N  N67  1  0.56229278  0.95415461  0.42357127  1
  N  N68  1  0.06229278  0.95415461  0.07642873  1
  N  N69  1  0.56229278  0.54584539  0.92357127  1
  N  N70  1  0.93770722  0.45415461  0.42357127  1
  N  N71  1  0.43770722  0.04584539  0.57642873  1
  N  N72  1  0.69871037  0.26307711  0.91327872  1
  N  N73  1  0.19871037  0.23692289  0.08672128  1
  N  N74  1  0.30128963  0.76307711  0.58672128  1
  N  N75  1  0.80128963  0.73692289  0.41327872  1
  N  N76  1  0.30128963  0.73692289  0.08672128  1
  N  N77  1  0.80128963  0.76307711  0.91327872  1
  N  N78  1  0.69871037  0.23692289  0.41327872  1
  N  N79  1  0.19871037  0.26307711  0.58672128  1
  N  N80  1  0.29056911  0.97701694  0.95731845  1
  N  N81  1  0.79056911  0.52298306  0.04268155  1
  N  N82  1  0.70943089  0.47701694  0.54268155  1
  N  N83  1  0.20943089  0.02298306  0.45731845  1
  N  N84  1  0.70943089  0.02298306  0.04268155  1
  N  N85  1  0.20943089  0.47701694  0.95731845  1
  N  N86  1  0.29056911  0.52298306  0.45731845  1
  N  N87  1  0.79056911  0.97701694  0.54268155  1
  N  N88  1  0.01297531  0.16581883  0.72291438  1
  N  N89  1  0.51297531  0.33418117  0.27708562  1
  N  N90  1  0.98702469  0.66581883  0.77708562  1
  N  N91  1  0.48702469  0.83418117  0.22291438  1
  N  N92  1  0.98702469  0.83418117  0.27708562  1
  N  N93  1  0.48702469  0.66581883  0.72291438  1
  N  N94  1  0.01297531  0.33418117  0.22291438  1
  N  N95  1  0.51297531  0.16581883  0.77708562  1
  N  N96  1  0.37092973  0.91822756  0.75904437  1
  N  N97  1  0.87092973  0.58177244  0.24095563  1
  N  N98  1  0.62907027  0.41822756  0.74095563  1
  N  N99  1  0.12907027  0.08177244  0.25904437  1
  N  N100  1  0.62907027  0.08177244  0.24095563  1
  N  N101  1  0.12907027  0.41822756  0.75904437  1
  N  N102  1  0.37092973  0.58177244  0.25904437  1
  N  N103  1  0.87092973  0.91822756  0.74095563  1
  N  N104  1  0.25634632  0.17132726  0.79752854  1
  N  N105  1  0.75634632  0.32867274  0.20247146  1
  N  N106  1  0.74365368  0.67132726  0.70247146  1
  N  N107  1  0.24365368  0.82867274  0.29752854  1
  N  N108  1  0.74365368  0.82867274  0.20247146  1
  N  N109  1  0.24365368  0.67132726  0.79752854  1
  N  N110  1  0.25634632  0.32867274  0.29752854  1
  N  N111  1  0.75634632  0.17132726  0.70247146  1
  N  N112  1  0.11879424  0.92297605  0.79143433  1
  N  N113  1  0.61879424  0.57702395  0.20856567  1
  N  N114  1  0.88120576  0.42297605  0.70856567  1
  N  N115  1  0.38120576  0.07702395  0.29143433  1
  N  N116  1  0.88120576  0.07702395  0.20856567  1
  N  N117  1  0.38120576  0.42297605  0.79143433  1
  N  N118  1  0.11879424  0.57702395  0.29143433  1
  N  N119  1  0.61879424  0.92297605  0.70856567  1
