# generated using pymatgen
data_NbCr3(AgS4)2
_symmetry_space_group_name_H-M   'P 1'
_cell_length_a   11.18962500
_cell_length_b   3.46211900
_cell_length_c   13.03102800
_cell_angle_alpha   90.00000000
_cell_angle_beta   90.00000000
_cell_angle_gamma   90.00000000
_symmetry_Int_Tables_number   1
_chemical_formula_structural   NbCr3(AgS4)2
_chemical_formula_sum   'Nb2 Cr6 Ag4 S16'
_cell_volume   504.81959203
_cell_formula_units_Z   2
loop_
 _symmetry_equiv_pos_site_id
 _symmetry_equiv_pos_as_xyz
  1  'x, y, z'
loop_
 _atom_site_type_symbol
 _atom_site_label
 _atom_site_symmetry_multiplicity
 _atom_site_fract_x
 _atom_site_fract_y
 _atom_site_fract_z
 _atom_site_occupancy
  Nb  Nb0  1  0.08767800  0.25000000  0.59601200  1
  Nb  Nb1  1  0.58767800  0.25000000  0.90398800  1
  Cr  Cr2  1  0.05819100  0.25000000  0.11692400  1
  Cr  Cr3  1  0.94656300  0.75000000  0.89440300  1
  Cr  Cr4  1  0.44656300  0.75000000  0.60559700  1
  Cr  Cr5  1  0.55819100  0.25000000  0.38307600  1
  Cr  Cr6  1  0.91414800  0.75000000  0.40035200  1
  Cr  Cr7  1  0.41414800  0.75000000  0.09964800  1
  Ag  Ag8  1  0.25518800  0.25000000  0.31798900  1
  Ag  Ag9  1  0.75128800  0.75000000  0.66019900  1
  Ag  Ag10  1  0.25128800  0.75000000  0.83980100  1
  Ag  Ag11  1  0.75518800  0.25000000  0.18201100  1
  S  S12  1  0.02076700  0.75000000  0.71781400  1
  S  S13  1  0.96705600  0.25000000  0.28625900  1
  S  S14  1  0.46705600  0.25000000  0.21374100  1
  S  S15  1  0.52076700  0.75000000  0.78218600  1
  S  S16  1  0.08454500  0.25000000  0.93425800  1
  S  S17  1  0.91668600  0.75000000  0.07235300  1
  S  S18  1  0.41668600  0.75000000  0.42764700  1
  S  S19  1  0.58454500  0.25000000  0.56574200  1
  S  S20  1  0.11977600  0.75000000  0.45997800  1
  S  S21  1  0.87815400  0.25000000  0.52504600  1
  S  S22  1  0.37815400  0.25000000  0.97495400  1
  S  S23  1  0.61977600  0.75000000  0.04002200  1
  S  S24  1  0.20142700  0.75000000  0.15263800  1
  S  S25  1  0.79853400  0.25000000  0.85377800  1
  S  S26  1  0.29853400  0.25000000  0.64622200  1
  S  S27  1  0.70142700  0.75000000  0.34736200  1
