# generated using pymatgen
data_Mo3Pb3N5
_symmetry_space_group_name_H-M   'P 1'
_cell_length_a   6.12877224
_cell_length_b   7.97632407
_cell_length_c   8.84341802
_cell_angle_alpha   107.56599562
_cell_angle_beta   97.10838300
_cell_angle_gamma   99.90650103
_symmetry_Int_Tables_number   1
_chemical_formula_structural   Mo3Pb3N5
_chemical_formula_sum   'Mo6 Pb6 N10'
_cell_volume   398.84128470
_cell_formula_units_Z   2
loop_
 _symmetry_equiv_pos_site_id
 _symmetry_equiv_pos_as_xyz
  1  'x, y, z'
loop_
 _atom_site_type_symbol
 _atom_site_label
 _atom_site_symmetry_multiplicity
 _atom_site_fract_x
 _atom_site_fract_y
 _atom_site_fract_z
 _atom_site_occupancy
  Mo  Mo0  1  0.92796900  0.31348900  0.96790800  1
  Mo  Mo1  1  0.07203100  0.68651100  0.03209200  1
  Mo  Mo2  1  0.67473000  0.99728400  0.61414400  1
  Mo  Mo3  1  0.32527000  0.00271600  0.38585600  1
  Mo  Mo4  1  0.07976900  0.90719700  0.70778600  1
  Mo  Mo5  1  0.92023100  0.09280300  0.29221400  1
  Pb  Pb6  1  0.74777100  0.45326700  0.51721200  1
  Pb  Pb7  1  0.25222900  0.54673300  0.48278800  1
  Pb  Pb8  1  0.52080700  0.80384100  0.88284400  1
  Pb  Pb9  1  0.47919300  0.19615900  0.11715600  1
  Pb  Pb10  1  0.57103200  0.64747700  0.21786000  1
  Pb  Pb11  1  0.42896800  0.35252300  0.78214000  1
  N  N12  1  0.97042900  0.13122600  0.77626800  1
  N  N13  1  0.02957100  0.86877400  0.22373200  1
  N  N14  1  0.80434600  0.78467500  0.55704500  1
  N  N15  1  0.19565400  0.21532500  0.44295500  1
  N  N16  1  0.77787200  0.52341400  0.97806500  1
  N  N17  1  0.22212800  0.47658600  0.02193500  1
  N  N18  1  0.32981000  0.93996400  0.58596700  1
  N  N19  1  0.67019000  0.06003600  0.41403300  1
  N  N20  1  0.10103200  0.79594700  0.87149800  1
  N  N21  1  0.89896800  0.20405300  0.12850200  1
