# generated using pymatgen
data_CrGeN2
_symmetry_space_group_name_H-M   'P 1'
_cell_length_a   5.50162600
_cell_length_b   6.67453700
_cell_length_c   5.28425900
_cell_angle_alpha   90.00000000
_cell_angle_beta   90.00000000
_cell_angle_gamma   90.00000000
_symmetry_Int_Tables_number   1
_chemical_formula_structural   CrGeN2
_chemical_formula_sum   'Cr4 Ge4 N8'
_cell_volume   194.04225116
_cell_formula_units_Z   4
loop_
 _symmetry_equiv_pos_site_id
 _symmetry_equiv_pos_as_xyz
  1  'x, y, z'
loop_
 _atom_site_type_symbol
 _atom_site_label
 _atom_site_symmetry_multiplicity
 _atom_site_fract_x
 _atom_site_fract_y
 _atom_site_fract_z
 _atom_site_occupancy
  Cr  Cr0  1  0.57079200  0.88327700  0.00273600  1
  Cr  Cr1  1  0.42920800  0.11672300  0.50273600  1
  Cr  Cr2  1  0.92920800  0.38327700  0.50273600  1
  Cr  Cr3  1  0.07079200  0.61672300  0.00273600  1
  Ge  Ge4  1  0.56793300  0.37711300  0.99969800  1
  Ge  Ge5  1  0.43206700  0.62288700  0.49969800  1
  Ge  Ge6  1  0.93206700  0.87711300  0.49969800  1
  Ge  Ge7  1  0.06793300  0.12288700  0.99969800  1
  N  N8  1  0.56981400  0.39037400  0.35779100  1
  N  N9  1  0.43018600  0.60962600  0.85779100  1
  N  N10  1  0.93018600  0.89037400  0.85779100  1
  N  N11  1  0.06981400  0.10962600  0.35779100  1
  N  N12  1  0.60309900  0.85464900  0.38977500  1
  N  N13  1  0.39690100  0.14535100  0.88977500  1
  N  N14  1  0.89690100  0.35464900  0.88977500  1
  N  N15  1  0.10309900  0.64535100  0.38977500  1
