# generated using pymatgen
data_Sr2CoN2
_symmetry_space_group_name_H-M   'P 1'
_cell_length_a   3.86133900
_cell_length_b   3.86258500
_cell_length_c   6.76575432
_cell_angle_alpha   106.58582361
_cell_angle_beta   106.58030993
_cell_angle_gamma   90.00000000
_symmetry_Int_Tables_number   1
_chemical_formula_structural   Sr2CoN2
_chemical_formula_sum   'Sr2 Co1 N2'
_cell_volume   92.32465966
_cell_formula_units_Z   1
loop_
 _symmetry_equiv_pos_site_id
 _symmetry_equiv_pos_as_xyz
  1  'x, y, z'
loop_
 _atom_site_type_symbol
 _atom_site_label
 _atom_site_symmetry_multiplicity
 _atom_site_fract_x
 _atom_site_fract_y
 _atom_site_fract_z
 _atom_site_occupancy
  Sr  Sr0  1  0.85574800  0.85574800  0.21149600  1
  Sr  Sr1  1  0.14425200  0.14425200  0.78850400  1
  Co  Co2  1  0.50000000  0.50000000  0.50000000  1
  N  N3  1  0.36051500  0.36051500  0.22103000  1
  N  N4  1  0.63948500  0.63948500  0.77897000  1
