# generated using pymatgen
data_Ca2CdN2
_symmetry_space_group_name_H-M   'P 1'
_cell_length_a   7.05623119
_cell_length_b   7.52547300
_cell_length_c   6.38641340
_cell_angle_alpha   90.00000000
_cell_angle_beta   91.96463560
_cell_angle_gamma   90.00000000
_symmetry_Int_Tables_number   1
_chemical_formula_structural   Ca2CdN2
_chemical_formula_sum   'Ca8 Cd4 N8'
_cell_volume   338.92863900
_cell_formula_units_Z   4
loop_
 _symmetry_equiv_pos_site_id
 _symmetry_equiv_pos_as_xyz
  1  'x, y, z'
loop_
 _atom_site_type_symbol
 _atom_site_label
 _atom_site_symmetry_multiplicity
 _atom_site_fract_x
 _atom_site_fract_y
 _atom_site_fract_z
 _atom_site_occupancy
  Ca  Ca0  1  0.35691400  0.35973000  0.91711100  1
  Ca  Ca1  1  0.64308600  0.85973000  0.58288900  1
  Ca  Ca2  1  0.64308600  0.64027000  0.08288900  1
  Ca  Ca3  1  0.35691400  0.14027000  0.41711100  1
  Ca  Ca4  1  0.97302100  0.14105300  0.75140000  1
  Ca  Ca5  1  0.02697900  0.64105300  0.74860000  1
  Ca  Ca6  1  0.02697900  0.85894700  0.24860000  1
  Ca  Ca7  1  0.97302100  0.35894700  0.25140000  1
  Cd  Cd8  1  0.68143600  0.41119900  0.58160300  1
  Cd  Cd9  1  0.31856400  0.91119900  0.91839700  1
  Cd  Cd10  1  0.31856400  0.58880100  0.41839700  1
  Cd  Cd11  1  0.68143600  0.08880100  0.08160300  1
  N  N12  1  0.26641900  0.86542300  0.57134000  1
  N  N13  1  0.73358100  0.36542300  0.92866000  1
  N  N14  1  0.73358100  0.13457700  0.42866000  1
  N  N15  1  0.26641900  0.63457700  0.07134000  1
  N  N16  1  0.18732100  0.36294800  0.59201500  1
  N  N17  1  0.81267900  0.86294800  0.90798500  1
  N  N18  1  0.81267900  0.63705200  0.40798500  1
  N  N19  1  0.18732100  0.13705200  0.09201500  1
