# generated using pymatgen
data_HfCrAgS4
_symmetry_space_group_name_H-M   'P 1'
_cell_length_a   14.17815965
_cell_length_b   3.60183700
_cell_length_c   6.09858392
_cell_angle_alpha   90.00000000
_cell_angle_beta   114.61767076
_cell_angle_gamma   90.00000000
_symmetry_Int_Tables_number   1
_chemical_formula_structural   HfCrAgS4
_chemical_formula_sum   'Hf2 Cr2 Ag2 S8'
_cell_volume   283.13153773
_cell_formula_units_Z   2
loop_
 _symmetry_equiv_pos_site_id
 _symmetry_equiv_pos_as_xyz
  1  'x, y, z'
loop_
 _atom_site_type_symbol
 _atom_site_label
 _atom_site_symmetry_multiplicity
 _atom_site_fract_x
 _atom_site_fract_y
 _atom_site_fract_z
 _atom_site_occupancy
  Hf  Hf0  1  0.75325900  0.00000000  0.76728500  1
  Hf  Hf1  1  0.25325900  0.50000000  0.76728500  1
  Cr  Cr2  1  0.24618400  0.00000000  0.23252300  1
  Cr  Cr3  1  0.74618400  0.50000000  0.23252300  1
  Ag  Ag4  1  0.00165100  0.50000000  0.51934000  1
  Ag  Ag5  1  0.50165100  0.00000000  0.51934000  1
  S  S6  1  0.13806300  0.50000000  0.98590000  1
  S  S7  1  0.86648900  0.50000000  0.03418900  1
  S  S8  1  0.63806300  0.00000000  0.98590000  1
  S  S9  1  0.36648900  0.00000000  0.03418900  1
  S  S10  1  0.14334000  0.00000000  0.46767900  1
  S  S11  1  0.85101400  0.00000000  0.49308400  1
  S  S12  1  0.64334000  0.50000000  0.46767900  1
  S  S13  1  0.35101400  0.50000000  0.49308400  1
