# generated using pymatgen
data_Ca5NiN4
_symmetry_space_group_name_H-M   'P 1'
_cell_length_a   8.94109400
_cell_length_b   7.05319700
_cell_length_c   6.22179200
_cell_angle_alpha   90.00000000
_cell_angle_beta   90.00000000
_cell_angle_gamma   90.00000000
_symmetry_Int_Tables_number   1
_chemical_formula_structural   Ca5NiN4
_chemical_formula_sum   'Ca10 Ni2 N8'
_cell_volume   392.36671912
_cell_formula_units_Z   2
loop_
 _symmetry_equiv_pos_site_id
 _symmetry_equiv_pos_as_xyz
  1  'x, y, z'
loop_
 _atom_site_type_symbol
 _atom_site_label
 _atom_site_symmetry_multiplicity
 _atom_site_fract_x
 _atom_site_fract_y
 _atom_site_fract_z
 _atom_site_occupancy
  Ca  Ca0  1  0.55184800  0.51253900  0.26805700  1
  Ca  Ca1  1  0.94815200  0.51253900  0.26805700  1
  Ca  Ca2  1  0.55184800  0.98746100  0.26805700  1
  Ca  Ca3  1  0.94815200  0.98746100  0.26805700  1
  Ca  Ca4  1  0.44815200  0.48746100  0.73194300  1
  Ca  Ca5  1  0.05184800  0.48746100  0.73194300  1
  Ca  Ca6  1  0.44815200  0.01253900  0.73194300  1
  Ca  Ca7  1  0.05184800  0.01253900  0.73194300  1
  Ca  Ca8  1  0.75000000  0.75000000  0.74815800  1
  Ca  Ca9  1  0.25000000  0.25000000  0.25184200  1
  Ni  Ni10  1  0.75000000  0.25000000  0.95911100  1
  Ni  Ni11  1  0.25000000  0.75000000  0.04088900  1
  N  N12  1  0.75000000  0.00435100  0.99887500  1
  N  N13  1  0.75000000  0.49564900  0.99887500  1
  N  N14  1  0.25000000  0.99564900  0.00112500  1
  N  N15  1  0.25000000  0.50435100  0.00112500  1
  N  N16  1  0.53766900  0.75000000  0.53713700  1
  N  N17  1  0.96233100  0.75000000  0.53713700  1
  N  N18  1  0.46233100  0.25000000  0.46286300  1
  N  N19  1  0.03766900  0.25000000  0.46286300  1
