# generated using pymatgen
data_K6WN4
_symmetry_space_group_name_H-M   'P 1'
_cell_length_a   8.23527600
_cell_length_b   8.23527600
_cell_length_c   6.76787200
_cell_angle_alpha   90.00000000
_cell_angle_beta   90.00000000
_cell_angle_gamma   90.00000000
_symmetry_Int_Tables_number   1
_chemical_formula_structural   K6WN4
_chemical_formula_sum   'K12 W2 N8'
_cell_volume   458.99552782
_cell_formula_units_Z   2
loop_
 _symmetry_equiv_pos_site_id
 _symmetry_equiv_pos_as_xyz
  1  'x, y, z'
loop_
 _atom_site_type_symbol
 _atom_site_label
 _atom_site_symmetry_multiplicity
 _atom_site_fract_x
 _atom_site_fract_y
 _atom_site_fract_z
 _atom_site_occupancy
  K  K0  1  0.00000000  0.50000000  0.67890500  1
  K  K1  1  0.50000000  0.00000000  0.82109500  1
  K  K2  1  0.50000000  0.00000000  0.32109500  1
  K  K3  1  0.00000000  0.50000000  0.17890500  1
  K  K4  1  0.20308500  0.20308500  0.50000000  1
  K  K5  1  0.79691500  0.79691500  0.50000000  1
  K  K6  1  0.70308500  0.70308500  0.00000000  1
  K  K7  1  0.29691500  0.29691500  0.00000000  1
  K  K8  1  0.79691500  0.20308500  0.50000000  1
  K  K9  1  0.20308500  0.79691500  0.50000000  1
  K  K10  1  0.29691500  0.70308500  0.00000000  1
  K  K11  1  0.70308500  0.29691500  0.00000000  1
  W  W12  1  0.50000000  0.50000000  0.50000000  1
  W  W13  1  0.00000000  0.00000000  0.00000000  1
  N  N14  1  0.30332100  0.50000000  0.34621300  1
  N  N15  1  0.69667900  0.50000000  0.34621300  1
  N  N16  1  0.80332100  0.00000000  0.15378700  1
  N  N17  1  0.19667900  0.00000000  0.15378700  1
  N  N18  1  0.50000000  0.30332100  0.65378700  1
  N  N19  1  0.50000000  0.69667900  0.65378700  1
  N  N20  1  0.00000000  0.80332100  0.84621300  1
  N  N21  1  0.00000000  0.19667900  0.84621300  1
