# generated using pymatgen
data_Sr3CoN3
_symmetry_space_group_name_H-M   'P 1'
_cell_length_a   7.59178729
_cell_length_b   7.59313962
_cell_length_c   5.27765400
_cell_angle_alpha   90.00000000
_cell_angle_beta   90.00000000
_cell_angle_gamma   120.02562364
_symmetry_Int_Tables_number   1
_chemical_formula_structural   Sr3CoN3
_chemical_formula_sum   'Sr6 Co2 N6'
_cell_volume   263.40545809
_cell_formula_units_Z   2
loop_
 _symmetry_equiv_pos_site_id
 _symmetry_equiv_pos_as_xyz
  1  'x, y, z'
loop_
 _atom_site_type_symbol
 _atom_site_label
 _atom_site_symmetry_multiplicity
 _atom_site_fract_x
 _atom_site_fract_y
 _atom_site_fract_z
 _atom_site_occupancy
  Sr  Sr0  1  0.91627400  0.63801200  0.25000000  1
  Sr  Sr1  1  0.72190600  0.08385300  0.25000000  1
  Sr  Sr2  1  0.36189700  0.27828400  0.25000000  1
  Sr  Sr3  1  0.08372600  0.36198800  0.75000000  1
  Sr  Sr4  1  0.27809400  0.91614700  0.75000000  1
  Sr  Sr5  1  0.63810300  0.72171600  0.75000000  1
  Co  Co6  1  0.66668500  0.33335200  0.75000000  1
  Co  Co7  1  0.33331500  0.66664800  0.25000000  1
  N  N8  1  0.88568600  0.57675000  0.75000000  1
  N  N9  1  0.69105900  0.11418600  0.75000000  1
  N  N10  1  0.42323400  0.30906600  0.75000000  1
  N  N11  1  0.11431400  0.42325000  0.25000000  1
  N  N12  1  0.30894100  0.88581400  0.25000000  1
  N  N13  1  0.57676600  0.69093400  0.25000000  1
