# generated using pymatgen
data_Ba3(MnN2)2
_symmetry_space_group_name_H-M   'P 1'
_cell_length_a   6.25409037
_cell_length_b   9.92369236
_cell_length_c   10.13088927
_cell_angle_alpha   90.00000000
_cell_angle_beta   90.00000000
_cell_angle_gamma   90.00000000
_symmetry_Int_Tables_number   1
_chemical_formula_structural   Ba3(MnN2)2
_chemical_formula_sum   'Ba12 Mn8 N16'
_cell_volume   628.76015654
_cell_formula_units_Z   4
loop_
 _symmetry_equiv_pos_site_id
 _symmetry_equiv_pos_as_xyz
  1  'x, y, z'
loop_
 _atom_site_type_symbol
 _atom_site_label
 _atom_site_symmetry_multiplicity
 _atom_site_fract_x
 _atom_site_fract_y
 _atom_site_fract_z
 _atom_site_occupancy
  Ba  Ba0  1  0.61975516  0.15553193  0.41634156  1
  Ba  Ba1  1  0.88024484  0.84446807  0.41634156  1
  Ba  Ba2  1  0.61975516  0.34446807  0.08365844  1
  Ba  Ba3  1  0.88024484  0.65553193  0.08365844  1
  Ba  Ba4  1  0.38024484  0.84446807  0.58365844  1
  Ba  Ba5  1  0.11975516  0.15553193  0.58365844  1
  Ba  Ba6  1  0.38024484  0.65553193  0.91634156  1
  Ba  Ba7  1  0.11975516  0.34446807  0.91634156  1
  Ba  Ba8  1  0.75000000  0.50000000  0.40503370  1
  Ba  Ba9  1  0.75000000  -0.00000000  0.09496630  1
  Ba  Ba10  1  0.25000000  0.50000000  0.59496630  1
  Ba  Ba11  1  0.25000000  -0.00000000  0.90503370  1
  Mn  Mn12  1  0.75000000  0.50000000  0.73662435  1
  Mn  Mn13  1  0.75000000  -0.00000000  0.76337565  1
  Mn  Mn14  1  0.25000000  0.50000000  0.26337565  1
  Mn  Mn15  1  0.25000000  -0.00000000  0.23662435  1
  Mn  Mn16  1  0.67328568  0.25000000  0.75000000  1
  Mn  Mn17  1  0.82671432  0.75000000  0.75000000  1
  Mn  Mn18  1  0.32671432  0.75000000  0.25000000  1
  Mn  Mn19  1  0.17328568  0.25000000  0.25000000  1
  N  N20  1  0.85805376  0.35511845  0.64183774  1
  N  N21  1  0.64194624  0.64488155  0.64183774  1
  N  N22  1  0.85805376  0.14488155  0.85816226  1
  N  N23  1  0.64194624  0.85511845  0.85816226  1
  N  N24  1  0.14194624  0.64488155  0.35816226  1
  N  N25  1  0.35805376  0.35511845  0.35816226  1
  N  N26  1  0.14194624  0.85511845  0.14183774  1
  N  N27  1  0.35805376  0.14488155  0.14183774  1
  N  N28  1  0.53784281  0.40472777  0.82661843  1
  N  N29  1  0.96215719  0.59527223  0.82661843  1
  N  N30  1  0.53784281  0.09527223  0.67338157  1
  N  N31  1  0.96215719  0.90472777  0.67338157  1
  N  N32  1  0.46215719  0.59527223  0.17338157  1
  N  N33  1  0.03784281  0.40472777  0.17338157  1
  N  N34  1  0.46215719  0.90472777  0.32661843  1
  N  N35  1  0.03784281  0.09527223  0.32661843  1
