# generated using pymatgen
data_Sr(PbN)2
_symmetry_space_group_name_H-M   'P 1'
_cell_length_a   3.61866300
_cell_length_b   3.61866268
_cell_length_c   9.51282700
_cell_angle_alpha   90.00000035
_cell_angle_beta   90.00001042
_cell_angle_gamma   119.99999382
_symmetry_Int_Tables_number   1
_chemical_formula_structural   Sr(PbN)2
_chemical_formula_sum   'Sr1 Pb2 N2'
_cell_volume   107.87889727
_cell_formula_units_Z   1
loop_
 _symmetry_equiv_pos_site_id
 _symmetry_equiv_pos_as_xyz
  1  'x, y, z'
loop_
 _atom_site_type_symbol
 _atom_site_label
 _atom_site_symmetry_multiplicity
 _atom_site_fract_x
 _atom_site_fract_y
 _atom_site_fract_z
 _atom_site_occupancy
  Sr  Sr0  1  0.00000000  0.00000000  0.50000000  1
  Pb  Pb1  1  0.66666600  0.33333300  0.19366200  1
  Pb  Pb2  1  0.33333400  0.66666700  0.80633800  1
  N  N3  1  0.66666800  0.33333400  0.67139700  1
  N  N4  1  0.33333200  0.66666600  0.32860300  1
