# generated using pymatgen
data_Ta(C2N3)3
_symmetry_space_group_name_H-M   'P 1'
_cell_length_a   6.95568504
_cell_length_b   11.86763420
_cell_length_c   11.90689000
_cell_angle_alpha   90.00000000
_cell_angle_beta   90.00000000
_cell_angle_gamma   31.45077093
_symmetry_Int_Tables_number   1
_chemical_formula_structural   Ta(C2N3)3
_chemical_formula_sum   'Ta2 C12 N18'
_cell_volume   512.83539318
_cell_formula_units_Z   2
loop_
 _symmetry_equiv_pos_site_id
 _symmetry_equiv_pos_as_xyz
  1  'x, y, z'
loop_
 _atom_site_type_symbol
 _atom_site_label
 _atom_site_symmetry_multiplicity
 _atom_site_fract_x
 _atom_site_fract_y
 _atom_site_fract_z
 _atom_site_occupancy
  Ta  Ta0  1  0.00000000  0.27220800  0.25000000  1
  Ta  Ta1  1  0.00000000  0.72779200  0.75000000  1
  C  C2  1  0.68292100  0.75866100  0.25000000  1
  C  C3  1  0.68292100  0.55841800  0.75000000  1
  C  C4  1  0.31707900  0.24133900  0.75000000  1
  C  C5  1  0.31707900  0.44158200  0.25000000  1
  C  C6  1  0.68547800  0.30584400  0.90177200  1
  C  C7  1  0.68547800  0.00867700  0.09822800  1
  C  C8  1  0.68547800  0.30584400  0.59822800  1
  C  C9  1  0.68547800  0.00867700  0.40177200  1
  C  C10  1  0.31452200  0.69415600  0.09822800  1
  C  C11  1  0.31452200  0.99132300  0.90177200  1
  C  C12  1  0.31452200  0.69415600  0.40177200  1
  C  C13  1  0.31452200  0.99132300  0.59822800  1
  N  N14  1  0.00000000  0.55127900  0.25000000  1
  N  N15  1  0.00000000  0.44872100  0.75000000  1
  N  N16  1  0.38068600  0.94841200  0.25000000  1
  N  N17  1  0.38068600  0.67090200  0.75000000  1
  N  N18  1  0.61931400  0.05158800  0.75000000  1
  N  N19  1  0.61931400  0.32909800  0.25000000  1
  N  N20  1  0.00000000  0.12147600  0.94254400  1
  N  N21  1  0.00000000  0.87852400  0.05745600  1
  N  N22  1  0.00000000  0.12147600  0.55745600  1
  N  N23  1  0.00000000  0.87852400  0.44254400  1
  N  N24  1  0.38536000  0.47852400  0.86942500  1
  N  N25  1  0.38536000  0.13611500  0.13057500  1
  N  N26  1  0.38536000  0.47852400  0.63057500  1
  N  N27  1  0.38536000  0.13611500  0.36942500  1
  N  N28  1  0.61464000  0.52147600  0.13057500  1
  N  N29  1  0.61464000  0.86388500  0.86942500  1
  N  N30  1  0.61464000  0.52147600  0.36942500  1
  N  N31  1  0.61464000  0.86388500  0.63057500  1
