# generated using pymatgen
data_Sr3Ru3N5
_symmetry_space_group_name_H-M   'P 1'
_cell_length_a   5.90447304
_cell_length_b   7.27197319
_cell_length_c   9.33913552
_cell_angle_alpha   110.73405361
_cell_angle_beta   104.86233493
_cell_angle_gamma   93.49671900
_symmetry_Int_Tables_number   1
_chemical_formula_structural   Sr3Ru3N5
_chemical_formula_sum   'Sr6 Ru6 N10'
_cell_volume   357.33097554
_cell_formula_units_Z   2
loop_
 _symmetry_equiv_pos_site_id
 _symmetry_equiv_pos_as_xyz
  1  'x, y, z'
loop_
 _atom_site_type_symbol
 _atom_site_label
 _atom_site_symmetry_multiplicity
 _atom_site_fract_x
 _atom_site_fract_y
 _atom_site_fract_z
 _atom_site_occupancy
  Sr  Sr0  1  0.82277100  0.42278800  0.61740000  1
  Sr  Sr1  1  0.17722900  0.57721200  0.38260000  1
  Sr  Sr2  1  0.65811300  0.86275900  0.88947600  1
  Sr  Sr3  1  0.34188700  0.13724100  0.11052400  1
  Sr  Sr4  1  0.66016700  0.69186100  0.21194200  1
  Sr  Sr5  1  0.33983300  0.30813900  0.78805800  1
  Ru  Ru6  1  0.89639500  0.32453200  0.97235600  1
  Ru  Ru7  1  0.10360500  0.67546800  0.02764400  1
  Ru  Ru8  1  0.65511500  0.92446900  0.59037200  1
  Ru  Ru9  1  0.34488500  0.07553100  0.40962800  1
  Ru  Ru10  1  0.09430700  0.87309500  0.70814400  1
  Ru  Ru11  1  0.90569300  0.12690500  0.29185600  1
  N  N12  1  0.91563300  0.10857400  0.78204400  1
  N  N13  1  0.08436700  0.89142600  0.21795600  1
  N  N14  1  0.81648900  0.69992200  0.50184100  1
  N  N15  1  0.18351100  0.30007800  0.49815900  1
  N  N16  1  0.74069100  0.53720200  0.91812400  1
  N  N17  1  0.25930900  0.46279800  0.08187600  1
  N  N18  1  0.36296200  0.91275100  0.63932700  1
  N  N19  1  0.63703800  0.08724900  0.36067300  1
  N  N20  1  0.16130900  0.76346300  0.87013200  1
  N  N21  1  0.83869100  0.23653700  0.12986800  1
