# generated using pymatgen
data_Mg2Ti3InS8
_symmetry_space_group_name_H-M   'P 1'
_cell_length_a   7.55390241
_cell_length_b   7.54617369
_cell_length_c   7.54479688
_cell_angle_alpha   57.60678290
_cell_angle_beta   57.60378640
_cell_angle_gamma   57.61945230
_symmetry_Int_Tables_number   1
_chemical_formula_structural   Mg2Ti3InS8
_chemical_formula_sum   'Mg2 Ti3 In1 S8'
_cell_volume   287.40305359
_cell_formula_units_Z   1
loop_
 _symmetry_equiv_pos_site_id
 _symmetry_equiv_pos_as_xyz
  1  'x, y, z'
loop_
 _atom_site_type_symbol
 _atom_site_label
 _atom_site_symmetry_multiplicity
 _atom_site_fract_x
 _atom_site_fract_y
 _atom_site_fract_z
 _atom_site_occupancy
  Mg  Mg0  1  0.87270400  0.87257200  0.87263300  1
  Mg  Mg1  1  0.12733400  0.12739200  0.12715200  1
  Ti  Ti2  1  0.49989300  0.50018100  0.99998800  1
  Ti  Ti3  1  0.99993100  0.50012900  0.49990300  1
  Ti  Ti4  1  0.50012500  0.00007100  0.49997300  1
  In  In5  1  0.49956800  0.50003000  0.50001300  1
  S  S6  1  0.74101000  0.74126600  0.74106900  1
  S  S7  1  0.25026400  0.25020000  0.72304600  1
  S  S8  1  0.25032000  0.72325900  0.25050300  1
  S  S9  1  0.72312900  0.25038300  0.25036300  1
  S  S10  1  0.74964100  0.27691500  0.74971300  1
  S  S11  1  0.27725900  0.74950400  0.74953300  1
  S  S12  1  0.25876000  0.25844700  0.25939000  1
  S  S13  1  0.75006500  0.74964500  0.27672200  1
