# generated using pymatgen
data_ScWN3
_symmetry_space_group_name_H-M   'P 1'
_cell_length_a   5.70705240
_cell_length_b   6.75056032
_cell_length_c   8.71163716
_cell_angle_alpha   89.93581839
_cell_angle_beta   105.72187372
_cell_angle_gamma   96.11014759
_symmetry_Int_Tables_number   1
_chemical_formula_structural   ScWN3
_chemical_formula_sum   'Sc4 W4 N12'
_cell_volume   321.09653297
_cell_formula_units_Z   4
loop_
 _symmetry_equiv_pos_site_id
 _symmetry_equiv_pos_as_xyz
  1  'x, y, z'
loop_
 _atom_site_type_symbol
 _atom_site_label
 _atom_site_symmetry_multiplicity
 _atom_site_fract_x
 _atom_site_fract_y
 _atom_site_fract_z
 _atom_site_occupancy
  Sc  Sc0  1  0.24081600  0.44437400  0.39734800  1
  Sc  Sc1  1  0.75918400  0.55562600  0.60265200  1
  Sc  Sc2  1  0.81914200  0.71608900  0.25325800  1
  Sc  Sc3  1  0.18085800  0.28391100  0.74674200  1
  W  W4  1  0.00797000  0.12797400  0.13749900  1
  W  W5  1  0.99203000  0.87202600  0.86250100  1
  W  W6  1  0.68911600  0.26439400  0.32564300  1
  W  W7  1  0.31088400  0.73560600  0.67435700  1
  N  N8  1  0.31790100  0.17724700  0.27731300  1
  N  N9  1  0.68209900  0.82275300  0.72268700  1
  N  N10  1  0.00009400  0.82864800  0.07621100  1
  N  N11  1  0.99990600  0.17135200  0.92378900  1
  N  N12  1  0.74049200  0.01316600  0.23489800  1
  N  N13  1  0.25950800  0.98683400  0.76510200  1
  N  N14  1  0.10532900  0.72013800  0.46945000  1
  N  N15  1  0.89467100  0.27986200  0.53055000  1
  N  N16  1  0.90041600  0.39242300  0.20353500  1
  N  N17  1  0.09958400  0.60757700  0.79646500  1
  N  N18  1  0.57758500  0.53799600  0.35458500  1
  N  N19  1  0.42241500  0.46200400  0.64541500  1
