# generated using pymatgen
data_Pb(C4N3)2
_symmetry_space_group_name_H-M   'P 1'
_cell_length_a   5.81730600
_cell_length_b   8.48627800
_cell_length_c   11.52798400
_cell_angle_alpha   90.00000000
_cell_angle_beta   90.00000000
_cell_angle_gamma   90.00000000
_symmetry_Int_Tables_number   1
_chemical_formula_structural   Pb(C4N3)2
_chemical_formula_sum   'Pb2 C16 N12'
_cell_volume   569.10516701
_cell_formula_units_Z   2
loop_
 _symmetry_equiv_pos_site_id
 _symmetry_equiv_pos_as_xyz
  1  'x, y, z'
loop_
 _atom_site_type_symbol
 _atom_site_label
 _atom_site_symmetry_multiplicity
 _atom_site_fract_x
 _atom_site_fract_y
 _atom_site_fract_z
 _atom_site_occupancy
  Pb  Pb0  1  0.00000000  0.50000000  0.50000000  1
  Pb  Pb1  1  0.00000000  0.00000000  0.00000000  1
  C  C2  1  0.40573900  0.00000000  0.73934800  1
  C  C3  1  0.40573900  0.50000000  0.76065200  1
  C  C4  1  0.59426100  0.00000000  0.26065200  1
  C  C5  1  0.59426100  0.50000000  0.23934800  1
  C  C6  1  0.58978000  0.00000000  0.66058500  1
  C  C7  1  0.58978000  0.50000000  0.83941500  1
  C  C8  1  0.41022000  0.00000000  0.33941500  1
  C  C9  1  0.41022000  0.50000000  0.16058500  1
  C  C10  1  0.68332400  0.14243000  0.62092200  1
  C  C11  1  0.68332400  0.35757000  0.87907800  1
  C  C12  1  0.31667600  0.14243000  0.37907800  1
  C  C13  1  0.68332400  0.64243000  0.87907800  1
  C  C14  1  0.31667600  0.85757000  0.37907800  1
  C  C15  1  0.31667600  0.64243000  0.12092200  1
  C  C16  1  0.68332400  0.85757000  0.62092200  1
  C  C17  1  0.31667600  0.35757000  0.12092200  1
  N  N18  1  0.76115000  0.26107300  0.58683500  1
  N  N19  1  0.76115000  0.23892700  0.91316500  1
  N  N20  1  0.23885000  0.26107300  0.41316500  1
  N  N21  1  0.76115000  0.76107300  0.91316500  1
  N  N22  1  0.23885000  0.73892700  0.41316500  1
  N  N23  1  0.23885000  0.76107300  0.08683500  1
  N  N24  1  0.76115000  0.73892700  0.58683500  1
  N  N25  1  0.23885000  0.23892700  0.08683500  1
  N  N26  1  0.25085000  0.00000000  0.80445800  1
  N  N27  1  0.25085000  0.50000000  0.69554200  1
  N  N28  1  0.74915000  0.00000000  0.19554200  1
  N  N29  1  0.74915000  0.50000000  0.30445800  1
