# generated using pymatgen
data_Ge3Bi5N9
_symmetry_space_group_name_H-M   'P 1'
_cell_length_a   8.33412800
_cell_length_b   12.15967333
_cell_length_c   16.24096700
_cell_angle_alpha   90.00000000
_cell_angle_beta   90.00000000
_cell_angle_gamma   136.84539638
_symmetry_Int_Tables_number   1
_chemical_formula_structural   Ge3Bi5N9
_chemical_formula_sum   'Ge12 Bi20 N36'
_cell_volume   1125.72050686
_cell_formula_units_Z   4
loop_
 _symmetry_equiv_pos_site_id
 _symmetry_equiv_pos_as_xyz
  1  'x, y, z'
loop_
 _atom_site_type_symbol
 _atom_site_label
 _atom_site_symmetry_multiplicity
 _atom_site_fract_x
 _atom_site_fract_y
 _atom_site_fract_z
 _atom_site_occupancy
  Ge  Ge0  1  0.00000000  0.76727900  0.03031800  1
  Ge  Ge1  1  0.00000000  0.23272100  0.96968200  1
  Ge  Ge2  1  0.00000000  0.73272100  0.53031800  1
  Ge  Ge3  1  0.00000000  0.26727900  0.46968200  1
  Ge  Ge4  1  0.00000000  0.20133500  0.76605300  1
  Ge  Ge5  1  0.00000000  0.79866500  0.23394700  1
  Ge  Ge6  1  0.00000000  0.29866500  0.26605300  1
  Ge  Ge7  1  0.00000000  0.70133500  0.73394700  1
  Ge  Ge8  1  0.50000000  0.77531100  0.75000000  1
  Ge  Ge9  1  0.50000000  0.72468900  0.25000000  1
  Ge  Ge10  1  0.50000000  0.22468900  0.25000000  1
  Ge  Ge11  1  0.50000000  0.27531100  0.75000000  1
  Bi  Bi12  1  0.00000000  0.51645100  0.87031000  1
  Bi  Bi13  1  0.00000000  0.48354900  0.12969000  1
  Bi  Bi14  1  0.00000000  0.98354900  0.37031000  1
  Bi  Bi15  1  0.00000000  0.01645100  0.62969000  1
  Bi  Bi16  1  0.38358000  0.96250600  0.87520700  1
  Bi  Bi17  1  0.38358000  0.42107300  0.12479300  1
  Bi  Bi18  1  0.38358000  0.92107300  0.37520700  1
  Bi  Bi19  1  0.38358000  0.46250600  0.62479300  1
  Bi  Bi20  1  0.61642000  0.03749400  0.12479300  1
  Bi  Bi21  1  0.61642000  0.57892700  0.87520700  1
  Bi  Bi22  1  0.61642000  0.07892700  0.62479300  1
  Bi  Bi23  1  0.61642000  0.53749400  0.37520700  1
  Bi  Bi24  1  0.00000000  0.46860500  0.61662100  1
  Bi  Bi25  1  0.00000000  0.53139500  0.38337900  1
  Bi  Bi26  1  0.00000000  0.03139500  0.11662100  1
  Bi  Bi27  1  0.00000000  0.96860500  0.88337900  1
  Bi  Bi28  1  0.51238000  0.25619000  0.00000000  1
  Bi  Bi29  1  0.51238000  0.75619000  0.50000000  1
  Bi  Bi30  1  0.48762000  0.74381000  0.00000000  1
  Bi  Bi31  1  0.48762000  0.24381000  0.50000000  1
  N  N32  1  0.00000000  0.30388500  0.67665000  1
  N  N33  1  0.00000000  0.69611500  0.32335000  1
  N  N34  1  0.00000000  0.19611500  0.17665000  1
  N  N35  1  0.00000000  0.80388500  0.82335000  1
  N  N36  1  0.00000000  0.27190800  0.86214000  1
  N  N37  1  0.00000000  0.72809200  0.13786000  1
  N  N38  1  0.00000000  0.22809200  0.36214000  1
  N  N39  1  0.00000000  0.77190800  0.63786000  1
  N  N40  1  0.00000000  0.63436400  0.97440600  1
  N  N41  1  0.00000000  0.36563600  0.02559400  1
  N  N42  1  0.00000000  0.86563600  0.47440600  1
  N  N43  1  0.00000000  0.13436400  0.52559400  1
  N  N44  1  0.75831800  0.49102900  0.77751300  1
  N  N45  1  0.75831800  0.26728900  0.22248700  1
  N  N46  1  0.75831800  0.76728900  0.27751300  1
  N  N47  1  0.75831800  0.99102900  0.72248700  1
  N  N48  1  0.24168200  0.50897100  0.22248700  1
  N  N49  1  0.24168200  0.73271100  0.77751300  1
  N  N50  1  0.24168200  0.23271100  0.72248700  1
  N  N51  1  0.24168200  0.00897100  0.27751300  1
  N  N52  1  0.43493300  0.17051700  0.84912900  1
  N  N53  1  0.43493300  0.26441500  0.15087100  1
  N  N54  1  0.43493300  0.76441500  0.34912900  1
  N  N55  1  0.43493300  0.67051700  0.65087100  1
  N  N56  1  0.56506700  0.82948300  0.15087100  1
  N  N57  1  0.56506700  0.73558500  0.84912900  1
  N  N58  1  0.56506700  0.23558500  0.65087100  1
  N  N59  1  0.56506700  0.32948300  0.34912900  1
  N  N60  1  0.24451800  0.98342800  0.98867900  1
  N  N61  1  0.24451800  0.26109000  0.01132100  1
  N  N62  1  0.24451800  0.76109000  0.48867900  1
  N  N63  1  0.24451800  0.48342800  0.51132100  1
  N  N64  1  0.75548200  0.01657200  0.01132100  1
  N  N65  1  0.75548200  0.73891000  0.98867900  1
  N  N66  1  0.75548200  0.23891000  0.51132100  1
  N  N67  1  0.75548200  0.51657200  0.48867900  1
