# generated using pymatgen
data_Mn(C4N3)2
_symmetry_space_group_name_H-M   'P 1'
_cell_length_a   5.69182290
_cell_length_b   7.22975951
_cell_length_c   7.22975915
_cell_angle_alpha   59.95658291
_cell_angle_beta   90.16036236
_cell_angle_gamma   90.16036731
_symmetry_Int_Tables_number   1
_chemical_formula_structural   Mn(C4N3)2
_chemical_formula_sum   'Mn1 C8 N6'
_cell_volume   257.53558949
_cell_formula_units_Z   1
loop_
 _symmetry_equiv_pos_site_id
 _symmetry_equiv_pos_as_xyz
  1  'x, y, z'
loop_
 _atom_site_type_symbol
 _atom_site_label
 _atom_site_symmetry_multiplicity
 _atom_site_fract_x
 _atom_site_fract_y
 _atom_site_fract_z
 _atom_site_occupancy
  Mn  Mn0  1  0.98005700  0.99999800  0.99999800  1
  C  C1  1  0.22625600  0.66679400  0.66679400  1
  C  C2  1  0.20072200  0.77820300  0.77820300  1
  C  C3  1  0.20116800  0.77811100  0.44405100  1
  C  C4  1  0.20116800  0.44405100  0.77811100  1
  C  C5  1  0.73384400  0.33320500  0.33320500  1
  C  C6  1  0.75893200  0.55596700  0.22187500  1
  C  C7  1  0.75938400  0.22178900  0.22178900  1
  C  C8  1  0.75893200  0.22187500  0.55596700  1
  N  N9  1  0.16188500  0.87011200  0.87011200  1
  N  N10  1  0.16248000  0.87025100  0.25986800  1
  N  N11  1  0.16248000  0.25986800  0.87025100  1
  N  N12  1  0.79765100  0.74013500  0.12975000  1
  N  N13  1  0.79824600  0.12989000  0.12989000  1
  N  N14  1  0.79765100  0.12975000  0.74013500  1
