# generated using pymatgen
data_NaCdN
_symmetry_space_group_name_H-M   'P 1'
_cell_length_a   7.95496000
_cell_length_b   4.00969400
_cell_length_c   6.16982700
_cell_angle_alpha   90.00000000
_cell_angle_beta   90.00000000
_cell_angle_gamma   90.00000000
_symmetry_Int_Tables_number   1
_chemical_formula_structural   NaCdN
_chemical_formula_sum   'Na4 Cd4 N4'
_cell_volume   196.79869654
_cell_formula_units_Z   4
loop_
 _symmetry_equiv_pos_site_id
 _symmetry_equiv_pos_as_xyz
  1  'x, y, z'
loop_
 _atom_site_type_symbol
 _atom_site_label
 _atom_site_symmetry_multiplicity
 _atom_site_fract_x
 _atom_site_fract_y
 _atom_site_fract_z
 _atom_site_occupancy
  Na  Na0  1  0.60698000  0.25000000  0.85950300  1
  Na  Na1  1  0.10698000  0.25000000  0.64049700  1
  Na  Na2  1  0.39302000  0.75000000  0.14049700  1
  Na  Na3  1  0.89302000  0.75000000  0.35950300  1
  Cd  Cd4  1  0.63341100  0.25000000  0.39323100  1
  Cd  Cd5  1  0.13341100  0.25000000  0.10676900  1
  Cd  Cd6  1  0.36658900  0.75000000  0.60676900  1
  Cd  Cd7  1  0.86658900  0.75000000  0.89323100  1
  N  N8  1  0.83870600  0.25000000  0.12387800  1
  N  N9  1  0.33870600  0.25000000  0.37612200  1
  N  N10  1  0.16129400  0.75000000  0.87612200  1
  N  N11  1  0.66129400  0.75000000  0.62387800  1
