# generated using pymatgen
data_Cr(C2N3)3
_symmetry_space_group_name_H-M   'P 1'
_cell_length_a   7.61589905
_cell_length_b   13.51150830
_cell_length_c   11.16158700
_cell_angle_alpha   90.00000000
_cell_angle_beta   90.00000000
_cell_angle_gamma   27.49397547
_symmetry_Int_Tables_number   1
_chemical_formula_structural   Cr(C2N3)3
_chemical_formula_sum   'Cr2 C12 N18'
_cell_volume   530.23553094
_cell_formula_units_Z   2
loop_
 _symmetry_equiv_pos_site_id
 _symmetry_equiv_pos_as_xyz
  1  'x, y, z'
loop_
 _atom_site_type_symbol
 _atom_site_label
 _atom_site_symmetry_multiplicity
 _atom_site_fract_x
 _atom_site_fract_y
 _atom_site_fract_z
 _atom_site_occupancy
  Cr  Cr0  1  0.00000000  0.27577000  0.25000000  1
  Cr  Cr1  1  0.00000000  0.72423000  0.75000000  1
  C  C2  1  0.67930700  0.78350600  0.25000000  1
  C  C3  1  0.67930700  0.53718700  0.75000000  1
  C  C4  1  0.32069300  0.21649400  0.75000000  1
  C  C5  1  0.32069300  0.46281300  0.25000000  1
  C  C6  1  0.67882400  0.30735900  0.90859300  1
  C  C7  1  0.67882400  0.01381700  0.09140700  1
  C  C8  1  0.67882400  0.30735900  0.59140700  1
  C  C9  1  0.67882400  0.01381700  0.40859300  1
  C  C10  1  0.32117600  0.69264100  0.09140700  1
  C  C11  1  0.32117600  0.98618300  0.90859300  1
  C  C12  1  0.32117600  0.69264100  0.40859300  1
  C  C13  1  0.32117600  0.98618300  0.59140700  1
  N  N14  1  0.00000000  0.57649900  0.25000000  1
  N  N15  1  0.00000000  0.42350100  0.75000000  1
  N  N16  1  0.37881300  0.97224400  0.25000000  1
  N  N17  1  0.37881300  0.64894400  0.75000000  1
  N  N18  1  0.62118700  0.02775600  0.75000000  1
  N  N19  1  0.62118700  0.35105600  0.25000000  1
  N  N20  1  0.00000000  0.12224200  0.95579400  1
  N  N21  1  0.00000000  0.87775800  0.04420600  1
  N  N22  1  0.00000000  0.12224200  0.54420600  1
  N  N23  1  0.00000000  0.87775800  0.45579400  1
  N  N24  1  0.37697800  0.47845800  0.86989900  1
  N  N25  1  0.37697800  0.14456400  0.13010100  1
  N  N26  1  0.37697800  0.47845800  0.63010100  1
  N  N27  1  0.37697800  0.14456400  0.36989900  1
  N  N28  1  0.62302200  0.52154200  0.13010100  1
  N  N29  1  0.62302200  0.85543600  0.86989900  1
  N  N30  1  0.62302200  0.52154200  0.36989900  1
  N  N31  1  0.62302200  0.85543600  0.63010100  1
