# generated using pymatgen
data_Zn4CuN3
_symmetry_space_group_name_H-M   'P 1'
_cell_length_a   6.41708117
_cell_length_b   6.94215040
_cell_length_c   12.05791712
_cell_angle_alpha   88.87414855
_cell_angle_beta   91.16248854
_cell_angle_gamma   117.58806396
_symmetry_Int_Tables_number   1
_chemical_formula_structural   Zn4CuN3
_chemical_formula_sum   'Zn16 Cu4 N12'
_cell_volume   475.95529424
_cell_formula_units_Z   4
loop_
 _symmetry_equiv_pos_site_id
 _symmetry_equiv_pos_as_xyz
  1  'x, y, z'
loop_
 _atom_site_type_symbol
 _atom_site_label
 _atom_site_symmetry_multiplicity
 _atom_site_fract_x
 _atom_site_fract_y
 _atom_site_fract_z
 _atom_site_occupancy
  Zn  Zn0  1  0.69097600  0.19272300  0.88818500  1
  Zn  Zn1  1  0.59817900  0.83877800  0.45604800  1
  Zn  Zn2  1  0.33312300  0.23484900  0.14812500  1
  Zn  Zn3  1  0.78480500  0.56825100  0.73111400  1
  Zn  Zn4  1  0.20500600  0.65905400  0.01997500  1
  Zn  Zn5  1  0.05736200  0.75043300  0.52189400  1
  Zn  Zn6  1  0.72533000  0.35552700  0.44851400  1
  Zn  Zn7  1  0.27912600  0.68491700  0.26529900  1
  Zn  Zn8  1  0.22934800  0.59872000  0.74708300  1
  Zn  Zn9  1  0.89696900  0.14050200  0.30942100  1
  Zn  Zn10  1  0.82859000  0.19489000  0.65121500  1
  Zn  Zn11  1  0.24204700  0.27079100  0.93312700  1
  Zn  Zn12  1  0.18635300  0.40482800  0.51138700  1
  Zn  Zn13  1  0.66935000  0.03792800  0.09301700  1
  Zn  Zn14  1  0.26657700  0.10598100  0.70447500  1
  Zn  Zn15  1  0.82112100  0.72844900  0.25433000  1
  Cu  Cu16  1  0.77447700  0.46538400  0.08371700  1
  Cu  Cu17  1  0.63730300  0.79573500  0.91309300  1
  Cu  Cu18  1  0.45370900  0.44398100  0.34922700  1
  Cu  Cu19  1  0.98747300  0.89509700  0.04862900  1
  N  N20  1  0.04758600  0.70287500  0.14536000  1
  N  N21  1  0.08504300  0.78828400  0.68500500  1
  N  N22  1  0.61379900  0.25624700  0.74155600  1
  N  N23  1  0.26125500  0.68123200  0.43336100  1
  N  N24  1  0.33024200  0.57726300  0.90088400  1
  N  N25  1  0.82310200  0.14515600  0.47936800  1
  N  N26  1  0.89753400  0.06507700  0.95326400  1
  N  N27  1  0.20036000  0.33684300  0.25225700  1
  N  N28  1  0.17516400  0.33077700  0.66847900  1
  N  N29  1  0.63458200  0.89261300  0.23301700  1
  N  N30  1  0.51263500  0.22020900  0.02497900  1
  N  N31  1  0.75147000  0.63660600  0.42057900  1
