# generated using pymatgen
data_Y3Mg2VS8
_symmetry_space_group_name_H-M   'P 1'
_cell_length_a   7.80380174
_cell_length_b   7.70768256
_cell_length_c   7.79293532
_cell_angle_alpha   59.56819024
_cell_angle_beta   60.01833332
_cell_angle_gamma   59.38155293
_symmetry_Int_Tables_number   1
_chemical_formula_structural   Y3Mg2VS8
_chemical_formula_sum   'Y3 Mg2 V1 S8'
_cell_volume   328.83637711
_cell_formula_units_Z   1
loop_
 _symmetry_equiv_pos_site_id
 _symmetry_equiv_pos_as_xyz
  1  'x, y, z'
loop_
 _atom_site_type_symbol
 _atom_site_label
 _atom_site_symmetry_multiplicity
 _atom_site_fract_x
 _atom_site_fract_y
 _atom_site_fract_z
 _atom_site_occupancy
  Y  Y0  1  0.49998200  0.50001400  0.50001300  1
  Y  Y1  1  0.49999500  0.50001100  0.00000000  1
  Y  Y2  1  0.99999700  0.49999300  0.50004400  1
  Mg  Mg3  1  0.87618900  0.87364200  0.87508100  1
  Mg  Mg4  1  0.12381500  0.12635900  0.12492000  1
  V  V5  1  0.50004200  0.99994300  0.49991400  1
  S  S6  1  0.72932300  0.77052700  0.73034700  1
  S  S7  1  0.27044900  0.22952200  0.73002200  1
  S  S8  1  0.25321400  0.73764000  0.25488200  1
  S  S9  1  0.73124300  0.23118500  0.26850800  1
  S  S10  1  0.74676500  0.26236400  0.74513000  1
  S  S11  1  0.26875400  0.76882700  0.73148900  1
  S  S12  1  0.27066700  0.22946900  0.26967700  1
  S  S13  1  0.72956900  0.77049900  0.26997500  1
