# generated using pymatgen
data_Ca7SN6
_symmetry_space_group_name_H-M   'P 1'
_cell_length_a   12.11501800
_cell_length_b   6.37050100
_cell_length_c   12.49201300
_cell_angle_alpha   90.00000000
_cell_angle_beta   90.00000000
_cell_angle_gamma   90.00000000
_symmetry_Int_Tables_number   1
_chemical_formula_structural   Ca7SN6
_chemical_formula_sum   'Ca28 S4 N24'
_cell_volume   964.11775200
_cell_formula_units_Z   4
loop_
 _symmetry_equiv_pos_site_id
 _symmetry_equiv_pos_as_xyz
  1  'x, y, z'
loop_
 _atom_site_type_symbol
 _atom_site_label
 _atom_site_symmetry_multiplicity
 _atom_site_fract_x
 _atom_site_fract_y
 _atom_site_fract_z
 _atom_site_occupancy
  Ca  Ca0  1  0.06573800  0.69997700  0.00180000  1
  Ca  Ca1  1  0.43426200  0.80002300  0.50180000  1
  Ca  Ca2  1  0.56573800  0.80002300  0.99820000  1
  Ca  Ca3  1  0.93426200  0.69997700  0.49820000  1
  Ca  Ca4  1  0.93426200  0.30002300  0.99820000  1
  Ca  Ca5  1  0.56573800  0.19997700  0.49820000  1
  Ca  Ca6  1  0.43426200  0.19997700  0.00180000  1
  Ca  Ca7  1  0.06573800  0.30002300  0.50180000  1
  Ca  Ca8  1  0.22159500  0.90241000  0.66757500  1
  Ca  Ca9  1  0.27840500  0.59759000  0.16757500  1
  Ca  Ca10  1  0.72159500  0.59759000  0.33242500  1
  Ca  Ca11  1  0.77840500  0.90241000  0.83242500  1
  Ca  Ca12  1  0.77840500  0.09759000  0.33242500  1
  Ca  Ca13  1  0.72159500  0.40241000  0.83242500  1
  Ca  Ca14  1  0.27840500  0.40241000  0.66757500  1
  Ca  Ca15  1  0.22159500  0.09759000  0.16757500  1
  Ca  Ca16  1  0.31349100  0.65834800  0.89650700  1
  Ca  Ca17  1  0.18650900  0.84165200  0.39650700  1
  Ca  Ca18  1  0.81349100  0.84165200  0.10349300  1
  Ca  Ca19  1  0.68650900  0.65834800  0.60349300  1
  Ca  Ca20  1  0.68650900  0.34165200  0.10349300  1
  Ca  Ca21  1  0.81349100  0.15834800  0.60349300  1
  Ca  Ca22  1  0.18650900  0.15834800  0.89650700  1
  Ca  Ca23  1  0.31349100  0.34165200  0.39650700  1
  Ca  Ca24  1  0.00000000  0.61995800  0.75000000  1
  Ca  Ca25  1  0.50000000  0.88004200  0.25000000  1
  Ca  Ca26  1  0.00000000  0.38004200  0.25000000  1
  Ca  Ca27  1  0.50000000  0.11995800  0.75000000  1
  S  S28  1  0.00000000  0.09650600  0.75000000  1
  S  S29  1  0.50000000  0.40349400  0.25000000  1
  S  S30  1  0.00000000  0.90349300  0.25000000  1
  S  S31  1  0.50000000  0.59650700  0.75000000  1
  N  N32  1  0.15225400  0.79557500  0.84118800  1
  N  N33  1  0.34774600  0.70442500  0.34118800  1
  N  N34  1  0.65225400  0.70442500  0.15881200  1
  N  N35  1  0.84774600  0.79557500  0.65881200  1
  N  N36  1  0.84774600  0.20442500  0.15881200  1
  N  N37  1  0.65225400  0.29557500  0.65881200  1
  N  N38  1  0.34774600  0.29557500  0.84118800  1
  N  N39  1  0.15225400  0.20442500  0.34118800  1
  N  N40  1  0.12480800  0.65680100  0.55372600  1
  N  N41  1  0.37519200  0.84319900  0.05372600  1
  N  N42  1  0.62480800  0.84319900  0.44627400  1
  N  N43  1  0.87519200  0.65680100  0.94627400  1
  N  N44  1  0.87519200  0.34319900  0.44627400  1
  N  N45  1  0.62480800  0.15680100  0.94627400  1
  N  N46  1  0.37519200  0.15680100  0.55372600  1
  N  N47  1  0.12480800  0.34319900  0.05372600  1
  N  N48  1  0.40166300  0.72980600  0.70344700  1
  N  N49  1  0.09833700  0.77019400  0.20344700  1
  N  N50  1  0.90166300  0.77019400  0.29655300  1
  N  N51  1  0.59833700  0.72980600  0.79655300  1
  N  N52  1  0.59833700  0.27019400  0.29655300  1
  N  N53  1  0.90166300  0.22980600  0.79655300  1
  N  N54  1  0.09833700  0.22980600  0.70344700  1
  N  N55  1  0.40166300  0.27019400  0.20344700  1
