# generated using pymatgen
data_LaMgTiS4
_symmetry_space_group_name_H-M   'P 1'
_cell_length_a   8.08619756
_cell_length_b   7.80010737
_cell_length_c   7.77348879
_cell_angle_alpha   57.80825621
_cell_angle_beta   58.57501639
_cell_angle_gamma   58.90358420
_symmetry_Int_Tables_number   1
_chemical_formula_structural   LaMgTiS4
_chemical_formula_sum   'La2 Mg2 Ti2 S8'
_cell_volume   334.16163364
_cell_formula_units_Z   2
loop_
 _symmetry_equiv_pos_site_id
 _symmetry_equiv_pos_as_xyz
  1  'x, y, z'
loop_
 _atom_site_type_symbol
 _atom_site_label
 _atom_site_symmetry_multiplicity
 _atom_site_fract_x
 _atom_site_fract_y
 _atom_site_fract_z
 _atom_site_occupancy
  La  La0  1  0.50001100  0.49999900  0.49996400  1
  La  La1  1  0.00002900  0.49999600  0.49999400  1
  Mg  Mg2  1  0.87605900  0.87402300  0.87394400  1
  Mg  Mg3  1  0.12387200  0.12604600  0.12612000  1
  Ti  Ti4  1  0.49999800  0.49999600  0.99998700  1
  Ti  Ti5  1  0.50000800  0.99998800  0.50001100  1
  S  S6  1  0.70974000  0.75925900  0.75962600  1
  S  S7  1  0.27306200  0.21786600  0.73579300  1
  S  S8  1  0.27326300  0.73581000  0.21763000  1
  S  S9  1  0.72879300  0.24075700  0.24026600  1
  S  S10  1  0.72670100  0.26419400  0.78234700  1
  S  S11  1  0.27121300  0.75922900  0.75972100  1
  S  S12  1  0.29028500  0.24071400  0.24037600  1
  S  S13  1  0.72697000  0.78211800  0.26422200  1
