# generated using pymatgen
data_AlMoN3
_symmetry_space_group_name_H-M   'P 1'
_cell_length_a   11.90426434
_cell_length_b   5.49772654
_cell_length_c   8.68364290
_cell_angle_alpha   119.80524769
_cell_angle_beta   112.85014578
_cell_angle_gamma   114.30030878
_symmetry_Int_Tables_number   1
_chemical_formula_structural   AlMoN3
_chemical_formula_sum   'Al4 Mo4 N12'
_cell_volume   297.44837391
_cell_formula_units_Z   4
loop_
 _symmetry_equiv_pos_site_id
 _symmetry_equiv_pos_as_xyz
  1  'x, y, z'
loop_
 _atom_site_type_symbol
 _atom_site_label
 _atom_site_symmetry_multiplicity
 _atom_site_fract_x
 _atom_site_fract_y
 _atom_site_fract_z
 _atom_site_occupancy
  Al  Al0  1  0.71663500  0.82676400  0.49658900  1
  Al  Al1  1  0.28336500  0.17323600  0.50341100  1
  Al  Al2  1  0.66165000  0.35260700  0.64051500  1
  Al  Al3  1  0.33835000  0.64739300  0.35948500  1
  Mo  Mo4  1  0.95707300  0.67438100  0.67734900  1
  Mo  Mo5  1  0.04292700  0.32561900  0.32265100  1
  Mo  Mo6  1  0.64374700  0.67482600  0.01680500  1
  Mo  Mo7  1  0.35625300  0.32517400  0.98319500  1
  N  N8  1  0.76741100  0.62079900  0.59008400  1
  N  N9  1  0.23258900  0.37920100  0.40991600  1
  N  N10  1  0.82811100  0.25828900  0.29925000  1
  N  N11  1  0.17188900  0.74171100  0.70075000  1
  N  N12  1  0.92647500  0.41570600  0.74368000  1
  N  N13  1  0.07352500  0.58429400  0.25632000  1
  N  N14  1  0.46648900  0.22381400  0.58822900  1
  N  N15  1  0.53351100  0.77618600  0.41177100  1
  N  N16  1  0.80938900  0.70273900  0.00108600  1
  N  N17  1  0.19061100  0.29726100  0.99891400  1
  N  N18  1  0.39972200  0.49355700  0.85401000  1
  N  N19  1  0.60027800  0.50644300  0.14599000  1
