# generated using pymatgen
data_Mg2MnV3S8
_symmetry_space_group_name_H-M   'P 1'
_cell_length_a   7.22904818
_cell_length_b   7.28433711
_cell_length_c   7.23098944
_cell_angle_alpha   60.27194967
_cell_angle_beta   59.93915126
_cell_angle_gamma   60.23421900
_symmetry_Int_Tables_number   1
_chemical_formula_structural   Mg2MnV3S8
_chemical_formula_sum   'Mg2 Mn1 V3 S8'
_cell_volume   270.14874392
_cell_formula_units_Z   1
loop_
 _symmetry_equiv_pos_site_id
 _symmetry_equiv_pos_as_xyz
  1  'x, y, z'
loop_
 _atom_site_type_symbol
 _atom_site_label
 _atom_site_symmetry_multiplicity
 _atom_site_fract_x
 _atom_site_fract_y
 _atom_site_fract_z
 _atom_site_occupancy
  Mg  Mg0  1  0.87438100  0.87680700  0.87434000  1
  Mg  Mg1  1  0.12563000  0.12319000  0.12566600  1
  Mn  Mn2  1  0.50001500  0.99999100  0.50000300  1
  V  V3  1  0.49999700  0.50001500  0.49995900  1
  V  V4  1  0.50001600  0.49999900  0.00000900  1
  V  V5  1  0.00000000  0.49999300  0.50002700  1
  S  S6  1  0.73817400  0.73696700  0.73844100  1
  S  S7  1  0.26160200  0.26317200  0.71343300  1
  S  S8  1  0.26142800  0.71476200  0.26201800  1
  S  S9  1  0.71374800  0.26289800  0.26145300  1
  S  S10  1  0.73853300  0.28525700  0.73796800  1
  S  S11  1  0.28625200  0.73708100  0.73855400  1
  S  S12  1  0.26182200  0.26303400  0.26156800  1
  S  S13  1  0.73840900  0.73683100  0.28656100  1
