# generated using pymatgen
data_Zn7SnN6
_symmetry_space_group_name_H-M   'P 1'
_cell_length_a   10.84830000
_cell_length_b   6.03576200
_cell_length_c   12.47579400
_cell_angle_alpha   90.00000000
_cell_angle_beta   90.00000000
_cell_angle_gamma   90.00000000
_symmetry_Int_Tables_number   1
_chemical_formula_structural   Zn7SnN6
_chemical_formula_sum   'Zn28 Sn4 N24'
_cell_volume   816.88700672
_cell_formula_units_Z   4
loop_
 _symmetry_equiv_pos_site_id
 _symmetry_equiv_pos_as_xyz
  1  'x, y, z'
loop_
 _atom_site_type_symbol
 _atom_site_label
 _atom_site_symmetry_multiplicity
 _atom_site_fract_x
 _atom_site_fract_y
 _atom_site_fract_z
 _atom_site_occupancy
  Zn  Zn0  1  0.96498900  0.76663200  0.04158900  1
  Zn  Zn1  1  0.53501100  0.73336800  0.54158900  1
  Zn  Zn2  1  0.46498900  0.73336800  0.95841100  1
  Zn  Zn3  1  0.03501100  0.76663200  0.45841100  1
  Zn  Zn4  1  0.03501100  0.23336800  0.95841100  1
  Zn  Zn5  1  0.46498900  0.26663200  0.45841100  1
  Zn  Zn6  1  0.53501100  0.26663200  0.04158900  1
  Zn  Zn7  1  0.96498900  0.23336800  0.54158900  1
  Zn  Zn8  1  0.24252000  0.65212600  0.65347200  1
  Zn  Zn9  1  0.25748000  0.84787400  0.15347200  1
  Zn  Zn10  1  0.74252000  0.84787400  0.34652800  1
  Zn  Zn11  1  0.75748000  0.65212600  0.84652800  1
  Zn  Zn12  1  0.75748000  0.34787400  0.34652800  1
  Zn  Zn13  1  0.74252000  0.15212600  0.84652800  1
  Zn  Zn14  1  0.25748000  0.15212600  0.65347200  1
  Zn  Zn15  1  0.24252000  0.34787400  0.15347200  1
  Zn  Zn16  1  0.20728000  0.63556700  0.92596400  1
  Zn  Zn17  1  0.29272000  0.86443300  0.42596400  1
  Zn  Zn18  1  0.70728000  0.86443300  0.07403600  1
  Zn  Zn19  1  0.79272000  0.63556700  0.57403600  1
  Zn  Zn20  1  0.79272000  0.36443300  0.07403600  1
  Zn  Zn21  1  0.70728000  0.13556700  0.57403600  1
  Zn  Zn22  1  0.29272000  0.13556700  0.92596400  1
  Zn  Zn23  1  0.20728000  0.36443300  0.42596400  1
  Zn  Zn24  1  0.00000000  0.40958100  0.75000000  1
  Zn  Zn25  1  0.50000000  0.09041900  0.25000000  1
  Zn  Zn26  1  0.00000000  0.59041900  0.25000000  1
  Zn  Zn27  1  0.50000000  0.90958100  0.75000000  1
  Sn  Sn28  1  0.00000000  0.89873700  0.75000000  1
  Sn  Sn29  1  0.50000000  0.60126300  0.25000000  1
  Sn  Sn30  1  0.00000000  0.10126300  0.25000000  1
  Sn  Sn31  1  0.50000000  0.39873800  0.75000000  1
  N  N32  1  0.13312300  0.65545000  0.78176400  1
  N  N33  1  0.36687700  0.84455000  0.28176400  1
  N  N34  1  0.63312300  0.84455000  0.21823600  1
  N  N35  1  0.86687700  0.65545000  0.71823600  1
  N  N36  1  0.86687700  0.34455000  0.21823600  1
  N  N37  1  0.63312300  0.15545000  0.71823600  1
  N  N38  1  0.36687700  0.15545000  0.78176400  1
  N  N39  1  0.13312300  0.34455000  0.28176400  1
  N  N40  1  0.18346600  0.64941600  0.50432600  1
  N  N41  1  0.31653400  0.85058400  0.00432600  1
  N  N42  1  0.68346600  0.85058400  0.49567400  1
  N  N43  1  0.81653400  0.64941600  0.99567400  1
  N  N44  1  0.81653400  0.35058400  0.49567400  1
  N  N45  1  0.68346600  0.14941600  0.99567400  1
  N  N46  1  0.31653400  0.14941600  0.50432600  1
  N  N47  1  0.18346600  0.35058400  0.00432600  1
  N  N48  1  0.42709300  0.64945600  0.65075500  1
  N  N49  1  0.07290700  0.85054400  0.15075500  1
  N  N50  1  0.92709300  0.85054400  0.34924500  1
  N  N51  1  0.57290700  0.64945600  0.84924500  1
  N  N52  1  0.57290700  0.35054400  0.34924500  1
  N  N53  1  0.92709300  0.14945600  0.84924500  1
  N  N54  1  0.07290700  0.14945600  0.65075500  1
  N  N55  1  0.42709300  0.35054400  0.15075500  1
