# generated using pymatgen
data_MgScVS4
_symmetry_space_group_name_H-M   'P 1'
_cell_length_a   7.44035222
_cell_length_b   7.39747954
_cell_length_c   7.40101495
_cell_angle_alpha   59.77056879
_cell_angle_beta   59.82331865
_cell_angle_gamma   59.80618449
_symmetry_Int_Tables_number   1
_chemical_formula_structural   MgScVS4
_chemical_formula_sum   'Mg2 Sc2 V2 S8'
_cell_volume   286.73277341
_cell_formula_units_Z   2
loop_
 _symmetry_equiv_pos_site_id
 _symmetry_equiv_pos_as_xyz
  1  'x, y, z'
loop_
 _atom_site_type_symbol
 _atom_site_label
 _atom_site_symmetry_multiplicity
 _atom_site_fract_x
 _atom_site_fract_y
 _atom_site_fract_z
 _atom_site_occupancy
  Mg  Mg0  1  0.87568800  0.87452000  0.87406200  1
  Mg  Mg1  1  0.12425500  0.12551000  0.12592900  1
  Sc  Sc2  1  0.50005400  0.49988600  0.50021600  1
  Sc  Sc3  1  0.00018000  0.49992000  0.49975300  1
  V  V4  1  0.49998600  0.50006200  0.99999700  1
  V  V5  1  0.50000800  0.99999700  0.50003100  1
  S  S6  1  0.72523600  0.74678100  0.74679100  1
  S  S7  1  0.26481700  0.24654000  0.72377700  1
  S  S8  1  0.26489900  0.72390700  0.24632800  1
  S  S9  1  0.71880800  0.25324800  0.25320700  1
  S  S10  1  0.73508800  0.27609500  0.75370000  1
  S  S11  1  0.28111800  0.74681200  0.74680700  1
  S  S12  1  0.27474400  0.25320900  0.25317100  1
  S  S13  1  0.73512400  0.75351000  0.27623300  1
