# generated using pymatgen
data_KCaN
_symmetry_space_group_name_H-M   'P 1'
_cell_length_a   3.90649663
_cell_length_b   3.90807431
_cell_length_c   6.66139329
_cell_angle_alpha   73.02407577
_cell_angle_beta   72.94921867
_cell_angle_gamma   60.01335323
_symmetry_Int_Tables_number   1
_chemical_formula_structural   KCaN
_chemical_formula_sum   'K1 Ca1 N1'
_cell_volume   82.90498684
_cell_formula_units_Z   1
loop_
 _symmetry_equiv_pos_site_id
 _symmetry_equiv_pos_as_xyz
  1  'x, y, z'
loop_
 _atom_site_type_symbol
 _atom_site_label
 _atom_site_symmetry_multiplicity
 _atom_site_fract_x
 _atom_site_fract_y
 _atom_site_fract_z
 _atom_site_occupancy
  K  K0  1  0.34976600  0.97561700  0.82485100  1
  Ca  Ca1  1  0.81587600  0.43991000  0.42834000  1
  N  N2  1  0.11136000  0.73647300  0.54080900  1
