# generated using pymatgen
data_NbCr3(AgS4)2
_symmetry_space_group_name_H-M   'P 1'
_cell_length_a   11.22960000
_cell_length_b   3.45520300
_cell_length_c   12.95159600
_cell_angle_alpha   90.00000000
_cell_angle_beta   90.00000000
_cell_angle_gamma   90.00000000
_symmetry_Int_Tables_number   1
_chemical_formula_structural   NbCr3(AgS4)2
_chemical_formula_sum   'Nb2 Cr6 Ag4 S16'
_cell_volume   502.52901721
_cell_formula_units_Z   2
loop_
 _symmetry_equiv_pos_site_id
 _symmetry_equiv_pos_as_xyz
  1  'x, y, z'
loop_
 _atom_site_type_symbol
 _atom_site_label
 _atom_site_symmetry_multiplicity
 _atom_site_fract_x
 _atom_site_fract_y
 _atom_site_fract_z
 _atom_site_occupancy
  Nb  Nb0  1  0.90631600  0.75000000  0.40125400  1
  Nb  Nb1  1  0.59368400  0.25000000  0.90125400  1
  Cr  Cr2  1  0.06549300  0.25000000  0.10736800  1
  Cr  Cr3  1  0.95427200  0.75000000  0.88726200  1
  Cr  Cr4  1  0.43450700  0.75000000  0.60736800  1
  Cr  Cr5  1  0.54572800  0.25000000  0.38726200  1
  Cr  Cr6  1  0.08577200  0.25000000  0.59808800  1
  Cr  Cr7  1  0.41422800  0.75000000  0.09808800  1
  Ag  Ag8  1  0.24857600  0.25000000  0.32346000  1
  Ag  Ag9  1  0.74150800  0.75000000  0.67076700  1
  Ag  Ag10  1  0.25142400  0.75000000  0.82346000  1
  Ag  Ag11  1  0.75849200  0.25000000  0.17076700  1
  S  S12  1  0.03779300  0.75000000  0.71464600  1
  S  S13  1  0.97767600  0.25000000  0.28235000  1
  S  S14  1  0.46220700  0.25000000  0.21464600  1
  S  S15  1  0.52232400  0.75000000  0.78235000  1
  S  S16  1  0.09001100  0.25000000  0.92844200  1
  S  S17  1  0.92236300  0.75000000  0.06807000  1
  S  S18  1  0.40998900  0.75000000  0.42844200  1
  S  S19  1  0.57763700  0.25000000  0.56807000  1
  S  S20  1  0.11657400  0.75000000  0.47291700  1
  S  S21  1  0.87993000  0.25000000  0.54008400  1
  S  S22  1  0.38342600  0.25000000  0.97291700  1
  S  S23  1  0.62007000  0.75000000  0.04008400  1
  S  S24  1  0.20392200  0.75000000  0.15103600  1
  S  S25  1  0.80373100  0.25000000  0.85425500  1
  S  S26  1  0.29607800  0.25000000  0.65103600  1
  S  S27  1  0.69626900  0.75000000  0.35425500  1
