# generated using pymatgen
data_Ca3(WN2)2
_symmetry_space_group_name_H-M   'P 1'
_cell_length_a   6.01115800
_cell_length_b   10.06442400
_cell_length_c   9.32226100
_cell_angle_alpha   90.00000000
_cell_angle_beta   90.00000000
_cell_angle_gamma   90.00000000
_symmetry_Int_Tables_number   1
_chemical_formula_structural   Ca3(WN2)2
_chemical_formula_sum   'Ca12 W8 N16'
_cell_volume   563.98600318
_cell_formula_units_Z   4
loop_
 _symmetry_equiv_pos_site_id
 _symmetry_equiv_pos_as_xyz
  1  'x, y, z'
loop_
 _atom_site_type_symbol
 _atom_site_label
 _atom_site_symmetry_multiplicity
 _atom_site_fract_x
 _atom_site_fract_y
 _atom_site_fract_z
 _atom_site_occupancy
  Ca  Ca0  1  0.61265300  0.15652800  0.42441500  1
  Ca  Ca1  1  0.88734700  0.84347200  0.42441500  1
  Ca  Ca2  1  0.61265300  0.34347200  0.07558500  1
  Ca  Ca3  1  0.88734700  0.65652800  0.07558500  1
  Ca  Ca4  1  0.38734700  0.84347200  0.57558500  1
  Ca  Ca5  1  0.11265300  0.15652800  0.57558500  1
  Ca  Ca6  1  0.38734700  0.65652800  0.92441500  1
  Ca  Ca7  1  0.11265300  0.34347200  0.92441500  1
  Ca  Ca8  1  0.75000000  0.50000000  0.39235800  1
  Ca  Ca9  1  0.75000000  0.00000000  0.10764200  1
  Ca  Ca10  1  0.25000000  0.50000000  0.60764200  1
  Ca  Ca11  1  0.25000000  0.00000000  0.89235800  1
  W  W12  1  0.75000000  0.50000000  0.72706800  1
  W  W13  1  0.75000000  0.00000000  0.77293200  1
  W  W14  1  0.25000000  0.50000000  0.27293200  1
  W  W15  1  0.25000000  0.00000000  0.22706800  1
  W  W16  1  0.57312100  0.25000000  0.75000000  1
  W  W17  1  0.92687900  0.75000000  0.75000000  1
  W  W18  1  0.42687900  0.75000000  0.25000000  1
  W  W19  1  0.07312100  0.25000000  0.25000000  1
  N  N20  1  0.75681600  0.33713800  0.59872700  1
  N  N21  1  0.74318400  0.66286200  0.59872700  1
  N  N22  1  0.75681600  0.16286200  0.90127300  1
  N  N23  1  0.74318400  0.83713800  0.90127300  1
  N  N24  1  0.24318400  0.66286200  0.40127300  1
  N  N25  1  0.25681600  0.33713800  0.40127300  1
  N  N26  1  0.24318400  0.83713800  0.09872700  1
  N  N27  1  0.25681600  0.16286200  0.09872700  1
  N  N28  1  0.49325500  0.43177500  0.84155900  1
  N  N29  1  0.00674500  0.56822500  0.84155900  1
  N  N30  1  0.49325500  0.06822500  0.65844100  1
  N  N31  1  0.00674500  0.93177500  0.65844100  1
  N  N32  1  0.50674500  0.56822500  0.15844100  1
  N  N33  1  0.99325500  0.43177500  0.15844100  1
  N  N34  1  0.50674500  0.93177500  0.34155900  1
  N  N35  1  0.99325500  0.06822500  0.34155900  1
