# generated using pymatgen
data_Lu3Mg2VS8
_symmetry_space_group_name_H-M   'P 1'
_cell_length_a   7.69517278
_cell_length_b   7.59919327
_cell_length_c   7.70927793
_cell_angle_alpha   59.66925525
_cell_angle_beta   59.92335695
_cell_angle_gamma   59.56077911
_symmetry_Int_Tables_number   1
_chemical_formula_structural   Lu3Mg2VS8
_chemical_formula_sum   'Lu3 Mg2 V1 S8'
_cell_volume   316.72529108
_cell_formula_units_Z   1
loop_
 _symmetry_equiv_pos_site_id
 _symmetry_equiv_pos_as_xyz
  1  'x, y, z'
loop_
 _atom_site_type_symbol
 _atom_site_label
 _atom_site_symmetry_multiplicity
 _atom_site_fract_x
 _atom_site_fract_y
 _atom_site_fract_z
 _atom_site_occupancy
  Lu  Lu0  1  0.50001000  0.50001700  0.49998500  1
  Lu  Lu1  1  0.49998600  0.50000000  0.00000200  1
  Lu  Lu2  1  0.00000800  0.49999000  0.50000400  1
  Mg  Mg3  1  0.87540200  0.87397900  0.87524800  1
  Mg  Mg4  1  0.12458900  0.12603600  0.12474600  1
  V  V5  1  0.50000900  0.99999400  0.50000800  1
  S  S6  1  0.73290600  0.76166900  0.73263100  1
  S  S7  1  0.26775700  0.23756800  0.72697100  1
  S  S8  1  0.25552100  0.73329300  0.25550600  1
  S  S9  1  0.72703200  0.23780400  0.26771000  1
  S  S10  1  0.74446300  0.26671700  0.74449000  1
  S  S11  1  0.27296500  0.76218300  0.73229200  1
  S  S12  1  0.26709300  0.23831900  0.26737500  1
  S  S13  1  0.73226300  0.76242600  0.27303300  1
