# generated using pymatgen
data_AlFe2N3
_symmetry_space_group_name_H-M   'P 1'
_cell_length_a   5.33391036
_cell_length_b   5.22661819
_cell_length_c   4.96475700
_cell_angle_alpha   90.00000000
_cell_angle_beta   90.00000000
_cell_angle_gamma   119.33679185
_symmetry_Int_Tables_number   1
_chemical_formula_structural   AlFe2N3
_chemical_formula_sum   'Al2 Fe4 N6'
_cell_volume   120.65875858
_cell_formula_units_Z   2
loop_
 _symmetry_equiv_pos_site_id
 _symmetry_equiv_pos_as_xyz
  1  'x, y, z'
loop_
 _atom_site_type_symbol
 _atom_site_label
 _atom_site_symmetry_multiplicity
 _atom_site_fract_x
 _atom_site_fract_y
 _atom_site_fract_z
 _atom_site_occupancy
  Al  Al0  1  0.00000000  0.66783400  0.50007400  1
  Al  Al1  1  0.00000000  0.33216600  0.00007400  1
  Fe  Fe2  1  0.35142900  0.34474200  0.48865400  1
  Fe  Fe3  1  0.64857100  0.99331400  0.48865400  1
  Fe  Fe4  1  0.64857100  0.65525800  0.98865400  1
  Fe  Fe5  1  0.35142900  0.00668600  0.98865400  1
  N  N6  1  0.32726700  0.32547000  0.85780700  1
  N  N7  1  0.67273300  0.99820300  0.85780700  1
  N  N8  1  0.67273300  0.67453000  0.35780700  1
  N  N9  1  0.32726700  0.00179700  0.35780700  1
  N  N10  1  0.00000000  0.67257700  0.87900200  1
  N  N11  1  0.00000000  0.32742300  0.37900200  1
