# generated using pymatgen
data_Si5(PbN4)2
_symmetry_space_group_name_H-M   'P 1'
_cell_length_a   10.96029500
_cell_length_b   9.89265600
_cell_length_c   13.87427000
_cell_angle_alpha   90.00000000
_cell_angle_beta   90.00000000
_cell_angle_gamma   90.00000000
_symmetry_Int_Tables_number   1
_chemical_formula_structural   Si5(PbN4)2
_chemical_formula_sum   'Si40 Pb16 N64'
_cell_volume   1504.33753851
_cell_formula_units_Z   8
loop_
 _symmetry_equiv_pos_site_id
 _symmetry_equiv_pos_as_xyz
  1  'x, y, z'
loop_
 _atom_site_type_symbol
 _atom_site_label
 _atom_site_symmetry_multiplicity
 _atom_site_fract_x
 _atom_site_fract_y
 _atom_site_fract_z
 _atom_site_occupancy
  Si  Si0  1  0.39496900  0.23621100  0.83759600  1
  Si  Si1  1  0.89496900  0.26378900  0.16240400  1
  Si  Si2  1  0.60503100  0.73621100  0.66240400  1
  Si  Si3  1  0.10503100  0.76378900  0.33759600  1
  Si  Si4  1  0.60503100  0.76378900  0.16240400  1
  Si  Si5  1  0.10503100  0.73621100  0.83759600  1
  Si  Si6  1  0.39496900  0.26378900  0.33759600  1
  Si  Si7  1  0.89496900  0.23621100  0.66240400  1
  Si  Si8  1  0.16145700  0.23164000  0.72276100  1
  Si  Si9  1  0.66145700  0.26836000  0.27723900  1
  Si  Si10  1  0.83854300  0.73164000  0.77723900  1
  Si  Si11  1  0.33854300  0.76836000  0.22276100  1
  Si  Si12  1  0.83854300  0.76836000  0.27723900  1
  Si  Si13  1  0.33854300  0.73164000  0.72276100  1
  Si  Si14  1  0.16145700  0.26836000  0.22276100  1
  Si  Si15  1  0.66145700  0.23164000  0.77723900  1
  Si  Si16  1  0.25452600  0.97646000  0.83505300  1
  Si  Si17  1  0.75452600  0.52354000  0.16494700  1
  Si  Si18  1  0.74547400  0.47646000  0.66494700  1
  Si  Si19  1  0.24547400  0.02354000  0.33505300  1
  Si  Si20  1  0.74547400  0.02354000  0.16494700  1
  Si  Si21  1  0.24547400  0.47646000  0.83505300  1
  Si  Si22  1  0.25452600  0.52354000  0.33505300  1
  Si  Si23  1  0.75452600  0.97646000  0.66494700  1
  Si  Si24  1  0.97437500  0.00231600  0.79209200  1
  Si  Si25  1  0.47437500  0.49768400  0.20790800  1
  Si  Si26  1  0.02562500  0.50231600  0.70790800  1
  Si  Si27  1  0.52562500  0.99768400  0.29209200  1
  Si  Si28  1  0.02562500  0.99768400  0.20790800  1
  Si  Si29  1  0.52562500  0.50231600  0.79209200  1
  Si  Si30  1  0.97437500  0.49768400  0.29209200  1
  Si  Si31  1  0.47437500  0.00231600  0.70790800  1
  Si  Si32  1  0.81905300  0.13948700  0.96584900  1
  Si  Si33  1  0.31905300  0.36051300  0.03415100  1
  Si  Si34  1  0.18094700  0.63948700  0.53415100  1
  Si  Si35  1  0.68094700  0.86051300  0.46584900  1
  Si  Si36  1  0.18094700  0.86051300  0.03415100  1
  Si  Si37  1  0.68094700  0.63948700  0.96584900  1
  Si  Si38  1  0.81905300  0.36051300  0.46584900  1
  Si  Si39  1  0.31905300  0.13948700  0.53415100  1
  Pb  Pb40  1  0.10165300  0.16356600  0.98168200  1
  Pb  Pb41  1  0.60165300  0.33643400  0.01831800  1
  Pb  Pb42  1  0.89834700  0.66356600  0.51831800  1
  Pb  Pb43  1  0.39834700  0.83643400  0.48168200  1
  Pb  Pb44  1  0.89834700  0.83643400  0.01831800  1
  Pb  Pb45  1  0.39834700  0.66356600  0.98168200  1
  Pb  Pb46  1  0.10165300  0.33643400  0.48168200  1
  Pb  Pb47  1  0.60165300  0.16356600  0.51831800  1
  Pb  Pb48  1  0.38775100  0.07069700  0.07868400  1
  Pb  Pb49  1  0.88775100  0.42930300  0.92131600  1
  Pb  Pb50  1  0.61224900  0.57069700  0.42131600  1
  Pb  Pb51  1  0.11224900  0.92930300  0.57868400  1
  Pb  Pb52  1  0.61224900  0.92930300  0.92131600  1
  Pb  Pb53  1  0.11224900  0.57069700  0.07868400  1
  Pb  Pb54  1  0.38775100  0.42930300  0.57868400  1
  Pb  Pb55  1  0.88775100  0.07069700  0.42131600  1
  N  N56  1  0.90538100  0.25345300  0.03815700  1
  N  N57  1  0.40538100  0.24654700  0.96184300  1
  N  N58  1  0.09461900  0.75345300  0.46184300  1
  N  N59  1  0.59461900  0.74654700  0.53815700  1
  N  N60  1  0.09461900  0.74654700  0.96184300  1
  N  N61  1  0.59461900  0.75345300  0.03815700  1
  N  N62  1  0.90538100  0.24654700  0.53815700  1
  N  N63  1  0.40538100  0.25345300  0.46184300  1
  N  N64  1  0.91646500  0.03347700  0.90436500  1
  N  N65  1  0.41646500  0.46652300  0.09563500  1
  N  N66  1  0.08353500  0.53347700  0.59563500  1
  N  N67  1  0.58353500  0.96652300  0.40436500  1
  N  N68  1  0.08353500  0.96652300  0.09563500  1
  N  N69  1  0.58353500  0.53347700  0.90436500  1
  N  N70  1  0.91646500  0.46652300  0.40436500  1
  N  N71  1  0.41646500  0.03347700  0.59563500  1
  N  N72  1  0.73337400  0.24152900  0.88798200  1
  N  N73  1  0.23337400  0.25847100  0.11201800  1
  N  N74  1  0.26662600  0.74152900  0.61201800  1
  N  N75  1  0.76662600  0.75847100  0.38798200  1
  N  N76  1  0.26662600  0.75847100  0.11201800  1
  N  N77  1  0.76662600  0.74152900  0.88798200  1
  N  N78  1  0.73337400  0.25847100  0.38798200  1
  N  N79  1  0.23337400  0.24152900  0.61201800  1
  N  N80  1  0.27220000  0.95396500  0.95733800  1
  N  N81  1  0.77220000  0.54603500  0.04266200  1
  N  N82  1  0.72780000  0.45396500  0.54266200  1
  N  N83  1  0.22780000  0.04603500  0.45733800  1
  N  N84  1  0.72780000  0.04603500  0.04266200  1
  N  N85  1  0.22780000  0.45396500  0.95733800  1
  N  N86  1  0.27220000  0.54603500  0.45733800  1
  N  N87  1  0.77220000  0.95396500  0.54266200  1
  N  N88  1  0.01521000  0.14861100  0.72072800  1
  N  N89  1  0.51521000  0.35138900  0.27927200  1
  N  N90  1  0.98479000  0.64861100  0.77927200  1
  N  N91  1  0.48479000  0.85138900  0.22072800  1
  N  N92  1  0.98479000  0.85138900  0.27927200  1
  N  N93  1  0.48479000  0.64861100  0.72072800  1
  N  N94  1  0.01521000  0.35138900  0.22072800  1
  N  N95  1  0.51521000  0.14861100  0.77927200  1
  N  N96  1  0.36959500  0.89553300  0.76860000  1
  N  N97  1  0.86959500  0.60446700  0.23140000  1
  N  N98  1  0.63040500  0.39553300  0.73140000  1
  N  N99  1  0.13040500  0.10446700  0.26860000  1
  N  N100  1  0.63040500  0.10446700  0.23140000  1
  N  N101  1  0.13040500  0.39553300  0.76860000  1
  N  N102  1  0.36959500  0.60446700  0.26860000  1
  N  N103  1  0.86959500  0.89553300  0.73140000  1
  N  N104  1  0.26061500  0.14923700  0.80342800  1
  N  N105  1  0.76061500  0.35076300  0.19657200  1
  N  N106  1  0.73938500  0.64923700  0.69657200  1
  N  N107  1  0.23938500  0.85076300  0.30342800  1
  N  N108  1  0.73938500  0.85076300  0.19657200  1
  N  N109  1  0.23938500  0.64923700  0.80342800  1
  N  N110  1  0.26061500  0.35076300  0.30342800  1
  N  N111  1  0.76061500  0.14923700  0.69657200  1
  N  N112  1  0.11266800  0.90717500  0.79847000  1
  N  N113  1  0.61266800  0.59282500  0.20153000  1
  N  N114  1  0.88733200  0.40717500  0.70153000  1
  N  N115  1  0.38733200  0.09282500  0.29847000  1
  N  N116  1  0.88733200  0.09282500  0.20153000  1
  N  N117  1  0.38733200  0.40717500  0.79847000  1
  N  N118  1  0.11266800  0.59282500  0.29847000  1
  N  N119  1  0.61266800  0.90717500  0.70153000  1
