# generated using pymatgen
data_Mg2Fe3MoS8
_symmetry_space_group_name_H-M   'P 1'
_cell_length_a   7.05402175
_cell_length_b   7.06063122
_cell_length_c   7.04134336
_cell_angle_alpha   60.13830880
_cell_angle_beta   59.91448967
_cell_angle_gamma   60.13574475
_symmetry_Int_Tables_number   1
_chemical_formula_structural   Mg2Fe3MoS8
_chemical_formula_sum   'Mg2 Fe3 Mo1 S8'
_cell_volume   248.33311786
_cell_formula_units_Z   1
loop_
 _symmetry_equiv_pos_site_id
 _symmetry_equiv_pos_as_xyz
  1  'x, y, z'
loop_
 _atom_site_type_symbol
 _atom_site_label
 _atom_site_symmetry_multiplicity
 _atom_site_fract_x
 _atom_site_fract_y
 _atom_site_fract_z
 _atom_site_occupancy
  Mg  Mg0  1  0.87249300  0.88472900  0.87162700  1
  Mg  Mg1  1  0.12749600  0.11527700  0.12839500  1
  Fe  Fe2  1  0.49998000  0.49999200  0.50002300  1
  Fe  Fe3  1  0.49996200  0.50004000  0.99995200  1
  Fe  Fe4  1  0.00002800  0.49999200  0.50001300  1
  Mo  Mo5  1  0.50001100  0.99999100  0.50000000  1
  S  S6  1  0.74499700  0.71739200  0.74523800  1
  S  S7  1  0.25509900  0.28257900  0.70770100  1
  S  S8  1  0.26896100  0.69336000  0.26897300  1
  S  S9  1  0.70727600  0.28291700  0.25500300  1
  S  S10  1  0.73106100  0.30665500  0.73099500  1
  S  S11  1  0.29270700  0.71709500  0.74498600  1
  S  S12  1  0.25502100  0.28259600  0.25476600  1
  S  S13  1  0.74491300  0.71738000  0.29232800  1
