# generated using pymatgen
data_YMg2V3S8
_symmetry_space_group_name_H-M   'P 1'
_cell_length_a   7.49645645
_cell_length_b   7.47270316
_cell_length_c   7.47810088
_cell_angle_alpha   59.14662702
_cell_angle_beta   59.10735940
_cell_angle_gamma   59.01520018
_symmetry_Int_Tables_number   1
_chemical_formula_structural   YMg2V3S8
_chemical_formula_sum   'Y1 Mg2 V3 S8'
_cell_volume   290.06890567
_cell_formula_units_Z   1
loop_
 _symmetry_equiv_pos_site_id
 _symmetry_equiv_pos_as_xyz
  1  'x, y, z'
loop_
 _atom_site_type_symbol
 _atom_site_label
 _atom_site_symmetry_multiplicity
 _atom_site_fract_x
 _atom_site_fract_y
 _atom_site_fract_z
 _atom_site_occupancy
  Y  Y0  1  0.50000300  0.50001100  0.49997700  1
  Mg  Mg1  1  0.87363800  0.87380300  0.87393600  1
  Mg  Mg2  1  0.12637200  0.12616600  0.12610800  1
  V  V3  1  0.50009400  0.50000300  0.99988400  1
  V  V4  1  0.99993200  0.49994700  0.50013100  1
  V  V5  1  0.49996200  0.00005200  0.50000300  1
  S  S6  1  0.73780300  0.74005700  0.73733500  1
  S  S7  1  0.24467000  0.24505300  0.72296200  1
  S  S8  1  0.24629100  0.72288700  0.24559600  1
  S  S9  1  0.72281700  0.24552400  0.24459300  1
  S  S10  1  0.75371300  0.27707100  0.75438600  1
  S  S11  1  0.27718200  0.75446700  0.75540500  1
  S  S12  1  0.26220200  0.26000200  0.26261400  1
  S  S13  1  0.75532300  0.75495300  0.27707100  1
