# generated using pymatgen
data_Mg2ScW3S8
_symmetry_space_group_name_H-M   'P 1'
_cell_length_a   7.45029750
_cell_length_b   7.45465866
_cell_length_c   7.46033099
_cell_angle_alpha   56.59359674
_cell_angle_beta   56.53018064
_cell_angle_gamma   56.84002231
_symmetry_Int_Tables_number   1
_chemical_formula_structural   Mg2ScW3S8
_chemical_formula_sum   'Mg2 Sc1 W3 S8'
_cell_volume   270.34139740
_cell_formula_units_Z   1
loop_
 _symmetry_equiv_pos_site_id
 _symmetry_equiv_pos_as_xyz
  1  'x, y, z'
loop_
 _atom_site_type_symbol
 _atom_site_label
 _atom_site_symmetry_multiplicity
 _atom_site_fract_x
 _atom_site_fract_y
 _atom_site_fract_z
 _atom_site_occupancy
  Mg  Mg0  1  0.89584900  0.89505300  0.90321500  1
  Mg  Mg1  1  0.13778500  0.14078800  0.14797600  1
  Sc  Sc2  1  0.47106800  0.47050500  0.47467500  1
  W  W3  1  0.53704900  0.53638300  0.93522700  1
  W  W4  1  0.94794200  0.53148000  0.53469700  1
  W  W5  1  0.53207200  0.94811800  0.53487700  1
  S  S6  1  0.76396600  0.76266300  0.75802200  1
  S  S7  1  0.22772600  0.22756000  0.74256300  1
  S  S8  1  0.23428600  0.73803400  0.22619500  1
  S  S9  1  0.73688700  0.23361300  0.22580300  1
  S  S10  1  0.72725300  0.28862400  0.72315300  1
  S  S11  1  0.28992700  0.72729400  0.72302000  1
  S  S12  1  0.27381300  0.27523300  0.27251700  1
  S  S13  1  0.72438200  0.72464700  0.29806000  1
