# generated using pymatgen
data_Mg7SnN6
_symmetry_space_group_name_H-M   'P 1'
_cell_length_a   5.61336900
_cell_length_b   8.57458534
_cell_length_c   8.57458629
_cell_angle_alpha   76.80783688
_cell_angle_beta   70.89344552
_cell_angle_gamma   70.89345040
_symmetry_Int_Tables_number   1
_chemical_formula_structural   Mg7SnN6
_chemical_formula_sum   'Mg14 Sn2 N12'
_cell_volume   365.09169957
_cell_formula_units_Z   2
loop_
 _symmetry_equiv_pos_site_id
 _symmetry_equiv_pos_as_xyz
  1  'x, y, z'
loop_
 _atom_site_type_symbol
 _atom_site_label
 _atom_site_symmetry_multiplicity
 _atom_site_fract_x
 _atom_site_fract_y
 _atom_site_fract_z
 _atom_site_occupancy
  Mg  Mg0  1  0.25755200  0.97035900  0.02964100  1
  Mg  Mg1  1  0.74244800  0.02964100  0.97035900  1
  Mg  Mg2  1  0.24244800  0.47035900  0.52964100  1
  Mg  Mg3  1  0.75755200  0.52964100  0.47035900  1
  Mg  Mg4  1  0.62812500  0.14192700  0.63791000  1
  Mg  Mg5  1  0.59203800  0.63791000  0.14192700  1
  Mg  Mg6  1  0.87187500  0.86209000  0.35807300  1
  Mg  Mg7  1  0.90796200  0.35807300  0.86209000  1
  Mg  Mg8  1  0.37187500  0.85807300  0.36209000  1
  Mg  Mg9  1  0.40796200  0.36209000  0.85807300  1
  Mg  Mg10  1  0.12812500  0.13791000  0.64192700  1
  Mg  Mg11  1  0.09203800  0.64192700  0.13791000  1
  Mg  Mg12  1  0.25000000  0.25000000  0.25000000  1
  Mg  Mg13  1  0.75000000  0.75000000  0.75000000  1
  Sn  Sn14  1  0.75000000  0.25000000  0.25000000  1
  Sn  Sn15  1  0.25000000  0.75000000  0.75000000  1
  N  N16  1  0.07888300  0.05067300  0.27146200  1
  N  N17  1  0.59898100  0.27146200  0.05067300  1
  N  N18  1  0.42111700  0.22853800  0.44932700  1
  N  N19  1  0.90101900  0.44932700  0.22853800  1
  N  N20  1  0.92111700  0.94932700  0.72853800  1
  N  N21  1  0.40101900  0.72853800  0.94932700  1
  N  N22  1  0.57888300  0.77146200  0.55067300  1
  N  N23  1  0.09898100  0.55067300  0.77146200  1
  N  N24  1  0.77508500  0.33841900  0.66158100  1
  N  N25  1  0.22491500  0.66158100  0.33841900  1
  N  N26  1  0.72491500  0.83841900  0.16158100  1
  N  N27  1  0.27508500  0.16158100  0.83841900  1
