# generated using pymatgen
data_MgAlMoS4
_symmetry_space_group_name_H-M   'P 1'
_cell_length_a   7.27023269
_cell_length_b   7.34095846
_cell_length_c   7.34105533
_cell_angle_alpha   60.71335831
_cell_angle_beta   60.31784141
_cell_angle_gamma   60.31890560
_symmetry_Int_Tables_number   1
_chemical_formula_structural   MgAlMoS4
_chemical_formula_sum   'Mg2 Al2 Mo2 S8'
_cell_volume   279.85120331
_cell_formula_units_Z   2
loop_
 _symmetry_equiv_pos_site_id
 _symmetry_equiv_pos_as_xyz
  1  'x, y, z'
loop_
 _atom_site_type_symbol
 _atom_site_label
 _atom_site_symmetry_multiplicity
 _atom_site_fract_x
 _atom_site_fract_y
 _atom_site_fract_z
 _atom_site_occupancy
  Mg  Mg0  1  0.87313600  0.87687100  0.87687200  1
  Mg  Mg1  1  0.12686300  0.12313600  0.12313200  1
  Al  Al2  1  0.50000200  0.50001400  0.49998000  1
  Al  Al3  1  0.99999800  0.49999100  0.50001400  1
  Mo  Mo4  1  0.50000100  0.49999200  0.99999900  1
  Mo  Mo5  1  0.49999900  0.99999800  0.50000600  1
  S  S6  1  0.74694700  0.73411300  0.73411400  1
  S  S7  1  0.25827800  0.26933300  0.71411900  1
  S  S8  1  0.25828300  0.71411900  0.26932400  1
  S  S9  1  0.71517000  0.26589700  0.26588300  1
  S  S10  1  0.74171300  0.28588200  0.73066500  1
  S  S11  1  0.28483100  0.73409700  0.73411400  1
  S  S12  1  0.25305200  0.26588000  0.26589800  1
  S  S13  1  0.74173000  0.73067200  0.28588000  1
