# generated using pymatgen
data_Cd11(CN5)2
_symmetry_space_group_name_H-M   'P 1'
_cell_length_a   14.44996100
_cell_length_b   14.44996100
_cell_length_c   3.40993400
_cell_angle_alpha   90.00000000
_cell_angle_beta   90.00000000
_cell_angle_gamma   90.00000000
_symmetry_Int_Tables_number   1
_chemical_formula_structural   Cd11(CN5)2
_chemical_formula_sum   'Cd22 C4 N20'
_cell_volume   711.99890070
_cell_formula_units_Z   2
loop_
 _symmetry_equiv_pos_site_id
 _symmetry_equiv_pos_as_xyz
  1  'x, y, z'
loop_
 _atom_site_type_symbol
 _atom_site_label
 _atom_site_symmetry_multiplicity
 _atom_site_fract_x
 _atom_site_fract_y
 _atom_site_fract_z
 _atom_site_occupancy
  Cd  Cd0  1  0.50000000  0.50000000  0.50000000  1
  Cd  Cd1  1  0.00000000  0.00000000  0.00000000  1
  Cd  Cd2  1  0.98209200  0.79230600  0.50000000  1
  Cd  Cd3  1  0.01790800  0.20769400  0.50000000  1
  Cd  Cd4  1  0.51790800  0.29230600  0.00000000  1
  Cd  Cd5  1  0.48209200  0.70769400  0.00000000  1
  Cd  Cd6  1  0.79230600  0.98209200  0.50000000  1
  Cd  Cd7  1  0.20769400  0.01790800  0.50000000  1
  Cd  Cd8  1  0.29230600  0.51790800  0.00000000  1
  Cd  Cd9  1  0.70769400  0.48209200  0.00000000  1
  Cd  Cd10  1  0.66240400  0.66240400  0.50000000  1
  Cd  Cd11  1  0.33759600  0.33759600  0.50000000  1
  Cd  Cd12  1  0.83759600  0.16240400  0.00000000  1
  Cd  Cd13  1  0.16240400  0.83759600  0.00000000  1
  Cd  Cd14  1  0.38934800  0.90459900  0.50000000  1
  Cd  Cd15  1  0.61065200  0.09540100  0.50000000  1
  Cd  Cd16  1  0.11065200  0.40459900  0.00000000  1
  Cd  Cd17  1  0.88934800  0.59540100  0.00000000  1
  Cd  Cd18  1  0.90459900  0.38934800  0.50000000  1
  Cd  Cd19  1  0.09540100  0.61065200  0.50000000  1
  Cd  Cd20  1  0.40459900  0.11065200  0.00000000  1
  Cd  Cd21  1  0.59540100  0.88934800  0.00000000  1
  C  C22  1  0.30060600  0.69939400  0.50000000  1
  C  C23  1  0.69939400  0.30060600  0.50000000  1
  C  C24  1  0.19939400  0.19939400  0.00000000  1
  C  C25  1  0.80060600  0.80060600  0.00000000  1
  N  N26  1  0.08209600  0.91790400  0.50000000  1
  N  N27  1  0.91790400  0.08209600  0.50000000  1
  N  N28  1  0.41790400  0.41790400  0.00000000  1
  N  N29  1  0.58209600  0.58209600  0.00000000  1
  N  N30  1  0.48603700  0.18384600  0.50000000  1
  N  N31  1  0.51396300  0.81615400  0.50000000  1
  N  N32  1  0.01396300  0.68384600  0.00000000  1
  N  N33  1  0.98603700  0.31615400  0.00000000  1
  N  N34  1  0.18384600  0.48603700  0.50000000  1
  N  N35  1  0.81615400  0.51396300  0.50000000  1
  N  N36  1  0.68384600  0.01396300  0.00000000  1
  N  N37  1  0.31615400  0.98603700  0.00000000  1
  N  N38  1  0.24023800  0.75976200  0.50000000  1
  N  N39  1  0.75976200  0.24023800  0.50000000  1
  N  N40  1  0.25976200  0.25976200  0.00000000  1
  N  N41  1  0.74023800  0.74023800  0.00000000  1
  N  N42  1  0.36152900  0.63847100  0.50000000  1
  N  N43  1  0.63847100  0.36152900  0.50000000  1
  N  N44  1  0.13847100  0.13847100  0.00000000  1
  N  N45  1  0.86152900  0.86152900  0.00000000  1
