# generated using pymatgen
data_TeMoN
_symmetry_space_group_name_H-M   'P 1'
_cell_length_a   3.50687100
_cell_length_b   3.50687100
_cell_length_c   9.35979400
_cell_angle_alpha   90.00000000
_cell_angle_beta   90.00000000
_cell_angle_gamma   90.00000000
_symmetry_Int_Tables_number   1
_chemical_formula_structural   TeMoN
_chemical_formula_sum   'Te2 Mo2 N2'
_cell_volume   115.10809639
_cell_formula_units_Z   2
loop_
 _symmetry_equiv_pos_site_id
 _symmetry_equiv_pos_as_xyz
  1  'x, y, z'
loop_
 _atom_site_type_symbol
 _atom_site_label
 _atom_site_symmetry_multiplicity
 _atom_site_fract_x
 _atom_site_fract_y
 _atom_site_fract_z
 _atom_site_occupancy
  Te  Te0  1  0.50000000  0.00000000  0.70145100  1
  Te  Te1  1  0.00000000  0.50000000  0.29854900  1
  Mo  Mo2  1  0.50000000  0.00000000  0.11209200  1
  Mo  Mo3  1  0.00000000  0.50000000  0.88790800  1
  N  N4  1  0.50000000  0.50000000  0.00000000  1
  N  N5  1  0.00000000  0.00000000  0.00000000  1
