# generated using pymatgen
data_Mg2Mn3CrS8
_symmetry_space_group_name_H-M   'P 1'
_cell_length_a   7.28006363
_cell_length_b   7.27847870
_cell_length_c   7.27933106
_cell_angle_alpha   59.98355274
_cell_angle_beta   59.99209715
_cell_angle_gamma   59.98519247
_symmetry_Int_Tables_number   1
_chemical_formula_structural   Mg2Mn3CrS8
_chemical_formula_sum   'Mg2 Mn3 Cr1 S8'
_cell_volume   272.66142890
_cell_formula_units_Z   1
loop_
 _symmetry_equiv_pos_site_id
 _symmetry_equiv_pos_as_xyz
  1  'x, y, z'
loop_
 _atom_site_type_symbol
 _atom_site_label
 _atom_site_symmetry_multiplicity
 _atom_site_fract_x
 _atom_site_fract_y
 _atom_site_fract_z
 _atom_site_occupancy
  Mg  Mg0  1  0.87431100  0.87703900  0.87430300  1
  Mg  Mg1  1  0.12572500  0.12291600  0.12573000  1
  Mn  Mn2  1  0.50007600  0.50013300  0.49978000  1
  Mn  Mn3  1  0.49998900  0.49997200  0.99998200  1
  Mn  Mn4  1  0.00000800  0.49997300  0.50003100  1
  Cr  Cr5  1  0.49988500  0.00005600  0.50005900  1
  S  S6  1  0.73501300  0.74356400  0.73490900  1
  S  S7  1  0.26506100  0.25642600  0.71346500  1
  S  S8  1  0.26239100  0.71261200  0.26256100  1
  S  S9  1  0.71346700  0.25638700  0.26514600  1
  S  S10  1  0.73759600  0.28737400  0.73745600  1
  S  S11  1  0.28654000  0.74357000  0.73487700  1
  S  S12  1  0.26497400  0.25640500  0.26514100  1
  S  S13  1  0.73496600  0.74356800  0.28656100  1
