# generated using pymatgen
data_KCdN
_symmetry_space_group_name_H-M   'P 1'
_cell_length_a   7.50964400
_cell_length_b   4.26033200
_cell_length_c   6.89378200
_cell_angle_alpha   90.00000000
_cell_angle_beta   90.00000000
_cell_angle_gamma   90.00000000
_symmetry_Int_Tables_number   1
_chemical_formula_structural   KCdN
_chemical_formula_sum   'K4 Cd4 N4'
_cell_volume   220.55674277
_cell_formula_units_Z   4
loop_
 _symmetry_equiv_pos_site_id
 _symmetry_equiv_pos_as_xyz
  1  'x, y, z'
loop_
 _atom_site_type_symbol
 _atom_site_label
 _atom_site_symmetry_multiplicity
 _atom_site_fract_x
 _atom_site_fract_y
 _atom_site_fract_z
 _atom_site_occupancy
  K  K0  1  0.54419900  0.25000000  0.84906000  1
  K  K1  1  0.04419900  0.25000000  0.65094000  1
  K  K2  1  0.45580100  0.75000000  0.15094000  1
  K  K3  1  0.95580100  0.75000000  0.34906000  1
  Cd  Cd4  1  0.64351700  0.25000000  0.41414700  1
  Cd  Cd5  1  0.14351700  0.25000000  0.08585300  1
  Cd  Cd6  1  0.35648300  0.75000000  0.58585300  1
  Cd  Cd7  1  0.85648300  0.75000000  0.91414700  1
  N  N8  1  0.82633100  0.25000000  0.11210400  1
  N  N9  1  0.32633100  0.25000000  0.38789600  1
  N  N10  1  0.17366900  0.75000000  0.88789600  1
  N  N11  1  0.67366900  0.75000000  0.61210400  1
