# generated using pymatgen
data_Zr3Si6N11
_symmetry_space_group_name_H-M   'P 1'
_cell_length_a   9.86541041
_cell_length_b   9.86541041
_cell_length_c   4.85272896
_cell_angle_alpha   90.00000000
_cell_angle_beta   90.00000000
_cell_angle_gamma   90.00000000
_symmetry_Int_Tables_number   1
_chemical_formula_structural   Zr3Si6N11
_chemical_formula_sum   'Zr6 Si12 N22'
_cell_volume   472.29826405
_cell_formula_units_Z   2
loop_
 _symmetry_equiv_pos_site_id
 _symmetry_equiv_pos_as_xyz
  1  'x, y, z'
loop_
 _atom_site_type_symbol
 _atom_site_label
 _atom_site_symmetry_multiplicity
 _atom_site_fract_x
 _atom_site_fract_y
 _atom_site_fract_z
 _atom_site_occupancy
  Zr  Zr0  1  0.31310291  0.81310291  0.96269587  1
  Zr  Zr1  1  0.68689709  0.18689709  0.96269587  1
  Zr  Zr2  1  0.18689709  0.31310291  0.96269587  1
  Zr  Zr3  1  0.81310291  0.68689709  0.96269587  1
  Zr  Zr4  1  0.50000000  0.50000000  0.98062786  1
  Zr  Zr5  1  0.00000000  0.00000000  0.98062786  1
  Si  Si6  1  0.41510143  0.29944214  0.52959539  1
  Si  Si7  1  0.58489857  0.70055786  0.52959539  1
  Si  Si8  1  0.08489857  0.79944214  0.52959539  1
  Si  Si9  1  0.91510143  0.20055786  0.52959539  1
  Si  Si10  1  0.29944214  0.58489857  0.52959539  1
  Si  Si11  1  0.70055786  0.41510143  0.52959539  1
  Si  Si12  1  0.79944214  0.91510143  0.52959539  1
  Si  Si13  1  0.20055786  0.08489857  0.52959539  1
  Si  Si14  1  0.87995438  0.37995438  0.04051745  1
  Si  Si15  1  0.12004562  0.62004562  0.04051745  1
  Si  Si16  1  0.62004562  0.87995438  0.04051745  1
  Si  Si17  1  0.37995438  0.12004562  0.04051745  1
  N  N18  1  0.31856855  0.42789329  0.67481606  1
  N  N19  1  0.68143145  0.57210671  0.67481606  1
  N  N20  1  0.18143145  0.92789329  0.67481606  1
  N  N21  1  0.81856855  0.07210671  0.67481606  1
  N  N22  1  0.42789329  0.68143145  0.67481606  1
  N  N23  1  0.57210671  0.31856855  0.67481606  1
  N  N24  1  0.92789329  0.81856855  0.67481606  1
  N  N25  1  0.07210671  0.18143145  0.67481606  1
  N  N26  1  0.41639812  0.28175979  0.17523442  1
  N  N27  1  0.58360188  0.71824021  0.17523442  1
  N  N28  1  0.08360188  0.78175979  0.17523442  1
  N  N29  1  0.91639812  0.21824021  0.17523442  1
  N  N30  1  0.28175979  0.58360188  0.17523442  1
  N  N31  1  0.71824021  0.41639812  0.17523442  1
  N  N32  1  0.78175979  0.91639812  0.17523442  1
  N  N33  1  0.21824021  0.08360188  0.17523442  1
  N  N34  1  0.83829971  0.33829971  0.69836505  1
  N  N35  1  0.16170029  0.66170029  0.69836505  1
  N  N36  1  0.66170029  0.83829971  0.69836505  1
  N  N37  1  0.33829971  0.16170029  0.69836505  1
  N  N38  1  0.50000000  0.00000000  0.06617294  1
  N  N39  1  0.00000000  0.50000000  0.06617294  1
