# generated using pymatgen
data_Mg4GeN4
_symmetry_space_group_name_H-M   'P 1'
_cell_length_a   5.39020100
_cell_length_b   10.72328200
_cell_length_c   8.28262100
_cell_angle_alpha   90.00000000
_cell_angle_beta   90.00000000
_cell_angle_gamma   90.00000000
_symmetry_Int_Tables_number   1
_chemical_formula_structural   Mg4GeN4
_chemical_formula_sum   'Mg16 Ge4 N16'
_cell_volume   478.74083907
_cell_formula_units_Z   4
loop_
 _symmetry_equiv_pos_site_id
 _symmetry_equiv_pos_as_xyz
  1  'x, y, z'
loop_
 _atom_site_type_symbol
 _atom_site_label
 _atom_site_symmetry_multiplicity
 _atom_site_fract_x
 _atom_site_fract_y
 _atom_site_fract_z
 _atom_site_occupancy
  Mg  Mg0  1  0.18082000  0.35933300  0.61768400  1
  Mg  Mg1  1  0.31918000  0.64066700  0.61768400  1
  Mg  Mg2  1  0.18082000  0.14066700  0.88231600  1
  Mg  Mg3  1  0.31918000  0.85933300  0.88231600  1
  Mg  Mg4  1  0.81918000  0.64066700  0.38231600  1
  Mg  Mg5  1  0.68082000  0.35933300  0.38231600  1
  Mg  Mg6  1  0.81918000  0.85933300  0.11768400  1
  Mg  Mg7  1  0.68082000  0.14066700  0.11768400  1
  Mg  Mg8  1  0.75000000  0.50000000  0.04364800  1
  Mg  Mg9  1  0.75000000  0.00000000  0.45635200  1
  Mg  Mg10  1  0.25000000  0.50000000  0.95635200  1
  Mg  Mg11  1  0.25000000  0.00000000  0.54364800  1
  Mg  Mg12  1  0.72552400  0.25000000  0.75000000  1
  Mg  Mg13  1  0.77447600  0.75000000  0.75000000  1
  Mg  Mg14  1  0.27447600  0.75000000  0.25000000  1
  Mg  Mg15  1  0.22552400  0.25000000  0.25000000  1
  Ge  Ge16  1  0.75000000  0.50000000  0.71120500  1
  Ge  Ge17  1  0.75000000  0.00000000  0.78879500  1
  Ge  Ge18  1  0.25000000  0.50000000  0.28879500  1
  Ge  Ge19  1  0.25000000  0.00000000  0.21120400  1
  N  N20  1  0.55211300  0.37971900  0.61147400  1
  N  N21  1  0.94788700  0.62028100  0.61147400  1
  N  N22  1  0.55211300  0.12028100  0.88852600  1
  N  N23  1  0.94788700  0.87971900  0.88852600  1
  N  N24  1  0.44788700  0.62028100  0.38852600  1
  N  N25  1  0.05211300  0.37971900  0.38852600  1
  N  N26  1  0.44788700  0.87971900  0.11147400  1
  N  N27  1  0.05211300  0.12028100  0.11147400  1
  N  N28  1  0.96872300  0.10293600  0.65871600  1
  N  N29  1  0.53127700  0.89706400  0.65871600  1
  N  N30  1  0.96872300  0.39706400  0.84128400  1
  N  N31  1  0.53127700  0.60293600  0.84128400  1
  N  N32  1  0.03127700  0.89706400  0.34128400  1
  N  N33  1  0.46872200  0.10293600  0.34128400  1
  N  N34  1  0.03127700  0.60293600  0.15871600  1
  N  N35  1  0.46872200  0.39706400  0.15871600  1
