# generated using pymatgen
data_Na3TaN2
_symmetry_space_group_name_H-M   'P 1'
_cell_length_a   10.00798100
_cell_length_b   11.55622145
_cell_length_c   11.55622216
_cell_angle_alpha   90.00000169
_cell_angle_beta   125.26438983
_cell_angle_gamma   54.73560769
_symmetry_Int_Tables_number   1
_chemical_formula_structural   Na3TaN2
_chemical_formula_sum   'Na24 Ta8 N16'
_cell_volume   771.64503445
_cell_formula_units_Z   8
loop_
 _symmetry_equiv_pos_site_id
 _symmetry_equiv_pos_as_xyz
  1  'x, y, z'
loop_
 _atom_site_type_symbol
 _atom_site_label
 _atom_site_symmetry_multiplicity
 _atom_site_fract_x
 _atom_site_fract_y
 _atom_site_fract_z
 _atom_site_occupancy
  Na  Na0  1  0.19223100  0.06870600  0.96660100  1
  Na  Na1  1  0.80776900  0.76093700  0.53339900  1
  Na  Na2  1  0.80776900  0.43129400  0.77437000  1
  Na  Na3  1  0.19223100  0.73906300  0.72563000  1
  Na  Na4  1  0.25902900  0.77437000  0.29433600  1
  Na  Na5  1  0.74097100  0.72563000  0.03530600  1
  Na  Na6  1  0.25902900  0.96660100  0.46469400  1
  Na  Na7  1  0.74097100  0.53339900  0.20566400  1
  Na  Na8  1  0.67035800  0.03530600  0.73906300  1
  Na  Na9  1  0.67035800  0.29433600  0.43129400  1
  Na  Na10  1  0.32964200  0.20566400  0.76093700  1
  Na  Na11  1  0.32964200  0.46469400  0.06870600  1
  Na  Na12  1  0.80776900  0.93129400  0.03339900  1
  Na  Na13  1  0.19223100  0.23906300  0.46660100  1
  Na  Na14  1  0.19223100  0.56870600  0.22563000  1
  Na  Na15  1  0.80776900  0.26093700  0.27437000  1
  Na  Na16  1  0.74097100  0.22563000  0.70566400  1
  Na  Na17  1  0.25902900  0.27437000  0.96469400  1
  Na  Na18  1  0.74097100  0.03339900  0.53530600  1
  Na  Na19  1  0.25902900  0.46660100  0.79433600  1
  Na  Na20  1  0.32964200  0.96469400  0.26093700  1
  Na  Na21  1  0.32964200  0.70566400  0.56870600  1
  Na  Na22  1  0.67035800  0.79433600  0.23906300  1
  Na  Na23  1  0.67035800  0.53530600  0.93129400  1
  Ta  Ta24  1  0.19832500  0.00000000  0.69832500  1
  Ta  Ta25  1  0.80167500  0.69832500  0.80167500  1
  Ta  Ta26  1  0.80167500  0.50000000  0.50000000  1
  Ta  Ta27  1  0.19832500  0.80167500  0.00000000  1
  Ta  Ta28  1  0.80167500  0.00000000  0.30167500  1
  Ta  Ta29  1  0.19832500  0.30167500  0.19832500  1
  Ta  Ta30  1  0.19832500  0.50000000  0.50000000  1
  Ta  Ta31  1  0.80167500  0.19832500  0.00000000  1
  N  N32  1  0.00000000  0.00000000  0.50000000  1
  N  N33  1  0.00000000  0.50000000  0.00000000  1
  N  N34  1  0.00000000  0.50000000  0.50000000  1
  N  N35  1  0.00000000  0.00000000  0.00000000  1
  N  N36  1  0.50000000  0.84080900  0.75000000  1
  N  N37  1  0.50000000  0.65919100  0.25000000  1
  N  N38  1  0.00000000  0.25000000  0.59080900  1
  N  N39  1  0.00000000  0.75000000  0.90919100  1
  N  N40  1  0.81838200  0.59080900  0.65919100  1
  N  N41  1  0.18161800  0.90919100  0.84080900  1
  N  N42  1  0.50000000  0.15919100  0.25000000  1
  N  N43  1  0.50000000  0.34080900  0.75000000  1
  N  N44  1  0.00000000  0.75000000  0.40919100  1
  N  N45  1  0.00000000  0.25000000  0.09080900  1
  N  N46  1  0.18161800  0.40919100  0.34080900  1
  N  N47  1  0.81838200  0.09080900  0.15919100  1
