# generated using pymatgen
data_Ca3Re3N5
_symmetry_space_group_name_H-M   'P 1'
_cell_length_a   5.99328658
_cell_length_b   6.83429098
_cell_length_c   8.88475570
_cell_angle_alpha   107.36270827
_cell_angle_beta   105.00877476
_cell_angle_gamma   95.36320717
_symmetry_Int_Tables_number   1
_chemical_formula_structural   Ca3Re3N5
_chemical_formula_sum   'Ca6 Re6 N10'
_cell_volume   329.68247351
_cell_formula_units_Z   2
loop_
 _symmetry_equiv_pos_site_id
 _symmetry_equiv_pos_as_xyz
  1  'x, y, z'
loop_
 _atom_site_type_symbol
 _atom_site_label
 _atom_site_symmetry_multiplicity
 _atom_site_fract_x
 _atom_site_fract_y
 _atom_site_fract_z
 _atom_site_occupancy
  Ca  Ca0  1  0.80903600  0.44018800  0.61516400  1
  Ca  Ca1  1  0.19096400  0.55981200  0.38483600  1
  Ca  Ca2  1  0.64264200  0.86775800  0.88622300  1
  Ca  Ca3  1  0.35735800  0.13224200  0.11377700  1
  Ca  Ca4  1  0.66140500  0.64842300  0.20105300  1
  Ca  Ca5  1  0.33859500  0.35157700  0.79894700  1
  Re  Re6  1  0.88031900  0.31841900  0.96365400  1
  Re  Re7  1  0.11968100  0.68158100  0.03634600  1
  Re  Re8  1  0.68704500  0.92646700  0.56515500  1
  Re  Re9  1  0.31295500  0.07353300  0.43484500  1
  Re  Re10  1  0.11677400  0.88009900  0.69333900  1
  Re  Re11  1  0.88322600  0.11990100  0.30666100  1
  N  N12  1  0.92051500  0.08361300  0.79317900  1
  N  N13  1  0.07948500  0.91638700  0.20682100  1
  N  N14  1  0.87802300  0.71113600  0.47980400  1
  N  N15  1  0.12197700  0.28886400  0.52019600  1
  N  N16  1  0.74458600  0.55272800  0.91612900  1
  N  N17  1  0.25541400  0.44727200  0.08387100  1
  N  N18  1  0.38515800  0.93613700  0.62164800  1
  N  N19  1  0.61484200  0.06386300  0.37835200  1
  N  N20  1  0.19906500  0.76217700  0.86622200  1
  N  N21  1  0.80093500  0.23782300  0.13377800  1
