# generated using pymatgen
data_Mg2VCr3S8
_symmetry_space_group_name_H-M   'P 1'
_cell_length_a   7.23511240
_cell_length_b   7.23118159
_cell_length_c   7.22642154
_cell_angle_alpha   60.08021631
_cell_angle_beta   60.07905826
_cell_angle_gamma   60.06443593
_symmetry_Int_Tables_number   1
_chemical_formula_structural   Mg2VCr3S8
_chemical_formula_sum   'Mg2 V1 Cr3 S8'
_cell_volume   267.79108608
_cell_formula_units_Z   1
loop_
 _symmetry_equiv_pos_site_id
 _symmetry_equiv_pos_as_xyz
  1  'x, y, z'
loop_
 _atom_site_type_symbol
 _atom_site_label
 _atom_site_symmetry_multiplicity
 _atom_site_fract_x
 _atom_site_fract_y
 _atom_site_fract_z
 _atom_site_occupancy
  Mg  Mg0  1  0.87521259  0.87521119  0.87521919  1
  Mg  Mg1  1  0.12478087  0.12477893  0.12479481  1
  V  V2  1  0.49999947  0.50001701  0.49998110  1
  Cr  Cr3  1  0.49999427  0.49999673  -0.00000370  1
  Cr  Cr4  1  0.00001533  0.50001731  0.49998853  1
  Cr  Cr5  1  0.50001098  0.99998886  0.50000486  1
  S  S6  1  0.73677581  0.73685713  0.73684655  1
  S  S7  1  0.26220825  0.26234898  0.71159494  1
  S  S8  1  0.26220515  0.71161488  0.26227493  1
  S  S9  1  0.71161762  0.26227402  0.26218229  1
  S  S10  1  0.73777599  0.28840201  0.73771037  1
  S  S11  1  0.28837581  0.73771725  0.73782853  1
  S  S12  1  0.26322234  0.26312528  0.26316907  1
  S  S13  1  0.73780951  0.73764542  0.28840955  1
