# generated using pymatgen
data_Ca5(PtN3)2
_symmetry_space_group_name_H-M   'P 1'
_cell_length_a   6.11261590
_cell_length_b   6.89502510
_cell_length_c   12.12233069
_cell_angle_alpha   89.99999754
_cell_angle_beta   102.68698475
_cell_angle_gamma   124.33284031
_symmetry_Int_Tables_number   1
_chemical_formula_structural   Ca5(PtN3)2
_chemical_formula_sum   'Ca10 Pt4 N12'
_cell_volume   406.70596604
_cell_formula_units_Z   2
loop_
 _symmetry_equiv_pos_site_id
 _symmetry_equiv_pos_as_xyz
  1  'x, y, z'
loop_
 _atom_site_type_symbol
 _atom_site_label
 _atom_site_symmetry_multiplicity
 _atom_site_fract_x
 _atom_site_fract_y
 _atom_site_fract_z
 _atom_site_occupancy
  Ca  Ca0  1  0.00000000  0.38493800  0.75000000  1
  Ca  Ca1  1  0.00000000  0.61506200  0.25000000  1
  Ca  Ca2  1  0.12062900  0.80684100  0.00099800  1
  Ca  Ca3  1  0.87937100  0.68621300  0.49900200  1
  Ca  Ca4  1  0.87937100  0.19315900  0.99900200  1
  Ca  Ca5  1  0.12062900  0.31378700  0.50099800  1
  Ca  Ca6  1  0.33148700  0.03933800  0.73146800  1
  Ca  Ca7  1  0.66851300  0.70785100  0.76853200  1
  Ca  Ca8  1  0.66851300  0.96066200  0.26853200  1
  Ca  Ca9  1  0.33148700  0.29214900  0.23146800  1
  Pt  Pt10  1  0.52884300  0.82079400  0.54268000  1
  Pt  Pt11  1  0.47115700  0.29195100  0.95732000  1
  Pt  Pt12  1  0.47115700  0.17920600  0.45732000  1
  Pt  Pt13  1  0.52884300  0.70804900  0.04268000  1
  N  N14  1  0.25604500  0.67622500  0.62945800  1
  N  N15  1  0.74395500  0.42018100  0.87054200  1
  N  N16  1  0.74395500  0.32377500  0.37054200  1
  N  N17  1  0.25604500  0.57981900  0.12945800  1
  N  N18  1  0.57935600  0.32588400  0.61204700  1
  N  N19  1  0.42064400  0.74652800  0.88795300  1
  N  N20  1  0.42064400  0.67411600  0.38795300  1
  N  N21  1  0.57935600  0.25347200  0.11204700  1
  N  N22  1  0.91116900  0.00406000  0.62528300  1
  N  N23  1  0.08883100  0.09289200  0.87471700  1
  N  N24  1  0.08883100  0.99594000  0.37471700  1
  N  N25  1  0.91116900  0.90710800  0.12528300  1
