# generated using pymatgen
data_In5(SiN3)2
_symmetry_space_group_name_H-M   'P 1'
_cell_length_a   5.93513541
_cell_length_b   7.34594044
_cell_length_c   11.82739898
_cell_angle_alpha   90.00000007
_cell_angle_beta   95.82294742
_cell_angle_gamma   128.23233990
_symmetry_Int_Tables_number   1
_chemical_formula_structural   In5(SiN3)2
_chemical_formula_sum   'In10 Si4 N12'
_cell_volume   401.66571916
_cell_formula_units_Z   2
loop_
 _symmetry_equiv_pos_site_id
 _symmetry_equiv_pos_as_xyz
  1  'x, y, z'
loop_
 _atom_site_type_symbol
 _atom_site_label
 _atom_site_symmetry_multiplicity
 _atom_site_fract_x
 _atom_site_fract_y
 _atom_site_fract_z
 _atom_site_occupancy
  In  In0  1  0.00000000  0.45619100  0.75000000  1
  In  In1  1  0.00000000  0.54380900  0.25000000  1
  In  In2  1  0.16892600  0.83281400  0.00643000  1
  In  In3  1  0.83107400  0.66388700  0.49357000  1
  In  In4  1  0.83107400  0.16718600  0.99357000  1
  In  In5  1  0.16892600  0.33611300  0.50643000  1
  In  In6  1  0.30620100  0.09727700  0.70504600  1
  In  In7  1  0.69379900  0.79107500  0.79495400  1
  In  In8  1  0.69379900  0.90272300  0.29495400  1
  In  In9  1  0.30620100  0.20892500  0.20504600  1
  Si  Si10  1  0.55447400  0.91661700  0.58264300  1
  Si  Si11  1  0.44552600  0.36214300  0.91735700  1
  Si  Si12  1  0.44552600  0.08338300  0.41735700  1
  Si  Si13  1  0.55447400  0.63785700  0.08264300  1
  N  N14  1  0.34027700  0.80590400  0.69560700  1
  N  N15  1  0.65972300  0.46562800  0.80439300  1
  N  N16  1  0.65972300  0.19409600  0.30439300  1
  N  N17  1  0.34027700  0.53437200  0.19560700  1
  N  N18  1  0.59259600  0.17866400  0.56476100  1
  N  N19  1  0.40740400  0.58606900  0.93523900  1
  N  N20  1  0.40740400  0.82133600  0.43523900  1
  N  N21  1  0.59259600  0.41393100  0.06476100  1
  N  N22  1  0.84803800  0.91788300  0.62340100  1
  N  N23  1  0.15196200  0.06984500  0.87659900  1
  N  N24  1  0.15196200  0.08211700  0.37659900  1
  N  N25  1  0.84803800  0.93015500  0.12340100  1
