# generated using pymatgen
data_ReWN3
_symmetry_space_group_name_H-M   'P 1'
_cell_length_a   3.89272732
_cell_length_b   8.04820900
_cell_length_c   9.46046401
_cell_angle_alpha   101.11347826
_cell_angle_beta   115.41387754
_cell_angle_gamma   102.01396775
_symmetry_Int_Tables_number   1
_chemical_formula_structural   ReWN3
_chemical_formula_sum   'Re4 W4 N12'
_cell_volume   248.14004080
_cell_formula_units_Z   4
loop_
 _symmetry_equiv_pos_site_id
 _symmetry_equiv_pos_as_xyz
  1  'x, y, z'
loop_
 _atom_site_type_symbol
 _atom_site_label
 _atom_site_symmetry_multiplicity
 _atom_site_fract_x
 _atom_site_fract_y
 _atom_site_fract_z
 _atom_site_occupancy
  Re  Re0  1  0.40816400  0.55645700  0.69867500  1
  Re  Re1  1  0.59183600  0.44354300  0.30132500  1
  Re  Re2  1  0.99031900  0.12387600  0.12461200  1
  Re  Re3  1  0.00968100  0.87612400  0.87538800  1
  W  W4  1  0.67509900  0.74572900  0.53865500  1
  W  W5  1  0.32490100  0.25427100  0.46134500  1
  W  W6  1  0.15760000  0.80759500  0.16943900  1
  W  W7  1  0.84240000  0.19240500  0.83056100  1
  N  N8  1  0.14738700  0.01049700  0.32971200  1
  N  N9  1  0.85261300  0.98950300  0.67028800  1
  N  N10  1  0.74833200  0.67657400  0.95191100  1
  N  N11  1  0.25166800  0.32342600  0.04808900  1
  N  N12  1  0.42601100  0.01175800  0.12074100  1
  N  N13  1  0.57398900  0.98824200  0.87925900  1
  N  N14  1  0.10760200  0.65564200  0.49089700  1
  N  N15  1  0.89239800  0.34435800  0.50910300  1
  N  N16  1  0.02336800  0.34756700  0.27221300  1
  N  N17  1  0.97663200  0.65243300  0.72778700  1
  N  N18  1  0.47214300  0.67583900  0.27951800  1
  N  N19  1  0.52785700  0.32416100  0.72048200  1
