# generated using pymatgen
data_Ba2SrN2
_symmetry_space_group_name_H-M   'P 1'
_cell_length_a   3.93057900
_cell_length_b   3.93056823
_cell_length_c   10.56066401
_cell_angle_alpha   90.00000098
_cell_angle_beta   89.99947873
_cell_angle_gamma   119.99991062
_symmetry_Int_Tables_number   1
_chemical_formula_structural   Ba2SrN2
_chemical_formula_sum   'Ba2 Sr1 N2'
_cell_volume   141.29738265
_cell_formula_units_Z   1
loop_
 _symmetry_equiv_pos_site_id
 _symmetry_equiv_pos_as_xyz
  1  'x, y, z'
loop_
 _atom_site_type_symbol
 _atom_site_label
 _atom_site_symmetry_multiplicity
 _atom_site_fract_x
 _atom_site_fract_y
 _atom_site_fract_z
 _atom_site_occupancy
  Ba  Ba0  1  0.66667400  0.33333700  0.21547800  1
  Ba  Ba1  1  0.33332600  0.66666300  0.78452200  1
  Sr  Sr2  1  0.00000000  0.00000000  0.50000000  1
  N  N3  1  0.66666500  0.33333300  0.66074400  1
  N  N4  1  0.33333500  0.66666700  0.33925600  1
