# generated using pymatgen
data_Sr5(RhN3)2
_symmetry_space_group_name_H-M   'P 1'
_cell_length_a   6.31205873
_cell_length_b   6.92634679
_cell_length_c   13.24929266
_cell_angle_alpha   89.99999892
_cell_angle_beta   100.70254785
_cell_angle_gamma   123.27511950
_symmetry_Int_Tables_number   1
_chemical_formula_structural   Sr5(RhN3)2
_chemical_formula_sum   'Sr10 Rh4 N12'
_cell_volume   472.18289266
_cell_formula_units_Z   2
loop_
 _symmetry_equiv_pos_site_id
 _symmetry_equiv_pos_as_xyz
  1  'x, y, z'
loop_
 _atom_site_type_symbol
 _atom_site_label
 _atom_site_symmetry_multiplicity
 _atom_site_fract_x
 _atom_site_fract_y
 _atom_site_fract_z
 _atom_site_occupancy
  Sr  Sr0  1  0.11520500  0.79688600  0.99865100  1
  Sr  Sr1  1  0.88479500  0.68168100  0.50134900  1
  Sr  Sr2  1  0.88479500  0.20311400  0.00134900  1
  Sr  Sr3  1  0.11520500  0.31831900  0.49865100  1
  Sr  Sr4  1  0.32005500  0.05000400  0.72261300  1
  Sr  Sr5  1  0.67994500  0.72994900  0.77738700  1
  Sr  Sr6  1  0.67994500  0.94999600  0.27738700  1
  Sr  Sr7  1  0.32005500  0.27005100  0.22261300  1
  Sr  Sr8  1  0.00000000  0.36924200  0.75000000  1
  Sr  Sr9  1  0.00000000  0.63075800  0.25000000  1
  Rh  Rh10  1  0.53715700  0.85598300  0.55780100  1
  Rh  Rh11  1  0.46284300  0.31882700  0.94219900  1
  Rh  Rh12  1  0.46284300  0.14401700  0.44219900  1
  Rh  Rh13  1  0.53715700  0.68117300  0.05780100  1
  N  N14  1  0.89715500  0.99052600  0.62686000  1
  N  N15  1  0.10284500  0.09337000  0.87314000  1
  N  N16  1  0.10284500  0.00947400  0.37314000  1
  N  N17  1  0.89715500  0.90663000  0.12686000  1
  N  N18  1  0.28601800  0.67983000  0.64426200  1
  N  N19  1  0.71398200  0.39381200  0.85573800  1
  N  N20  1  0.71398200  0.32017000  0.35573800  1
  N  N21  1  0.28601800  0.60618800  0.14426200  1
  N  N22  1  0.58396400  0.25159900  0.58085400  1
  N  N23  1  0.41603600  0.66763500  0.91914600  1
  N  N24  1  0.41603600  0.74840100  0.41914600  1
  N  N25  1  0.58396400  0.33236500  0.08085400  1
