# generated using pymatgen
data_CaGe7N10
_symmetry_space_group_name_H-M   'P 1'
_cell_length_a   7.18740330
_cell_length_b   7.22497000
_cell_length_c   10.25662546
_cell_angle_alpha   90.00000000
_cell_angle_beta   104.94538416
_cell_angle_gamma   90.00000000
_symmetry_Int_Tables_number   1
_chemical_formula_structural   CaGe7N10
_chemical_formula_sum   'Ca2 Ge14 N20'
_cell_volume   514.59676591
_cell_formula_units_Z   2
loop_
 _symmetry_equiv_pos_site_id
 _symmetry_equiv_pos_as_xyz
  1  'x, y, z'
loop_
 _atom_site_type_symbol
 _atom_site_label
 _atom_site_symmetry_multiplicity
 _atom_site_fract_x
 _atom_site_fract_y
 _atom_site_fract_z
 _atom_site_occupancy
  Ca  Ca0  1  0.90354800  0.98088400  0.63584400  1
  Ca  Ca1  1  0.90354800  0.01911600  0.13584400  1
  Ge  Ge2  1  0.54662000  0.97287200  0.82688500  1
  Ge  Ge3  1  0.54662000  0.02712800  0.32688500  1
  Ge  Ge4  1  0.34941900  0.02454200  0.02092700  1
  Ge  Ge5  1  0.34941900  0.97545800  0.52092700  1
  Ge  Ge6  1  0.11389500  0.39335700  0.07484900  1
  Ge  Ge7  1  0.11389500  0.60664300  0.57484900  1
  Ge  Ge8  1  0.66420000  0.36524800  0.99298700  1
  Ge  Ge9  1  0.66420000  0.63475200  0.49298700  1
  Ge  Ge10  1  0.85070400  0.62533800  0.81274000  1
  Ge  Ge11  1  0.85070400  0.37466200  0.31274000  1
  Ge  Ge12  1  0.29890500  0.62392400  0.88396200  1
  Ge  Ge13  1  0.29890500  0.37607600  0.38396200  1
  Ge  Ge14  1  0.48705100  0.36977500  0.68887700  1
  Ge  Ge15  1  0.48705100  0.63022500  0.18887700  1
  N  N16  1  0.77046000  0.86156300  0.82549200  1
  N  N17  1  0.77046000  0.13843700  0.32549200  1
  N  N18  1  0.57737400  0.12460400  0.98234100  1
  N  N19  1  0.57737400  0.87539600  0.48234100  1
  N  N20  1  0.32018100  0.87503000  0.86554700  1
  N  N21  1  0.32018100  0.12497000  0.36554700  1
  N  N22  1  0.14168800  0.15136000  0.03514000  1
  N  N23  1  0.14168800  0.84864000  0.53514000  1
  N  N24  1  0.28716500  0.50351200  0.72489500  1
  N  N25  1  0.28716500  0.49648800  0.22489500  1
  N  N26  1  0.45830900  0.11854100  0.67421500  1
  N  N27  1  0.45830900  0.88145900  0.17421500  1
  N  N28  1  0.88651400  0.37083500  0.13324600  1
  N  N29  1  0.88651400  0.62916500  0.63324600  1
  N  N30  1  0.08016600  0.58051900  0.94265500  1
  N  N31  1  0.08016600  0.41948100  0.44265500  1
  N  N32  1  0.70751300  0.41457400  0.82529200  1
  N  N33  1  0.70751300  0.58542600  0.32529200  1
  N  N34  1  0.49858700  0.54026000  0.02340600  1
  N  N35  1  0.49858700  0.45974000  0.52340600  1
