# generated using pymatgen
data_Sr3(VN2)2
_symmetry_space_group_name_H-M   'P 1'
_cell_length_a   5.91650953
_cell_length_b   10.16364247
_cell_length_c   9.74581873
_cell_angle_alpha   90.00000000
_cell_angle_beta   90.00000000
_cell_angle_gamma   90.00000000
_symmetry_Int_Tables_number   1
_chemical_formula_structural   Sr3(VN2)2
_chemical_formula_sum   'Sr12 V8 N16'
_cell_volume   586.04811994
_cell_formula_units_Z   4
loop_
 _symmetry_equiv_pos_site_id
 _symmetry_equiv_pos_as_xyz
  1  'x, y, z'
loop_
 _atom_site_type_symbol
 _atom_site_label
 _atom_site_symmetry_multiplicity
 _atom_site_fract_x
 _atom_site_fract_y
 _atom_site_fract_z
 _atom_site_occupancy
  Sr  Sr0  1  0.61640081  0.15709801  0.41805816  1
  Sr  Sr1  1  0.88359919  0.84290199  0.41805816  1
  Sr  Sr2  1  0.61640081  0.34290199  0.08194184  1
  Sr  Sr3  1  0.88359919  0.65709801  0.08194184  1
  Sr  Sr4  1  0.38359919  0.84290199  0.58194184  1
  Sr  Sr5  1  0.11640081  0.15709801  0.58194184  1
  Sr  Sr6  1  0.38359919  0.65709801  0.91805816  1
  Sr  Sr7  1  0.11640081  0.34290199  0.91805816  1
  Sr  Sr8  1  0.75000000  0.50000000  0.40347231  1
  Sr  Sr9  1  0.75000000  0.00000000  0.09652769  1
  Sr  Sr10  1  0.25000000  0.50000000  0.59652769  1
  Sr  Sr11  1  0.25000000  0.00000000  0.90347231  1
  V  V12  1  0.75000000  0.50000000  0.73664173  1
  V  V13  1  0.75000000  0.00000000  0.76335827  1
  V  V14  1  0.25000000  0.50000000  0.26335827  1
  V  V15  1  0.25000000  0.00000000  0.23664173  1
  V  V16  1  0.64961660  0.25000000  0.75000000  1
  V  V17  1  0.85038340  0.75000000  0.75000000  1
  V  V18  1  0.35038340  0.75000000  0.25000000  1
  V  V19  1  0.14961660  0.25000000  0.25000000  1
  N  N20  1  0.84830337  0.35313667  0.63205509  1
  N  N21  1  0.65169663  0.64686333  0.63205509  1
  N  N22  1  0.84830337  0.14686333  0.86794491  1
  N  N23  1  0.65169663  0.85313667  0.86794491  1
  N  N24  1  0.15169663  0.64686333  0.36794491  1
  N  N25  1  0.34830337  0.35313667  0.36794491  1
  N  N26  1  0.15169663  0.85313667  0.13205509  1
  N  N27  1  0.34830337  0.14686333  0.13205509  1
  N  N28  1  0.51631115  0.41422385  0.83394256  1
  N  N29  1  0.98368885  0.58577615  0.83394256  1
  N  N30  1  0.51631115  0.08577615  0.66605744  1
  N  N31  1  0.98368885  0.91422385  0.66605744  1
  N  N32  1  0.48368885  0.58577615  0.16605744  1
  N  N33  1  0.01631115  0.41422385  0.16605744  1
  N  N34  1  0.48368885  0.91422385  0.33394256  1
  N  N35  1  0.01631115  0.08577615  0.33394256  1
