# generated using pymatgen
data_Ba3(FeN2)2
_symmetry_space_group_name_H-M   'P 1'
_cell_length_a   7.59512764
_cell_length_b   8.94500389
_cell_length_c   5.63869216
_cell_angle_alpha   90.00000357
_cell_angle_beta   93.12187340
_cell_angle_gamma   126.07647655
_symmetry_Int_Tables_number   1
_chemical_formula_structural   Ba3(FeN2)2
_chemical_formula_sum   'Ba6 Fe4 N8'
_cell_volume   308.91694226
_cell_formula_units_Z   2
loop_
 _symmetry_equiv_pos_site_id
 _symmetry_equiv_pos_as_xyz
  1  'x, y, z'
loop_
 _atom_site_type_symbol
 _atom_site_label
 _atom_site_symmetry_multiplicity
 _atom_site_fract_x
 _atom_site_fract_y
 _atom_site_fract_z
 _atom_site_occupancy
  Ba  Ba0  1  0.25965400  0.99563400  0.05980600  1
  Ba  Ba1  1  0.74034600  0.73598000  0.44019400  1
  Ba  Ba2  1  0.74034600  0.00436600  0.94019400  1
  Ba  Ba3  1  0.25965400  0.26402000  0.55980600  1
  Ba  Ba4  1  0.00000000  0.59378700  0.75000000  1
  Ba  Ba5  1  0.00000000  0.40621300  0.25000000  1
  Fe  Fe6  1  0.57044500  0.16034900  0.55975200  1
  Fe  Fe7  1  0.42955500  0.58990500  0.94024800  1
  Fe  Fe8  1  0.42955500  0.83965100  0.44024800  1
  Fe  Fe9  1  0.57044500  0.41009500  0.05975200  1
  N  N10  1  0.28299300  0.94028600  0.54107200  1
  N  N11  1  0.71700700  0.65729400  0.95892800  1
  N  N12  1  0.71700700  0.05971400  0.45892800  1
  N  N13  1  0.28299300  0.34270600  0.04107200  1
  N  N14  1  0.62175900  0.26743300  0.86661900  1
  N  N15  1  0.37824100  0.64567500  0.63338100  1
  N  N16  1  0.37824100  0.73256700  0.13338100  1
  N  N17  1  0.62175900  0.35432500  0.36661900  1
