# generated using pymatgen
data_MgCrWS4
_symmetry_space_group_name_H-M   'P 1'
_cell_length_a   6.88412181
_cell_length_b   7.31454788
_cell_length_c   7.31325123
_cell_angle_alpha   60.82789622
_cell_angle_beta   61.20867994
_cell_angle_gamma   61.20292918
_symmetry_Int_Tables_number   1
_chemical_formula_structural   MgCrWS4
_chemical_formula_sum   'Mg2 Cr2 W2 S8'
_cell_volume   266.71703988
_cell_formula_units_Z   2
loop_
 _symmetry_equiv_pos_site_id
 _symmetry_equiv_pos_as_xyz
  1  'x, y, z'
loop_
 _atom_site_type_symbol
 _atom_site_label
 _atom_site_symmetry_multiplicity
 _atom_site_fract_x
 _atom_site_fract_y
 _atom_site_fract_z
 _atom_site_occupancy
  Mg  Mg0  1  0.85042000  0.89136500  0.89172700  1
  Mg  Mg1  1  0.11306300  0.13585600  0.13669600  1
  Cr  Cr2  1  0.50085000  0.50444100  0.98829900  1
  Cr  Cr3  1  0.49912100  0.98964900  0.50460700  1
  W  W4  1  0.45141700  0.50267800  0.50311400  1
  W  W5  1  0.05361800  0.49734500  0.49795600  1
  S  S6  1  0.75324200  0.73168400  0.73076800  1
  S  S7  1  0.27631400  0.21856700  0.73955000  1
  S  S8  1  0.27576000  0.73918200  0.21902100  1
  S  S9  1  0.70044300  0.26715500  0.26727200  1
  S  S10  1  0.73977600  0.29680600  0.72780900  1
  S  S11  1  0.27686800  0.73440900  0.73421900  1
  S  S12  1  0.26969900  0.26329700  0.26183200  1
  S  S13  1  0.73941200  0.72756100  0.29713000  1
