# generated using pymatgen
data_Sr9(CrN4)2
_symmetry_space_group_name_H-M   'P 1'
_cell_length_a   10.42847734
_cell_length_b   5.24210006
_cell_length_c   8.51004758
_cell_angle_alpha   90.00000103
_cell_angle_beta   68.61597493
_cell_angle_gamma   75.44342892
_symmetry_Int_Tables_number   1
_chemical_formula_structural   Sr9(CrN4)2
_chemical_formula_sum   'Sr9 Cr2 N8'
_cell_volume   417.11428188
_cell_formula_units_Z   1
loop_
 _symmetry_equiv_pos_site_id
 _symmetry_equiv_pos_as_xyz
  1  'x, y, z'
loop_
 _atom_site_type_symbol
 _atom_site_label
 _atom_site_symmetry_multiplicity
 _atom_site_fract_x
 _atom_site_fract_y
 _atom_site_fract_z
 _atom_site_occupancy
  Sr  Sr0  1  0.00000000  0.50000000  0.50000000  1
  Sr  Sr1  1  0.08007000  0.95996500  0.75901600  1
  Sr  Sr2  1  0.91993000  0.04003500  0.24098400  1
  Sr  Sr3  1  0.65113800  0.67443100  0.44818800  1
  Sr  Sr4  1  0.34886200  0.32556900  0.55181200  1
  Sr  Sr5  1  0.82663000  0.58668500  0.99070400  1
  Sr  Sr6  1  0.17337000  0.41331500  0.00929600  1
  Sr  Sr7  1  0.60774200  0.19612900  0.82734700  1
  Sr  Sr8  1  0.39225800  0.80387100  0.17265300  1
  Cr  Cr9  1  0.38392200  0.80803900  0.80348500  1
  Cr  Cr10  1  0.61607800  0.19196100  0.19651500  1
  N  N11  1  0.22857600  0.88571200  0.98500100  1
  N  N12  1  0.77142400  0.11428800  0.01499900  1
  N  N13  1  0.36808500  0.81595800  0.60961200  1
  N  N14  1  0.63191500  0.18404200  0.39038800  1
  N  N15  1  0.55068600  0.72465700  0.81853400  1
  N  N16  1  0.44931400  0.27534300  0.18146600  1
  N  N17  1  0.07283500  0.46358200  0.75611200  1
  N  N18  1  0.92716500  0.53641800  0.24388800  1
