# generated using pymatgen
data_Sr3Sb3N5
_symmetry_space_group_name_H-M   'P 1'
_cell_length_a   6.09609391
_cell_length_b   7.42988742
_cell_length_c   10.84364149
_cell_angle_alpha   100.92617221
_cell_angle_beta   96.56407502
_cell_angle_gamma   95.33915405
_symmetry_Int_Tables_number   1
_chemical_formula_structural   Sr3Sb3N5
_chemical_formula_sum   'Sr6 Sb6 N10'
_cell_volume   475.75486264
_cell_formula_units_Z   2
loop_
 _symmetry_equiv_pos_site_id
 _symmetry_equiv_pos_as_xyz
  1  'x, y, z'
loop_
 _atom_site_type_symbol
 _atom_site_label
 _atom_site_symmetry_multiplicity
 _atom_site_fract_x
 _atom_site_fract_y
 _atom_site_fract_z
 _atom_site_occupancy
  Sr  Sr0  1  0.72523900  0.37205400  0.52872300  1
  Sr  Sr1  1  0.27476100  0.62794600  0.47127700  1
  Sr  Sr2  1  0.71082300  0.86683200  0.92382600  1
  Sr  Sr3  1  0.28917700  0.13316800  0.07617400  1
  Sr  Sr4  1  0.74154300  0.80454900  0.26780500  1
  Sr  Sr5  1  0.25845700  0.19545100  0.73219500  1
  Sb  Sb6  1  0.79845600  0.37212200  0.93163900  1
  Sb  Sb7  1  0.20154400  0.62787800  0.06836100  1
  Sb  Sb8  1  0.71823200  0.92045400  0.61151100  1
  Sb  Sb9  1  0.28176800  0.07954600  0.38848900  1
  Sb  Sb10  1  0.17486300  0.73071200  0.76493900  1
  Sb  Sb11  1  0.82513700  0.26928800  0.23506100  1
  N  N12  1  0.96590900  0.93208400  0.76266700  1
  N  N13  1  0.03409100  0.06791600  0.23733300  1
  N  N14  1  0.70424400  0.68503800  0.47765800  1
  N  N15  1  0.29575600  0.31496200  0.52234200  1
  N  N16  1  0.85583600  0.63108700  0.05168400  1
  N  N17  1  0.14416400  0.36891300  0.94831600  1
  N  N18  1  0.43166200  0.87810800  0.69975100  1
  N  N19  1  0.56833800  0.12189200  0.30024900  1
  N  N20  1  0.29853900  0.80486200  0.95490700  1
  N  N21  1  0.70146100  0.19513800  0.04509300  1
