# generated using pymatgen
data_SrSnN2
_symmetry_space_group_name_H-M   'P 1'
_cell_length_a   6.76030046
_cell_length_b   7.55686000
_cell_length_c   6.20838777
_cell_angle_alpha   90.00000000
_cell_angle_beta   106.08746942
_cell_angle_gamma   90.00000000
_symmetry_Int_Tables_number   1
_chemical_formula_structural   SrSnN2
_chemical_formula_sum   'Sr4 Sn4 N8'
_cell_volume   304.74541813
_cell_formula_units_Z   4
loop_
 _symmetry_equiv_pos_site_id
 _symmetry_equiv_pos_as_xyz
  1  'x, y, z'
loop_
 _atom_site_type_symbol
 _atom_site_label
 _atom_site_symmetry_multiplicity
 _atom_site_fract_x
 _atom_site_fract_y
 _atom_site_fract_z
 _atom_site_occupancy
  Sr  Sr0  1  0.35401000  0.89163600  0.68598800  1
  Sr  Sr1  1  0.64599000  0.39163600  0.81401200  1
  Sr  Sr2  1  0.64599000  0.10836400  0.31401200  1
  Sr  Sr3  1  0.35401000  0.60836400  0.18598800  1
  Sn  Sn4  1  0.13737400  0.35271900  0.60507500  1
  Sn  Sn5  1  0.86262600  0.85271900  0.89492500  1
  Sn  Sn6  1  0.86262600  0.64728100  0.39492500  1
  Sn  Sn7  1  0.13737400  0.14728100  0.10507500  1
  N  N8  1  0.18465900  0.88460100  0.00428800  1
  N  N9  1  0.81534100  0.38460100  0.49571200  1
  N  N10  1  0.81534100  0.11539900  0.99571200  1
  N  N11  1  0.18465900  0.61539900  0.50428800  1
  N  N12  1  0.29486700  0.32105300  0.94570300  1
  N  N13  1  0.70513300  0.82105300  0.55429700  1
  N  N14  1  0.70513300  0.67894700  0.05429700  1
  N  N15  1  0.29486700  0.17894700  0.44570300  1
