# generated using pymatgen
data_Nb2CrN3
_symmetry_space_group_name_H-M   'P 1'
_cell_length_a   6.25220290
_cell_length_b   2.88840718
_cell_length_c   11.58732447
_cell_angle_alpha   90.00001057
_cell_angle_beta   22.08008179
_cell_angle_gamma   76.64457511
_symmetry_Int_Tables_number   1
_chemical_formula_structural   Nb2CrN3
_chemical_formula_sum   'Nb2 Cr1 N3'
_cell_volume   62.05566360
_cell_formula_units_Z   1
loop_
 _symmetry_equiv_pos_site_id
 _symmetry_equiv_pos_as_xyz
  1  'x, y, z'
loop_
 _atom_site_type_symbol
 _atom_site_label
 _atom_site_symmetry_multiplicity
 _atom_site_fract_x
 _atom_site_fract_y
 _atom_site_fract_z
 _atom_site_occupancy
  Nb  Nb0  1  0.00000000  0.00000000  0.64950300  1
  Nb  Nb1  1  0.00000000  0.00000000  0.35049700  1
  Cr  Cr2  1  0.00000000  0.00000000  0.00000000  1
  N  N3  1  0.00000000  0.50000000  0.50000000  1
  N  N4  1  0.00000000  0.00000000  0.83043100  1
  N  N5  1  0.00000000  0.00000000  0.16956900  1
