# generated using pymatgen
data_PbCI3N
_symmetry_space_group_name_H-M   'P 1'
_cell_length_a   6.31154200
_cell_length_b   6.31154200
_cell_length_c   6.28269800
_cell_angle_alpha   90.00000000
_cell_angle_beta   90.00000000
_cell_angle_gamma   90.00000000
_symmetry_Int_Tables_number   1
_chemical_formula_structural   PbCI3N
_chemical_formula_sum   'Pb1 C1 I3 N1'
_cell_volume   250.27480833
_cell_formula_units_Z   1
loop_
 _symmetry_equiv_pos_site_id
 _symmetry_equiv_pos_as_xyz
  1  'x, y, z'
loop_
 _atom_site_type_symbol
 _atom_site_label
 _atom_site_symmetry_multiplicity
 _atom_site_fract_x
 _atom_site_fract_y
 _atom_site_fract_z
 _atom_site_occupancy
  Pb  Pb0  1  0.50000000  0.50000000  0.50588100  1
  C  C1  1  0.00000000  0.00000000  0.91360500  1
  I  I2  1  0.50000000  0.00000000  0.51390200  1
  I  I3  1  0.00000000  0.50000000  0.51390200  1
  I  I4  1  0.50000000  0.50000000  0.00055900  1
  N  N5  1  0.00000000  0.00000000  0.10108100  1
