# generated using pymatgen
data_Na6RuN4
_symmetry_space_group_name_H-M   'P 1'
_cell_length_a   7.54157800
_cell_length_b   7.54157800
_cell_length_c   5.89386700
_cell_angle_alpha   90.00000000
_cell_angle_beta   90.00000000
_cell_angle_gamma   90.00000000
_symmetry_Int_Tables_number   1
_chemical_formula_structural   Na6RuN4
_chemical_formula_sum   'Na12 Ru2 N8'
_cell_volume   335.21603569
_cell_formula_units_Z   2
loop_
 _symmetry_equiv_pos_site_id
 _symmetry_equiv_pos_as_xyz
  1  'x, y, z'
loop_
 _atom_site_type_symbol
 _atom_site_label
 _atom_site_symmetry_multiplicity
 _atom_site_fract_x
 _atom_site_fract_y
 _atom_site_fract_z
 _atom_site_occupancy
  Na  Na0  1  0.00000000  0.50000000  0.66794800  1
  Na  Na1  1  0.50000000  0.00000000  0.83205200  1
  Na  Na2  1  0.50000000  0.00000000  0.33205200  1
  Na  Na3  1  0.00000000  0.50000000  0.16794800  1
  Na  Na4  1  0.20726100  0.20726100  0.50000000  1
  Na  Na5  1  0.79273900  0.79273900  0.50000000  1
  Na  Na6  1  0.70726100  0.70726100  0.00000000  1
  Na  Na7  1  0.29273900  0.29273900  0.00000000  1
  Na  Na8  1  0.79273900  0.20726100  0.50000000  1
  Na  Na9  1  0.20726100  0.79273900  0.50000000  1
  Na  Na10  1  0.29273900  0.70726100  0.00000000  1
  Na  Na11  1  0.70726100  0.29273900  0.00000000  1
  Ru  Ru12  1  0.50000000  0.50000000  0.50000000  1
  Ru  Ru13  1  0.00000000  0.00000000  0.00000000  1
  N  N14  1  0.28677500  0.50000000  0.33061400  1
  N  N15  1  0.71322500  0.50000000  0.33061400  1
  N  N16  1  0.78677500  0.00000000  0.16938600  1
  N  N17  1  0.21322500  0.00000000  0.16938600  1
  N  N18  1  0.50000000  0.28677500  0.66938600  1
  N  N19  1  0.50000000  0.71322500  0.66938600  1
  N  N20  1  0.00000000  0.78677500  0.83061400  1
  N  N21  1  0.00000000  0.21322500  0.83061400  1
