# generated using pymatgen
data_InCN2
_symmetry_space_group_name_H-M   'P 1'
_cell_length_a   3.77819600
_cell_length_b   3.77826639
_cell_length_c   9.84206200
_cell_angle_alpha   90.00000000
_cell_angle_beta   90.00000000
_cell_angle_gamma   119.99938369
_symmetry_Int_Tables_number   1
_chemical_formula_structural   InCN2
_chemical_formula_sum   'In2 C2 N4'
_cell_volume   121.67363552
_cell_formula_units_Z   2
loop_
 _symmetry_equiv_pos_site_id
 _symmetry_equiv_pos_as_xyz
  1  'x, y, z'
loop_
 _atom_site_type_symbol
 _atom_site_label
 _atom_site_symmetry_multiplicity
 _atom_site_fract_x
 _atom_site_fract_y
 _atom_site_fract_z
 _atom_site_occupancy
  In  In0  1  0.00000000  0.00000000  0.00000000  1
  In  In1  1  0.00000000  0.00000000  0.50000000  1
  C  C2  1  0.66668400  0.33336800  0.25000000  1
  C  C3  1  0.33331600  0.66663200  0.75000000  1
  N  N4  1  0.66668800  0.33337600  0.12369600  1
  N  N5  1  0.33331200  0.66662400  0.87630400  1
  N  N6  1  0.33331200  0.66662400  0.62369600  1
  N  N7  1  0.66668800  0.33337600  0.37630400  1
