# generated using pymatgen
data_Na2IrN2
_symmetry_space_group_name_H-M   'P 1'
_cell_length_a   3.22764800
_cell_length_b   3.22763940
_cell_length_c   8.50499100
_cell_angle_alpha   89.99907232
_cell_angle_beta   90.00166112
_cell_angle_gamma   119.99677691
_symmetry_Int_Tables_number   1
_chemical_formula_structural   Na2IrN2
_chemical_formula_sum   'Na2 Ir1 N2'
_cell_volume   76.73434114
_cell_formula_units_Z   1
loop_
 _symmetry_equiv_pos_site_id
 _symmetry_equiv_pos_as_xyz
  1  'x, y, z'
loop_
 _atom_site_type_symbol
 _atom_site_label
 _atom_site_symmetry_multiplicity
 _atom_site_fract_x
 _atom_site_fract_y
 _atom_site_fract_z
 _atom_site_occupancy
  Na  Na0  1  0.66667600  0.33334200  0.29218800  1
  Na  Na1  1  0.33332400  0.66665800  0.70781200  1
  Ir  Ir2  1  0.00000000  0.00000000  0.00000000  1
  N  N3  1  0.66667000  0.33332400  0.88704100  1
  N  N4  1  0.33333000  0.66667600  0.11295900  1
