# generated using pymatgen
data_Ba3(MoN2)2
_symmetry_space_group_name_H-M   'P 1'
_cell_length_a   6.27672942
_cell_length_b   10.85026901
_cell_length_c   10.36081736
_cell_angle_alpha   90.00000000
_cell_angle_beta   90.00000000
_cell_angle_gamma   90.00000000
_symmetry_Int_Tables_number   1
_chemical_formula_structural   Ba3(MoN2)2
_chemical_formula_sum   'Ba12 Mo8 N16'
_cell_volume   705.61520573
_cell_formula_units_Z   4
loop_
 _symmetry_equiv_pos_site_id
 _symmetry_equiv_pos_as_xyz
  1  'x, y, z'
loop_
 _atom_site_type_symbol
 _atom_site_label
 _atom_site_symmetry_multiplicity
 _atom_site_fract_x
 _atom_site_fract_y
 _atom_site_fract_z
 _atom_site_occupancy
  Ba  Ba0  1  0.62498547  0.15859893  0.41927836  1
  Ba  Ba1  1  0.87501453  0.84140107  0.41927836  1
  Ba  Ba2  1  0.62498547  0.34140107  0.08072164  1
  Ba  Ba3  1  0.87501453  0.65859893  0.08072164  1
  Ba  Ba4  1  0.37501453  0.84140107  0.58072164  1
  Ba  Ba5  1  0.12498547  0.15859893  0.58072164  1
  Ba  Ba6  1  0.37501453  0.65859893  0.91927836  1
  Ba  Ba7  1  0.12498547  0.34140107  0.91927836  1
  Ba  Ba8  1  0.75000000  0.50000000  0.40198875  1
  Ba  Ba9  1  0.75000000  0.00000000  0.09801125  1
  Ba  Ba10  1  0.25000000  0.50000000  0.59801125  1
  Ba  Ba11  1  0.25000000  0.00000000  0.90198875  1
  Mo  Mo12  1  0.75000000  0.50000000  0.73661965  1
  Mo  Mo13  1  0.75000000  0.00000000  0.76338035  1
  Mo  Mo14  1  0.25000000  0.50000000  0.26338035  1
  Mo  Mo15  1  0.25000000  0.00000000  0.23661965  1
  Mo  Mo16  1  0.65087673  0.25000000  0.75000000  1
  Mo  Mo17  1  0.84912327  0.75000000  0.75000000  1
  Mo  Mo18  1  0.34912327  0.75000000  0.25000000  1
  Mo  Mo19  1  0.15087673  0.25000000  0.25000000  1
  N  N20  1  0.84430415  0.35125324  0.63612773  1
  N  N21  1  0.65569585  0.64874676  0.63612773  1
  N  N22  1  0.84430415  0.14874676  0.86387227  1
  N  N23  1  0.65569585  0.85125324  0.86387227  1
  N  N24  1  0.15569585  0.64874676  0.36387227  1
  N  N25  1  0.34430415  0.35125324  0.36387227  1
  N  N26  1  0.15569585  0.85125324  0.13612773  1
  N  N27  1  0.34430415  0.14874676  0.13612773  1
  N  N28  1  0.52686761  0.41159037  0.83220012  1
  N  N29  1  0.97313239  0.58840963  0.83220012  1
  N  N30  1  0.52686761  0.08840963  0.66779988  1
  N  N31  1  0.97313239  0.91159037  0.66779988  1
  N  N32  1  0.47313239  0.58840963  0.16779988  1
  N  N33  1  0.02686761  0.41159037  0.16779988  1
  N  N34  1  0.47313239  0.91159037  0.33220012  1
  N  N35  1  0.02686761  0.08840963  0.33220012  1
