# generated using pymatgen
data_SrMg5N4
_symmetry_space_group_name_H-M   'P 1'
_cell_length_a   8.38174900
_cell_length_b   6.77205700
_cell_length_c   5.29171400
_cell_angle_alpha   90.00000000
_cell_angle_beta   90.00000000
_cell_angle_gamma   90.00000000
_symmetry_Int_Tables_number   1
_chemical_formula_structural   SrMg5N4
_chemical_formula_sum   'Sr2 Mg10 N8'
_cell_volume   300.36658724
_cell_formula_units_Z   2
loop_
 _symmetry_equiv_pos_site_id
 _symmetry_equiv_pos_as_xyz
  1  'x, y, z'
loop_
 _atom_site_type_symbol
 _atom_site_label
 _atom_site_symmetry_multiplicity
 _atom_site_fract_x
 _atom_site_fract_y
 _atom_site_fract_z
 _atom_site_occupancy
  Sr  Sr0  1  0.75000000  0.25000000  0.71776300  1
  Sr  Sr1  1  0.25000000  0.75000000  0.28223700  1
  Mg  Mg2  1  0.57216100  0.50370200  0.26714800  1
  Mg  Mg3  1  0.92783900  0.50370200  0.26714800  1
  Mg  Mg4  1  0.57216100  0.99629800  0.26714800  1
  Mg  Mg5  1  0.92783900  0.99629800  0.26714800  1
  Mg  Mg6  1  0.42783900  0.49629800  0.73285200  1
  Mg  Mg7  1  0.07216100  0.49629800  0.73285200  1
  Mg  Mg8  1  0.42783900  0.00370200  0.73285200  1
  Mg  Mg9  1  0.07216100  0.00370200  0.73285200  1
  Mg  Mg10  1  0.75000000  0.75000000  0.76903300  1
  Mg  Mg11  1  0.25000000  0.25000000  0.23096700  1
  N  N12  1  0.75000000  0.98960500  0.01017000  1
  N  N13  1  0.75000000  0.51039500  0.01017000  1
  N  N14  1  0.25000000  0.01039500  0.98983000  1
  N  N15  1  0.25000000  0.48960500  0.98983000  1
  N  N16  1  0.52215100  0.75000000  0.52353900  1
  N  N17  1  0.97784900  0.75000000  0.52353900  1
  N  N18  1  0.47784900  0.25000000  0.47646100  1
  N  N19  1  0.02215100  0.25000000  0.47646100  1
