# generated using pymatgen
data_SrOs7N10
_symmetry_space_group_name_H-M   'P 1'
_cell_length_a   7.00838358
_cell_length_b   7.36001200
_cell_length_c   10.53829516
_cell_angle_alpha   90.00000000
_cell_angle_beta   108.27554770
_cell_angle_gamma   90.00000000
_symmetry_Int_Tables_number   1
_chemical_formula_structural   SrOs7N10
_chemical_formula_sum   'Sr2 Os14 N20'
_cell_volume   516.16538793
_cell_formula_units_Z   2
loop_
 _symmetry_equiv_pos_site_id
 _symmetry_equiv_pos_as_xyz
  1  'x, y, z'
loop_
 _atom_site_type_symbol
 _atom_site_label
 _atom_site_symmetry_multiplicity
 _atom_site_fract_x
 _atom_site_fract_y
 _atom_site_fract_z
 _atom_site_occupancy
  Sr  Sr0  1  0.87559200  0.04294300  0.66904200  1
  Sr  Sr1  1  0.87559200  0.95705700  0.16904200  1
  Os  Os2  1  0.52225900  0.94721500  0.82905900  1
  Os  Os3  1  0.52225900  0.05278500  0.32905900  1
  Os  Os4  1  0.33848300  0.02110300  0.02177600  1
  Os  Os5  1  0.33848300  0.97889700  0.52177600  1
  Os  Os6  1  0.18609300  0.34403800  0.08446500  1
  Os  Os7  1  0.18609300  0.65596200  0.58446500  1
  Os  Os8  1  0.65389800  0.37530700  0.00820100  1
  Os  Os9  1  0.65389800  0.62469300  0.50820100  1
  Os  Os10  1  0.86824900  0.60739400  0.79412900  1
  Os  Os11  1  0.86824900  0.39260600  0.29412900  1
  Os  Os12  1  0.27393900  0.69098000  0.87784400  1
  Os  Os13  1  0.27393900  0.30902000  0.37784400  1
  Os  Os14  1  0.49322700  0.38792800  0.67638900  1
  Os  Os15  1  0.49322700  0.61207200  0.17638900  1
  N  N16  1  0.74963200  0.81356300  0.83303700  1
  N  N17  1  0.74963200  0.18643700  0.33303700  1
  N  N18  1  0.58057300  0.12440600  0.98037100  1
  N  N19  1  0.58057300  0.87559400  0.48037100  1
  N  N20  1  0.23013000  0.95345300  0.82742500  1
  N  N21  1  0.23013000  0.04654700  0.32742500  1
  N  N22  1  0.09418000  0.09434100  0.03915700  1
  N  N23  1  0.09418000  0.90565900  0.53915700  1
  N  N24  1  0.31327200  0.51961200  0.74535000  1
  N  N25  1  0.31327200  0.48038800  0.24535000  1
  N  N26  1  0.48392700  0.12111300  0.67876000  1
  N  N27  1  0.48392700  0.87888700  0.17876000  1
  N  N28  1  0.92260400  0.38234600  0.12350300  1
  N  N29  1  0.92260400  0.61765400  0.62350300  1
  N  N30  1  0.10403400  0.50982900  0.93668600  1
  N  N31  1  0.10403400  0.49017100  0.43668600  1
  N  N32  1  0.70886700  0.41024700  0.84095500  1
  N  N33  1  0.70886700  0.58975300  0.34095500  1
  N  N34  1  0.54334300  0.61333800  0.00315000  1
  N  N35  1  0.54334300  0.38666200  0.50315000  1
