# generated using pymatgen
data_Sr3Zr2N4
_symmetry_space_group_name_H-M   'P 1'
_cell_length_a   7.34292800
_cell_length_b   10.37954100
_cell_length_c   10.23792200
_cell_angle_alpha   90.00000000
_cell_angle_beta   90.00000000
_cell_angle_gamma   90.00000000
_symmetry_Int_Tables_number   1
_chemical_formula_structural   Sr3Zr2N4
_chemical_formula_sum   'Sr12 Zr8 N16'
_cell_volume   780.29573839
_cell_formula_units_Z   4
loop_
 _symmetry_equiv_pos_site_id
 _symmetry_equiv_pos_as_xyz
  1  'x, y, z'
loop_
 _atom_site_type_symbol
 _atom_site_label
 _atom_site_symmetry_multiplicity
 _atom_site_fract_x
 _atom_site_fract_y
 _atom_site_fract_z
 _atom_site_occupancy
  Sr  Sr0  1  0.50204800  0.17367600  0.43978700  1
  Sr  Sr1  1  0.99795200  0.82632400  0.43978700  1
  Sr  Sr2  1  0.50204800  0.32632400  0.06021300  1
  Sr  Sr3  1  0.99795200  0.67367600  0.06021300  1
  Sr  Sr4  1  0.49795200  0.82632400  0.56021300  1
  Sr  Sr5  1  0.00204800  0.17367600  0.56021300  1
  Sr  Sr6  1  0.49795200  0.67367600  0.93978700  1
  Sr  Sr7  1  0.00204800  0.32632400  0.93978700  1
  Sr  Sr8  1  0.75000000  0.50000000  0.33979500  1
  Sr  Sr9  1  0.75000000  0.00000000  0.16020500  1
  Sr  Sr10  1  0.25000000  0.50000000  0.66020500  1
  Sr  Sr11  1  0.25000000  0.00000000  0.83979500  1
  Zr  Zr12  1  0.75000000  0.50000000  0.69770900  1
  Zr  Zr13  1  0.75000000  0.00000000  0.80229100  1
  Zr  Zr14  1  0.25000000  0.50000000  0.30229100  1
  Zr  Zr15  1  0.25000000  0.00000000  0.19770900  1
  Zr  Zr16  1  0.55362000  0.25000000  0.75000000  1
  Zr  Zr17  1  0.94638000  0.75000000  0.75000000  1
  Zr  Zr18  1  0.44638000  0.75000000  0.25000000  1
  Zr  Zr19  1  0.05362000  0.25000000  0.25000000  1
  N  N20  1  0.72009200  0.32225800  0.59858300  1
  N  N21  1  0.77990800  0.67774200  0.59858300  1
  N  N22  1  0.72009200  0.17774200  0.90141700  1
  N  N23  1  0.77990800  0.82225800  0.90141700  1
  N  N24  1  0.27990800  0.67774200  0.40141700  1
  N  N25  1  0.22009200  0.32225800  0.40141700  1
  N  N26  1  0.27990800  0.82225800  0.09858300  1
  N  N27  1  0.22009200  0.17774200  0.09858300  1
  N  N28  1  0.52448000  0.45450000  0.81462600  1
  N  N29  1  0.97552000  0.54550000  0.81462600  1
  N  N30  1  0.52448000  0.04550000  0.68537400  1
  N  N31  1  0.97552000  0.95450000  0.68537400  1
  N  N32  1  0.47552000  0.54550000  0.18537400  1
  N  N33  1  0.02448000  0.45450000  0.18537400  1
  N  N34  1  0.47552000  0.95450000  0.31462600  1
  N  N35  1  0.02448000  0.04550000  0.31462600  1
