# generated using pymatgen
data_Ba3Mn3N5
_symmetry_space_group_name_H-M   'P 1'
_cell_length_a   5.93427313
_cell_length_b   7.47458291
_cell_length_c   8.99719976
_cell_angle_alpha   108.21625380
_cell_angle_beta   104.01471162
_cell_angle_gamma   95.48133402
_symmetry_Int_Tables_number   1
_chemical_formula_structural   Ba3Mn3N5
_chemical_formula_sum   'Ba6 Mn6 N10'
_cell_volume   361.39373037
_cell_formula_units_Z   2
loop_
 _symmetry_equiv_pos_site_id
 _symmetry_equiv_pos_as_xyz
  1  'x, y, z'
loop_
 _atom_site_type_symbol
 _atom_site_label
 _atom_site_symmetry_multiplicity
 _atom_site_fract_x
 _atom_site_fract_y
 _atom_site_fract_z
 _atom_site_occupancy
  Ba  Ba0  1  0.80846700  0.42124900  0.61028500  1
  Ba  Ba1  1  0.19153300  0.57875100  0.38971500  1
  Ba  Ba2  1  0.65295400  0.86366700  0.87826700  1
  Ba  Ba3  1  0.34704600  0.13633300  0.12173300  1
  Ba  Ba4  1  0.65514500  0.68068000  0.21535000  1
  Ba  Ba5  1  0.34485500  0.31932000  0.78465000  1
  Mn  Mn6  1  0.91493600  0.32376100  0.97327400  1
  Mn  Mn7  1  0.08506400  0.67623900  0.02672600  1
  Mn  Mn8  1  0.67944000  0.97138600  0.57858400  1
  Mn  Mn9  1  0.32056000  0.02861400  0.42141600  1
  Mn  Mn10  1  0.07350400  0.89046900  0.71052600  1
  Mn  Mn11  1  0.92649600  0.10953100  0.28947400  1
  N  N12  1  0.91073100  0.12442300  0.78028000  1
  N  N13  1  0.08926900  0.87557700  0.21972000  1
  N  N14  1  0.78619600  0.74595100  0.54091100  1
  N  N15  1  0.21380400  0.25404900  0.45908900  1
  N  N16  1  0.78082400  0.52715600  0.93063600  1
  N  N17  1  0.21917600  0.47284400  0.06936400  1
  N  N18  1  0.36703100  0.95255100  0.60506000  1
  N  N19  1  0.63296900  0.04744900  0.39494000  1
  N  N20  1  0.14673300  0.77572800  0.87672500  1
  N  N21  1  0.85326700  0.22427200  0.12327500  1
