# generated using pymatgen
data_Mg4ZrN4
_symmetry_space_group_name_H-M   'P 1'
_cell_length_a   5.64615600
_cell_length_b   5.69066462
_cell_length_c   8.46825187
_cell_angle_alpha   70.25649889
_cell_angle_beta   84.01156784
_cell_angle_gamma   67.40201534
_symmetry_Int_Tables_number   1
_chemical_formula_structural   Mg4ZrN4
_chemical_formula_sum   'Mg8 Zr2 N8'
_cell_volume   236.32971749
_cell_formula_units_Z   2
loop_
 _symmetry_equiv_pos_site_id
 _symmetry_equiv_pos_as_xyz
  1  'x, y, z'
loop_
 _atom_site_type_symbol
 _atom_site_label
 _atom_site_symmetry_multiplicity
 _atom_site_fract_x
 _atom_site_fract_y
 _atom_site_fract_z
 _atom_site_occupancy
  Mg  Mg0  1  0.71810400  0.61661800  0.21689600  1
  Mg  Mg1  1  0.28189600  0.38338200  0.78310400  1
  Mg  Mg2  1  0.75728000  0.23633400  0.99977200  1
  Mg  Mg3  1  0.24272000  0.76366600  0.00022800  1
  Mg  Mg4  1  0.74050900  0.48191500  0.57155800  1
  Mg  Mg5  1  0.25949100  0.51808500  0.42844200  1
  Mg  Mg6  1  0.25483400  0.92202800  0.58099000  1
  Mg  Mg7  1  0.74516600  0.07797200  0.41901000  1
  Zr  Zr8  1  0.72984200  0.82747000  0.78238200  1
  Zr  Zr9  1  0.27015800  0.17253000  0.21761800  1
  N  N10  1  0.99473300  0.70006700  0.60030600  1
  N  N11  1  0.00526700  0.29993300  0.39969400  1
  N  N12  1  0.84664300  0.83410300  0.00532000  1
  N  N13  1  0.15335700  0.16589700  0.99468000  1
  N  N14  1  0.49282500  0.61230500  0.80441800  1
  N  N15  1  0.50717500  0.38769500  0.19558200  1
  N  N16  1  0.47744700  0.79850000  0.38258900  1
  N  N17  1  0.52255300  0.20150000  0.61741100  1
