# generated using pymatgen
data_Sr2Ca6Mn8O23
_symmetry_space_group_name_H-M   'P 1'
_cell_length_a   10.92090574
_cell_length_b   15.38895693
_cell_length_c   10.81983944
_cell_angle_alpha   90.14869111
_cell_angle_beta   90.31616925
_cell_angle_gamma   90.04712869
_symmetry_Int_Tables_number   1
_chemical_formula_structural   Sr2Ca6Mn8O23
_chemical_formula_sum   'Sr8 Ca24 Mn32 O92'
_cell_volume   1818.36235532
_cell_formula_units_Z   4
loop_
 _symmetry_equiv_pos_site_id
 _symmetry_equiv_pos_as_xyz
  1  'x, y, z'
loop_
 _atom_site_type_symbol
 _atom_site_label
 _atom_site_symmetry_multiplicity
 _atom_site_fract_x
 _atom_site_fract_y
 _atom_site_fract_z
 _atom_site_occupancy
  Sr  Sr0  1  0.01159146  0.12145858  0.50085391  1
  Sr  Sr1  1  0.00884109  0.12015597  0.99456647  1
  Sr  Sr2  1  0.49644597  0.38101146  0.99724451  1
  Sr  Sr3  1  0.48773849  0.38128998  0.50480616  1
  Sr  Sr4  1  0.23846461  0.38574592  0.25280242  1
  Sr  Sr5  1  0.23453325  0.37852883  0.74450468  1
  Sr  Sr6  1  0.24452718  0.11695648  0.25951648  1
  Sr  Sr7  1  0.26236054  0.12068935  0.74120027  1
  Ca  Ca8  1  0.02105635  0.62604636  0.49555500  1
  Ca  Ca9  1  0.02162327  0.62667195  0.99467049  1
  Ca  Ca10  1  0.52399534  0.13002327  0.50834348  1
  Ca  Ca11  1  0.53175169  0.12122280  0.97319964  1
  Ca  Ca12  1  0.52354502  0.62497420  0.49784470  1
  Ca  Ca13  1  0.52039195  0.62570975  0.99494870  1
  Ca  Ca14  1  0.48108288  0.86992438  0.99558026  1
  Ca  Ca15  1  0.48054348  0.86531186  0.51628541  1
  Ca  Ca16  1  0.96727499  0.38472876  0.99789546  1
  Ca  Ca17  1  0.97821223  0.37706145  0.50496289  1
  Ca  Ca18  1  0.97762340  0.87299400  0.00448652  1
  Ca  Ca19  1  0.97311133  0.87256056  0.50526376  1
  Ca  Ca20  1  0.22258339  0.87110615  0.24321080  1
  Ca  Ca21  1  0.22744343  0.87177486  0.75114791  1
  Ca  Ca22  1  0.74195776  0.38480771  0.24793627  1
  Ca  Ca23  1  0.73252644  0.37840541  0.74858986  1
  Ca  Ca24  1  0.73827518  0.86631566  0.24659446  1
  Ca  Ca25  1  0.73020563  0.87310408  0.74640463  1
  Ca  Ca26  1  0.27346154  0.62783785  0.25458486  1
  Ca  Ca27  1  0.27203801  0.62631646  0.75451657  1
  Ca  Ca28  1  0.77777945  0.12029245  0.25427464  1
  Ca  Ca29  1  0.77131826  0.12379581  0.75453572  1
  Ca  Ca30  1  0.77096790  0.62472140  0.25518080  1
  Ca  Ca31  1  0.77018420  0.62562807  0.75389406  1
  Mn  Mn32  1  0.99634296  0.99398321  0.25070868  1
  Mn  Mn33  1  0.99564554  0.99481993  0.75326141  1
  Mn  Mn34  1  0.00063420  0.50311586  0.24896390  1
  Mn  Mn35  1  0.99951726  0.50243659  0.74858028  1
  Mn  Mn36  1  0.51132502  0.98338490  0.24022421  1
  Mn  Mn37  1  0.50063078  0.99693991  0.74859524  1
  Mn  Mn38  1  0.50187522  0.50663294  0.24906014  1
  Mn  Mn39  1  0.50164781  0.50452589  0.74868313  1
  Mn  Mn40  1  0.25214620  0.99840261  0.00086420  1
  Mn  Mn41  1  0.23923881  0.99018850  0.50733058  1
  Mn  Mn42  1  0.24912669  0.50461143  0.00195906  1
  Mn  Mn43  1  0.24942301  0.50473895  0.50100220  1
  Mn  Mn44  1  0.75036880  0.99689724  0.99672063  1
  Mn  Mn45  1  0.74523398  0.99823975  0.50000807  1
  Mn  Mn46  1  0.74994523  0.50518465  0.00130787  1
  Mn  Mn47  1  0.75260312  0.50225127  0.50115809  1
  Mn  Mn48  1  0.25833691  0.24606820  0.97418029  1
  Mn  Mn49  1  0.25041063  0.25063843  0.49600111  1
  Mn  Mn50  1  0.25004423  0.75036387  0.00104558  1
  Mn  Mn51  1  0.24999915  0.74974764  0.49979878  1
  Mn  Mn52  1  0.75004495  0.24923930  0.99968036  1
  Mn  Mn53  1  0.75193244  0.24923078  0.50560734  1
  Mn  Mn54  1  0.74976690  0.74973154  0.99956344  1
  Mn  Mn55  1  0.75026204  0.74894027  0.50004402  1
  Mn  Mn56  1  0.99132815  0.25310868  0.26046731  1
  Mn  Mn57  1  0.99504650  0.25206549  0.74886550  1
  Mn  Mn58  1  0.99970313  0.74812611  0.24914712  1
  Mn  Mn59  1  0.99969937  0.74939319  0.74938828  1
  Mn  Mn60  1  0.52191321  0.25711206  0.26201771  1
  Mn  Mn61  1  0.50487223  0.24973919  0.74504064  1
  Mn  Mn62  1  0.50013947  0.74909220  0.25157263  1
  Mn  Mn63  1  0.50071195  0.74892089  0.75163616  1
  O  O64  1  0.10376597  0.26367644  0.60546748  1
  O  O65  1  0.10479982  0.77073911  0.10473297  1
  O  O66  1  0.10543233  0.77282836  0.60322445  1
  O  O67  1  0.59508524  0.25002003  0.10647597  1
  O  O68  1  0.60369156  0.26208795  0.60322267  1
  O  O69  1  0.60698755  0.77396930  0.10741716  1
  O  O70  1  0.60784625  0.76669020  0.60643848  1
  O  O71  1  0.39634509  0.22301722  0.36621806  1
  O  O72  1  0.40670401  0.23418225  0.89627952  1
  O  O73  1  0.39660559  0.72725341  0.39743092  1
  O  O74  1  0.39645602  0.73090413  0.89688483  1
  O  O75  1  0.88678529  0.23480722  0.40082721  1
  O  O76  1  0.88928647  0.23752250  0.89555882  1
  O  O77  1  0.89496441  0.73001951  0.39569407  1
  O  O78  1  0.89472257  0.72909568  0.89528451  1
  O  O79  1  0.14585693  0.24299502  0.34591864  1
  O  O80  1  0.13315313  0.23594567  0.85999774  1
  O  O81  1  0.14564467  0.73064554  0.35209976  1
  O  O82  1  0.14605227  0.73083356  0.85297119  1
  O  O83  1  0.64997854  0.22034221  0.35836593  1
  O  O84  1  0.64614968  0.22960868  0.85450475  1
  O  O85  1  0.64697537  0.72840264  0.35424147  1
  O  O86  1  0.64485954  0.72876152  0.85597620  1
  O  O87  1  0.35833156  0.26083910  0.63855552  1
  O  O88  1  0.35706584  0.77257368  0.14732840  1
  O  O89  1  0.35512093  0.77036611  0.64697918  1
  O  O90  1  0.86301083  0.27283405  0.13961501  1
  O  O91  1  0.85127545  0.27143127  0.64568020  1
  O  O92  1  0.85671335  0.76889405  0.14343489  1
  O  O93  1  0.85575558  0.77163070  0.64454246  1
  O  O94  1  0.35982958  0.49205444  0.14133214  1
  O  O95  1  0.35804659  0.49015036  0.64248247  1
  O  O96  1  0.35858722  0.98962941  0.16094891  1
  O  O97  1  0.35768864  0.97594268  0.64029920  1
  O  O98  1  0.85726446  0.48279813  0.14307394  1
  O  O99  1  0.85575127  0.48016878  0.64461313  1
  O  O100  1  0.85320913  0.97923400  0.14536221  1
  O  O101  1  0.85285051  0.97765200  0.64284669  1
  O  O102  1  0.13723779  0.00476221  0.36117542  1
  O  O103  1  0.14342560  0.01431732  0.86192143  1
  O  O104  1  0.14503098  0.52290942  0.35295438  1
  O  O105  1  0.14455490  0.51979966  0.85459572  1
  O  O106  1  0.62097024  0.03060222  0.35512110  1
  O  O107  1  0.64684595  0.01859946  0.85132111  1
  O  O108  1  0.64471646  0.51974905  0.35666559  1
  O  O109  1  0.64320281  0.52146339  0.85801563  1
  O  O110  1  0.39678175  0.01658468  0.89644560  1
  O  O111  1  0.39285509  0.52275505  0.39171884  1
  O  O112  1  0.39268241  0.51768885  0.89257030  1
  O  O113  1  0.88178932  0.01646881  0.38784020  1
  O  O114  1  0.88893889  0.01124240  0.89258914  1
  O  O115  1  0.89523133  0.51951762  0.39521757  1
  O  O116  1  0.89411290  0.51979242  0.89685593  1
  O  O117  1  0.10231277  0.48281547  0.10311814  1
  O  O118  1  0.10236984  0.48339551  0.60318184  1
  O  O119  1  0.10748170  0.97931984  0.11109235  1
  O  O120  1  0.10141656  0.97806170  0.61391609  1
  O  O121  1  0.61331021  0.48791333  0.11141276  1
  O  O122  1  0.61188777  0.48881531  0.60894860  1
  O  O123  1  0.60349608  0.98507275  0.09554419  1
  O  O124  1  0.59961509  0.98064817  0.59903957  1
  O  O125  1  0.00597209  0.37799007  0.28253606  1
  O  O126  1  0.00234620  0.37800146  0.78605613  1
  O  O127  1  0.00271570  0.87181038  0.28886482  1
  O  O128  1  0.00862772  0.87213907  0.79095017  1
  O  O129  1  0.50057561  0.37864958  0.26787991  1
  O  O130  1  0.50927107  0.37613082  0.77115147  1
  O  O131  1  0.51137920  0.87192481  0.30153729  1
  O  O132  1  0.51314976  0.87349768  0.78504442  1
  O  O133  1  0.49571851  0.12269954  0.71896101  1
  O  O134  1  0.49254608  0.62963329  0.20975449  1
  O  O135  1  0.49060286  0.62717453  0.71327675  1
  O  O136  1  0.99978937  0.12665714  0.22398823  1
  O  O137  1  0.98876983  0.12341551  0.72616317  1
  O  O138  1  0.98796971  0.62572605  0.20988092  1
  O  O139  1  0.98781220  0.62608105  0.71055065  1
  O  O140  1  0.24809304  0.13356225  0.03720068  1
  O  O141  1  0.26045412  0.11530392  0.50783018  1
  O  O142  1  0.23849622  0.62732118  0.03813837  1
  O  O143  1  0.23690177  0.62807094  0.53971632  1
  O  O144  1  0.74822270  0.12320256  0.03639470  1
  O  O145  1  0.74438518  0.12318334  0.54120591  1
  O  O146  1  0.73970421  0.62729471  0.04001661  1
  O  O147  1  0.74345572  0.62615199  0.53868026  1
  O  O148  1  0.25821880  0.37811012  0.47574279  1
  O  O149  1  0.25503790  0.36450940  0.00227520  1
  O  O150  1  0.26888923  0.87364196  0.45691366  1
  O  O151  1  0.26385877  0.87543852  0.96729737  1
  O  O152  1  0.75123751  0.37575215  0.46324085  1
  O  O153  1  0.74631411  0.37638561  0.96791745  1
  O  O154  1  0.75472148  0.87447082  0.45988937  1
  O  O155  1  0.75769211  0.87302676  0.96135741  1
