# generated using pymatgen
data_SrCa7Ti2Mn6O21
_symmetry_space_group_name_H-M   'P 1'
_cell_length_a   7.87932394
_cell_length_b   7.74648541
_cell_length_c   7.84983872
_cell_angle_alpha   89.93614473
_cell_angle_beta   89.36469910
_cell_angle_gamma   90.51777579
_symmetry_Int_Tables_number   1
_chemical_formula_structural   SrCa7Ti2Mn6O21
_chemical_formula_sum   'Sr1 Ca7 Ti2 Mn6 O21'
_cell_volume   479.08176973
_cell_formula_units_Z   1
loop_
 _symmetry_equiv_pos_site_id
 _symmetry_equiv_pos_as_xyz
  1  'x, y, z'
loop_
 _atom_site_type_symbol
 _atom_site_label
 _atom_site_symmetry_multiplicity
 _atom_site_fract_x
 _atom_site_fract_y
 _atom_site_fract_z
 _atom_site_occupancy
  Sr  Sr0  1  0.24050100  0.26046700  0.24290200  1
  Ca  Ca1  1  0.28210800  0.26460000  0.70718100  1
  Ca  Ca2  1  0.22354900  0.71818500  0.24621100  1
  Ca  Ca3  1  0.26511100  0.73048100  0.69766600  1
  Ca  Ca4  1  0.76802900  0.27066200  0.28180700  1
  Ca  Ca5  1  0.74626100  0.23842700  0.72895100  1
  Ca  Ca6  1  0.71938600  0.74782400  0.25316200  1
  Ca  Ca7  1  0.75449200  0.74535000  0.70634700  1
  Ti  Ti8  1  0.01717500  0.98636200  0.98776100  1
  Ti  Ti9  1  0.48738700  0.99208100  0.99240100  1
  Mn  Mn10  1  0.00573200  0.99765400  0.51081500  1
  Mn  Mn11  1  0.98020100  0.50442400  0.01455800  1
  Mn  Mn12  1  0.99760900  0.50133100  0.50678300  1
  Mn  Mn13  1  0.51301600  0.00121800  0.47664300  1
  Mn  Mn14  1  0.49236900  0.50244100  0.98428800  1
  Mn  Mn15  1  0.50632700  0.50786700  0.49934300  1
  O  O16  1  0.94908700  0.98540600  0.77122200  1
  O  O17  1  0.01656900  0.48542000  0.26239100  1
  O  O18  1  0.97064800  0.51697800  0.76247400  1
  O  O19  1  0.58159000  0.04574700  0.19784300  1
  O  O20  1  0.56600800  0.97677700  0.76939000  1
  O  O21  1  0.50658800  0.55473800  0.74122600  1
  O  O22  1  0.24901400  0.97301100  0.00677000  1
  O  O23  1  0.25802400  0.03695100  0.50884300  1
  O  O24  1  0.24253500  0.51876100  0.01400400  1
  O  O25  1  0.26530700  0.47294300  0.49945200  1
  O  O26  1  0.76535500  0.95855300  0.46991700  1
  O  O27  1  0.72494900  0.47623400  0.05736700  1
  O  O28  1  0.74168200  0.53962700  0.47200100  1
  O  O29  1  0.96904300  0.19124200  0.08228500  1
  O  O30  1  0.96823400  0.24587500  0.51696600  1
  O  O31  1  0.95457400  0.78964600  0.09324700  1
  O  O32  1  0.05026500  0.75325100  0.49851500  1
  O  O33  1  0.46176800  0.25528600  0.94807100  1
  O  O34  1  0.53995100  0.25637500  0.50914400  1
  O  O35  1  0.50680400  0.74692100  0.04308000  1
  O  O36  1  0.46275400  0.75088400  0.43897300  1
