# generated using pymatgen
data_Ca4TiMn3O10
_symmetry_space_group_name_H-M   'P 1'
_cell_length_a   5.59373258
_cell_length_b   11.04508965
_cell_length_c   15.63237036
_cell_angle_alpha   90.61083247
_cell_angle_beta   89.98714005
_cell_angle_gamma   92.25195329
_symmetry_Int_Tables_number   1
_chemical_formula_structural   Ca4TiMn3O10
_chemical_formula_sum   'Ca16 Ti4 Mn12 O40'
_cell_volume   965.01831442
_cell_formula_units_Z   4
loop_
 _symmetry_equiv_pos_site_id
 _symmetry_equiv_pos_as_xyz
  1  'x, y, z'
loop_
 _atom_site_type_symbol
 _atom_site_label
 _atom_site_symmetry_multiplicity
 _atom_site_fract_x
 _atom_site_fract_y
 _atom_site_fract_z
 _atom_site_occupancy
  Ca  Ca0  1  0.06000800  0.97945200  0.11964300  1
  Ca  Ca1  1  0.04281000  0.98290900  0.61975000  1
  Ca  Ca2  1  0.96733900  0.54122300  0.12388300  1
  Ca  Ca3  1  0.96480700  0.54982000  0.62586000  1
  Ca  Ca4  1  0.99472000  0.51524200  0.37157500  1
  Ca  Ca5  1  0.95724300  0.52387500  0.86935500  1
  Ca  Ca6  1  0.01940100  0.95998500  0.38834800  1
  Ca  Ca7  1  0.01597600  0.95313600  0.87807700  1
  Ca  Ca8  1  0.45969300  0.24682100  0.39489700  1
  Ca  Ca9  1  0.52547100  0.24419600  0.88472900  1
  Ca  Ca10  1  0.52970400  0.76136400  0.38053400  1
  Ca  Ca11  1  0.49161900  0.73175500  0.86436300  1
  Ca  Ca12  1  0.46136800  0.22779000  0.12166800  1
  Ca  Ca13  1  0.47843400  0.22591000  0.61985200  1
  Ca  Ca14  1  0.50879300  0.76361000  0.12691300  1
  Ca  Ca15  1  0.52056300  0.78333900  0.62060300  1
  Ti  Ti16  1  0.53084500  0.98631400  0.99430500  1
  Ti  Ti17  1  0.03458400  0.24108200  0.97886600  1
  Ti  Ti18  1  0.89417400  0.26209000  0.24185700  1
  Ti  Ti19  1  0.55551300  0.99173200  0.25421200  1
  Mn  Mn20  1  0.51707700  0.00247500  0.49798000  1
  Mn  Mn21  1  0.44711300  0.50000500  0.99379900  1
  Mn  Mn22  1  0.47308600  0.50417000  0.49450800  1
  Mn  Mn23  1  0.02205200  0.23371300  0.51682400  1
  Mn  Mn24  1  0.98274600  0.74253200  0.00112600  1
  Mn  Mn25  1  0.00633700  0.74740200  0.50195100  1
  Mn  Mn26  1  0.90720900  0.27342500  0.73776400  1
  Mn  Mn27  1  0.01556800  0.74791500  0.24811600  1
  Mn  Mn28  1  0.00742900  0.75640200  0.74901000  1
  Mn  Mn29  1  0.53425500  0.00180700  0.75563100  1
  Mn  Mn30  1  0.51409600  0.50226200  0.25475600  1
  Mn  Mn31  1  0.49506700  0.50483900  0.74336100  1
  O  O32  1  0.19409500  0.56975100  0.24848300  1
  O  O33  1  0.18828800  0.59393400  0.75807800  1
  O  O34  1  0.73647600  0.38516600  0.18509000  1
  O  O35  1  0.70751400  0.39999200  0.67177400  1
  O  O36  1  0.82533900  0.91815700  0.22968100  1
  O  O37  1  0.83920400  0.90734000  0.74009700  1
  O  O38  1  0.60586000  0.17057400  0.25878700  1
  O  O39  1  0.59007100  0.17579000  0.75410800  1
  O  O40  1  0.71183000  0.65600800  0.23066600  1
  O  O41  1  0.70936300  0.65825700  0.72803200  1
  O  O42  1  0.30972900  0.86863400  0.26230300  1
  O  O43  1  0.29900300  0.86182600  0.78027200  1
  O  O44  1  0.29226700  0.35414500  0.51575200  1
  O  O45  1  0.23459200  0.35418300  0.03434900  1
  O  O46  1  0.30073200  0.85460700  0.48369100  1
  O  O47  1  0.32440900  0.85989000  0.97734600  1
  O  O48  1  0.72860600  0.19959500  0.01070300  1
  O  O49  1  0.70274100  0.16376800  0.50238900  1
  O  O50  1  0.67662000  0.62782000  0.03418700  1
  O  O51  1  0.70243400  0.63747200  0.52254900  1
  O  O52  1  0.81104300  0.90154000  0.01385600  1
  O  O53  1  0.80030800  0.89182700  0.51401900  1
  O  O54  1  0.23071900  0.09951200  0.47233000  1
  O  O55  1  0.22415400  0.10930200  0.97145800  1
  O  O56  1  0.18218300  0.59657700  0.49380500  1
  O  O57  1  0.15667200  0.59705400  0.98679900  1
  O  O58  1  0.60539600  0.98818300  0.36969700  1
  O  O59  1  0.61528600  0.02155400  0.88037500  1
  O  O60  1  0.59335300  0.45379600  0.37943400  1
  O  O61  1  0.55633700  0.45892200  0.87077600  1
  O  O62  1  0.47380100  0.01161500  0.11912600  1
  O  O63  1  0.46205200  0.99879300  0.63466700  1
  O  O64  1  0.07918100  0.17944900  0.16988000  1
  O  O65  1  0.07362000  0.19376400  0.64267500  1
  O  O66  1  0.08522300  0.75600800  0.12301100  1
  O  O67  1  0.08641000  0.75874800  0.62814400  1
  O  O68  1  0.05164300  0.30209300  0.33966100  1
  O  O69  1  0.00465400  0.29764700  0.86857600  1
  O  O70  1  0.94829700  0.74549300  0.37166300  1
  O  O71  1  0.91285600  0.74309600  0.87732900  1
