# generated using pymatgen
data_Cs2S
_symmetry_space_group_name_H-M   'P 1'
_cell_length_a   5.84705179
_cell_length_b   5.84705775
_cell_length_c   8.22349600
_cell_angle_alpha   90.00007676
_cell_angle_beta   89.99978497
_cell_angle_gamma   119.99710075
_symmetry_Int_Tables_number   1
_chemical_formula_structural   Cs2S
_chemical_formula_sum   'Cs4 S2'
_cell_volume   243.48607468
_cell_formula_units_Z   2
loop_
 _symmetry_equiv_pos_site_id
 _symmetry_equiv_pos_as_xyz
  1  'x, y, z'
loop_
 _atom_site_type_symbol
 _atom_site_label
 _atom_site_symmetry_multiplicity
 _atom_site_fract_x
 _atom_site_fract_y
 _atom_site_fract_z
 _atom_site_occupancy
  Cs  Cs0  1  0.00000000  0.99999800  0.50000000  1
  Cs  Cs1  1  0.00000100  0.00000100  0.00000100  1
  Cs  Cs2  1  0.33334100  0.66665900  0.74998900  1
  Cs  Cs3  1  0.66666000  0.33334200  0.25001200  1
  S  S4  1  0.66668100  0.33332000  0.74998700  1
  S  S5  1  0.33331800  0.66668000  0.25001100  1
