# generated using pymatgen
data_Na3GaN2
_symmetry_space_group_name_H-M   'P 1'
_cell_length_a   8.54344554
_cell_length_b   8.09996980
_cell_length_c   12.67843795
_cell_angle_alpha   89.99999602
_cell_angle_beta   137.90189180
_cell_angle_gamma   118.29725099
_symmetry_Int_Tables_number   1
_chemical_formula_structural   Na3GaN2
_chemical_formula_sum   'Na12 Ga4 N8'
_cell_volume   415.91306308
_cell_formula_units_Z   4
loop_
 _symmetry_equiv_pos_site_id
 _symmetry_equiv_pos_as_xyz
  1  'x, y, z'
loop_
 _atom_site_type_symbol
 _atom_site_label
 _atom_site_symmetry_multiplicity
 _atom_site_fract_x
 _atom_site_fract_y
 _atom_site_fract_z
 _atom_site_occupancy
  Na  Na0  1  0.00000000  0.50000000  0.37528100  1
  Na  Na1  1  0.00000000  0.00000000  0.87471900  1
  Na  Na2  1  0.00000000  0.50000000  0.12471900  1
  Na  Na3  1  0.00000000  0.00000000  0.12528100  1
  Na  Na4  1  0.53251700  0.50000000  0.51625900  1
  Na  Na5  1  0.46748300  0.50000000  0.98374100  1
  Na  Na6  1  0.53251700  0.00000000  0.26625900  1
  Na  Na7  1  0.46748300  0.00000000  0.73374100  1
  Na  Na8  1  0.46748300  0.96748300  0.98374100  1
  Na  Na9  1  0.53251700  0.03251700  0.51625900  1
  Na  Na10  1  0.46748300  0.46748300  0.73374100  1
  Na  Na11  1  0.53251700  0.53251700  0.26625900  1
  Ga  Ga12  1  0.00000000  0.50000000  0.61336400  1
  Ga  Ga13  1  0.00000000  0.00000000  0.63663600  1
  Ga  Ga14  1  0.00000000  0.50000000  0.88663600  1
  Ga  Ga15  1  0.00000000  0.00000000  0.36336400  1
  N  N16  1  0.43632000  0.71816000  0.82244400  1
  N  N17  1  0.56368000  0.28184000  0.38612300  1
  N  N18  1  0.43632000  0.21816000  0.86387700  1
  N  N19  1  0.56368000  0.78184000  0.42755600  1
  N  N20  1  0.00000000  0.28184000  0.89571700  1
  N  N21  1  0.00000000  0.71816000  0.89571700  1
  N  N22  1  0.00000000  0.78184000  0.35428300  1
  N  N23  1  0.00000000  0.21816000  0.35428300  1
