# generated using pymatgen
data_SrCa7Mn6Al2O22
_symmetry_space_group_name_H-M   'P 1'
_cell_length_a   10.86326656
_cell_length_b   15.27958103
_cell_length_c   10.81665611
_cell_angle_alpha   89.64154314
_cell_angle_beta   90.63305446
_cell_angle_gamma   90.24203215
_symmetry_Int_Tables_number   1
_chemical_formula_structural   SrCa7Mn6Al2O22
_chemical_formula_sum   'Sr4 Ca28 Mn24 Al8 O88'
_cell_volume   1795.25500656
_cell_formula_units_Z   4
loop_
 _symmetry_equiv_pos_site_id
 _symmetry_equiv_pos_as_xyz
  1  'x, y, z'
loop_
 _atom_site_type_symbol
 _atom_site_label
 _atom_site_symmetry_multiplicity
 _atom_site_fract_x
 _atom_site_fract_y
 _atom_site_fract_z
 _atom_site_occupancy
  Sr  Sr0  1  0.00587855  0.11825703  0.50138509  1
  Sr  Sr1  1  0.49964815  0.36765012  0.00511636  1
  Sr  Sr2  1  0.23732048  0.37736524  0.25402771  1
  Sr  Sr3  1  0.25614065  0.11843015  0.25445544  1
  Ca  Ca4  1  0.02287381  0.11849837  0.98546933  1
  Ca  Ca5  1  0.02099207  0.62765404  0.50033221  1
  Ca  Ca6  1  0.02057375  0.62690604  0.99685013  1
  Ca  Ca7  1  0.52565745  0.12683234  0.50730692  1
  Ca  Ca8  1  0.52813277  0.12148050  0.97416116  1
  Ca  Ca9  1  0.52095581  0.62558542  0.49957880  1
  Ca  Ca10  1  0.52778481  0.62984935  0.99839560  1
  Ca  Ca11  1  0.47931893  0.38334675  0.51127470  1
  Ca  Ca12  1  0.49609377  0.87560144  0.97930875  1
  Ca  Ca13  1  0.48211716  0.87190004  0.51054343  1
  Ca  Ca14  1  0.97119969  0.38218913  0.00006833  1
  Ca  Ca15  1  0.97411175  0.38841336  0.50658858  1
  Ca  Ca16  1  0.98178768  0.87490067  0.01033906  1
  Ca  Ca17  1  0.97420542  0.87259270  0.50741116  1
  Ca  Ca18  1  0.23598243  0.38028971  0.74089876  1
  Ca  Ca19  1  0.22291597  0.87946676  0.24578939  1
  Ca  Ca20  1  0.23732708  0.87621268  0.75749316  1
  Ca  Ca21  1  0.73556418  0.38914207  0.25187740  1
  Ca  Ca22  1  0.72967779  0.37367224  0.74961862  1
  Ca  Ca23  1  0.74308525  0.86691078  0.24478650  1
  Ca  Ca24  1  0.72720913  0.87477552  0.74277647  1
  Ca  Ca25  1  0.27671478  0.11716563  0.73942970  1
  Ca  Ca26  1  0.26562485  0.62135576  0.25830244  1
  Ca  Ca27  1  0.25848079  0.63047665  0.74622482  1
  Ca  Ca28  1  0.74875724  0.12001216  0.25283491  1
  Ca  Ca29  1  0.76550039  0.11866026  0.75561918  1
  Ca  Ca30  1  0.77714823  0.62633673  0.25411093  1
  Ca  Ca31  1  0.77510802  0.62455362  0.75852613  1
  Mn  Mn32  1  0.99531860  0.99263643  0.25343580  1
  Mn  Mn33  1  0.99875193  0.99577339  0.75579457  1
  Mn  Mn34  1  0.99895463  0.50323355  0.25200799  1
  Mn  Mn35  1  0.00530749  0.50026439  0.75296306  1
  Mn  Mn36  1  0.49883327  0.50432709  0.24678576  1
  Mn  Mn37  1  0.50590658  0.50124504  0.74128827  1
  Mn  Mn38  1  0.25806568  0.00141224  0.00176309  1
  Mn  Mn39  1  0.24771127  0.50135471  0.50272977  1
  Mn  Mn40  1  0.75176029  0.99679411  0.99433251  1
  Mn  Mn41  1  0.74369838  0.99898181  0.50099348  1
  Mn  Mn42  1  0.75036892  0.50261250  0.00353880  1
  Mn  Mn43  1  0.75078388  0.50239604  0.49961604  1
  Mn  Mn44  1  0.24967684  0.74507863  0.99453739  1
  Mn  Mn45  1  0.25133817  0.75360997  0.49735207  1
  Mn  Mn46  1  0.75680408  0.24401053  0.00388430  1
  Mn  Mn47  1  0.75082319  0.25137890  0.50447809  1
  Mn  Mn48  1  0.75209514  0.75027613  0.99840825  1
  Mn  Mn49  1  0.75228916  0.74759356  0.50197149  1
  Mn  Mn50  1  0.99280532  0.24992345  0.75681002  1
  Mn  Mn51  1  0.00416044  0.74741556  0.25282613  1
  Mn  Mn52  1  0.00004497  0.75126742  0.74971516  1
  Mn  Mn53  1  0.50132988  0.24833315  0.74423508  1
  Mn  Mn54  1  0.50950046  0.74705142  0.25688838  1
  Mn  Mn55  1  0.49960390  0.74887022  0.74911174  1
  Al  Al56  1  0.51150750  0.97826421  0.22597752  1
  Al  Al57  1  0.49858969  0.99817507  0.74222827  1
  Al  Al58  1  0.23053976  0.99364289  0.51677543  1
  Al  Al59  1  0.23184637  0.49695046  0.01650491  1
  Al  Al60  1  0.25159153  0.25317872  0.95070421  1
  Al  Al61  1  0.27818700  0.24183969  0.48383583  1
  Al  Al62  1  0.97867547  0.26772443  0.27869563  1
  Al  Al63  1  0.52096534  0.26333161  0.27589918  1
  O  O64  1  0.11637810  0.76949154  0.11331029  1
  O  O65  1  0.10409132  0.76994865  0.60056336  1
  O  O66  1  0.56098966  0.23472699  0.12538670  1
  O  O67  1  0.60717125  0.27437761  0.60455946  1
  O  O68  1  0.60123083  0.76920771  0.10215742  1
  O  O69  1  0.60046752  0.76328060  0.60150282  1
  O  O70  1  0.39257077  0.22728075  0.36365932  1
  O  O71  1  0.39736614  0.22952279  0.88604763  1
  O  O72  1  0.39152532  0.72762756  0.39009139  1
  O  O73  1  0.40032012  0.73115183  0.89915354  1
  O  O74  1  0.88711187  0.23214754  0.40079679  1
  O  O75  1  0.90291534  0.23534203  0.90156231  1
  O  O76  1  0.89716351  0.72874749  0.39758815  1
  O  O77  1  0.89598522  0.72842295  0.89584697  1
  O  O78  1  0.12445589  0.23031254  0.33167021  1
  O  O79  1  0.15591812  0.23662235  0.81756676  1
  O  O80  1  0.14930191  0.72970741  0.35313629  1
  O  O81  1  0.14278496  0.73266651  0.85022601  1
  O  O82  1  0.64922948  0.23122880  0.36287480  1
  O  O83  1  0.64812356  0.23284574  0.85499390  1
  O  O84  1  0.65432763  0.72623684  0.35889102  1
  O  O85  1  0.64552891  0.73022710  0.85172738  1
  O  O86  1  0.36226726  0.26297369  0.63184971  1
  O  O87  1  0.35049996  0.76937433  0.64640396  1
  O  O88  1  0.88584273  0.25002030  0.14467504  1
  O  O89  1  0.86628501  0.27676974  0.63953170  1
  O  O90  1  0.85878001  0.76811982  0.14246508  1
  O  O91  1  0.85507885  0.77261285  0.64678837  1
  O  O92  1  0.36547594  0.48274800  0.12477679  1
  O  O93  1  0.35638206  0.48146144  0.64320346  1
  O  O94  1  0.36560527  0.99909190  0.15759778  1
  O  O95  1  0.36003953  0.98822176  0.62904484  1
  O  O96  1  0.85680770  0.48248188  0.14570298  1
  O  O97  1  0.85752163  0.47927648  0.64922505  1
  O  O98  1  0.85643738  0.98203638  0.14286542  1
  O  O99  1  0.86123435  0.97954048  0.64642336  1
  O  O100  1  0.13677248  0.01023813  0.36783369  1
  O  O101  1  0.14968748  0.02300143  0.86295205  1
  O  O102  1  0.14676769  0.51684913  0.35489202  1
  O  O103  1  0.16411493  0.51308164  0.85880123  1
  O  O104  1  0.58108093  0.04069437  0.34267004  1
  O  O105  1  0.64407346  0.01287267  0.85243443  1
  O  O106  1  0.64532874  0.52361577  0.35257390  1
  O  O107  1  0.63372753  0.52021314  0.86477734  1
  O  O108  1  0.39507013  0.01618676  0.88836229  1
  O  O109  1  0.39046052  0.51441249  0.39410652  1
  O  O110  1  0.87430302  0.02329390  0.37790390  1
  O  O111  1  0.89550454  0.01796838  0.89628694  1
  O  O112  1  0.89827576  0.52336153  0.39562393  1
  O  O113  1  0.89917446  0.51478497  0.89667154  1
  O  O114  1  0.09992518  0.47877135  0.11073212  1
  O  O115  1  0.10777703  0.48180520  0.60745789  1
  O  O116  1  0.10792483  0.99622429  0.11401896  1
  O  O117  1  0.10438028  0.97851657  0.61768394  1
  O  O118  1  0.61123961  0.48583154  0.11372614  1
  O  O119  1  0.61225063  0.48320049  0.59919544  1
  O  O120  1  0.61071048  0.97847417  0.09850049  1
  O  O121  1  0.60385348  0.98349549  0.60271231  1
  O  O122  1  0.99878870  0.38114819  0.28919047  1
  O  O123  1  0.01896514  0.37454390  0.78362894  1
  O  O124  1  0.00573449  0.86727699  0.28790996  1
  O  O125  1  0.01633051  0.87472662  0.79721432  1
  O  O126  1  0.50481265  0.37839400  0.28302522  1
  O  O127  1  0.50055444  0.37707709  0.78023811  1
  O  O128  1  0.50024301  0.87015839  0.28444206  1
  O  O129  1  0.50471723  0.87399584  0.77176305  1
  O  O130  1  0.50085403  0.12485349  0.71837721  1
  O  O131  1  0.48080035  0.62787137  0.20819514  1
  O  O132  1  0.47728820  0.62356885  0.72116806  1
  O  O133  1  0.98780355  0.12758933  0.72295307  1
  O  O134  1  0.99549821  0.62348970  0.20974268  1
  O  O135  1  0.99545285  0.62466057  0.71500550  1
  O  O136  1  0.21410983  0.17086293  0.05345373  1
  O  O137  1  0.24569350  0.12602216  0.51733355  1
  O  O138  1  0.24866664  0.62047530  0.03449186  1
  O  O139  1  0.23940254  0.62438831  0.53579031  1
  O  O140  1  0.74178722  0.12097387  0.03459347  1
  O  O141  1  0.74203601  0.12743828  0.54219165  1
  O  O142  1  0.74344833  0.62715728  0.03745365  1
  O  O143  1  0.74365367  0.62475798  0.54511937  1
  O  O144  1  0.23977376  0.35985990  0.48190848  1
  O  O145  1  0.25076170  0.36623693  0.98884903  1
  O  O146  1  0.26497614  0.87912609  0.45892355  1
  O  O147  1  0.27643720  0.86719728  0.99040993  1
  O  O148  1  0.76020884  0.37806543  0.46046690  1
  O  O149  1  0.74963904  0.37086565  0.98132355  1
  O  O150  1  0.75269939  0.87484051  0.45937218  1
  O  O151  1  0.76198156  0.87391743  0.95844340  1
