# generated using pymatgen
data_Pt(CN)2
_symmetry_space_group_name_H-M   'P 1'
_cell_length_a   8.28091215
_cell_length_b   7.00891136
_cell_length_c   13.26817107
_cell_angle_alpha   89.99999914
_cell_angle_beta   36.76186914
_cell_angle_gamma   64.96342097
_symmetry_Int_Tables_number   1
_chemical_formula_structural   Pt(CN)2
_chemical_formula_sum   'Pt4 C8 N8'
_cell_volume   325.89829692
_cell_formula_units_Z   4
loop_
 _symmetry_equiv_pos_site_id
 _symmetry_equiv_pos_as_xyz
  1  'x, y, z'
loop_
 _atom_site_type_symbol
 _atom_site_label
 _atom_site_symmetry_multiplicity
 _atom_site_fract_x
 _atom_site_fract_y
 _atom_site_fract_z
 _atom_site_occupancy
  Pt  Pt0  1  0.50000000  0.03307500  0.12500000  1
  Pt  Pt1  1  0.50000000  0.96692500  0.62500000  1
  Pt  Pt2  1  0.56615000  0.46692500  0.34192500  1
  Pt  Pt3  1  0.43385000  0.53307500  0.90807500  1
  C  C4  1  0.96727900  0.26514900  0.34136700  1
  C  C5  1  0.03272100  0.73242800  0.90863300  1
  C  C6  1  0.03272100  0.73485100  0.30864600  1
  C  C7  1  0.96727900  0.26757200  0.94135400  1
  C  C8  1  0.49757700  0.76757200  0.42620500  1
  C  C9  1  0.50242300  0.76514900  0.82379500  1
  C  C10  1  0.50242300  0.23242800  0.92378200  1
  C  C11  1  0.49757700  0.23485100  0.32621800  1
  N  N12  1  0.71412400  0.35582800  0.41279500  1
  N  N13  1  0.28587600  0.56995300  0.83720500  1
  N  N14  1  0.28587600  0.64417200  0.12691900  1
  N  N15  1  0.71412400  0.43004700  0.12308100  1
  N  N16  1  0.42578100  0.93004700  0.51725300  1
  N  N17  1  0.57421900  0.85582800  0.73274700  1
  N  N18  1  0.57421900  0.06995300  0.94303400  1
  N  N19  1  0.42578100  0.14417200  0.30696600  1
