data_image0
_chemical_formula_structural       Cr2FeSe4
_chemical_formula_sum              "Cr2 Fe1 Se4"
_cell_length_a       3.67527
_cell_length_b       6.35519
_cell_length_c       6.76003
_cell_angle_alpha    118.063
_cell_angle_beta     105.774
_cell_angle_gamma    90

_space_group_name_H-M_alt    "P 1"
_space_group_IT_number       1

loop_
  _space_group_symop_operation_xyz
  'x, y, z'

loop_
  _atom_site_type_symbol
  _atom_site_label
  _atom_site_symmetry_multiplicity
  _atom_site_fract_x
  _atom_site_fract_y
  _atom_site_fract_z
  _atom_site_occupancy
  Cr  Cr1       1.0  0.24400  0.22700  0.48900  1.0000
  Cr  Cr2       1.0  0.75600  0.77300  0.51100  1.0000
  Fe  Fe1       1.0  0.50000  0.50000  0.00000  1.0000
  Se  Se1       1.0  0.62100  0.95200  0.24200  1.0000
  Se  Se2       1.0  0.13100  0.46700  0.26200  1.0000
  Se  Se3       1.0  0.86900  0.53300  0.73800  1.0000
  Se  Se4       1.0  0.37900  0.04790  0.75800  1.0000
