# generated using pymatgen
data_SrCa7TiMn7O20
_symmetry_space_group_name_H-M   'P 1'
_cell_length_a   11.07911992
_cell_length_b   15.56173586
_cell_length_c   11.22178449
_cell_angle_alpha   90.29127733
_cell_angle_beta   91.70901385
_cell_angle_gamma   90.27732750
_symmetry_Int_Tables_number   1
_chemical_formula_structural   SrCa7TiMn7O20
_chemical_formula_sum   'Sr4 Ca28 Ti4 Mn28 O80'
_cell_volume   1933.84193052
_cell_formula_units_Z   4
loop_
 _symmetry_equiv_pos_site_id
 _symmetry_equiv_pos_as_xyz
  1  'x, y, z'
loop_
 _atom_site_type_symbol
 _atom_site_label
 _atom_site_symmetry_multiplicity
 _atom_site_fract_x
 _atom_site_fract_y
 _atom_site_fract_z
 _atom_site_occupancy
  Sr  Sr0  1  0.99888621  0.11441214  0.51684937  1
  Sr  Sr1  1  0.51158926  0.37768832  0.00176594  1
  Sr  Sr2  1  0.24722147  0.38591135  0.24790799  1
  Sr  Sr3  1  0.22916117  0.12386836  0.24362041  1
  Ca  Ca4  1  0.98028611  0.12101477  0.02077601  1
  Ca  Ca5  1  0.99228448  0.61414905  0.51623778  1
  Ca  Ca6  1  0.98289335  0.61577211  0.02003351  1
  Ca  Ca7  1  0.53946613  0.12997729  0.47813091  1
  Ca  Ca8  1  0.54627938  0.12110306  0.98330164  1
  Ca  Ca9  1  0.54608812  0.62981998  0.48145587  1
  Ca  Ca10  1  0.54963366  0.62818376  0.97866722  1
  Ca  Ca11  1  0.51577955  0.37506688  0.48259917  1
  Ca  Ca12  1  0.52687463  0.87079015  0.98786991  1
  Ca  Ca13  1  0.51694500  0.87029244  0.47668800  1
  Ca  Ca14  1  0.96359342  0.38519225  0.00793133  1
  Ca  Ca15  1  0.95549705  0.38704660  0.50894800  1
  Ca  Ca16  1  0.95687247  0.87841935  0.00572058  1
  Ca  Ca17  1  0.95273962  0.88070506  0.51455068  1
  Ca  Ca18  1  0.23665252  0.39776303  0.74308939  1
  Ca  Ca19  1  0.23922707  0.88263338  0.28392341  1
  Ca  Ca20  1  0.23603465  0.89191612  0.75153856  1
  Ca  Ca21  1  0.76068418  0.38570910  0.25583771  1
  Ca  Ca22  1  0.77379932  0.37418913  0.76736151  1
  Ca  Ca23  1  0.74747221  0.86768941  0.25529022  1
  Ca  Ca24  1  0.74742256  0.86999136  0.75258390  1
  Ca  Ca25  1  0.22782838  0.11404926  0.73945665  1
  Ca  Ca26  1  0.22662273  0.61992360  0.24597780  1
  Ca  Ca27  1  0.22478837  0.61968973  0.74000887  1
  Ca  Ca28  1  0.76937419  0.11587870  0.25034975  1
  Ca  Ca29  1  0.77828471  0.12271969  0.75441249  1
  Ca  Ca30  1  0.77900797  0.62212613  0.25353451  1
  Ca  Ca31  1  0.78360880  0.62131141  0.75607771  1
  Ti  Ti32  1  0.98916489  0.99037620  0.26627512  1
  Ti  Ti33  1  0.24597258  0.97400264  0.02520726  1
  Ti  Ti34  1  0.25957028  0.24450133  0.94412412  1
  Ti  Ti35  1  0.98450001  0.25322893  0.27843068  1
  Mn  Mn36  1  0.99219780  0.99542862  0.75863424  1
  Mn  Mn37  1  0.99888756  0.49840463  0.25981524  1
  Mn  Mn38  1  0.99838711  0.49743807  0.75721097  1
  Mn  Mn39  1  0.50326888  0.99212547  0.22706733  1
  Mn  Mn40  1  0.50469628  0.98630453  0.72686854  1
  Mn  Mn41  1  0.50611962  0.50351985  0.23581345  1
  Mn  Mn42  1  0.50283922  0.48779931  0.73172428  1
  Mn  Mn43  1  0.24595746  0.99873329  0.51782947  1
  Mn  Mn44  1  0.23285880  0.51742189  0.01704008  1
  Mn  Mn45  1  0.24450846  0.50392312  0.51469796  1
  Mn  Mn46  1  0.74967959  0.99931417  0.99365105  1
  Mn  Mn47  1  0.73739322  0.00166412  0.49943232  1
  Mn  Mn48  1  0.74787169  0.50198532  0.99857942  1
  Mn  Mn49  1  0.74308532  0.50322432  0.50127972  1
  Mn  Mn50  1  0.27267368  0.24928028  0.46968300  1
  Mn  Mn51  1  0.27120009  0.73904340  0.94999793  1
  Mn  Mn52  1  0.27227667  0.73908940  0.46336382  1
  Mn  Mn53  1  0.75590838  0.24750891  0.00559938  1
  Mn  Mn54  1  0.74539530  0.24962560  0.50960827  1
  Mn  Mn55  1  0.75857667  0.74786858  0.00185355  1
  Mn  Mn56  1  0.75495426  0.74789293  0.50399562  1
  Mn  Mn57  1  0.99706652  0.25253927  0.76743871  1
  Mn  Mn58  1  0.99697286  0.75103659  0.26820726  1
  Mn  Mn59  1  0.99988075  0.75474590  0.76343873  1
  Mn  Mn60  1  0.52272724  0.25267267  0.25226735  1
  Mn  Mn61  1  0.50690891  0.25372223  0.75726187  1
  Mn  Mn62  1  0.50798513  0.74533268  0.24629774  1
  Mn  Mn63  1  0.50995841  0.74567904  0.74914297  1
  O  O64  1  0.59439853  0.24811328  0.09853597  1
  O  O65  1  0.56811637  0.25541696  0.59286270  1
  O  O66  1  0.59465075  0.75519552  0.09216268  1
  O  O67  1  0.58765347  0.75690241  0.59151578  1
  O  O68  1  0.40360290  0.20443721  0.35116679  1
  O  O69  1  0.39230047  0.18836066  0.87533424  1
  O  O70  1  0.39914039  0.67769281  0.35224943  1
  O  O71  1  0.40062609  0.67676763  0.85122417  1
  O  O72  1  0.90646013  0.23762725  0.41348906  1
  O  O73  1  0.90433878  0.23877347  0.92023108  1
  O  O74  1  0.90492079  0.73591283  0.42155331  1
  O  O75  1  0.90956301  0.73752235  0.91893435  1
  O  O76  1  0.14877649  0.25389691  0.32462344  1
  O  O77  1  0.17662110  0.25660800  0.79703594  1
  O  O78  1  0.16566473  0.75064451  0.31038719  1
  O  O79  1  0.17297620  0.75588344  0.79201917  1
  O  O80  1  0.65522935  0.21869383  0.34936777  1
  O  O81  1  0.65756418  0.22859246  0.85805208  1
  O  O82  1  0.65823247  0.72883035  0.35400215  1
  O  O83  1  0.66046042  0.72644329  0.85347928  1
  O  O84  1  0.86091053  0.26682268  0.15328275  1
  O  O85  1  0.86303432  0.26900416  0.65237807  1
  O  O86  1  0.86101197  0.77342482  0.15044848  1
  O  O87  1  0.85884868  0.77579448  0.65037051  1
  O  O88  1  0.35499478  0.51879464  0.14321649  1
  O  O89  1  0.35088413  0.51498647  0.66015926  1
  O  O90  1  0.36271602  0.03415316  0.11572578  1
  O  O91  1  0.34792215  0.00617821  0.66156910  1
  O  O92  1  0.85387578  0.48760524  0.13962928  1
  O  O93  1  0.84869940  0.48211965  0.64367127  1
  O  O94  1  0.86548229  0.97642668  0.15425885  1
  O  O95  1  0.83945726  0.98170297  0.64239330  1
  O  O96  1  0.15671924  0.00501521  0.36666262  1
  O  O97  1  0.19676970  0.00967978  0.87885325  1
  O  O98  1  0.16226977  0.50669874  0.36356486  1
  O  O99  1  0.16016822  0.50684219  0.86185974  1
  O  O100  1  0.63365086  0.02258559  0.34896366  1
  O  O101  1  0.62607403  0.02546297  0.83423052  1
  O  O102  1  0.63751673  0.52641511  0.35256713  1
  O  O103  1  0.62879691  0.51733391  0.84660522  1
  O  O104  1  0.88614203  0.00979480  0.39632852  1
  O  O105  1  0.89658940  0.01496466  0.89996748  1
  O  O106  1  0.88830438  0.51485380  0.39613632  1
  O  O107  1  0.88984460  0.51382534  0.89209399  1
  O  O108  1  0.09785055  0.47612338  0.12065456  1
  O  O109  1  0.09645975  0.47497149  0.61947263  1
  O  O110  1  0.11410194  0.96709468  0.12122537  1
  O  O111  1  0.09773951  0.97513201  0.62462596  1
  O  O112  1  0.60522851  0.50425330  0.09375916  1
  O  O113  1  0.58755911  0.49730490  0.58434611  1
  O  O114  1  0.60496741  0.98982278  0.08380596  1
  O  O115  1  0.58225811  0.99460563  0.57619885  1
  O  O116  1  0.98325169  0.37592636  0.29342995  1
  O  O117  1  0.99595657  0.37308661  0.79825561  1
  O  O118  1  0.00224038  0.87342878  0.30370764  1
  O  O119  1  0.00660308  0.87698008  0.80349503  1
  O  O120  1  0.48267926  0.37581920  0.26815623  1
  O  O121  1  0.44798770  0.37733858  0.78841241  1
  O  O122  1  0.45615805  0.87122880  0.27557805  1
  O  O123  1  0.47237120  0.87258640  0.78687989  1
  O  O124  1  0.99507363  0.12260788  0.23598983  1
  O  O125  1  0.00734041  0.12549587  0.73777591  1
  O  O126  1  0.99832603  0.62839612  0.22999383  1
  O  O127  1  0.99986726  0.63112841  0.72545578  1
  O  O128  1  0.17507589  0.17746180  0.04010257  1
  O  O129  1  0.23243431  0.13053101  0.53397055  1
  O  O130  1  0.19722063  0.64136544  0.03815948  1
  O  O131  1  0.20988775  0.63046119  0.53482431  1
  O  O132  1  0.75850326  0.12174603  0.03857454  1
  O  O133  1  0.74694127  0.12570650  0.54260585  1
  O  O134  1  0.76048422  0.62805604  0.03542776  1
  O  O135  1  0.75454631  0.62563415  0.54413255  1
  O  O136  1  0.29995202  0.37880271  0.49862003  1
  O  O137  1  0.28798963  0.34821677  0.01465765  1
  O  O138  1  0.29607990  0.87294017  0.49273540  1
  O  O139  1  0.30371365  0.86452943  0.00432191  1
  O  O140  1  0.73776516  0.37556302  0.46708594  1
  O  O141  1  0.74698546  0.37333304  0.97668295  1
  O  O142  1  0.73913401  0.87421273  0.46550781  1
  O  O143  1  0.74589412  0.87433604  0.96135564  1
