# generated using pymatgen
data_ZrCrAgS4
_symmetry_space_group_name_H-M   'P 1'
_cell_length_a   6.67626517
_cell_length_b   7.79263157
_cell_length_c   12.93696286
_cell_angle_alpha   81.60687072
_cell_angle_beta   85.18831931
_cell_angle_gamma   90.31521030
_symmetry_Int_Tables_number   1
_chemical_formula_structural   ZrCrAgS4
_chemical_formula_sum   'Zr4 Cr4 Ag4 S16'
_cell_volume   663.39161571
_cell_formula_units_Z   4
loop_
 _symmetry_equiv_pos_site_id
 _symmetry_equiv_pos_as_xyz
  1  'x, y, z'
loop_
 _atom_site_type_symbol
 _atom_site_label
 _atom_site_symmetry_multiplicity
 _atom_site_fract_x
 _atom_site_fract_y
 _atom_site_fract_z
 _atom_site_occupancy
  Zr  Zr0  1  0.14525700  0.70268800  0.69605800  1
  Zr  Zr1  1  0.85474300  0.29731200  0.30394200  1
  Zr  Zr2  1  0.23937200  0.88389300  0.00075700  1
  Zr  Zr3  1  0.76062800  0.11610700  0.99924300  1
  Cr  Cr4  1  0.36259800  0.55626100  0.29456500  1
  Cr  Cr5  1  0.63740200  0.44373900  0.70543500  1
  Cr  Cr6  1  0.36499900  0.04798500  0.29857000  1
  Cr  Cr7  1  0.63500100  0.95201500  0.70143000  1
  Ag  Ag8  1  0.11826200  0.19713800  0.69269600  1
  Ag  Ag9  1  0.88173800  0.80286200  0.30730400  1
  Ag  Ag10  1  0.26802300  0.37113500  0.00048900  1
  Ag  Ag11  1  0.73197700  0.62886500  0.99951100  1
  S  S12  1  0.12530700  0.66173900  0.88407300  1
  S  S13  1  0.87469300  0.33826100  0.11592700  1
  S  S14  1  0.09622500  0.14381600  0.89376600  1
  S  S15  1  0.90377500  0.85618400  0.10623400  1
  S  S16  1  0.23185100  0.78212000  0.36078100  1
  S  S17  1  0.76814900  0.21788000  0.63921900  1
  S  S18  1  0.20774900  0.28886400  0.35686300  1
  S  S19  1  0.79225100  0.71113600  0.64313700  1
  S  S20  1  0.33705100  0.96537300  0.62421400  1
  S  S21  1  0.66294900  0.03462700  0.37578600  1
  S  S22  1  0.33728700  0.46580700  0.63452700  1
  S  S23  1  0.66271300  0.53419300  0.36547300  1
  S  S24  1  0.41526800  0.07382800  0.11741100  1
  S  S25  1  0.58473200  0.92617200  0.88258900  1
  S  S26  1  0.37303600  0.60643400  0.12173000  1
  S  S27  1  0.62696400  0.39356600  0.87827000  1
