# generated using pymatgen
data_KBaN
_symmetry_space_group_name_H-M   'P 1'
_cell_length_a   9.52764238
_cell_length_b   4.14298582
_cell_length_c   7.50852264
_cell_angle_alpha   90.00000193
_cell_angle_beta   24.70364006
_cell_angle_gamma   77.44249809
_symmetry_Int_Tables_number   1
_chemical_formula_structural   KBaN
_chemical_formula_sum   'K1 Ba1 N1'
_cell_volume   105.78424490
_cell_formula_units_Z   1
loop_
 _symmetry_equiv_pos_site_id
 _symmetry_equiv_pos_as_xyz
  1  'x, y, z'
loop_
 _atom_site_type_symbol
 _atom_site_label
 _atom_site_symmetry_multiplicity
 _atom_site_fract_x
 _atom_site_fract_y
 _atom_site_fract_z
 _atom_site_occupancy
  K  K0  1  0.47776000  0.26112000  0.62345200  1
  Ba  Ba1  1  0.55057500  0.72471200  0.94164300  1
  N  N2  1  0.98966500  0.00516800  0.34390400  1
