# generated using pymatgen
data_MoRuN3
_symmetry_space_group_name_H-M   'P 1'
_cell_length_a   8.39555307
_cell_length_b   5.57376735
_cell_length_c   7.90026314
_cell_angle_alpha   107.12162367
_cell_angle_beta   103.69190815
_cell_angle_gamma   111.85085853
_symmetry_Int_Tables_number   1
_chemical_formula_structural   MoRuN3
_chemical_formula_sum   'Mo4 Ru4 N12'
_cell_volume   301.90518246
_cell_formula_units_Z   4
loop_
 _symmetry_equiv_pos_site_id
 _symmetry_equiv_pos_as_xyz
  1  'x, y, z'
loop_
 _atom_site_type_symbol
 _atom_site_label
 _atom_site_symmetry_multiplicity
 _atom_site_fract_x
 _atom_site_fract_y
 _atom_site_fract_z
 _atom_site_occupancy
  Mo  Mo0  1  0.97975800  0.70727600  0.64741800  1
  Mo  Mo1  1  0.02024200  0.29272400  0.35258200  1
  Mo  Mo2  1  0.61552400  0.96036800  0.16059100  1
  Mo  Mo3  1  0.38447600  0.03963200  0.83940900  1
  Ru  Ru4  1  0.68860000  0.64070400  0.34076000  1
  Ru  Ru5  1  0.31140000  0.35929600  0.65924000  1
  Ru  Ru6  1  0.69891400  0.67468500  0.78272400  1
  Ru  Ru7  1  0.30108600  0.32531500  0.21727600  1
  N  N8  1  0.73224500  0.79192200  0.59778000  1
  N  N9  1  0.26775500  0.20807800  0.40222000  1
  N  N10  1  0.81055400  0.38730600  0.36973900  1
  N  N11  1  0.18944600  0.61269400  0.63026100  1
  N  N12  1  0.92802200  0.63516800  0.84022600  1
  N  N13  1  0.07197800  0.36483200  0.15977400  1
  N  N14  1  0.53091900  0.80413400  0.88449900  1
  N  N15  1  0.46908100  0.19586600  0.11550100  1
  N  N16  1  0.83772000  0.88956500  0.24648900  1
  N  N17  1  0.16228000  0.11043500  0.75351100  1
  N  N18  1  0.53348900  0.29423600  0.76436200  1
  N  N19  1  0.46651100  0.70576400  0.23563800  1
