# generated using pymatgen
data_Sr3Ca5Mn8O24
_symmetry_space_group_name_H-M   'P 1'
_cell_length_a   10.89234929
_cell_length_b   15.30637749
_cell_length_c   10.79081341
_cell_angle_alpha   90.00999108
_cell_angle_beta   90.04261710
_cell_angle_gamma   89.99175949
_symmetry_Int_Tables_number   1
_chemical_formula_structural   Sr3Ca5Mn8O24
_chemical_formula_sum   'Sr12 Ca20 Mn32 O96'
_cell_volume   1799.06987500
_cell_formula_units_Z   4
loop_
 _symmetry_equiv_pos_site_id
 _symmetry_equiv_pos_as_xyz
  1  'x, y, z'
loop_
 _atom_site_type_symbol
 _atom_site_label
 _atom_site_symmetry_multiplicity
 _atom_site_fract_x
 _atom_site_fract_y
 _atom_site_fract_z
 _atom_site_occupancy
  Sr  Sr0  1  0.01523482  0.12470358  0.49694016  1
  Sr  Sr1  1  0.01521613  0.12480449  0.99683661  1
  Sr  Sr2  1  0.01599067  0.62530967  0.49750871  1
  Sr  Sr3  1  0.48476418  0.37529642  0.00305984  1
  Sr  Sr4  1  0.48478287  0.37519551  0.50316439  1
  Sr  Sr5  1  0.48400833  0.87469033  0.00249129  1
  Sr  Sr6  1  0.23206265  0.37546628  0.24569074  1
  Sr  Sr7  1  0.23212369  0.37551823  0.74580823  1
  Sr  Sr8  1  0.23226699  0.87450279  0.24680803  1
  Sr  Sr9  1  0.26793735  0.12453372  0.25430826  1
  Sr  Sr10  1  0.26787631  0.12448177  0.75419077  1
  Sr  Sr11  1  0.26773201  0.62549721  0.25319097  1
  Ca  Ca12  1  0.02187166  0.62505738  0.99465485  1
  Ca  Ca13  1  0.52291397  0.12474334  0.49557552  1
  Ca  Ca14  1  0.52277054  0.12482862  0.99590467  1
  Ca  Ca15  1  0.52230233  0.62528969  0.49615544  1
  Ca  Ca16  1  0.52329137  0.62518240  0.99559968  1
  Ca  Ca17  1  0.47812734  0.87494262  0.50534515  1
  Ca  Ca18  1  0.97708603  0.37525666  0.00442348  1
  Ca  Ca19  1  0.97722946  0.37517138  0.50409533  1
  Ca  Ca20  1  0.97769767  0.87471031  0.00384456  1
  Ca  Ca21  1  0.97670863  0.87481760  0.50440032  1
  Ca  Ca22  1  0.22634344  0.87467084  0.74446564  1
  Ca  Ca23  1  0.72998666  0.37496325  0.24649471  1
  Ca  Ca24  1  0.72979422  0.37499847  0.74619111  1
  Ca  Ca25  1  0.72962743  0.87502170  0.24694355  1
  Ca  Ca26  1  0.72826415  0.87503252  0.74515566  1
  Ca  Ca27  1  0.27365556  0.62532916  0.75553536  1
  Ca  Ca28  1  0.77001334  0.12503675  0.25350529  1
  Ca  Ca29  1  0.77020578  0.12500153  0.75380789  1
  Ca  Ca30  1  0.77037257  0.62497830  0.25305645  1
  Ca  Ca31  1  0.77173585  0.62496748  0.75484534  1
  Mn  Mn32  1  0.99715670  0.99822700  0.25094693  1
  Mn  Mn33  1  0.99799655  0.99768347  0.75105240  1
  Mn  Mn34  1  0.99699650  0.49937228  0.24894074  1
  Mn  Mn35  1  0.99886771  0.50032132  0.75153674  1
  Mn  Mn36  1  0.50300350  0.00062772  0.25105926  1
  Mn  Mn37  1  0.50113229  0.99967868  0.74846326  1
  Mn  Mn38  1  0.50284330  0.50177300  0.24905307  1
  Mn  Mn39  1  0.50200345  0.50231653  0.74894760  1
  Mn  Mn40  1  0.25028053  0.99918761  0.99839131  1
  Mn  Mn41  1  0.25061386  0.99858941  0.50122190  1
  Mn  Mn42  1  0.24938614  0.50141059  0.99877810  1
  Mn  Mn43  1  0.24971947  0.50081239  0.50160869  1
  Mn  Mn44  1  0.74983899  0.99956664  0.99967422  1
  Mn  Mn45  1  0.74838955  0.99899503  0.49956263  1
  Mn  Mn46  1  0.75161045  0.50100497  0.00043737  1
  Mn  Mn47  1  0.75016101  0.50043336  0.50032578  1
  Mn  Mn48  1  0.24990101  0.25004075  0.99986579  1
  Mn  Mn49  1  0.25009899  0.24995925  0.50013421  1
  Mn  Mn50  1  0.24970412  0.74940868  0.99694181  1
  Mn  Mn51  1  0.25029588  0.75059132  0.50305819  1
  Mn  Mn52  1  0.75012783  0.25016744  0.99992638  1
  Mn  Mn53  1  0.74987217  0.24983256  0.50007362  1
  Mn  Mn54  1  0.75142178  0.74935475  0.00019055  1
  Mn  Mn55  1  0.74857822  0.75064525  0.49980945  1
  Mn  Mn56  1  0.99717204  0.25155976  0.25084980  1
  Mn  Mn57  1  0.99735222  0.25176857  0.75099713  1
  Mn  Mn58  1  0.99708700  0.75076575  0.24900910  1
  Mn  Mn59  1  0.99955257  0.75019113  0.75154484  1
  Mn  Mn60  1  0.50282796  0.24844024  0.24915020  1
  Mn  Mn61  1  0.50264778  0.24823143  0.74900287  1
  Mn  Mn62  1  0.50291300  0.74923425  0.25099090  1
  Mn  Mn63  1  0.50044743  0.74980887  0.74845516  1
  O  O64  1  0.10304497  0.26857152  0.10538154  1
  O  O65  1  0.10301486  0.26846395  0.60554519  1
  O  O66  1  0.10215463  0.76734310  0.10195707  1
  O  O67  1  0.10495721  0.77155121  0.60644582  1
  O  O68  1  0.61082725  0.26556154  0.10752350  1
  O  O69  1  0.61079841  0.26550538  0.60762571  1
  O  O70  1  0.61041788  0.76628803  0.10817738  1
  O  O71  1  0.60451924  0.76959169  0.60249971  1
  O  O72  1  0.39695503  0.23142748  0.39461946  1
  O  O73  1  0.39698514  0.23153505  0.89445581  1
  O  O74  1  0.39784437  0.73265590  0.39804293  1
  O  O75  1  0.39504179  0.72844779  0.89355518  1
  O  O76  1  0.88917275  0.23443746  0.39247550  1
  O  O77  1  0.88920159  0.23449362  0.89237529  1
  O  O78  1  0.88958212  0.73371097  0.39182362  1
  O  O79  1  0.89548076  0.73040731  0.89750129  1
  O  O80  1  0.14092455  0.23568188  0.35764016  1
  O  O81  1  0.14093480  0.23564377  0.85742950  1
  O  O82  1  0.14099971  0.73527154  0.35855911  1
  O  O83  1  0.14573559  0.73035227  0.85184949  1
  O  O84  1  0.64489759  0.23012847  0.35550947  1
  O  O85  1  0.64478856  0.23015076  0.85546206  1
  O  O86  1  0.64582217  0.72937265  0.35467346  1
  O  O87  1  0.64511711  0.73016149  0.85394981  1
  O  O88  1  0.35907545  0.26431712  0.14235984  1
  O  O89  1  0.35906520  0.26435523  0.64257150  1
  O  O90  1  0.35899929  0.76472746  0.14144089  1
  O  O91  1  0.35426341  0.76964673  0.64815151  1
  O  O92  1  0.85510241  0.26987053  0.14449053  1
  O  O93  1  0.85521144  0.26984824  0.64453794  1
  O  O94  1  0.85417783  0.77062635  0.14532654  1
  O  O95  1  0.85488289  0.76983751  0.64605119  1
  O  O96  1  0.35890670  0.48632003  0.14162660  1
  O  O97  1  0.35732578  0.48717156  0.64441049  1
  O  O98  1  0.35919079  0.98462126  0.14223055  1
  O  O99  1  0.35602617  0.97895340  0.64625438  1
  O  O100  1  0.85422362  0.47943605  0.14526263  1
  O  O101  1  0.85519974  0.48049796  0.64562597  1
  O  O102  1  0.85507368  0.98006991  0.14456175  1
  O  O103  1  0.85487439  0.97980606  0.64492792  1
  O  O104  1  0.14109330  0.01367897  0.35837340  1
  O  O105  1  0.14267422  0.01282744  0.85559051  1
  O  O106  1  0.14080821  0.51537774  0.35776945  1
  O  O107  1  0.14397283  0.52104560  0.85374662  1
  O  O108  1  0.64577638  0.02056295  0.35473737  1
  O  O109  1  0.64480026  0.01950104  0.85437303  1
  O  O110  1  0.64492532  0.51992909  0.35543825  1
  O  O111  1  0.64512461  0.52019294  0.85507308  1
  O  O112  1  0.39842323  0.01690468  0.39743355  1
  O  O113  1  0.39754623  0.01900182  0.89494163  1
  O  O114  1  0.39635902  0.51904235  0.39524338  1
  O  O115  1  0.39445999  0.52096495  0.89315497  1
  O  O116  1  0.88916063  0.01541639  0.39261111  1
  O  O117  1  0.88981249  0.01492125  0.89215300  1
  O  O118  1  0.88953490  0.51642604  0.39171610  1
  O  O119  1  0.89491657  0.52009156  0.89772438  1
  O  O120  1  0.10157677  0.48309432  0.10256745  1
  O  O121  1  0.10245377  0.48099718  0.60505937  1
  O  O122  1  0.10363998  0.98095665  0.10475762  1
  O  O123  1  0.10553901  0.97903405  0.60684603  1
  O  O124  1  0.61083837  0.48458261  0.10738889  1
  O  O125  1  0.61018651  0.48507775  0.60784700  1
  O  O126  1  0.61046510  0.98357296  0.10828490  1
  O  O127  1  0.60508343  0.97990744  0.60227662  1
  O  O128  1  0.00148059  0.37531867  0.28800873  1
  O  O129  1  0.00158020  0.37622341  0.78947658  1
  O  O130  1  0.00173727  0.87468091  0.28824445  1
  O  O131  1  0.00912482  0.87371776  0.78908953  1
  O  O132  1  0.51087892  0.37504418  0.27719355  1
  O  O133  1  0.51048731  0.37533117  0.77697516  1
  O  O134  1  0.51060466  0.87496531  0.28702378  1
  O  O135  1  0.51173585  0.87471960  0.77939480  1
  O  O136  1  0.49851841  0.12468133  0.21199227  1
  O  O137  1  0.49841880  0.12377659  0.71052342  1
  O  O138  1  0.49826273  0.62531909  0.21175655  1
  O  O139  1  0.49087518  0.62628224  0.71091147  1
  O  O140  1  0.98912008  0.12495582  0.22280745  1
  O  O141  1  0.98951169  0.12466883  0.72302484  1
  O  O142  1  0.98939434  0.62503469  0.21297722  1
  O  O143  1  0.98826315  0.62528040  0.72060620  1
  O  O144  1  0.24533226  0.12479430  0.02783569  1
  O  O145  1  0.24636610  0.12417609  0.52851258  1
  O  O146  1  0.23787710  0.62522010  0.02922738  1
  O  O147  1  0.24629493  0.62593536  0.53829852  1
  O  O148  1  0.74275080  0.12487310  0.03722211  1
  O  O149  1  0.74199772  0.12431916  0.53782009  1
  O  O150  1  0.74113946  0.62515233  0.03799031  1
  O  O151  1  0.74167919  0.62567191  0.53833502  1
  O  O152  1  0.25466674  0.37520570  0.47216431  1
  O  O153  1  0.25363290  0.37582391  0.97148742  1
  O  O154  1  0.26212290  0.87477990  0.47077362  1
  O  O155  1  0.25370507  0.87406464  0.96170248  1
  O  O156  1  0.75724820  0.37512690  0.46277789  1
  O  O157  1  0.75800128  0.37568084  0.96217991  1
  O  O158  1  0.75886054  0.87484767  0.46200969  1
  O  O159  1  0.75832081  0.87432809  0.96166598  1
