# generated using pymatgen
data_SrCa7Mn7CrO21
_symmetry_space_group_name_H-M   'P 1'
_cell_length_a   11.02800465
_cell_length_b   15.52988994
_cell_length_c   11.02102014
_cell_angle_alpha   90.04053953
_cell_angle_beta   91.49737624
_cell_angle_gamma   90.47498166
_symmetry_Int_Tables_number   1
_chemical_formula_structural   SrCa7Mn7CrO21
_chemical_formula_sum   'Sr4 Ca28 Mn28 Cr4 O84'
_cell_volume   1886.79049022
_cell_formula_units_Z   4
loop_
 _symmetry_equiv_pos_site_id
 _symmetry_equiv_pos_as_xyz
  1  'x, y, z'
loop_
 _atom_site_type_symbol
 _atom_site_label
 _atom_site_symmetry_multiplicity
 _atom_site_fract_x
 _atom_site_fract_y
 _atom_site_fract_z
 _atom_site_occupancy
  Sr  Sr0  1  0.99658215  0.11082182  0.50873606  1
  Sr  Sr1  1  0.51062022  0.38479618  0.98728561  1
  Sr  Sr2  1  0.24007853  0.38736302  0.24664643  1
  Sr  Sr3  1  0.23079781  0.11981651  0.24217267  1
  Ca  Ca4  1  0.99263070  0.11103895  0.00642681  1
  Ca  Ca5  1  0.00832404  0.62388525  0.51015012  1
  Ca  Ca6  1  0.01214295  0.62156153  0.99413866  1
  Ca  Ca7  1  0.54246177  0.12566597  0.47668600  1
  Ca  Ca8  1  0.54855516  0.12868523  0.98624238  1
  Ca  Ca9  1  0.52921428  0.62997583  0.51239258  1
  Ca  Ca10  1  0.53320104  0.62163733  0.97363360  1
  Ca  Ca11  1  0.49916529  0.38003812  0.51398897  1
  Ca  Ca12  1  0.51777744  0.85924702  0.98264612  1
  Ca  Ca13  1  0.49331056  0.86786440  0.51023742  1
  Ca  Ca14  1  0.96544983  0.38860958  0.00412638  1
  Ca  Ca15  1  0.95832315  0.38936926  0.50240840  1
  Ca  Ca16  1  0.95611444  0.87951800  0.00218591  1
  Ca  Ca17  1  0.96807381  0.87254233  0.51055675  1
  Ca  Ca18  1  0.23510285  0.40619505  0.76232435  1
  Ca  Ca19  1  0.22839019  0.88749962  0.27188136  1
  Ca  Ca20  1  0.22062621  0.87160825  0.73689772  1
  Ca  Ca21  1  0.76070936  0.38489057  0.25203263  1
  Ca  Ca22  1  0.73668075  0.38483870  0.75345041  1
  Ca  Ca23  1  0.76445806  0.86876381  0.25853503  1
  Ca  Ca24  1  0.73891067  0.86698451  0.74962500  1
  Ca  Ca25  1  0.22236179  0.10761089  0.73771396  1
  Ca  Ca26  1  0.23758577  0.62584186  0.26129494  1
  Ca  Ca27  1  0.26832680  0.63085406  0.73842923  1
  Ca  Ca28  1  0.77657597  0.11347330  0.25129968  1
  Ca  Ca29  1  0.78248544  0.12202590  0.75456720  1
  Ca  Ca30  1  0.78130767  0.62193864  0.25237849  1
  Ca  Ca31  1  0.77148644  0.62312531  0.75817772  1
  Mn  Mn32  1  0.99387550  0.99161311  0.75752727  1
  Mn  Mn33  1  0.00211621  0.50256240  0.25256643  1
  Mn  Mn34  1  0.99652557  0.50116688  0.75356109  1
  Mn  Mn35  1  0.50545351  0.98124353  0.22865197  1
  Mn  Mn36  1  0.50775498  0.99330855  0.73606985  1
  Mn  Mn37  1  0.50919126  0.49544648  0.24519342  1
  Mn  Mn38  1  0.49570985  0.50257587  0.74670140  1
  Mn  Mn39  1  0.24171591  0.99911254  0.51465199  1
  Mn  Mn40  1  0.25152757  0.52055736  0.00838376  1
  Mn  Mn41  1  0.23753672  0.49790916  0.50980617  1
  Mn  Mn42  1  0.74296039  0.99952861  0.99531204  1
  Mn  Mn43  1  0.74298371  0.99751621  0.49710665  1
  Mn  Mn44  1  0.75270082  0.50407387  0.00072008  1
  Mn  Mn45  1  0.74377051  0.50441086  0.50270567  1
  Mn  Mn46  1  0.26735555  0.24563767  0.46355410  1
  Mn  Mn47  1  0.25964188  0.75561213  0.97526667  1
  Mn  Mn48  1  0.24856502  0.75149360  0.49863887  1
  Mn  Mn49  1  0.75973854  0.24951599  0.00443254  1
  Mn  Mn50  1  0.74852631  0.25079330  0.50579507  1
  Mn  Mn51  1  0.75412731  0.74646358  0.99989889  1
  Mn  Mn52  1  0.75252669  0.74594694  0.50559822  1
  Mn  Mn53  1  0.99543480  0.25696331  0.76411663  1
  Mn  Mn54  1  0.99795326  0.75034297  0.26311549  1
  Mn  Mn55  1  0.99675897  0.74990265  0.74895279  1
  Mn  Mn56  1  0.52358559  0.25706562  0.25735134  1
  Mn  Mn57  1  0.51155300  0.24808429  0.74995666  1
  Mn  Mn58  1  0.52032843  0.74896072  0.26252030  1
  Mn  Mn59  1  0.50393632  0.74753462  0.74798414  1
  Cr  Cr60  1  0.99374828  0.99562151  0.25335456  1
  Cr  Cr61  1  0.23648815  0.99168610  0.01310833  1
  Cr  Cr62  1  0.26642707  0.23160499  0.94013999  1
  Cr  Cr63  1  0.98517325  0.25311325  0.26906141  1
  O  O64  1  0.09831476  0.77106540  0.60810570  1
  O  O65  1  0.59294849  0.25624911  0.10115801  1
  O  O66  1  0.57600927  0.25108380  0.58749470  1
  O  O67  1  0.59671078  0.75436266  0.10827579  1
  O  O68  1  0.60310330  0.76233277  0.60205726  1
  O  O69  1  0.40380600  0.20081447  0.35053450  1
  O  O70  1  0.39451301  0.18198494  0.85730808  1
  O  O71  1  0.40702510  0.69648137  0.36009036  1
  O  O72  1  0.40885632  0.72989912  0.89694907  1
  O  O73  1  0.90872755  0.24051957  0.40835669  1
  O  O74  1  0.91135346  0.23696573  0.92135541  1
  O  O75  1  0.89302095  0.72997919  0.40734041  1
  O  O76  1  0.89804775  0.73313631  0.90074545  1
  O  O77  1  0.14753036  0.25128913  0.31345853  1
  O  O78  1  0.17852894  0.25275385  0.80111855  1
  O  O79  1  0.15995620  0.74943421  0.33676838  1
  O  O80  1  0.14521345  0.73778109  0.84699733  1
  O  O81  1  0.65950026  0.22020023  0.34688689  1
  O  O82  1  0.65799341  0.22880143  0.85773052  1
  O  O83  1  0.65918492  0.72163746  0.35433257  1
  O  O84  1  0.64914804  0.72780367  0.85485210  1
  O  O85  1  0.35583067  0.76521909  0.64351233  1
  O  O86  1  0.86503312  0.27615287  0.15023995  1
  O  O87  1  0.85837732  0.27608277  0.65095657  1
  O  O88  1  0.86649410  0.76999334  0.14098625  1
  O  O89  1  0.85191222  0.77072605  0.64724102  1
  O  O90  1  0.36104260  0.51686067  0.16014568  1
  O  O91  1  0.35054538  0.49643136  0.64294450  1
  O  O92  1  0.34976809  0.00252588  0.16033870  1
  O  O93  1  0.34712816  0.99604767  0.66302409  1
  O  O94  1  0.86133317  0.48690990  0.14303172  1
  O  O95  1  0.85332241  0.47983963  0.64478602  1
  O  O96  1  0.84545572  0.97791316  0.14075982  1
  O  O97  1  0.85257136  0.97966593  0.64785230  1
  O  O98  1  0.14535452  0.00868937  0.36622431  1
  O  O99  1  0.14971494  0.00288602  0.86109742  1
  O  O100  1  0.14859148  0.51127840  0.35782562  1
  O  O101  1  0.14697140  0.52644037  0.85991195  1
  O  O102  1  0.62556426  0.02346951  0.33986479  1
  O  O103  1  0.63557780  0.03150539  0.84825138  1
  O  O104  1  0.62534943  0.53005659  0.36435067  1
  O  O105  1  0.64071488  0.51430782  0.85743357  1
  O  O106  1  0.38796571  0.51302167  0.89923394  1
  O  O107  1  0.87919145  0.01101396  0.38736133  1
  O  O108  1  0.88716309  0.01153250  0.89592364  1
  O  O109  1  0.88810557  0.52020227  0.39064339  1
  O  O110  1  0.89213806  0.51689718  0.89512475  1
  O  O111  1  0.11148324  0.48153306  0.10401942  1
  O  O112  1  0.09683303  0.47633557  0.61651485  1
  O  O113  1  0.09956574  0.97224411  0.11040107  1
  O  O114  1  0.09781888  0.97835272  0.62138499  1
  O  O115  1  0.61543808  0.49511962  0.10974816  1
  O  O116  1  0.60117570  0.48823731  0.60928320  1
  O  O117  1  0.58756751  0.99225955  0.07767781  1
  O  O118  1  0.59086434  0.99444706  0.58200433  1
  O  O119  1  0.99373151  0.38093735  0.29075353  1
  O  O120  1  0.01480887  0.37906121  0.79836529  1
  O  O121  1  0.99839836  0.87152894  0.29293879  1
  O  O122  1  0.00055433  0.87154519  0.79481280  1
  O  O123  1  0.47821389  0.37823250  0.29136075  1
  O  O124  1  0.48570362  0.37519966  0.76144089  1
  O  O125  1  0.47312828  0.86947709  0.29234835  1
  O  O126  1  0.51788391  0.87077114  0.77626219  1
  O  O127  1  0.48908615  0.62540387  0.72028320  1
  O  O128  1  0.99312157  0.12767885  0.21972087  1
  O  O129  1  0.00194984  0.12839714  0.73521328  1
  O  O130  1  0.00618891  0.62824651  0.21632976  1
  O  O131  1  0.98575262  0.62534897  0.71694827  1
  O  O132  1  0.21352462  0.13584192  0.01862930  1
  O  O133  1  0.23639623  0.12816552  0.53180010  1
  O  O134  1  0.22487004  0.65385990  0.05535493  1
  O  O135  1  0.22906654  0.62586566  0.52384822  1
  O  O136  1  0.75523261  0.12474415  0.03885421  1
  O  O137  1  0.75280306  0.12487610  0.53811411  1
  O  O138  1  0.74944891  0.62555043  0.03571563  1
  O  O139  1  0.74487226  0.62529884  0.54728463  1
  O  O140  1  0.28209559  0.37239019  0.48460988  1
  O  O141  1  0.29311172  0.32664275  0.02191962  1
  O  O142  1  0.28159583  0.88060625  0.47466104  1
  O  O143  1  0.29588643  0.87604677  0.98826574  1
  O  O144  1  0.73885221  0.37811349  0.46427152  1
  O  O145  1  0.75022888  0.37653367  0.97091516  1
  O  O146  1  0.74428792  0.87130088  0.46641044  1
  O  O147  1  0.73993251  0.87269572  0.96509627  1
