# generated using pymatgen
data_NbMoN3
_symmetry_space_group_name_H-M   'P 1'
_cell_length_a   8.49247969
_cell_length_b   5.39935322
_cell_length_c   5.84518091
_cell_angle_alpha   97.99243824
_cell_angle_beta   111.73873506
_cell_angle_gamma   102.02428485
_symmetry_Int_Tables_number   1
_chemical_formula_structural   NbMoN3
_chemical_formula_sum   'Nb4 Mo4 N12'
_cell_volume   236.50518596
_cell_formula_units_Z   4
loop_
 _symmetry_equiv_pos_site_id
 _symmetry_equiv_pos_as_xyz
  1  'x, y, z'
loop_
 _atom_site_type_symbol
 _atom_site_label
 _atom_site_symmetry_multiplicity
 _atom_site_fract_x
 _atom_site_fract_y
 _atom_site_fract_z
 _atom_site_occupancy
  Nb  Nb0  1  0.14827100  0.04329800  0.76067900  1
  Nb  Nb1  1  0.85172900  0.95670200  0.23932100  1
  Nb  Nb2  1  0.91925700  0.47645300  0.71933700  1
  Nb  Nb3  1  0.08074300  0.52354700  0.28066300  1
  Mo  Mo4  1  0.42341700  0.75333000  0.90648700  1
  Mo  Mo5  1  0.57658300  0.24667000  0.09351300  1
  Mo  Mo6  1  0.63135400  0.88814900  0.52038800  1
  Mo  Mo7  1  0.36864600  0.11185100  0.47961200  1
  N  N8  1  0.87886600  0.86780800  0.59161600  1
  N  N9  1  0.12113400  0.13219200  0.40838400  1
  N  N10  1  0.84780900  0.34188200  0.30770300  1
  N  N11  1  0.15219100  0.65811800  0.69229700  1
  N  N12  1  0.63482900  0.24772700  0.51102200  1
  N  N13  1  0.36517100  0.75227300  0.48897800  1
  N  N14  1  0.65001700  0.94522900  0.89091200  1
  N  N15  1  0.34998300  0.05477100  0.10908800  1
  N  N16  1  0.91879000  0.68342000  0.02567100  1
  N  N17  1  0.08121000  0.31658000  0.97432900  1
  N  N18  1  0.45773600  0.37616700  0.79357500  1
  N  N19  1  0.54226400  0.62383300  0.20642500  1
