# generated using pymatgen
data_SrCa7Mn6Cr2O23
_symmetry_space_group_name_H-M   'P 1'
_cell_length_a   7.63631933
_cell_length_b   7.66920445
_cell_length_c   7.69493818
_cell_angle_alpha   89.79614860
_cell_angle_beta   89.83821673
_cell_angle_gamma   89.95129041
_symmetry_Int_Tables_number   1
_chemical_formula_structural   SrCa7Mn6Cr2O23
_chemical_formula_sum   'Sr1 Ca7 Mn6 Cr2 O23'
_cell_volume   450.64535425
_cell_formula_units_Z   1
loop_
 _symmetry_equiv_pos_site_id
 _symmetry_equiv_pos_as_xyz
  1  'x, y, z'
loop_
 _atom_site_type_symbol
 _atom_site_label
 _atom_site_symmetry_multiplicity
 _atom_site_fract_x
 _atom_site_fract_y
 _atom_site_fract_z
 _atom_site_occupancy
  Sr  Sr0  1  0.25623100  0.25681500  0.25094300  1
  Ca  Ca1  1  0.26497600  0.25135400  0.73461400  1
  Ca  Ca2  1  0.26797400  0.72875600  0.26230100  1
  Ca  Ca3  1  0.26299700  0.75096500  0.73730000  1
  Ca  Ca4  1  0.73307700  0.26039300  0.23807700  1
  Ca  Ca5  1  0.73512700  0.26969500  0.73733700  1
  Ca  Ca6  1  0.75438300  0.74824800  0.26083900  1
  Ca  Ca7  1  0.72529400  0.73151900  0.74644600  1
  Mn  Mn8  1  0.99672800  0.00048700  0.51279900  1
  Mn  Mn9  1  0.00181200  0.50979700  0.00508500  1
  Mn  Mn10  1  0.99990500  0.50503800  0.50511700  1
  Mn  Mn11  1  0.50631800  0.00200700  0.49200600  1
  Mn  Mn12  1  0.49991100  0.50192600  0.99658500  1
  Mn  Mn13  1  0.50310500  0.50171100  0.49686400  1
  Cr  Cr14  1  0.99049700  0.99121600  0.97884600  1
  Cr  Cr15  1  0.49841500  0.99729000  0.99253600  1
  O  O16  1  0.94690600  0.93988600  0.76331300  1
  O  O17  1  0.96641200  0.46200600  0.25839100  1
  O  O18  1  0.02828200  0.55388100  0.75667700  1
  O  O19  1  0.44377800  0.97680000  0.24247100  1
  O  O20  1  0.55912500  0.02141800  0.73988700  1
  O  O21  1  0.53182800  0.52580800  0.24588200  1
  O  O22  1  0.47420400  0.47614400  0.74783400  1
  O  O23  1  0.24656100  0.00885500  0.93181800  1
  O  O24  1  0.25163800  0.00496100  0.53720700  1
  O  O25  1  0.25105900  0.49969800  0.03367500  1
  O  O26  1  0.25167500  0.50299700  0.47564200  1
  O  O27  1  0.74919900  0.98309100  0.04867900  1
  O  O28  1  0.75894400  0.01099300  0.42853200  1
  O  O29  1  0.75183500  0.50347400  0.96484600  1
  O  O30  1  0.75210500  0.50640100  0.53596900  1
  O  O31  1  0.99501900  0.21366200  0.02233700  1
  O  O32  1  0.00184400  0.25119100  0.56161200  1
  O  O33  1  0.02270000  0.79103500  0.08589200  1
  O  O34  1  0.00641300  0.75599700  0.44996500  1
  O  O35  1  0.50948500  0.24907700  0.01902000  1
  O  O36  1  0.50790900  0.25223600  0.47545300  1
  O  O37  1  0.49022200  0.75018700  0.95909000  1
  O  O38  1  0.50610400  0.75298400  0.51811400  1
