# generated using pymatgen
data_Zr7(Te2N)4
_symmetry_space_group_name_H-M   'P 1'
_cell_length_a   7.88402370
_cell_length_b   12.70649931
_cell_length_c   10.57138271
_cell_angle_alpha   93.74038376
_cell_angle_beta   65.98740186
_cell_angle_gamma   40.39357671
_symmetry_Int_Tables_number   1
_chemical_formula_structural   Zr7(Te2N)4
_chemical_formula_sum   'Zr7 Te8 N4'
_cell_volume   484.91047148
_cell_formula_units_Z   1
loop_
 _symmetry_equiv_pos_site_id
 _symmetry_equiv_pos_as_xyz
  1  'x, y, z'
loop_
 _atom_site_type_symbol
 _atom_site_label
 _atom_site_symmetry_multiplicity
 _atom_site_fract_x
 _atom_site_fract_y
 _atom_site_fract_z
 _atom_site_occupancy
  Zr  Zr0  1  0.05970000  0.04356200  0.98497900  1
  Zr  Zr1  1  0.01830200  0.58549900  0.71277900  1
  Zr  Zr2  1  0.46586200  0.79927800  0.15651900  1
  Zr  Zr3  1  0.41734500  0.52268400  0.20095000  1
  Zr  Zr4  1  0.75768900  0.51341100  0.33851200  1
  Zr  Zr5  1  0.21627500  0.24619000  0.89554700  1
  Zr  Zr6  1  0.85229300  0.32346500  0.74361900  1
  Te  Te7  1  0.13916400  0.78892100  0.09432700  1
  Te  Te8  1  0.65539800  0.61382100  0.65156900  1
  Te  Te9  1  0.52573800  0.12877300  0.04530500  1
  Te  Te10  1  0.86549100  0.25238600  0.44457900  1
  Te  Te11  1  0.44012100  0.18129400  0.56342200  1
  Te  Te12  1  0.00691400  0.78321000  0.59284700  1
  Te  Te13  1  0.25188100  0.46220300  0.89876900  1
  Te  Te14  1  0.58176600  0.82068600  0.40469200  1
  N  N15  1  0.60759700  0.31210100  0.22944700  1
  N  N16  1  0.50565300  0.84535500  0.96740300  1
  N  N17  1  0.94899900  0.23691000  0.90550600  1
  N  N18  1  0.69131000  0.53665200  0.16542900  1
