# generated using pymatgen
data_Ca8Ti2Mn6O21
_symmetry_space_group_name_H-M   'P 1'
_cell_length_a   7.87978491
_cell_length_b   7.79066900
_cell_length_c   7.77895149
_cell_angle_alpha   90.00000000
_cell_angle_beta   90.20230541
_cell_angle_gamma   90.00000000
_symmetry_Int_Tables_number   1
_chemical_formula_structural   Ca8Ti2Mn6O21
_chemical_formula_sum   'Ca8 Ti2 Mn6 O21'
_cell_volume   477.53748971
_cell_formula_units_Z   1
loop_
 _symmetry_equiv_pos_site_id
 _symmetry_equiv_pos_as_xyz
  1  'x, y, z'
loop_
 _atom_site_type_symbol
 _atom_site_label
 _atom_site_symmetry_multiplicity
 _atom_site_fract_x
 _atom_site_fract_y
 _atom_site_fract_z
 _atom_site_occupancy
  Ca  Ca0  1  0.21829100  0.27512800  0.25538100  1
  Ca  Ca1  1  0.26542500  0.27465700  0.69551100  1
  Ca  Ca2  1  0.21829100  0.72487200  0.25538100  1
  Ca  Ca3  1  0.26542500  0.72534300  0.69551100  1
  Ca  Ca4  1  0.74179400  0.26611400  0.25465300  1
  Ca  Ca5  1  0.74523700  0.23497600  0.70188200  1
  Ca  Ca6  1  0.74179400  0.73388600  0.25465300  1
  Ca  Ca7  1  0.74523700  0.76502400  0.70188200  1
  Ti  Ti8  1  0.02245100  0.00000000  0.99689200  1
  Ti  Ti9  1  0.48918900  0.00000000  0.99657900  1
  Mn  Mn10  1  0.00711700  0.00000000  0.50682700  1
  Mn  Mn11  1  0.98755800  0.50000000  0.01478700  1
  Mn  Mn12  1  0.99596800  0.50000000  0.50845100  1
  Mn  Mn13  1  0.50914400  0.00000000  0.46417100  1
  Mn  Mn14  1  0.48922500  0.50000000  0.99093300  1
  Mn  Mn15  1  0.50307100  0.50000000  0.49442200  1
  O  O16  1  0.95956500  0.00000000  0.77451300  1
  O  O17  1  0.99693300  0.50000000  0.26435700  1
  O  O18  1  0.01647200  0.50000000  0.76369900  1
  O  O19  1  0.62024100  0.00000000  0.18910800  1
  O  O20  1  0.55401000  0.00000000  0.76481500  1
  O  O21  1  0.47727700  0.50000000  0.74169700  1
  O  O22  1  0.25083000  0.00000000  0.03728500  1
  O  O23  1  0.25478800  0.00000000  0.47869600  1
  O  O24  1  0.24708400  0.50000000  0.04750700  1
  O  O25  1  0.26103500  0.50000000  0.47699500  1
  O  O26  1  0.76329000  0.00000000  0.48883100  1
  O  O27  1  0.72933000  0.50000000  0.04672200  1
  O  O28  1  0.74095800  0.50000000  0.49582000  1
  O  O29  1  0.96717500  0.20364500  0.09028900  1
  O  O30  1  0.01178800  0.24767700  0.51158500  1
  O  O31  1  0.96717500  0.79635500  0.09028900  1
  O  O32  1  0.01178800  0.75232300  0.51158500  1
  O  O33  1  0.48671700  0.25349700  0.00419400  1
  O  O34  1  0.50080500  0.25341100  0.46495100  1
  O  O35  1  0.48671700  0.74650200  0.00419400  1
  O  O36  1  0.50080500  0.74658900  0.46495100  1
