# generated using pymatgen
data_Ca8Mn8O21
_symmetry_space_group_name_H-M   'P 1'
_cell_length_a   7.72719132
_cell_length_b   7.76434500
_cell_length_c   7.64980029
_cell_angle_alpha   90.00000000
_cell_angle_beta   86.98401528
_cell_angle_gamma   90.00000000
_symmetry_Int_Tables_number   1
_chemical_formula_structural   Ca8Mn8O21
_chemical_formula_sum   'Ca8 Mn8 O21'
_cell_volume   458.32613929
_cell_formula_units_Z   1
loop_
 _symmetry_equiv_pos_site_id
 _symmetry_equiv_pos_as_xyz
  1  'x, y, z'
loop_
 _atom_site_type_symbol
 _atom_site_label
 _atom_site_symmetry_multiplicity
 _atom_site_fract_x
 _atom_site_fract_y
 _atom_site_fract_z
 _atom_site_occupancy
  Ca  Ca0  1  0.23247600  0.26589200  0.24180700  1
  Ca  Ca1  1  0.26571200  0.26574600  0.70121800  1
  Ca  Ca2  1  0.23247600  0.73410800  0.24180700  1
  Ca  Ca3  1  0.26571200  0.73425400  0.70121800  1
  Ca  Ca4  1  0.75101700  0.25733500  0.25456900  1
  Ca  Ca5  1  0.74880000  0.24763700  0.73547000  1
  Ca  Ca6  1  0.75101700  0.74266500  0.25456900  1
  Ca  Ca7  1  0.74880000  0.75236300  0.73547000  1
  Mn  Mn8  1  0.02174700  0.00000000  0.98730100  1
  Mn  Mn9  1  0.00427700  0.00000000  0.51814800  1
  Mn  Mn10  1  0.99237400  0.50000000  0.01086800  1
  Mn  Mn11  1  0.00116600  0.50000000  0.50313300  1
  Mn  Mn12  1  0.48467000  0.00000000  0.99988700  1
  Mn  Mn13  1  0.51169000  0.00000000  0.47704700  1
  Mn  Mn14  1  0.49914200  0.50000000  0.98976200  1
  Mn  Mn15  1  0.50707100  0.50000000  0.49396900  1
  O  O16  1  0.91135000  0.00000000  0.77586000  1
  O  O17  1  0.00845800  0.50000000  0.25769100  1
  O  O18  1  0.99921800  0.50000000  0.75830400  1
  O  O19  1  0.57992400  0.00000000  0.22057900  1
  O  O20  1  0.50899800  0.00000000  0.74246700  1
  O  O21  1  0.49097500  0.50000000  0.74419300  1
  O  O22  1  0.23015500  0.00000000  0.10440000  1
  O  O23  1  0.25456300  0.00000000  0.51836400  1
  O  O24  1  0.25546200  0.50000000  0.02926000  1
  O  O25  1  0.25805500  0.50000000  0.48661400  1
  O  O26  1  0.76550400  0.00000000  0.46532200  1
  O  O27  1  0.73241200  0.50000000  0.05642300  1
  O  O28  1  0.75053500  0.50000000  0.49597300  1
  O  O29  1  0.97719200  0.23542700  0.03352400  1
  O  O30  1  0.01207900  0.24812000  0.50219700  1
  O  O31  1  0.97719200  0.76457300  0.03352400  1
  O  O32  1  0.01207900  0.75188000  0.50219700  1
  O  O33  1  0.50643200  0.25211100  0.00303800  1
  O  O34  1  0.49741800  0.25642300  0.46039600  1
  O  O35  1  0.50643200  0.74788900  0.00303800  1
  O  O36  1  0.49741800  0.74357700  0.46039600  1
