# generated using pymatgen
data_Ca4TiMn3O10
_symmetry_space_group_name_H-M   'P 1'
_cell_length_a   7.83420246
_cell_length_b   7.76582900
_cell_length_c   8.03857112
_cell_angle_alpha   89.70756664
_cell_angle_beta   90.86174454
_cell_angle_gamma   89.95525156
_symmetry_Int_Tables_number   1
_chemical_formula_structural   Ca4TiMn3O10
_chemical_formula_sum   'Ca8 Ti2 Mn6 O20'
_cell_volume   488.99738150
_cell_formula_units_Z   2
loop_
 _symmetry_equiv_pos_site_id
 _symmetry_equiv_pos_as_xyz
  1  'x, y, z'
loop_
 _atom_site_type_symbol
 _atom_site_label
 _atom_site_symmetry_multiplicity
 _atom_site_fract_x
 _atom_site_fract_y
 _atom_site_fract_z
 _atom_site_occupancy
  Ca  Ca0  1  0.23704000  0.26920600  0.23087100  1
  Ca  Ca1  1  0.21937600  0.29693600  0.70276100  1
  Ca  Ca2  1  0.24807700  0.72812200  0.25463600  1
  Ca  Ca3  1  0.22956200  0.73216600  0.68957100  1
  Ca  Ca4  1  0.74116200  0.25229300  0.29625800  1
  Ca  Ca5  1  0.75223700  0.29800200  0.71511300  1
  Ca  Ca6  1  0.74198800  0.74680000  0.29576000  1
  Ca  Ca7  1  0.76377300  0.73054200  0.71839400  1
  Ti  Ti8  1  0.99107600  0.01514600  0.99335700  1
  Ti  Ti9  1  0.56039900  0.00142800  0.02043700  1
  Mn  Mn10  1  0.00110400  0.99762200  0.51987000  1
  Mn  Mn11  1  0.98347600  0.49707000  0.98219800  1
  Mn  Mn12  1  0.99151300  0.50332400  0.46933200  1
  Mn  Mn13  1  0.49801100  0.00314200  0.53476800  1
  Mn  Mn14  1  0.48641700  0.51899000  0.98499600  1
  Mn  Mn15  1  0.48498800  0.50300600  0.50126000  1
  O  O16  1  0.99949200  0.88029900  0.81181200  1
  O  O17  1  0.92182400  0.48896400  0.21899600  1
  O  O18  1  0.01969400  0.52408400  0.73151300  1
  O  O19  1  0.78438100  0.99821800  0.11453500  1
  O  O20  1  0.58310100  0.00944200  0.79906500  1
  O  O21  1  0.42744800  0.50807300  0.74439900  1
  O  O22  1  0.15732200  0.99040100  0.14898900  1
  O  O23  1  0.25239700  0.02635200  0.57980200  1
  O  O24  1  0.23276900  0.50983300  0.05195900  1
  O  O25  1  0.24914300  0.46976200  0.43767800  1
  O  O26  1  0.74502300  0.96670600  0.48998700  1
  O  O27  1  0.73805300  0.51411900  0.92386500  1
  O  O28  1  0.72944100  0.53064100  0.50662200  1
  O  O29  1  0.00646100  0.23068700  0.91621600  1
  O  O30  1  0.96617700  0.25019900  0.49995200  1
  O  O31  1  0.02430500  0.75393600  0.44927300  1
  O  O32  1  0.49447400  0.21038200  0.10648500  1
  O  O33  1  0.53094200  0.25320400  0.49474400  1
  O  O34  1  0.49979700  0.78505100  0.09406200  1
  O  O35  1  0.45755800  0.75585300  0.47046200  1
