# generated using pymatgen
data_Ca8TiMn7O23
_symmetry_space_group_name_H-M   'P 1'
_cell_length_a   10.89328610
_cell_length_b   15.31942350
_cell_length_c   10.75283597
_cell_angle_alpha   90.03528531
_cell_angle_beta   90.24739828
_cell_angle_gamma   90.06927039
_symmetry_Int_Tables_number   1
_chemical_formula_structural   Ca8TiMn7O23
_chemical_formula_sum   'Ca32 Ti4 Mn28 O92'
_cell_volume   1794.40265559
_cell_formula_units_Z   4
loop_
 _symmetry_equiv_pos_site_id
 _symmetry_equiv_pos_as_xyz
  1  'x, y, z'
loop_
 _atom_site_type_symbol
 _atom_site_label
 _atom_site_symmetry_multiplicity
 _atom_site_fract_x
 _atom_site_fract_y
 _atom_site_fract_z
 _atom_site_occupancy
  Ca  Ca0  1  0.01929155  0.11813790  0.50662701  1
  Ca  Ca1  1  0.01247236  0.11870560  0.99445790  1
  Ca  Ca2  1  0.02022679  0.62565847  0.49754835  1
  Ca  Ca3  1  0.02173188  0.62573429  0.99420352  1
  Ca  Ca4  1  0.52639739  0.12929643  0.50448632  1
  Ca  Ca5  1  0.53553734  0.12234828  0.97334797  1
  Ca  Ca6  1  0.52582682  0.62508020  0.49859726  1
  Ca  Ca7  1  0.52209954  0.62467768  0.99394465  1
  Ca  Ca8  1  0.49287460  0.38455400  0.99610202  1
  Ca  Ca9  1  0.47873609  0.38468387  0.50857453  1
  Ca  Ca10  1  0.48799925  0.86738705  0.99529705  1
  Ca  Ca11  1  0.48138474  0.86477380  0.51487228  1
  Ca  Ca12  1  0.96751881  0.38463985  0.99908296  1
  Ca  Ca13  1  0.97576935  0.38017016  0.50731768  1
  Ca  Ca14  1  0.97409874  0.87185129  0.00401680  1
  Ca  Ca15  1  0.97252234  0.87274042  0.50801903  1
  Ca  Ca16  1  0.23031691  0.38997625  0.25394426  1
  Ca  Ca17  1  0.22502045  0.37895782  0.72968242  1
  Ca  Ca18  1  0.22804322  0.87035744  0.24561695  1
  Ca  Ca19  1  0.22804117  0.87038884  0.74443376  1
  Ca  Ca20  1  0.73059631  0.38459229  0.24495600  1
  Ca  Ca21  1  0.72776607  0.38027136  0.74809625  1
  Ca  Ca22  1  0.73215328  0.86644380  0.24604271  1
  Ca  Ca23  1  0.72760276  0.87158911  0.74580295  1
  Ca  Ca24  1  0.24144807  0.11970421  0.26412639  1
  Ca  Ca25  1  0.27092100  0.11796361  0.73206783  1
  Ca  Ca26  1  0.27390235  0.62658607  0.25634483  1
  Ca  Ca27  1  0.27115757  0.62426961  0.75574929  1
  Ca  Ca28  1  0.77422699  0.11757592  0.25213033  1
  Ca  Ca29  1  0.77518848  0.12365767  0.75662004  1
  Ca  Ca30  1  0.77171752  0.62501417  0.25588526  1
  Ca  Ca31  1  0.77207420  0.62590640  0.75408629  1
  Ti  Ti32  1  0.99694402  0.99358463  0.25087380  1
  Ti  Ti33  1  0.25144193  0.99548586  0.99549277  1
  Ti  Ti34  1  0.25772843  0.24522985  0.96362958  1
  Ti  Ti35  1  0.98598438  0.25094639  0.26919880  1
  Mn  Mn36  1  0.99530586  0.99760352  0.75181953  1
  Mn  Mn37  1  -0.00002083  0.50257727  0.24942939  1
  Mn  Mn38  1  0.00099294  0.50077355  0.75012541  1
  Mn  Mn39  1  0.50742698  0.98696211  0.24260853  1
  Mn  Mn40  1  0.50174535  0.99885322  0.74744703  1
  Mn  Mn41  1  0.49942840  0.50383097  0.25161238  1
  Mn  Mn42  1  0.50006420  0.50146448  0.75034190  1
  Mn  Mn43  1  0.24215009  0.99336077  0.50497259  1
  Mn  Mn44  1  0.24976625  0.50173380  0.00393955  1
  Mn  Mn45  1  0.25063542  0.50319425  0.50039995  1
  Mn  Mn46  1  0.74959556  0.99819561  0.99657956  1
  Mn  Mn47  1  0.74634997  0.00065454  0.50196591  1
  Mn  Mn48  1  0.74891210  0.50315031  0.00082375  1
  Mn  Mn49  1  0.75103460  0.50043600  0.50032102  1
  Mn  Mn50  1  0.25181143  0.25087175  0.49284626  1
  Mn  Mn51  1  0.25053410  0.74788229  0.00209185  1
  Mn  Mn52  1  0.25035263  0.74898121  0.50004519  1
  Mn  Mn53  1  0.75084564  0.25025950  0.99872106  1
  Mn  Mn54  1  0.74902541  0.25019351  0.50594562  1
  Mn  Mn55  1  0.75017718  0.74888186  0.00052866  1
  Mn  Mn56  1  0.75070867  0.74914994  0.49999086  1
  Mn  Mn57  1  0.99515960  0.25118523  0.74402416  1
  Mn  Mn58  1  0.00071168  0.74737691  0.25040066  1
  Mn  Mn59  1  0.00079871  0.74966747  0.75060751  1
  Mn  Mn60  1  0.51889325  0.25627558  0.26056771  1
  Mn  Mn61  1  0.50521040  0.25057008  0.74273107  1
  Mn  Mn62  1  0.49952441  0.74788323  0.25180508  1
  Mn  Mn63  1  0.50003309  0.74767241  0.75122303  1
  O  O64  1  0.09836823  0.26640329  0.59886434  1
  O  O65  1  0.10600448  0.77194537  0.10491233  1
  O  O66  1  0.10615415  0.77257184  0.60319532  1
  O  O67  1  0.58937012  0.25944626  0.10054503  1
  O  O68  1  0.59804101  0.26953886  0.59360619  1
  O  O69  1  0.60730396  0.77214697  0.10886972  1
  O  O70  1  0.60787902  0.76570780  0.60661613  1
  O  O71  1  0.39954315  0.21043198  0.36225456  1
  O  O72  1  0.40561446  0.23108788  0.89067682  1
  O  O73  1  0.39623085  0.72633659  0.39751462  1
  O  O74  1  0.39688736  0.73068229  0.89803859  1
  O  O75  1  0.89743760  0.22968768  0.40682610  1
  O  O76  1  0.90064763  0.23420453  0.90382430  1
  O  O77  1  0.89683550  0.72992624  0.39559050  1
  O  O78  1  0.89579109  0.73006814  0.89619570  1
  O  O79  1  0.15034763  0.24281070  0.33798360  1
  O  O80  1  0.14533012  0.22990814  0.84316918  1
  O  O81  1  0.14700167  0.73043999  0.35162463  1
  O  O82  1  0.14764973  0.73085750  0.85329187  1
  O  O83  1  0.65608798  0.22247903  0.35271604  1
  O  O84  1  0.65010446  0.22889534  0.84968244  1
  O  O85  1  0.64650408  0.72858037  0.35390517  1
  O  O86  1  0.64480524  0.72903151  0.85595629  1
  O  O87  1  0.35325239  0.26612055  0.64158141  1
  O  O88  1  0.35771625  0.77307150  0.14597679  1
  O  O89  1  0.35491826  0.76931971  0.64606572  1
  O  O90  1  0.85893105  0.27142778  0.14546458  1
  O  O91  1  0.84822610  0.27377881  0.65114999  1
  O  O92  1  0.85732562  0.76989575  0.14492015  1
  O  O93  1  0.85667167  0.77132030  0.64526948  1
  O  O94  1  0.35675968  0.48460659  0.14838769  1
  O  O95  1  0.35540728  0.48179520  0.64526804  1
  O  O96  1  0.35354944  0.99799951  0.16386858  1
  O  O97  1  0.35390438  0.98052836  0.64482114  1
  O  O98  1  0.85573806  0.48118727  0.14527196  1
  O  O99  1  0.85662292  0.47879147  0.64541041  1
  O  O100  1  0.85185763  0.98140196  0.14570567  1
  O  O101  1  0.85068756  0.97737779  0.64846241  1
  O  O102  1  0.14030813  0.01021859  0.35928678  1
  O  O103  1  0.14544803  0.02518391  0.86135308  1
  O  O104  1  0.14761129  0.52037964  0.35131298  1
  O  O105  1  0.14898434  0.51452019  0.85336462  1
  O  O106  1  0.62562646  0.02980932  0.35542152  1
  O  O107  1  0.64818085  0.02026091  0.84906896  1
  O  O108  1  0.64674580  0.51931490  0.35368841  1
  O  O109  1  0.64534464  0.52100365  0.85527730  1
  O  O110  1  0.39444934  0.02159486  0.89723280  1
  O  O111  1  0.39618076  0.52297714  0.39757429  1
  O  O112  1  0.39681677  0.51350282  0.89882628  1
  O  O113  1  0.88769391  0.02086501  0.39392231  1
  O  O114  1  0.89499102  0.01673673  0.89887289  1
  O  O115  1  0.89819233  0.51840446  0.39616166  1
  O  O116  1  0.89632752  0.51789222  0.89716054  1
  O  O117  1  0.10236112  0.48154366  0.10473457  1
  O  O118  1  0.10637190  0.47996682  0.60343184  1
  O  O119  1  0.10707216  0.98466767  0.10785128  1
  O  O120  1  0.09674584  0.98112467  0.61207333  1
  O  O121  1  0.60688980  0.48176209  0.10831637  1
  O  O122  1  0.60746555  0.48213882  0.60516699  1
  O  O123  1  0.60179108  0.98625399  0.09372446  1
  O  O124  1  0.59744790  0.98092374  0.59781664  1
  O  O125  1  0.01083731  0.37627940  0.27846598  1
  O  O126  1  0.01277149  0.37496194  0.78707250  1
  O  O127  1  0.00482186  0.87256457  0.28552109  1
  O  O128  1  0.01247588  0.87472049  0.79218387  1
  O  O129  1  0.49853018  0.37775820  0.28498350  1
  O  O130  1  0.50937929  0.37499950  0.78171225  1
  O  O131  1  0.50779969  0.87182614  0.29946182  1
  O  O132  1  0.50922660  0.87433592  0.78364209  1
  O  O133  1  0.49083106  0.12439611  0.71434405  1
  O  O134  1  0.49096397  0.62731807  0.20896082  1
  O  O135  1  0.48861442  0.62462402  0.71412584  1
  O  O136  1  0.99928758  0.13021875  0.21571555  1
  O  O137  1  0.98647695  0.12518283  0.71465466  1
  O  O138  1  0.98869383  0.62537470  0.20901067  1
  O  O139  1  0.99117092  0.62498236  0.71310138  1
  O  O140  1  0.23323492  0.15095457  0.06214981  1
  O  O141  1  0.24844904  0.12021815  0.51594873  1
  O  O142  1  0.23957754  0.62755091  0.03916218  1
  O  O143  1  0.23666914  0.62614242  0.54041626  1
  O  O144  1  0.74468036  0.12482902  0.03747323  1
  O  O145  1  0.74087518  0.12573292  0.54390212  1
  O  O146  1  0.74036872  0.62588098  0.03973389  1
  O  O147  1  0.74498482  0.62452388  0.53788651  1
  O  O148  1  0.26491725  0.37663193  0.46439905  1
  O  O149  1  0.25516402  0.35853516  0.01297930  1
  O  O150  1  0.26846859  0.87456341  0.45811738  1
  O  O151  1  0.26307554  0.87882321  0.96785558  1
  O  O152  1  0.75844560  0.37398436  0.45982310  1
  O  O153  1  0.74885496  0.37539043  0.96604253  1
  O  O154  1  0.75541344  0.87559243  0.46078226  1
  O  O155  1  0.75566573  0.87450656  0.96194462  1
