# generated using pymatgen
data_AlP2H4O8F
_symmetry_space_group_name_H-M   'P 1'
_cell_length_a   4.70622800
_cell_length_b   8.91365783
_cell_length_c   15.58733147
_cell_angle_alpha   95.32128370
_cell_angle_beta   90.00000000
_cell_angle_gamma   90.00000000
_symmetry_Int_Tables_number   1
_chemical_formula_structural   AlP2H4O8F
_chemical_formula_sum   'Al4 P8 H16 O32 F4'
_cell_volume   651.06594022
_cell_formula_units_Z   4
loop_
 _symmetry_equiv_pos_site_id
 _symmetry_equiv_pos_as_xyz
  1  'x, y, z'
loop_
 _atom_site_type_symbol
 _atom_site_label
 _atom_site_symmetry_multiplicity
 _atom_site_fract_x
 _atom_site_fract_y
 _atom_site_fract_z
 _atom_site_occupancy
  Al  Al0  1  0.22133700  0.13075000  0.79770300  1
  Al  Al1  1  0.27866300  0.13075000  0.29770300  1
  Al  Al2  1  0.72133700  0.86925000  0.70229700  1
  Al  Al3  1  0.77866300  0.86925000  0.20229700  1
  P  P4  1  0.04527900  0.13452400  0.10927000  1
  P  P5  1  0.21141600  0.65067300  0.64140500  1
  P  P6  1  0.28858400  0.65067300  0.14140500  1
  P  P7  1  0.45472100  0.13452400  0.60927000  1
  P  P8  1  0.54527900  0.86547600  0.39073000  1
  P  P9  1  0.71141600  0.34932700  0.85859500  1
  P  P10  1  0.78858400  0.34932700  0.35859500  1
  P  P11  1  0.95472100  0.86547600  0.89073000  1
  H  H12  1  0.16843300  0.60223700  0.00476700  1
  H  H13  1  0.13346500  0.79093200  0.43881100  1
  H  H14  1  0.21487600  0.48234400  0.73334300  1
  H  H15  1  0.24322000  0.09067000  0.98230500  1
  H  H16  1  0.25678000  0.09067000  0.48230500  1
  H  H17  1  0.28512400  0.48234400  0.23334300  1
  H  H18  1  0.36653600  0.79093200  0.93881100  1
  H  H19  1  0.33156700  0.60223700  0.50476700  1
  H  H20  1  0.66843300  0.39776300  0.49523300  1
  H  H21  1  0.63346400  0.20906800  0.06118900  1
  H  H22  1  0.71487600  0.51765600  0.76665700  1
  H  H23  1  0.74322000  0.90933000  0.51769500  1
  H  H24  1  0.75678000  0.90933000  0.01769500  1
  H  H25  1  0.78512400  0.51765600  0.26665700  1
  H  H26  1  0.86653600  0.20906800  0.56118900  1
  H  H27  1  0.83156700  0.39776300  0.99523300  1
  O  O28  1  0.00798700  0.69971400  0.18316900  1
  O  O29  1  0.00472900  0.77898100  0.62806700  1
  O  O30  1  0.08825400  0.02384400  0.89294000  1
  O  O31  1  0.07159700  0.53305200  0.69933600  1
  O  O32  1  0.14464600  0.20330200  0.19546900  1
  O  O33  1  0.17073600  0.74996600  0.92834100  1
  O  O34  1  0.19499600  0.12100700  0.54379300  1
  O  O35  1  0.26089600  0.54991600  0.55368500  1
  O  O36  1  0.23910400  0.54991600  0.05368500  1
  O  O37  1  0.30500400  0.12100700  0.04379300  1
  O  O38  1  0.32926400  0.74996600  0.42834100  1
  O  O39  1  0.35535400  0.20330200  0.69546900  1
  O  O40  1  0.42840300  0.53305200  0.19933600  1
  O  O41  1  0.41174600  0.02384400  0.39294000  1
  O  O42  1  0.49527100  0.77898100  0.12806700  1
  O  O43  1  0.49201300  0.69971400  0.68316900  1
  O  O44  1  0.50798700  0.30028600  0.31683100  1
  O  O45  1  0.50472900  0.22101900  0.87193300  1
  O  O46  1  0.58825400  0.97615600  0.60706000  1
  O  O47  1  0.57159700  0.46694800  0.80066400  1
  O  O48  1  0.64464600  0.79669800  0.30453100  1
  O  O49  1  0.67073600  0.25003400  0.57165900  1
  O  O50  1  0.69499600  0.87899300  0.95620700  1
  O  O51  1  0.76089600  0.45008400  0.94631500  1
  O  O52  1  0.73910400  0.45008400  0.44631500  1
  O  O53  1  0.80500400  0.87899300  0.45620700  1
  O  O54  1  0.82926400  0.25003400  0.07165900  1
  O  O55  1  0.85535400  0.79669800  0.80453100  1
  O  O56  1  0.92840300  0.46694800  0.30066400  1
  O  O57  1  0.91174600  0.97615600  0.10706000  1
  O  O58  1  0.99527100  0.22101900  0.37193300  1
  O  O59  1  0.99201300  0.30028600  0.81683100  1
  F  F60  1  0.06216000  0.95914100  0.27273300  1
  F  F61  1  0.43784000  0.95914100  0.77273300  1
  F  F62  1  0.56216000  0.04085900  0.22726700  1
  F  F63  1  0.93784000  0.04085900  0.72726700  1
