# generated using pymatgen
data_Ca8Ti3Mn5O23
_symmetry_space_group_name_H-M   'P 1'
_cell_length_a   10.93632409
_cell_length_b   15.41561241
_cell_length_c   10.77490483
_cell_angle_alpha   90.09028025
_cell_angle_beta   90.44025952
_cell_angle_gamma   90.04874530
_symmetry_Int_Tables_number   1
_chemical_formula_structural   Ca8Ti3Mn5O23
_chemical_formula_sum   'Ca32 Ti12 Mn20 O92'
_cell_volume   1816.48608394
_cell_formula_units_Z   4
loop_
 _symmetry_equiv_pos_site_id
 _symmetry_equiv_pos_as_xyz
  1  'x, y, z'
loop_
 _atom_site_type_symbol
 _atom_site_label
 _atom_site_symmetry_multiplicity
 _atom_site_fract_x
 _atom_site_fract_y
 _atom_site_fract_z
 _atom_site_occupancy
  Ca  Ca0  1  0.01331196  0.12132123  0.50421182  1
  Ca  Ca1  1  0.01431951  0.11815058  0.99672384  1
  Ca  Ca2  1  0.02031236  0.62578735  0.49897279  1
  Ca  Ca3  1  0.01433604  0.62613268  0.99408088  1
  Ca  Ca4  1  0.53034229  0.13175298  0.50586220  1
  Ca  Ca5  1  0.53709307  0.12280514  0.97369185  1
  Ca  Ca6  1  0.52636075  0.62444680  0.49785114  1
  Ca  Ca7  1  0.52671490  0.62539726  0.99349047  1
  Ca  Ca8  1  0.49518570  0.38224617  0.99526387  1
  Ca  Ca9  1  0.48034473  0.38402419  0.50710843  1
  Ca  Ca10  1  0.48929945  0.87024755  0.99680542  1
  Ca  Ca11  1  0.48352888  0.86447530  0.51282477  1
  Ca  Ca12  1  0.96590519  0.38607019  0.99851229  1
  Ca  Ca13  1  0.97454930  0.38117305  0.50606434  1
  Ca  Ca14  1  0.97302699  0.86961098  0.00329957  1
  Ca  Ca15  1  0.96857694  0.86936316  0.50596121  1
  Ca  Ca16  1  0.23305069  0.39042179  0.25669254  1
  Ca  Ca17  1  0.22836104  0.38303026  0.73717386  1
  Ca  Ca18  1  0.23052155  0.87293138  0.24612803  1
  Ca  Ca19  1  0.23196042  0.86643009  0.74837795  1
  Ca  Ca20  1  0.72714876  0.38287010  0.24390443  1
  Ca  Ca21  1  0.72367128  0.37894502  0.74655271  1
  Ca  Ca22  1  0.72814694  0.86679288  0.24605493  1
  Ca  Ca23  1  0.72439836  0.87150496  0.74446396  1
  Ca  Ca24  1  0.24503960  0.12115737  0.26405742  1
  Ca  Ca25  1  0.27749621  0.11924420  0.73908711  1
  Ca  Ca26  1  0.27737081  0.62658859  0.26214238  1
  Ca  Ca27  1  0.27220184  0.62500336  0.75161031  1
  Ca  Ca28  1  0.77433267  0.11868029  0.25382428  1
  Ca  Ca29  1  0.76716985  0.12539114  0.75321512  1
  Ca  Ca30  1  0.76421516  0.62531326  0.25296525  1
  Ca  Ca31  1  0.77209481  0.62567154  0.75533341  1
  Ti  Ti32  1  0.99599542  0.99552466  0.24930535  1
  Ti  Ti33  1  0.98871801  0.99697868  0.75598465  1
  Ti  Ti34  1  0.99660350  0.50194051  0.25044604  1
  Ti  Ti35  1  0.25140750  0.99604697  0.99655160  1
  Ti  Ti36  1  0.23230113  0.99168354  0.51196793  1
  Ti  Ti37  1  0.24994823  0.50369182  0.00574882  1
  Ti  Ti38  1  0.25733240  0.24523323  0.96721281  1
  Ti  Ti39  1  0.24572645  0.25348257  0.50066522  1
  Ti  Ti40  1  0.25156640  0.74698394  0.00353129  1
  Ti  Ti41  1  0.98791497  0.25032824  0.26750519  1
  Ti  Ti42  1  0.98888701  0.25192873  0.74882720  1
  Ti  Ti43  1  0.99908627  0.74842765  0.25175868  1
  Mn  Mn44  1  0.00064270  0.50112494  0.74929680  1
  Mn  Mn45  1  0.50680219  0.98964614  0.24452704  1
  Mn  Mn46  1  0.50249870  0.99915650  0.74857227  1
  Mn  Mn47  1  0.50009267  0.50358064  0.25161287  1
  Mn  Mn48  1  0.50059590  0.50140881  0.74928897  1
  Mn  Mn49  1  0.25174192  0.50386460  0.50055908  1
  Mn  Mn50  1  0.74781279  0.99817659  0.99929729  1
  Mn  Mn51  1  0.74521850  0.00052890  0.50022462  1
  Mn  Mn52  1  0.74741418  0.50163325  0.99941388  1
  Mn  Mn53  1  0.75027744  0.50059544  0.50207146  1
  Mn  Mn54  1  0.25220356  0.74817555  0.49994122  1
  Mn  Mn55  1  0.75039387  0.24959887  0.00064785  1
  Mn  Mn56  1  0.74730424  0.25164816  0.50163247  1
  Mn  Mn57  1  0.74880809  0.75020258  0.99973381  1
  Mn  Mn58  1  0.74991690  0.74838460  0.50193076  1
  Mn  Mn59  1  0.00092276  0.74901928  0.74998478  1
  Mn  Mn60  1  0.51534475  0.25578361  0.26095340  1
  Mn  Mn61  1  0.50459116  0.25124457  0.74484971  1
  Mn  Mn62  1  0.50050749  0.74817887  0.25301899  1
  Mn  Mn63  1  0.50146196  0.74739181  0.75102702  1
  O  O64  1  0.10275432  0.26445757  0.59334733  1
  O  O65  1  0.10804136  0.77113056  0.10528766  1
  O  O66  1  0.10611722  0.77199540  0.60424342  1
  O  O67  1  0.58808224  0.26047912  0.10235177  1
  O  O68  1  0.60187765  0.27002705  0.59399042  1
  O  O69  1  0.60577299  0.77125437  0.10637123  1
  O  O70  1  0.60745130  0.76662899  0.60710057  1
  O  O71  1  0.39682506  0.21150698  0.36766197  1
  O  O72  1  0.40320917  0.22826053  0.89861108  1
  O  O73  1  0.39657403  0.72555027  0.39695245  1
  O  O74  1  0.39468112  0.73165887  0.89491328  1
  O  O75  1  0.89990158  0.22991076  0.40363752  1
  O  O76  1  0.90261954  0.23211597  0.89808285  1
  O  O77  1  0.89396336  0.73228149  0.39552564  1
  O  O78  1  0.89739616  0.73174062  0.89620527  1
  O  O79  1  0.15080656  0.24072534  0.33678821  1
  O  O80  1  0.14975887  0.22898982  0.84252493  1
  O  O81  1  0.14605304  0.73206770  0.35505888  1
  O  O82  1  0.14624939  0.73115404  0.85495700  1
  O  O83  1  0.65626722  0.22359517  0.35163615  1
  O  O84  1  0.65171060  0.23051193  0.85384617  1
  O  O85  1  0.64593073  0.72863871  0.35408857  1
  O  O86  1  0.64552164  0.72902401  0.85489873  1
  O  O87  1  0.35155288  0.26541837  0.63810677  1
  O  O88  1  0.35631133  0.76945354  0.14528915  1
  O  O89  1  0.35538377  0.76918801  0.64495427  1
  O  O90  1  0.86427492  0.27232693  0.14419622  1
  O  O91  1  0.85198746  0.27205051  0.64851381  1
  O  O92  1  0.85705793  0.76956176  0.14356219  1
  O  O93  1  0.85714698  0.77204035  0.64696170  1
  O  O94  1  0.35680636  0.48614543  0.14592991  1
  O  O95  1  0.35536483  0.48130694  0.64429748  1
  O  O96  1  0.35237236  0.99870829  0.16053923  1
  O  O97  1  0.35637152  0.98343285  0.64042525  1
  O  O98  1  0.85556262  0.48150747  0.14362419  1
  O  O99  1  0.85665260  0.47704367  0.64655900  1
  O  O100  1  0.85294832  0.97987756  0.14628139  1
  O  O101  1  0.85326753  0.97944313  0.64564440  1
  O  O102  1  0.14587757  0.01210696  0.35728142  1
  O  O103  1  0.14640803  0.02525566  0.86041183  1
  O  O104  1  0.14718731  0.51879929  0.35497230  1
  O  O105  1  0.14737681  0.51485947  0.85493464  1
  O  O106  1  0.63005684  0.02913101  0.35818132  1
  O  O107  1  0.64841645  0.02008305  0.84939987  1
  O  O108  1  0.64727144  0.51891774  0.35303410  1
  O  O109  1  0.64496172  0.52090933  0.85384924  1
  O  O110  1  0.39410847  0.02218402  0.89627282  1
  O  O111  1  0.39691476  0.52254747  0.39534505  1
  O  O112  1  0.39307702  0.51231495  0.89548732  1
  O  O113  1  0.89090752  0.02106368  0.39383637  1
  O  O114  1  0.89505687  0.01644761  0.89665954  1
  O  O115  1  0.89567403  0.51646718  0.39565167  1
  O  O116  1  0.89692039  0.51745138  0.89739208  1
  O  O117  1  0.10526632  0.48244594  0.10442244  1
  O  O118  1  0.10586010  0.47971033  0.60554067  1
  O  O119  1  0.10604880  0.98329704  0.10477555  1
  O  O120  1  0.10065308  0.97730908  0.60631336  1
  O  O121  1  0.60634825  0.48115383  0.10600063  1
  O  O122  1  0.60652527  0.48080168  0.60497087  1
  O  O123  1  0.60318514  0.98591132  0.09532298  1
  O  O124  1  0.59945678  0.98028968  0.59925599  1
  O  O125  1  0.01435327  0.37444383  0.27778960  1
  O  O126  1  0.01449602  0.37481393  0.78498869  1
  O  O127  1  0.00828502  0.87548573  0.28639484  1
  O  O128  1  0.01359323  0.87474397  0.78860276  1
  O  O129  1  0.49627803  0.37798108  0.28571950  1
  O  O130  1  0.50717116  0.37494122  0.78252824  1
  O  O131  1  0.50579066  0.87220879  0.29625965  1
  O  O132  1  0.50721220  0.87463261  0.78410339  1
  O  O133  1  0.49364094  0.12595934  0.71572199  1
  O  O134  1  0.49200102  0.62547558  0.20818797  1
  O  O135  1  0.48794199  0.62378970  0.71406828  1
  O  O136  1  0.99883984  0.12814008  0.21427923  1
  O  O137  1  0.98878853  0.12397346  0.71454277  1
  O  O138  1  0.99146823  0.62539016  0.21363700  1
  O  O139  1  0.98910321  0.62484232  0.71146626  1
  O  O140  1  0.22878742  0.15010811  0.06251933  1
  O  O141  1  0.24539180  0.11971331  0.51904652  1
  O  O142  1  0.23935952  0.62483986  0.03860425  1
  O  O143  1  0.23549560  0.62607973  0.53977363  1
  O  O144  1  0.74586817  0.12420734  0.03879957  1
  O  O145  1  0.74349338  0.12645879  0.54157387  1
  O  O146  1  0.74299722  0.62578210  0.03739875  1
  O  O147  1  0.74424175  0.62336583  0.53863428  1
  O  O148  1  0.26399288  0.37407834  0.46445508  1
  O  O149  1  0.25544205  0.36108990  0.00754576  1
  O  O150  1  0.26970767  0.87740271  0.45831965  1
  O  O151  1  0.26415417  0.87917267  0.96823526  1
  O  O152  1  0.75999859  0.37422680  0.45847075  1
  O  O153  1  0.75135579  0.37536544  0.96493421  1
  O  O154  1  0.75504800  0.87607521  0.46141036  1
  O  O155  1  0.75630600  0.87481116  0.96119986  1
