# generated using pymatgen
data_SrCa7Mn6Al2O20
_symmetry_space_group_name_H-M   'P 1'
_cell_length_a   7.76141260
_cell_length_b   7.75122159
_cell_length_c   7.64806146
_cell_angle_alpha   89.98339144
_cell_angle_beta   90.23763300
_cell_angle_gamma   89.70127937
_symmetry_Int_Tables_number   1
_chemical_formula_structural   SrCa7Mn6Al2O20
_chemical_formula_sum   'Sr1 Ca7 Mn6 Al2 O20'
_cell_volume   460.10042504
_cell_formula_units_Z   1
loop_
 _symmetry_equiv_pos_site_id
 _symmetry_equiv_pos_as_xyz
  1  'x, y, z'
loop_
 _atom_site_type_symbol
 _atom_site_label
 _atom_site_symmetry_multiplicity
 _atom_site_fract_x
 _atom_site_fract_y
 _atom_site_fract_z
 _atom_site_occupancy
  Sr  Sr0  1  0.26985600  0.25957900  0.23860900  1
  Ca  Ca1  1  0.20522500  0.24024800  0.74143000  1
  Ca  Ca2  1  0.30577900  0.74056800  0.22310400  1
  Ca  Ca3  1  0.21154800  0.74905700  0.73674100  1
  Ca  Ca4  1  0.75310100  0.26503900  0.24609500  1
  Ca  Ca5  1  0.74458900  0.26342300  0.73655300  1
  Ca  Ca6  1  0.75869000  0.74414700  0.24090400  1
  Ca  Ca7  1  0.73571100  0.73669300  0.74067800  1
  Mn  Mn8  1  0.98963800  0.50298400  0.97735900  1
  Mn  Mn9  1  0.98356100  0.50662900  0.48543600  1
  Mn  Mn10  1  0.50741700  0.99947300  0.99028400  1
  Mn  Mn11  1  0.48713700  0.99828600  0.52438800  1
  Mn  Mn12  1  0.50594400  0.49845600  0.99480900  1
  Mn  Mn13  1  0.48649900  0.50414400  0.49433500  1
  Al  Al14  1  0.02064400  0.99532400  0.01442200  1
  Al  Al15  1  0.00494300  0.99748200  0.46425900  1
  O  O16  1  0.94384800  0.49518800  0.23068200  1
  O  O17  1  0.04404500  0.49768300  0.72900700  1
  O  O18  1  0.53150200  0.98144400  0.26434000  1
  O  O19  1  0.59998400  0.00664900  0.75398500  1
  O  O20  1  0.53528400  0.51399700  0.24654500  1
  O  O21  1  0.24635000  0.99217000  0.98982400  1
  O  O22  1  0.21865800  0.99571700  0.54709500  1
  O  O23  1  0.25187500  0.50540600  0.00342100  1
  O  O24  1  0.23566400  0.52321000  0.44066700  1
  O  O25  1  0.96600100  0.00074000  0.23706300  1
  O  O26  1  0.73875900  0.49590300  0.92726700  1
  O  O27  1  0.72769200  0.49590600  0.53509400  1
  O  O28  1  0.96284700  0.20091600  0.93621900  1
  O  O29  1  0.93380600  0.20723800  0.51446100  1
  O  O30  1  0.95431000  0.79210500  0.94192100  1
  O  O31  1  0.92021300  0.79516800  0.51666000  1
  O  O32  1  0.51484100  0.24782800  0.00884400  1
  O  O33  1  0.46387400  0.25650600  0.53454200  1
  O  O34  1  0.51396800  0.74959100  0.98722400  1
  O  O35  1  0.47619500  0.74510500  0.55573300  1
