# generated using pymatgen
data_Ca8Ti2Mn6O23
_symmetry_space_group_name_H-M   'P 1'
_cell_length_a   10.91620062
_cell_length_b   15.41042678
_cell_length_c   10.76471905
_cell_angle_alpha   90.06599013
_cell_angle_beta   90.33636845
_cell_angle_gamma   90.03144056
_symmetry_Int_Tables_number   1
_chemical_formula_structural   Ca8Ti2Mn6O23
_chemical_formula_sum   'Ca32 Ti8 Mn24 O92'
_cell_volume   1810.84398785
_cell_formula_units_Z   4
loop_
 _symmetry_equiv_pos_site_id
 _symmetry_equiv_pos_as_xyz
  1  'x, y, z'
loop_
 _atom_site_type_symbol
 _atom_site_label
 _atom_site_symmetry_multiplicity
 _atom_site_fract_x
 _atom_site_fract_y
 _atom_site_fract_z
 _atom_site_occupancy
  Ca  Ca0  1  0.00932875  0.11975432  0.50494118  1
  Ca  Ca1  1  0.01194044  0.11748467  0.99912940  1
  Ca  Ca2  1  0.01982701  0.62567981  0.49626733  1
  Ca  Ca3  1  0.02206094  0.62553835  0.99556016  1
  Ca  Ca4  1  0.52892669  0.13201160  0.50465977  1
  Ca  Ca5  1  0.53697625  0.12265922  0.97320800  1
  Ca  Ca6  1  0.52658086  0.62456677  0.49826102  1
  Ca  Ca7  1  0.52220301  0.62447419  0.99330789  1
  Ca  Ca8  1  0.49161914  0.38459583  0.99713641  1
  Ca  Ca9  1  0.48146297  0.38510716  0.50670092  1
  Ca  Ca10  1  0.48801578  0.86654387  0.99591283  1
  Ca  Ca11  1  0.48385258  0.86370210  0.51367556  1
  Ca  Ca12  1  0.96782102  0.38750609  0.00104122  1
  Ca  Ca13  1  0.97484772  0.38285745  0.50428606  1
  Ca  Ca14  1  0.97331185  0.86864715  0.00538711  1
  Ca  Ca15  1  0.96872927  0.86801823  0.50492280  1
  Ca  Ca16  1  0.23109885  0.39100737  0.25255408  1
  Ca  Ca17  1  0.22978918  0.38415771  0.73966786  1
  Ca  Ca18  1  0.22853625  0.87051133  0.24497353  1
  Ca  Ca19  1  0.23288216  0.86443867  0.75106031  1
  Ca  Ca20  1  0.72939409  0.38430973  0.24465040  1
  Ca  Ca21  1  0.72428213  0.38018439  0.74701946  1
  Ca  Ca22  1  0.73045532  0.86565393  0.24659789  1
  Ca  Ca23  1  0.72475858  0.87055461  0.74489651  1
  Ca  Ca24  1  0.24211475  0.12059447  0.26461394  1
  Ca  Ca25  1  0.27622945  0.11966110  0.73680297  1
  Ca  Ca26  1  0.27459159  0.62645488  0.25515764  1
  Ca  Ca27  1  0.27292214  0.62441016  0.75837431  1
  Ca  Ca28  1  0.77443462  0.11835015  0.25269933  1
  Ca  Ca29  1  0.76733591  0.12476147  0.75273841  1
  Ca  Ca30  1  0.77052648  0.62472757  0.25461991  1
  Ca  Ca31  1  0.77155529  0.62567682  0.75457148  1
  Ti  Ti32  1  0.99587700  0.99296644  0.24953125  1
  Ti  Ti33  1  0.98924170  0.99624790  0.75717800  1
  Ti  Ti34  1  0.25156005  0.99656031  0.99639426  1
  Ti  Ti35  1  0.23201183  0.99080258  0.51206471  1
  Ti  Ti36  1  0.25735099  0.24370825  0.96661063  1
  Ti  Ti37  1  0.24499589  0.25437618  0.49828929  1
  Ti  Ti38  1  0.98785906  0.25159643  0.26674848  1
  Ti  Ti39  1  0.98873356  0.25256931  0.74970284  1
  Mn  Mn40  1  0.99996257  0.50294240  0.24989422  1
  Mn  Mn41  1  0.00143072  0.50165489  0.75024602  1
  Mn  Mn42  1  0.50669796  0.98764922  0.24395569  1
  Mn  Mn43  1  0.50191653  0.99902655  0.74845513  1
  Mn  Mn44  1  0.49949728  0.50388970  0.25096882  1
  Mn  Mn45  1  0.50029463  0.50158206  0.74999466  1
  Mn  Mn46  1  0.24988704  0.50218553  0.00443323  1
  Mn  Mn47  1  0.25125689  0.50446978  0.50047480  1
  Mn  Mn48  1  0.74711434  0.99743097  0.99897840  1
  Mn  Mn49  1  0.74441208  -0.00006217  0.50057098  1
  Mn  Mn50  1  0.74866011  0.50295018  0.00036982  1
  Mn  Mn51  1  0.75121550  0.50078743  0.50049667  1
  Mn  Mn52  1  0.25066546  0.74810773  0.00402711  1
  Mn  Mn53  1  0.25122325  0.74759254  0.49965929  1
  Mn  Mn54  1  0.74946209  0.25079866  0.00042501  1
  Mn  Mn55  1  0.74785212  0.25160820  0.50180741  1
  Mn  Mn56  1  0.74995309  0.74863004  0.00063373  1
  Mn  Mn57  1  0.75017330  0.74830029  0.50019554  1
  Mn  Mn58  1  0.00072320  0.74726965  0.25075359  1
  Mn  Mn59  1  0.00126689  0.74855706  0.75108385  1
  Mn  Mn60  1  0.51600565  0.25593065  0.25942651  1
  Mn  Mn61  1  0.50430197  0.25153345  0.74448970  1
  Mn  Mn62  1  0.49962843  0.74747119  0.25152442  1
  Mn  Mn63  1  0.50041929  0.74722655  0.75140705  1
  O  O64  1  0.10315479  0.26432732  0.59133681  1
  O  O65  1  0.10649854  0.77185069  0.10568767  1
  O  O66  1  0.10727112  0.77300338  0.60447761  1
  O  O67  1  0.59029007  0.25998594  0.09971397  1
  O  O68  1  0.59966003  0.27030339  0.59533684  1
  O  O69  1  0.60767366  0.77207827  0.10865956  1
  O  O70  1  0.60816911  0.76547929  0.60750882  1
  O  O71  1  0.39691881  0.21095465  0.36512932  1
  O  O72  1  0.40503176  0.22903649  0.89644844  1
  O  O73  1  0.39606782  0.72536506  0.39713733  1
  O  O74  1  0.39637154  0.73156619  0.89760942  1
  O  O75  1  0.90078366  0.23140946  0.40428506  1
  O  O76  1  0.90222313  0.23310871  0.90024235  1
  O  O77  1  0.89745369  0.73093075  0.39625542  1
  O  O78  1  0.89770449  0.73015729  0.89659149  1
  O  O79  1  0.15214541  0.24402100  0.33364729  1
  O  O80  1  0.15153276  0.23048306  0.83919051  1
  O  O81  1  0.14760709  0.73025342  0.35211589  1
  O  O82  1  0.14853871  0.73165123  0.85299514  1
  O  O83  1  0.65635673  0.22395712  0.35151100  1
  O  O84  1  0.65124412  0.23090571  0.85016126  1
  O  O85  1  0.64621298  0.72865869  0.35422016  1
  O  O86  1  0.64531360  0.72967795  0.85560446  1
  O  O87  1  0.35412897  0.26417938  0.63809763  1
  O  O88  1  0.35775242  0.77325189  0.14584306  1
  O  O89  1  0.35620450  0.76897940  0.64404434  1
  O  O90  1  0.86235812  0.27190119  0.14364065  1
  O  O91  1  0.85191316  0.27202227  0.64996173  1
  O  O92  1  0.85773128  0.77024738  0.14527538  1
  O  O93  1  0.85745739  0.77166666  0.64596427  1
  O  O94  1  0.35730620  0.48462900  0.14712984  1
  O  O95  1  0.35634310  0.48120448  0.64337458  1
  O  O96  1  0.35310328  0.99983072  0.16324285  1
  O  O97  1  0.35550041  0.98384554  0.64085015  1
  O  O98  1  0.85595735  0.48142411  0.14579794  1
  O  O99  1  0.85758848  0.47764302  0.64585500  1
  O  O100  1  0.85170821  0.98065818  0.14584447  1
  O  O101  1  0.85291266  0.97938365  0.64583126  1
  O  O102  1  0.14291029  0.00997982  0.35775514  1
  O  O103  1  0.14580531  0.02552970  0.86060450  1
  O  O104  1  0.14814968  0.52079767  0.35211707  1
  O  O105  1  0.14893335  0.51525345  0.85283774  1
  O  O106  1  0.62749181  0.02952062  0.35663156  1
  O  O107  1  0.64836952  0.01943238  0.84872977  1
  O  O108  1  0.64659010  0.51920827  0.35402848  1
  O  O109  1  0.64537654  0.52017701  0.85442776  1
  O  O110  1  0.39399313  0.02289924  0.89608604  1
  O  O111  1  0.39561073  0.52335558  0.39746369  1
  O  O112  1  0.39574002  0.51315415  0.89730653  1
  O  O113  1  0.88880673  0.01939058  0.39358509  1
  O  O114  1  0.89434897  0.01585848  0.89756704  1
  O  O115  1  0.89892100  0.51834208  0.39688111  1
  O  O116  1  0.89802325  0.51831061  0.89668348  1
  O  O117  1  0.10261286  0.48315242  0.10515612  1
  O  O118  1  0.10779954  0.47860167  0.60471646  1
  O  O119  1  0.10483302  0.98419221  0.10611092  1
  O  O120  1  0.10022660  0.97715106  0.60714430  1
  O  O121  1  0.60718223  0.48125061  0.10762492  1
  O  O122  1  0.60762197  0.48178391  0.60563333  1
  O  O123  1  0.60169765  0.98546089  0.09420535  1
  O  O124  1  0.59832439  0.98036962  0.59867313  1
  O  O125  1  0.01249670  0.37715563  0.27841816  1
  O  O126  1  0.01445355  0.37527840  0.78518509  1
  O  O127  1  0.00650146  0.87255557  0.28549742  1
  O  O128  1  0.01240488  0.87440959  0.78976717  1
  O  O129  1  0.49688483  0.37727840  0.28467140  1
  O  O130  1  0.50563753  0.37519545  0.78246389  1
  O  O131  1  0.50586162  0.87272143  0.29857089  1
  O  O132  1  0.50613563  0.87416247  0.78271608  1
  O  O133  1  0.49409510  0.12566024  0.71554984  1
  O  O134  1  0.49179220  0.62680288  0.20870977  1
  O  O135  1  0.48887054  0.62397832  0.71465760  1
  O  O136  1  0.99848982  0.12911007  0.21728792  1
  O  O137  1  0.98855045  0.12425396  0.71573384  1
  O  O138  1  0.98793355  0.62578580  0.20992667  1
  O  O139  1  0.98974080  0.62492965  0.71078035  1
  O  O140  1  0.22672895  0.14850906  0.06164972  1
  O  O141  1  0.24465306  0.11956140  0.51515772  1
  O  O142  1  0.24074251  0.62898904  0.03781257  1
  O  O143  1  0.23493598  0.62567375  0.54298969  1
  O  O144  1  0.74578379  0.12417904  0.03694974  1
  O  O145  1  0.74408140  0.12623891  0.54049840  1
  O  O146  1  0.74056741  0.62600523  0.03805513  1
  O  O147  1  0.74540951  0.62387498  0.53772868  1
  O  O148  1  0.26460029  0.37513565  0.46416412  1
  O  O149  1  0.25268533  0.35663918  0.01481131  1
  O  O150  1  0.26909571  0.87639372  0.45848971  1
  O  O151  1  0.26370305  0.88021078  0.96988813  1
  O  O152  1  0.75910479  0.37485392  0.45924947  1
  O  O153  1  0.75162340  0.37599588  0.96599210  1
  O  O154  1  0.75378880  0.87504391  0.46179692  1
  O  O155  1  0.75624397  0.87409461  0.96194219  1
