# generated using pymatgen
data_Ca8Mn7CrO20
_symmetry_space_group_name_H-M   'P 1'
_cell_length_a   10.97306404
_cell_length_b   15.36530548
_cell_length_c   11.14999499
_cell_angle_alpha   89.84257496
_cell_angle_beta   91.86601733
_cell_angle_gamma   90.39164346
_symmetry_Int_Tables_number   1
_chemical_formula_structural   Ca8Mn7CrO20
_chemical_formula_sum   'Ca32 Mn28 Cr4 O80'
_cell_volume   1878.89230556
_cell_formula_units_Z   4
loop_
 _symmetry_equiv_pos_site_id
 _symmetry_equiv_pos_as_xyz
  1  'x, y, z'
loop_
 _atom_site_type_symbol
 _atom_site_label
 _atom_site_symmetry_multiplicity
 _atom_site_fract_x
 _atom_site_fract_y
 _atom_site_fract_z
 _atom_site_occupancy
  Ca  Ca0  1  0.00032729  0.10718009  0.51381404  1
  Ca  Ca1  1  0.99929350  0.11304154  0.00987163  1
  Ca  Ca2  1  0.00723684  0.61239063  0.50793494  1
  Ca  Ca3  1  0.00362802  0.61131186  0.00974229  1
  Ca  Ca4  1  0.54340214  0.12887592  0.48149199  1
  Ca  Ca5  1  0.54645384  0.12806217  0.98444410  1
  Ca  Ca6  1  0.54214981  0.62901408  0.48056070  1
  Ca  Ca7  1  0.54281373  0.62887812  0.98032194  1
  Ca  Ca8  1  0.51703264  0.37370999  0.99218707  1
  Ca  Ca9  1  0.51507197  0.37301063  0.48921947  1
  Ca  Ca10  1  0.51985862  0.87379365  0.98673576  1
  Ca  Ca11  1  0.51900059  0.87560267  0.48709428  1
  Ca  Ca12  1  0.96033968  0.38494976  0.00608638  1
  Ca  Ca13  1  0.95962162  0.38635347  0.50888394  1
  Ca  Ca14  1  0.95803222  0.88093150  0.00835882  1
  Ca  Ca15  1  0.95977124  0.88219079  0.50393361  1
  Ca  Ca16  1  0.23246616  0.39630154  0.27093470  1
  Ca  Ca17  1  0.23479034  0.39560493  0.76724906  1
  Ca  Ca18  1  0.23351740  0.89257947  0.27087160  1
  Ca  Ca19  1  0.23460178  0.89372762  0.77105665  1
  Ca  Ca20  1  0.74966479  0.37679429  0.25467300  1
  Ca  Ca21  1  0.75142708  0.37389267  0.75669159  1
  Ca  Ca22  1  0.75318216  0.87365363  0.25639060  1
  Ca  Ca23  1  0.75222442  0.87368641  0.75547040  1
  Ca  Ca24  1  0.22580735  0.12026090  0.24508241  1
  Ca  Ca25  1  0.22287404  0.11823477  0.74081869  1
  Ca  Ca26  1  0.22640895  0.61971346  0.24581807  1
  Ca  Ca27  1  0.22630482  0.62033422  0.74809414  1
  Ca  Ca28  1  0.78026066  0.11745426  0.25402148  1
  Ca  Ca29  1  0.78073889  0.12212760  0.75383299  1
  Ca  Ca30  1  0.78188950  0.62478814  0.25232367  1
  Ca  Ca31  1  0.78244116  0.62369056  0.75458476  1
  Mn  Mn32  1  0.99505959  0.99523085  0.75848966  1
  Mn  Mn33  1  0.99309790  0.49672592  0.25770318  1
  Mn  Mn34  1  0.99435556  0.49673749  0.75595823  1
  Mn  Mn35  1  0.50237338  0.99119460  0.23411920  1
  Mn  Mn36  1  0.50471774  0.99115124  0.73532712  1
  Mn  Mn37  1  0.50467935  0.49221798  0.23662902  1
  Mn  Mn38  1  0.50482703  0.49134321  0.73527251  1
  Mn  Mn39  1  0.24341644  0.00092057  0.51844813  1
  Mn  Mn40  1  0.24423807  0.50011466  0.02192190  1
  Mn  Mn41  1  0.24646264  0.50250454  0.52127915  1
  Mn  Mn42  1  0.74583573  0.00189014  0.99873850  1
  Mn  Mn43  1  0.74585785  0.00235918  0.49938389  1
  Mn  Mn44  1  0.74375048  0.50236048  0.99803171  1
  Mn  Mn45  1  0.74371467  0.50292962  0.49802621  1
  Mn  Mn46  1  0.27012563  0.24508173  0.45572003  1
  Mn  Mn47  1  0.27473550  0.74504331  0.96098994  1
  Mn  Mn48  1  0.27571579  0.74430927  0.46017440  1
  Mn  Mn49  1  0.75749869  0.24826650  0.00403632  1
  Mn  Mn50  1  0.75628307  0.24887552  0.50319030  1
  Mn  Mn51  1  0.75661309  0.74670926  0.00192536  1
  Mn  Mn52  1  0.75666978  0.74679760  0.50295326  1
  Mn  Mn53  1  0.99579488  0.25413695  0.76330887  1
  Mn  Mn54  1  0.99661322  0.75312112  0.26220557  1
  Mn  Mn55  1  0.99644937  0.75337950  0.76119780  1
  Mn  Mn56  1  0.51251527  0.24709196  0.24968882  1
  Mn  Mn57  1  0.50406071  0.24809072  0.75421681  1
  Mn  Mn58  1  0.51099479  0.74706504  0.24797416  1
  Mn  Mn59  1  0.51064864  0.74697947  0.74742740  1
  Cr  Cr60  1  0.99669896  0.99783334  0.25594803  1
  Cr  Cr61  1  0.23927324  0.99918589  0.02169238  1
  Cr  Cr62  1  0.26952613  0.24088170  0.95292630  1
  Cr  Cr63  1  0.99285049  0.25303763  0.27078117  1
  O  O64  1  0.59181271  0.25574796  0.09353795  1
  O  O65  1  0.57249060  0.25389113  0.59624192  1
  O  O66  1  0.58695645  0.75487964  0.09091213  1
  O  O67  1  0.58572546  0.75587353  0.59133675  1
  O  O68  1  0.39756864  0.18268466  0.34932541  1
  O  O69  1  0.39192886  0.18052952  0.86118459  1
  O  O70  1  0.39966424  0.68066644  0.34818995  1
  O  O71  1  0.40016596  0.68294260  0.84881176  1
  O  O72  1  0.92521016  0.23182121  0.41234971  1
  O  O73  1  0.90804044  0.23579036  0.91975456  1
  O  O74  1  0.90669019  0.73312968  0.41910718  1
  O  O75  1  0.90810233  0.73308176  0.91901039  1
  O  O76  1  0.16072561  0.25625769  0.29367948  1
  O  O77  1  0.17101862  0.25430117  0.80948204  1
  O  O78  1  0.16496877  0.75244659  0.30993878  1
  O  O79  1  0.16446924  0.75417164  0.80911082  1
  O  O80  1  0.66339951  0.22709810  0.35369049  1
  O  O81  1  0.65711680  0.22799995  0.85463312  1
  O  O82  1  0.65902669  0.72756373  0.35495004  1
  O  O83  1  0.65926196  0.72745034  0.85305018  1
  O  O84  1  0.86885716  0.27617099  0.15330817  1
  O  O85  1  0.86027436  0.27500862  0.64863278  1
  O  O86  1  0.85539098  0.77172273  0.15094756  1
  O  O87  1  0.85628570  0.77306033  0.65082033  1
  O  O88  1  0.34685528  0.50541925  0.16870150  1
  O  O89  1  0.34778816  0.50843402  0.66936213  1
  O  O90  1  0.34556672  0.01040294  0.16772150  1
  O  O91  1  0.34724966  0.00972541  0.66464352  1
  O  O92  1  0.84702662  0.48203410  0.14024079  1
  O  O93  1  0.84620052  0.48117136  0.64068305  1
  O  O94  1  0.84906847  0.97984407  0.14410938  1
  O  O95  1  0.85463526  0.98224389  0.64835080  1
  O  O96  1  0.15071796  0.01067863  0.36798405  1
  O  O97  1  0.15063556  0.01259774  0.86694494  1
  O  O98  1  0.15434687  0.51294669  0.37455668  1
  O  O99  1  0.15555132  0.50902438  0.87341632  1
  O  O100  1  0.62734610  0.02400961  0.34558746  1
  O  O101  1  0.63146969  0.02429512  0.85016318  1
  O  O102  1  0.63214748  0.52643476  0.34606293  1
  O  O103  1  0.63121565  0.52527926  0.84519718  1
  O  O104  1  0.88592860  0.01563729  0.39533914  1
  O  O105  1  0.88701082  0.01668652  0.89533709  1
  O  O106  1  0.88536236  0.51959671  0.39489136  1
  O  O107  1  0.88706063  0.51679040  0.89319912  1
  O  O108  1  0.09740864  0.47147196  0.12455240  1
  O  O109  1  0.09860832  0.47307320  0.62381538  1
  O  O110  1  0.10154021  0.97056612  0.11488188  1
  O  O111  1  0.09766151  0.97329239  0.62332703  1
  O  O112  1  0.59045606  0.49588568  0.08583963  1
  O  O113  1  0.58954699  0.49522810  0.58500036  1
  O  O114  1  0.59299355  0.99564665  0.08645187  1
  O  O115  1  0.59540318  0.99563258  0.58816053  1
  O  O116  1  0.99304096  0.37768841  0.30692939  1
  O  O117  1  0.99722899  0.37544889  0.79968294  1
  O  O118  1  0.99676628  0.87412445  0.29863982  1
  O  O119  1  0.99460773  0.87587189  0.80157483  1
  O  O120  1  0.47969417  0.37338771  0.28321715  1
  O  O121  1  0.46938643  0.37509570  0.78948814  1
  O  O122  1  0.47455889  0.87287418  0.28212925  1
  O  O123  1  0.47496711  0.87184504  0.78039117  1
  O  O124  1  -0.00002101  0.12791727  0.21947679  1
  O  O125  1  0.00021872  0.12854374  0.72342872  1
  O  O126  1  0.00077453  0.62718044  0.21997585  1
  O  O127  1  0.00129501  0.62777649  0.71967266  1
  O  O128  1  0.21963776  0.13836625  0.03608631  1
  O  O129  1  0.21684000  0.13341036  0.53483834  1
  O  O130  1  0.22368909  0.63191674  0.03853440  1
  O  O131  1  0.22447580  0.63323447  0.54155455  1
  O  O132  1  0.75504889  0.12590980  0.04150126  1
  O  O133  1  0.75445153  0.12574701  0.54166768  1
  O  O134  1  0.75046228  0.62442365  0.04048934  1
  O  O135  1  0.74881636  0.62505826  0.54386184  1
  O  O136  1  0.29686168  0.37658461  0.48714129  1
  O  O137  1  0.29287584  0.36356415  0.99436827  1
  O  O138  1  0.29886291  0.87856949  0.48501558  1
  O  O139  1  0.30090999  0.87874571  0.98530041  1
  O  O140  1  0.74009583  0.37755813  0.46383078  1
  O  O141  1  0.74042225  0.37653350  0.96608443  1
  O  O142  1  0.74253273  0.87446203  0.46652910  1
  O  O143  1  0.74240872  0.87357809  0.96526328  1
