# generated using pymatgen
data_B40H51F3
_symmetry_space_group_name_H-M   'P 1'
_cell_length_a   7.14352348
_cell_length_b   13.01803821
_cell_length_c   12.88763147
_cell_angle_alpha   106.20353026
_cell_angle_beta   90.20224990
_cell_angle_gamma   90.06880812
_symmetry_Int_Tables_number   1
_chemical_formula_structural   B40H51F3
_chemical_formula_sum   'B40 H51 F3'
_cell_volume   1150.86291135
_cell_formula_units_Z   1
loop_
 _symmetry_equiv_pos_site_id
 _symmetry_equiv_pos_as_xyz
  1  'x, y, z'
loop_
 _atom_site_type_symbol
 _atom_site_label
 _atom_site_symmetry_multiplicity
 _atom_site_fract_x
 _atom_site_fract_y
 _atom_site_fract_z
 _atom_site_occupancy
  B  B0  1  0.01565800  0.71093100  0.11333400  1
  B  B1  1  0.03685800  0.79058500  0.35009100  1
  B  B2  1  0.03521800  0.64616000  0.29798000  1
  B  B3  1  0.99945800  0.84456800  0.23687400  1
  B  B4  1  0.07112300  0.10925500  0.66710000  1
  B  B5  1  0.16994000  0.35651700  0.86227400  1
  B  B6  1  0.16485900  0.63236900  0.17305800  1
  B  B7  1  0.21344600  0.85986400  0.30757500  1
  B  B8  1  0.24149600  0.72406400  0.29783100  1
  B  B9  1  0.22183700  0.76578400  0.17879100  1
  B  B10  1  0.28184100  0.80205600  0.71856800  1
  B  B11  1  0.29605300  0.69006500  0.77214400  1
  B  B12  1  0.35152400  0.81981400  0.85630800  1
  B  B13  1  0.34320500  0.67463300  0.63245600  1
  B  B14  1  0.41928500  0.16507000  0.10806800  1
  B  B15  1  0.41118900  0.33539100  0.37128200  1
  B  B16  1  0.48266700  0.60935500  0.71007900  1
  B  B17  1  0.46654000  0.88644500  0.77275500  1
  B  B18  1  0.49277400  0.70660000  0.85781300  1
  B  B19  1  0.47248300  0.79214400  0.63046800  1
  B  B20  1  0.50604200  0.20704100  0.35790800  1
  B  B21  1  0.52600400  0.29325700  0.13010300  1
  B  B22  1  0.51509700  0.10865400  0.20983000  1
  B  B23  1  0.53081300  0.38617400  0.27233500  1
  B  B24  1  0.58138300  0.66554600  0.61024100  1
  B  B25  1  0.58882200  0.83428200  0.86969200  1
  B  B26  1  0.64795000  0.32038500  0.35632700  1
  B  B27  1  0.65685500  0.17572500  0.13295500  1
  B  B28  1  0.70169100  0.19043200  0.27224900  1
  B  B29  1  0.71640300  0.30299000  0.21908100  1
  B  B30  1  0.75838400  0.22349900  0.79704600  1
  B  B31  1  0.77795200  0.26586700  0.67853200  1
  B  B32  1  0.83461500  0.13216200  0.67264100  1
  B  B33  1  0.78641100  0.35987400  0.80778000  1
  B  B34  1  0.92820100  0.60819500  0.16613000  1
  B  B35  1  0.83129700  0.85759100  0.36335700  1
  B  B36  1  0.96394100  0.14593000  0.79811900  1
  B  B37  1  0.00025100  0.34500600  0.73756800  1
  B  B38  1  0.96283000  0.29072200  0.85044700  1
  B  B39  1  0.98351700  0.21140000  0.61381200  1
  H  H40  1  0.00053200  0.70662800  0.02000300  1
  H  H41  1  0.95496800  0.83467700  0.43940200  1
  H  H42  1  0.04407000  0.58492100  0.35151500  1
  H  H43  1  0.11055200  0.92754200  0.26781900  1
  H  H44  1  0.14439900  0.84488700  0.69772500  1
  H  H45  1  0.16802200  0.64296200  0.79750200  1
  H  H46  1  0.15475400  0.19788600  0.64713700  1
  H  H47  1  0.31122500  0.30622600  0.85472100  1
  H  H48  1  0.13822300  0.15126500  0.77137800  1
  H  H49  1  0.10736600  0.39775000  0.70174800  1
  H  H50  1  0.17419700  0.45203000  0.89535400  1
  H  H51  1  0.24008500  0.62765600  0.56219500  1
  H  H52  1  0.25798400  0.86815200  0.93089600  1
  H  H53  1  0.34396500  0.13577300  0.19544400  1
  H  H54  1  0.35730400  0.27412500  0.15771500  1
  H  H55  1  0.29377900  0.38829100  0.42652000  1
  H  H56  1  0.33604500  0.23665900  0.33894300  1
  H  H57  1  0.26102400  0.55916800  0.12610200  1
  H  H58  1  0.32715300  0.92522200  0.35018800  1
  H  H59  1  0.36940900  0.70620100  0.34972500  1
  H  H60  1  0.32492300  0.78995600  0.11669500  1
  H  H61  1  0.50858000  0.66739800  0.93081000  1
  H  H62  1  0.48337700  0.83179900  0.55782100  1
  H  H63  1  0.48962500  0.51570000  0.70075800  1
  H  H64  1  0.49729600  0.97813900  0.78016100  1
  H  H65  1  0.51093600  0.01460300  0.19848800  1
  H  H66  1  0.50064400  0.47786900  0.27959800  1
  H  H67  1  0.49200500  0.16707000  0.43036800  1
  H  H68  1  0.51670000  0.33038200  0.05556900  1
  H  H69  1  0.63036900  0.20527800  0.84810600  1
  H  H70  1  0.67370500  0.29011600  0.61668900  1
  H  H71  1  0.73916600  0.05843400  0.62513000  1
  H  H72  1  0.67188400  0.42484500  0.84884500  1
  H  H73  1  0.65778100  0.63307400  0.69036300  1
  H  H74  1  0.66156000  0.73451100  0.83673200  1
  H  H75  1  0.64581700  0.76789500  0.65284500  1
  H  H76  1  0.71152900  0.88639300  0.92161000  1
  H  H77  1  0.66986500  0.62251300  0.53225900  1
  H  H78  1  0.75869200  0.12848900  0.06263800  1
  H  H79  1  0.74346600  0.36843800  0.43060700  1
  H  H80  1  0.82979400  0.95324000  0.39509200  1
  H  H81  1  0.86074900  0.65017300  0.27005400  1
  H  H82  1  0.89305700  0.89712800  0.20025000  1
  H  H83  1  0.84415700  0.69633800  0.14589400  1
  H  H84  1  0.68934700  0.80800900  0.35855900  1
  H  H85  1  0.82930100  0.14262000  0.29719700  1
  H  H86  1  0.85438700  0.34494800  0.19791500  1
  H  H87  1  0.95614900  0.08479900  0.85189400  1
  H  H88  1  0.88987300  0.42781000  0.76825800  1
  H  H89  1  0.04883700  0.33322800  0.93910600  1
  H  H90  1  0.99759600  0.20714700  0.52050500  1
  F  F91  1  0.16381900  0.01895000  0.61507900  1
  F  F92  1  0.31623300  0.11671700  0.02105400  1
  F  F93  1  0.83761400  0.51718500  0.11428700  1
