# generated using pymatgen
data_CsSnBr3
_symmetry_space_group_name_H-M   'P 1'
_cell_length_a   8.22479200
_cell_length_b   8.29601400
_cell_length_c   11.84331600
_cell_angle_alpha   90.00000000
_cell_angle_beta   90.00000000
_cell_angle_gamma   90.00000000
_symmetry_Int_Tables_number   1
_chemical_formula_structural   CsSnBr3
_chemical_formula_sum   'Cs4 Sn4 Br12'
_cell_volume   808.10485721
_cell_formula_units_Z   4
loop_
 _symmetry_equiv_pos_site_id
 _symmetry_equiv_pos_as_xyz
  1  'x, y, z'
loop_
 _atom_site_type_symbol
 _atom_site_label
 _atom_site_symmetry_multiplicity
 _atom_site_fract_x
 _atom_site_fract_y
 _atom_site_fract_z
 _atom_site_occupancy
  Cs  Cs0  1  0.50786800  0.46719800  0.25000000  1
  Cs  Cs1  1  0.00786800  0.03280200  0.75000000  1
  Cs  Cs2  1  0.99213200  0.96719800  0.25000000  1
  Cs  Cs3  1  0.49213200  0.53280200  0.75000000  1
  Sn  Sn4  1  0.50000000  0.00000000  0.50000000  1
  Sn  Sn5  1  0.00000000  0.50000000  0.00000000  1
  Sn  Sn6  1  0.00000000  0.50000000  0.50000000  1
  Sn  Sn7  1  0.50000000  0.00000000  0.00000000  1
  Br  Br8  1  0.54820200  0.99346800  0.75000000  1
  Br  Br9  1  0.04820200  0.50653200  0.25000000  1
  Br  Br10  1  0.79431500  0.20600800  0.02542500  1
  Br  Br11  1  0.20568500  0.79399200  0.97457500  1
  Br  Br12  1  0.29431500  0.29399200  0.97457500  1
  Br  Br13  1  0.70568500  0.70600800  0.02542500  1
  Br  Br14  1  0.29431500  0.29399200  0.52542500  1
  Br  Br15  1  0.70568500  0.70600800  0.47457500  1
  Br  Br16  1  0.20568500  0.79399200  0.52542500  1
  Br  Br17  1  0.79431500  0.20600800  0.47457500  1
  Br  Br18  1  0.95179800  0.49346800  0.75000000  1
  Br  Br19  1  0.45179800  0.00653200  0.25000000  1
