# generated using pymatgen
data_CeSe2
_symmetry_space_group_name_H-M   'P 1'
_cell_length_a   4.09032311
_cell_length_b   4.09049637
_cell_length_c   39.32885500
_cell_angle_alpha   90.00000000
_cell_angle_beta   90.00000000
_cell_angle_gamma   119.99858471
_symmetry_Int_Tables_number   1
_chemical_formula_structural   CeSe2
_chemical_formula_sum   'Ce4 Se8'
_cell_volume   569.87782165
_cell_formula_units_Z   4
loop_
 _symmetry_equiv_pos_site_id
 _symmetry_equiv_pos_as_xyz
  1  'x, y, z'
loop_
 _atom_site_type_symbol
 _atom_site_label
 _atom_site_symmetry_multiplicity
 _atom_site_fract_x
 _atom_site_fract_y
 _atom_site_fract_z
 _atom_site_occupancy
  Ce  Ce0  1  0.75830200  0.51660300  0.49985000  1
  Ce  Ce1  1  0.24169800  0.48339700  0.99985000  1
  Ce  Ce2  1  0.09227000  0.18454000  0.66659700  1
  Ce  Ce3  1  0.90773000  0.81546000  0.16659700  1
  Se  Se4  1  0.09259000  0.18518000  0.54307100  1
  Se  Se5  1  0.90741000  0.81482000  0.04307100  1
  Se  Se6  1  0.09068300  0.18136600  0.45686800  1
  Se  Se7  1  0.90931700  0.81863400  0.95686800  1
  Se  Se8  1  0.42894500  0.85789000  0.70966200  1
  Se  Se9  1  0.57105500  0.14211000  0.20966200  1
  Se  Se10  1  0.42258200  0.84516400  0.62345200  1
  Se  Se11  1  0.57741800  0.15483600  0.12345200  1
