# generated using pymatgen
data_Sr3Ca5Mn8O21
_symmetry_space_group_name_H-M   'P 1'
_cell_length_a   7.84816011
_cell_length_b   7.77045772
_cell_length_c   7.74510811
_cell_angle_alpha   89.96844214
_cell_angle_beta   87.87332002
_cell_angle_gamma   89.64619637
_symmetry_Int_Tables_number   1
_chemical_formula_structural   Sr3Ca5Mn8O21
_chemical_formula_sum   'Sr3 Ca5 Mn8 O21'
_cell_volume   471.99174449
_cell_formula_units_Z   1
loop_
 _symmetry_equiv_pos_site_id
 _symmetry_equiv_pos_as_xyz
  1  'x, y, z'
loop_
 _atom_site_type_symbol
 _atom_site_label
 _atom_site_symmetry_multiplicity
 _atom_site_fract_x
 _atom_site_fract_y
 _atom_site_fract_z
 _atom_site_occupancy
  Sr  Sr0  1  0.25152000  0.24724900  0.24755200  1
  Sr  Sr1  1  0.25713100  0.26465400  0.74267500  1
  Sr  Sr2  1  0.76393200  0.25713400  0.26497300  1
  Ca  Ca3  1  0.23806100  0.73639200  0.23760700  1
  Ca  Ca4  1  0.26152900  0.74142800  0.69241400  1
  Ca  Ca5  1  0.75230900  0.24941000  0.74817900  1
  Ca  Ca6  1  0.74340700  0.73917300  0.25985800  1
  Ca  Ca7  1  0.74706800  0.74078900  0.73707500  1
  Mn  Mn8  1  0.01458700  0.99183500  0.97881000  1
  Mn  Mn9  1  0.99722900  0.99634600  0.51854300  1
  Mn  Mn10  1  0.99554100  0.50798700  0.00771900  1
  Mn  Mn11  1  0.00227100  0.50361900  0.49993600  1
  Mn  Mn12  1  0.48982900  0.99324400  0.99718400  1
  Mn  Mn13  1  0.50876100  0.99594900  0.48710200  1
  Mn  Mn14  1  0.50379800  0.50801500  0.98626300  1
  Mn  Mn15  1  0.50559900  0.50301000  0.50564300  1
  O  O16  1  0.90588700  0.98513400  0.76969100  1
  O  O17  1  0.01164300  0.47992300  0.25431800  1
  O  O18  1  0.99974900  0.53203900  0.75579000  1
  O  O19  1  0.52975100  0.03881300  0.23702700  1
  O  O20  1  0.51122400  0.95581700  0.74508400  1
  O  O21  1  0.49879200  0.54854200  0.74729100  1
  O  O22  1  0.23622800  0.98374900  0.05863100  1
  O  O23  1  0.24811900  0.01558300  0.51412900  1
  O  O24  1  0.25952900  0.51196000  0.01991500  1
  O  O25  1  0.25996800  0.48313300  0.49241300  1
  O  O26  1  0.76231800  0.97101500  0.45366700  1
  O  O27  1  0.74070800  0.48918000  0.03114700  1
  O  O28  1  0.74917400  0.52825700  0.48734200  1
  O  O29  1  0.98985500  0.23670100  0.00036300  1
  O  O30  1  0.97958500  0.24930000  0.51929900  1
  O  O31  1  0.96623000  0.76618500  0.05480100  1
  O  O32  1  0.03472500  0.75223600  0.47844700  1
  O  O33  1  0.50392600  0.25004000  0.96359400  1
  O  O34  1  0.52848300  0.25480000  0.51622300  1
  O  O35  1  0.52601100  0.74802800  0.04713200  1
  O  O36  1  0.47552000  0.74333300  0.44216600  1
