# generated using pymatgen
data_AgPH6(NF3)2
_symmetry_space_group_name_H-M   'P 1'
_cell_length_a   7.42522565
_cell_length_b   8.58229396
_cell_length_c   13.28643871
_cell_angle_alpha   89.95035320
_cell_angle_beta   88.51840559
_cell_angle_gamma   89.20781111
_symmetry_Int_Tables_number   1
_chemical_formula_structural   AgPH6(NF3)2
_chemical_formula_sum   'Ag4 P4 H24 N8 F24'
_cell_volume   846.32046936
_cell_formula_units_Z   4
loop_
 _symmetry_equiv_pos_site_id
 _symmetry_equiv_pos_as_xyz
  1  'x, y, z'
loop_
 _atom_site_type_symbol
 _atom_site_label
 _atom_site_symmetry_multiplicity
 _atom_site_fract_x
 _atom_site_fract_y
 _atom_site_fract_z
 _atom_site_occupancy
  Ag  Ag0  1  0.93250700  0.99950900  0.00151800  1
  Ag  Ag1  1  0.54922900  0.50057000  0.50080100  1
  Ag  Ag2  1  0.53693800  0.00092100  0.00139300  1
  Ag  Ag3  1  0.94607500  0.49725100  0.49976500  1
  P  P4  1  0.50057700  0.41186500  0.17330900  1
  P  P5  1  0.49871700  0.58909500  0.82799800  1
  P  P6  1  0.00322700  0.08927000  0.67261000  1
  P  P7  1  0.99787000  0.91157500  0.32450700  1
  H  H8  1  0.42063100  0.21376400  0.54533600  1
  H  H9  1  0.41874800  0.98014800  0.19546200  1
  H  H10  1  0.52204500  0.20513600  0.43315200  1
  H  H11  1  0.50142700  0.79943000  0.56074800  1
  H  H12  1  0.49162400  0.99474300  0.80097900  1
  H  H13  1  0.48766400  0.18046600  0.83562200  1
  H  H14  1  0.49047800  0.79385600  0.43670900  1
  H  H15  1  0.49725000  0.80667400  0.16027000  1
  H  H16  1  0.63704500  0.94321400  0.19370400  1
  H  H17  1  0.64294000  0.19983800  0.53553600  1
  H  H18  1  0.68012500  0.08696900  0.81882500  1
  H  H19  1  0.68840000  0.79290500  0.49038600  1
  H  H20  1  0.81265300  0.70147400  0.99422500  1
  H  H21  1  0.80926200  0.29889400  0.00858300  1
  H  H22  1  0.82255500  0.41201900  0.31637400  1
  H  H23  1  0.82334800  0.59043100  0.68539200  1
  H  H24  1  0.99712100  0.29331800  0.93893800  1
  H  H25  1  0.01196300  0.70880700  0.93628900  1
  H  H26  1  0.01336700  0.31893500  0.33457200  1
  H  H27  1  0.01194000  0.49092300  0.69798500  1
  H  H28  1  0.01327200  0.50469500  0.29995200  1
  H  H29  1  0.01598200  0.67619600  0.66238800  1
  H  H30  1  0.00634600  0.29076200  0.06316000  1
  H  H31  1  0.99763400  0.70404100  0.06067300  1
  N  N32  1  0.93891400  0.74773400  0.99767400  1
  N  N33  1  0.53118500  0.24920300  0.50419300  1
  N  N34  1  0.55927700  0.75244200  0.49695900  1
  N  N35  1  0.55075200  0.07507300  0.84585700  1
  N  N36  1  0.52059800  0.92376300  0.15631100  1
  N  N37  1  0.93657000  0.25132300  0.00319300  1
  N  N38  1  0.94879300  0.42416000  0.34427300  1
  N  N39  1  0.94982300  0.57320000  0.65461100  1
  F  F40  1  0.15912300  0.96281600  0.63812400  1
  F  F41  1  0.15437700  0.03169800  0.35790400  1
  F  F42  1  0.15897000  0.21367500  0.70374000  1
  F  F43  1  0.15303700  0.78245300  0.29062400  1
  F  F44  1  0.34727100  0.28495100  0.20729100  1
  F  F45  1  0.34123400  0.71458600  0.79588500  1
  F  F46  1  0.34338500  0.53462900  0.14048600  1
  F  F47  1  0.34513700  0.46464300  0.86271800  1
  F  F48  1  0.49477500  0.48501600  0.28808700  1
  F  F49  1  0.51156500  0.33733600  0.06010400  1
  F  F50  1  0.50005900  0.66404000  0.94084800  1
  F  F51  1  0.50178200  0.51588000  0.71320600  1
  F  F52  1  0.65701400  0.53747000  0.14077700  1
  F  F53  1  0.65935800  0.46586600  0.85823100  1
  F  F54  1  0.66003600  0.28817700  0.20830800  1
  F  F55  1  0.65392100  0.71484500  0.79053400  1
  F  F56  1  0.84591300  0.21709600  0.70877800  1
  F  F57  1  0.84050200  0.79074800  0.28924200  1
  F  F58  1  0.84019900  0.03899400  0.35742000  1
  F  F59  1  0.84474700  0.96746300  0.64277300  1
  F  F60  1  0.00195300  0.01782900  0.78749600  1
  F  F61  1  0.00153100  0.16299900  0.55905700  1
  F  F62  1  0.98851400  0.83629700  0.43790900  1
  F  F63  1  0.00472900  0.98589900  0.21022600  1
