# generated using pymatgen
data_Al2Se3
_symmetry_space_group_name_H-M   'P 1'
_cell_length_a   24.88074871
_cell_length_b   14.43720142
_cell_length_c   17.74125448
_cell_angle_alpha   65.68617146
_cell_angle_beta   61.86748581
_cell_angle_gamma   30.40596376
_symmetry_Int_Tables_number   1
_chemical_formula_structural   Al2Se3
_chemical_formula_sum   'Al4 Se6'
_cell_volume   2844.19015847
_cell_formula_units_Z   2
loop_
 _symmetry_equiv_pos_site_id
 _symmetry_equiv_pos_as_xyz
  1  'x, y, z'
loop_
 _atom_site_type_symbol
 _atom_site_label
 _atom_site_symmetry_multiplicity
 _atom_site_fract_x
 _atom_site_fract_y
 _atom_site_fract_z
 _atom_site_occupancy
  Al  Al0  1  0.78585476  0.35328955  0.60782964  1
  Al  Al1  1  0.94701445  0.66628383  0.15981453  1
  Al  Al2  1  0.13398898  0.31852369  0.60775514  1
  Al  Al3  1  0.47255816  0.32809272  0.60767390  1
  Se  Se4  1  0.99273439  0.66690982  0.02093698  1
  Se  Se5  1  0.42046951  0.32025780  0.74569472  1
  Se  Se6  1  0.60003391  0.66658616  0.19962603  1
  Se  Se7  1  0.75976263  0.32718461  0.74578259  1
  Se  Se8  1  0.64683718  0.66645130  0.05948494  1
  Se  Se9  1  0.07407803  0.35308552  0.74540054  1
