# generated using pymatgen
data_Al2SiO5
_symmetry_space_group_name_H-M   'P 1'
_cell_length_a   5.70603200
_cell_length_b   15.39899365
_cell_length_c   11.17900573
_cell_angle_alpha   46.49845775
_cell_angle_beta   90.00000000
_cell_angle_gamma   90.00000000
_symmetry_Int_Tables_number   1
_chemical_formula_structural   Al2SiO5
_chemical_formula_sum   'Al16 Si8 O40'
_cell_volume   712.49338189
_cell_formula_units_Z   8
loop_
 _symmetry_equiv_pos_site_id
 _symmetry_equiv_pos_as_xyz
  1  'x, y, z'
loop_
 _atom_site_type_symbol
 _atom_site_label
 _atom_site_symmetry_multiplicity
 _atom_site_fract_x
 _atom_site_fract_y
 _atom_site_fract_z
 _atom_site_occupancy
  Al  Al0  1  0.00234200  0.00082200  0.00307600  1
  Al  Al1  1  0.00148300  0.49604100  0.99005900  1
  Al  Al2  1  0.99999600  0.50456000  0.48645600  1
  Al  Al3  1  0.25000000  0.43096500  0.30353100  1
  Al  Al4  1  0.25000000  0.26159700  0.80075700  1
  Al  Al5  1  0.25000000  0.75144700  0.82966500  1
  Al  Al6  1  0.50000400  0.50456000  0.48645600  1
  Al  Al7  1  0.50734700  0.99583200  0.50843700  1
  Al  Al8  1  0.49765800  0.00082200  0.00307600  1
  Al  Al9  1  0.49851700  0.49604100  0.99005900  1
  Al  Al10  1  0.75000000  0.23881200  0.18916100  1
  Al  Al11  1  0.75000000  0.06642100  0.69676300  1
  Al  Al12  1  0.75000000  0.75032000  0.32079300  1
  Al  Al13  1  0.75000000  0.57365000  0.67395300  1
  Al  Al14  1  0.75000000  0.05034800  0.20327300  1
  Al  Al15  1  0.99265300  0.99583200  0.50843700  1
  Si  Si16  1  0.25000000  0.94827300  0.80631300  1
  Si  Si17  1  0.25000000  0.45358000  0.78678500  1
  Si  Si18  1  0.25000000  0.24794100  0.29520600  1
  Si  Si19  1  0.25000000  0.75581200  0.29193500  1
  Si  Si20  1  0.25000000  0.93482600  0.30867400  1
  Si  Si21  1  0.75000000  0.54974300  0.18236600  1
  Si  Si22  1  0.75000000  0.24910300  0.70176600  1
  Si  Si23  1  0.75000000  0.74002200  0.82048500  1
  O  O24  1  0.01198900  0.00137500  0.82489900  1
  O  O25  1  0.01490600  0.50800000  0.80499300  1
  O  O26  1  0.01557500  0.17270200  0.32167500  1
  O  O27  1  0.01418600  0.68230600  0.32239000  1
  O  O28  1  0.25000000  0.11017500  0.90599200  1
  O  O29  1  0.25000000  0.00275300  0.61316500  1
  O  O30  1  0.25000000  0.60534400  0.90997000  1
  O  O31  1  0.25000000  0.31055100  0.90327600  1
  O  O32  1  0.25000000  0.50804700  0.59688500  1
  O  O33  1  0.25000000  0.80396400  0.92839200  1
  O  O34  1  0.25000000  0.27952400  0.40660500  1
  O  O35  1  0.25000000  0.38180900  0.09951100  1
  O  O36  1  0.25000000  0.88781400  0.10124600  1
  O  O37  1  0.25000000  0.79261300  0.40079800  1
  O  O38  1  0.25000000  0.48890200  0.39446300  1
  O  O39  1  0.25000000  0.96277100  0.42738500  1
  O  O40  1  0.48442500  0.17270200  0.32167500  1
  O  O41  1  0.48801100  0.00137500  0.82489900  1
  O  O42  1  0.48581400  0.68230600  0.32239000  1
  O  O43  1  0.48509400  0.50800000  0.80499300  1
  O  O44  1  0.51248700  0.49190500  0.17608600  1
  O  O45  1  0.51247300  0.32487500  0.66940900  1
  O  O46  1  0.48511600  0.99475800  0.18855200  1
  O  O47  1  0.51683200  0.81698600  0.71185400  1
  O  O48  1  0.75000000  0.20237300  0.07537300  1
  O  O49  1  0.75000000  0.01557900  0.59919800  1
  O  O50  1  0.75000000  0.39069000  0.08507900  1
  O  O51  1  0.75000000  0.21848400  0.58955000  1
  O  O52  1  0.75000000  0.51664400  0.35671900  1
  O  O53  1  0.75000000  0.51180400  0.58392400  1
  O  O54  1  0.75000000  0.11520700  0.89688400  1
  O  O55  1  0.75000000  0.69379300  0.00607000  1
  O  O56  1  0.75000000  0.89429400  0.11541500  1
  O  O57  1  0.75000000  0.72482500  0.49768000  1
  O  O58  1  0.75000000  0.61090100  0.87095700  1
  O  O59  1  0.75000000  0.98795600  0.40826700  1
  O  O60  1  0.98751300  0.49190500  0.17608600  1
  O  O61  1  0.98752700  0.32487500  0.66940900  1
  O  O62  1  0.01488400  0.99475800  0.18855200  1
  O  O63  1  0.98316800  0.81698600  0.71185400  1
