# generated using pymatgen
data_SrCa7Ti3Mn5O23
_symmetry_space_group_name_H-M   'P 1'
_cell_length_a   7.73277880
_cell_length_b   7.70648634
_cell_length_c   7.74044384
_cell_angle_alpha   89.97353526
_cell_angle_beta   90.04674299
_cell_angle_gamma   89.97796995
_symmetry_Int_Tables_number   1
_chemical_formula_structural   SrCa7Ti3Mn5O23
_chemical_formula_sum   'Sr1 Ca7 Ti3 Mn5 O23'
_cell_volume   461.27258244
_cell_formula_units_Z   1
loop_
 _symmetry_equiv_pos_site_id
 _symmetry_equiv_pos_as_xyz
  1  'x, y, z'
loop_
 _atom_site_type_symbol
 _atom_site_label
 _atom_site_symmetry_multiplicity
 _atom_site_fract_x
 _atom_site_fract_y
 _atom_site_fract_z
 _atom_site_occupancy
  Sr  Sr0  1  0.25713500  0.25962100  0.25035200  1
  Ca  Ca1  1  0.26882200  0.27863100  0.74655500  1
  Ca  Ca2  1  0.26349400  0.73104600  0.25223900  1
  Ca  Ca3  1  0.26797300  0.72361600  0.74608900  1
  Ca  Ca4  1  0.73887300  0.27159000  0.25226900  1
  Ca  Ca5  1  0.73297400  0.27765600  0.74599600  1
  Ca  Ca6  1  0.73929300  0.73050000  0.25241900  1
  Ca  Ca7  1  0.73253300  0.72225100  0.74577400  1
  Ti  Ti8  1  0.99974600  0.99868400  0.98578000  1
  Ti  Ti9  1  0.99860300  0.99891400  0.51426300  1
  Ti  Ti10  1  0.50320000  0.99851800  0.00449500  1
  Mn  Mn11  1  0.99930300  0.50111400  0.00321300  1
  Mn  Mn12  1  0.99946400  0.50104100  0.49544800  1
  Mn  Mn13  1  0.50124700  0.99932500  0.49627900  1
  Mn  Mn14  1  0.50068000  0.50043100  0.00000000  1
  Mn  Mn15  1  0.50042000  0.50050300  0.49828400  1
  O  O16  1  0.99734400  0.99734300  0.74941700  1
  O  O17  1  0.99564200  0.50078600  0.24969400  1
  O  O18  1  0.99764500  0.50179000  0.74895700  1
  O  O19  1  0.49891400  0.99855000  0.25268400  1
  O  O20  1  0.50213100  0.99843300  0.74985500  1
  O  O21  1  0.50375100  0.50389200  0.24889500  1
  O  O22  1  0.50144400  0.50113100  0.74986000  1
  O  O23  1  0.24213800  0.99774100  0.02798700  1
  O  O24  1  0.24485500  0.99766000  0.48066800  1
  O  O25  1  0.25051400  0.50404400  0.99168300  1
  O  O26  1  0.24975000  0.50390000  0.50775200  1
  O  O27  1  0.75721500  0.99943900  0.03253600  1
  O  O28  1  0.75473700  0.99901700  0.47613100  1
  O  O29  1  0.74936900  0.50100200  0.99485800  1
  O  O30  1  0.75015100  0.50118700  0.50455400  1
  O  O31  1  0.99759700  0.24542000  0.01778500  1
  O  O32  1  0.99737200  0.24479500  0.47969500  1
  O  O33  1  0.99864100  0.75466700  0.02151600  1
  O  O34  1  0.99896200  0.75536300  0.47523900  1
  O  O35  1  0.50191200  0.25180700  0.99363900  1
  O  O36  1  0.50361000  0.24975800  0.50740500  1
  O  O37  1  0.50117000  0.74845100  0.99558400  1
  O  O38  1  0.50137700  0.75038300  0.50415200  1
