data_image0
_chemical_formula_structural       C3Cr2Dy2
_chemical_formula_sum              "C3 Cr2 Dy2"
_cell_length_a       3.38502
_cell_length_b       5.46071
_cell_length_c       5.56115
_cell_angle_alpha    105.08
_cell_angle_beta     90
_cell_angle_gamma    108.056

_space_group_name_H-M_alt    "P 1"
_space_group_IT_number       1

loop_
  _space_group_symop_operation_xyz
  'x, y, z'

loop_
  _atom_site_type_symbol
  _atom_site_label
  _atom_site_symmetry_multiplicity
  _atom_site_fract_x
  _atom_site_fract_y
  _atom_site_fract_z
  _atom_site_occupancy
  C   C1        1.0  0.71400  0.42700  0.27100  1.0000
  C   C2        1.0  0.00000  0.00000  0.50000  1.0000
  C   C3        1.0  0.28600  0.57300  0.72900  1.0000
  Cr  Cr1       1.0  0.15700  0.31400  0.39000  1.0000
  Cr  Cr2       1.0  0.84300  0.68600  0.61000  1.0000
  Dy  Dy1       1.0  0.39500  0.79000  0.18400  1.0000
  Dy  Dy2       1.0  0.60500  0.21000  0.81600  1.0000
