# generated using pymatgen
data_BNCl4
_symmetry_space_group_name_H-M   'P 1'
_cell_length_a   15.73385495
_cell_length_b   11.34526493
_cell_length_c   10.22639216
_cell_angle_alpha   72.14048833
_cell_angle_beta   43.46462735
_cell_angle_gamma   49.90667131
_symmetry_Int_Tables_number   1
_chemical_formula_structural   BNCl4
_chemical_formula_sum   'B3 N3 Cl12'
_cell_volume   914.72204178
_cell_formula_units_Z   3
loop_
 _symmetry_equiv_pos_site_id
 _symmetry_equiv_pos_as_xyz
  1  'x, y, z'
loop_
 _atom_site_type_symbol
 _atom_site_label
 _atom_site_symmetry_multiplicity
 _atom_site_fract_x
 _atom_site_fract_y
 _atom_site_fract_z
 _atom_site_occupancy
  B  B0  1  0.31228400  0.12943300  0.23261100  1
  B  B1  1  0.52130400  0.00702500  0.84365800  1
  B  B2  1  0.94051000  0.06497800  0.12649700  1
  N  N3  1  0.99615700  0.06582900  0.19105400  1
  N  N4  1  0.40510400  0.08397400  0.04730300  1
  N  N5  1  0.68757500  0.92936400  0.71821800  1
  Cl  Cl6  1  0.18325000  0.63161000  0.94974200  1
  Cl  Cl7  1  0.18866700  0.18840100  0.47792400  1
  Cl  Cl8  1  0.17393500  0.91112500  0.10043000  1
  Cl  Cl9  1  0.46693900  0.01641300  0.73566900  1
  Cl  Cl10  1  0.65899500  0.54818800  0.02048200  1
  Cl  Cl11  1  0.07011300  0.97857300  0.87358500  1
  Cl  Cl12  1  0.73382500  0.17341400  0.30426900  1
  Cl  Cl13  1  0.25553000  0.42416800  0.01887300  1
  Cl  Cl14  1  0.68611900  0.94921300  0.05498200  1
  Cl  Cl15  1  0.85589000  0.94758300  0.94567300  1
  Cl  Cl16  1  0.83355100  0.75122100  0.55161200  1
  Cl  Cl17  1  0.83415200  0.45418900  0.98901700  1
