# generated using pymatgen
data_SrCa7Mn8O24
_symmetry_space_group_name_H-M   'P 1'
_cell_length_a   7.61893100
_cell_length_b   7.61893100
_cell_length_c   7.61893100
_cell_angle_alpha   90.00000000
_cell_angle_beta   90.00000000
_cell_angle_gamma   90.00000000
_symmetry_Int_Tables_number   1
_chemical_formula_structural   SrCa7Mn8O24
_chemical_formula_sum   'Sr1 Ca7 Mn8 O24'
_cell_volume   442.26454159
_cell_formula_units_Z   1
loop_
 _symmetry_equiv_pos_site_id
 _symmetry_equiv_pos_as_xyz
  1  'x, y, z'
loop_
 _atom_site_type_symbol
 _atom_site_label
 _atom_site_symmetry_multiplicity
 _atom_site_fract_x
 _atom_site_fract_y
 _atom_site_fract_z
 _atom_site_occupancy
  Sr  Sr0  1  0.25000000  0.25000000  0.25000000  1
  Ca  Ca1  1  0.25000000  0.25000000  0.75000000  1
  Ca  Ca2  1  0.25000000  0.75000000  0.25000000  1
  Ca  Ca3  1  0.25000000  0.75000000  0.75000000  1
  Ca  Ca4  1  0.75000000  0.25000000  0.25000000  1
  Ca  Ca5  1  0.75000000  0.25000000  0.75000000  1
  Ca  Ca6  1  0.75000000  0.75000000  0.25000000  1
  Ca  Ca7  1  0.75000000  0.75000000  0.75000000  1
  Mn  Mn8  1  0.99963500  0.99963500  0.99963500  1
  Mn  Mn9  1  0.99963500  0.99963500  0.50036500  1
  Mn  Mn10  1  0.99963500  0.50036500  0.99963500  1
  Mn  Mn11  1  0.99963500  0.50036500  0.50036500  1
  Mn  Mn12  1  0.50036500  0.99963500  0.99963500  1
  Mn  Mn13  1  0.50036500  0.99963500  0.50036500  1
  Mn  Mn14  1  0.50036500  0.50036500  0.99963500  1
  Mn  Mn15  1  0.50036500  0.50036500  0.50036500  1
  O  O16  1  0.99826200  0.99826200  0.25000000  1
  O  O17  1  0.99989200  0.99989200  0.75000000  1
  O  O18  1  0.99826200  0.50173800  0.25000000  1
  O  O19  1  0.99989200  0.50010800  0.75000000  1
  O  O20  1  0.50173800  0.99826200  0.25000000  1
  O  O21  1  0.50010800  0.99989200  0.75000000  1
  O  O22  1  0.50173800  0.50173800  0.25000000  1
  O  O23  1  0.50010800  0.50010800  0.75000000  1
  O  O24  1  0.25000000  0.99826200  0.99826200  1
  O  O25  1  0.25000000  0.99826200  0.50173800  1
  O  O26  1  0.25000000  0.50173800  0.99826200  1
  O  O27  1  0.25000000  0.50173800  0.50173800  1
  O  O28  1  0.75000000  0.99989200  0.99989200  1
  O  O29  1  0.75000000  0.99989200  0.50010800  1
  O  O30  1  0.75000000  0.50010800  0.99989200  1
  O  O31  1  0.75000000  0.50010800  0.50010800  1
  O  O32  1  0.99826200  0.25000000  0.99826200  1
  O  O33  1  0.99826200  0.25000000  0.50173800  1
  O  O34  1  0.99989200  0.75000000  0.99989200  1
  O  O35  1  0.99989200  0.75000000  0.50010800  1
  O  O36  1  0.50173800  0.25000000  0.99826200  1
  O  O37  1  0.50173800  0.25000000  0.50173800  1
  O  O38  1  0.50010800  0.75000000  0.99989200  1
  O  O39  1  0.50010800  0.75000000  0.50010800  1
