# generated using pymatgen
data_Ca8TiMn7O21
_symmetry_space_group_name_H-M   'P 1'
_cell_length_a   7.81258288
_cell_length_b   7.77499900
_cell_length_c   7.74828783
_cell_angle_alpha   90.00000000
_cell_angle_beta   90.29822859
_cell_angle_gamma   90.00000000
_symmetry_Int_Tables_number   1
_chemical_formula_structural   Ca8TiMn7O21
_chemical_formula_sum   'Ca8 Ti1 Mn7 O21'
_cell_volume   470.64650865
_cell_formula_units_Z   1
loop_
 _symmetry_equiv_pos_site_id
 _symmetry_equiv_pos_as_xyz
  1  'x, y, z'
loop_
 _atom_site_type_symbol
 _atom_site_label
 _atom_site_symmetry_multiplicity
 _atom_site_fract_x
 _atom_site_fract_y
 _atom_site_fract_z
 _atom_site_occupancy
  Ca  Ca0  1  0.23311700  0.26416400  0.24047000  1
  Ca  Ca1  1  0.27135600  0.26459800  0.69452800  1
  Ca  Ca2  1  0.23311700  0.73583600  0.24047000  1
  Ca  Ca3  1  0.27135600  0.73540200  0.69452800  1
  Ca  Ca4  1  0.73202200  0.25927600  0.25773800  1
  Ca  Ca5  1  0.75850500  0.24632000  0.71380100  1
  Ca  Ca6  1  0.73202200  0.74072400  0.25773800  1
  Ca  Ca7  1  0.75850500  0.75368000  0.71380100  1
  Ti  Ti8  1  0.01458000  0.00000000  0.99092800  1
  Mn  Mn9  1  0.00766700  0.00000000  0.50090500  1
  Mn  Mn10  1  0.98938600  0.50000000  0.01102100  1
  Mn  Mn11  1  0.00269700  0.50000000  0.49848000  1
  Mn  Mn12  1  0.49713600  0.00000000  0.99832800  1
  Mn  Mn13  1  0.51130800  0.00000000  0.47947200  1
  Mn  Mn14  1  0.49779700  0.50000000  0.99028300  1
  Mn  Mn15  1  0.50568000  0.50000000  0.49922000  1
  O  O16  1  0.96167900  0.00000000  0.76433200  1
  O  O17  1  0.01607700  0.50000000  0.25666900  1
  O  O18  1  0.99850200  0.50000000  0.75947900  1
  O  O19  1  0.56656500  0.00000000  0.23112500  1
  O  O20  1  0.52800300  0.00000000  0.74838400  1
  O  O21  1  0.49205200  0.50000000  0.74750400  1
  O  O22  1  0.23978000  0.00000000  0.04054800  1
  O  O23  1  0.25652900  0.00000000  0.47648900  1
  O  O24  1  0.25150100  0.50000000  0.03334900  1
  O  O25  1  0.26018700  0.50000000  0.48904900  1
  O  O26  1  0.76216200  0.00000000  0.48481100  1
  O  O27  1  0.73613700  0.50000000  0.04151400  1
  O  O28  1  0.74927900  0.50000000  0.48601100  1
  O  O29  1  0.94738300  0.20546100  0.07552500  1
  O  O30  1  0.01264600  0.24903800  0.50496300  1
  O  O31  1  0.94738300  0.79453900  0.07552500  1
  O  O32  1  0.01264600  0.75096200  0.50496300  1
  O  O33  1  0.49694500  0.25509800  0.02388500  1
  O  O34  1  0.50067400  0.25523300  0.47514100  1
  O  O35  1  0.49694500  0.74490200  0.02388500  1
  O  O36  1  0.50067400  0.74476700  0.47514100  1
