# generated using pymatgen
data_Ca4Mn3CrO10
_symmetry_space_group_name_H-M   'P 1'
_cell_length_a   7.86773879
_cell_length_b   7.85172458
_cell_length_c   7.60953004
_cell_angle_alpha   88.48225415
_cell_angle_beta   88.52597539
_cell_angle_gamma   90.67200751
_symmetry_Int_Tables_number   1
_chemical_formula_structural   Ca4Mn3CrO10
_chemical_formula_sum   'Ca8 Mn6 Cr2 O20'
_cell_volume   469.72449644
_cell_formula_units_Z   2
loop_
 _symmetry_equiv_pos_site_id
 _symmetry_equiv_pos_as_xyz
  1  'x, y, z'
loop_
 _atom_site_type_symbol
 _atom_site_label
 _atom_site_symmetry_multiplicity
 _atom_site_fract_x
 _atom_site_fract_y
 _atom_site_fract_z
 _atom_site_occupancy
  Ca  Ca0  1  0.25140300  0.26233800  0.26553900  1
  Ca  Ca1  1  0.27069600  0.27893900  0.69750800  1
  Ca  Ca2  1  0.25095400  0.73096100  0.26564500  1
  Ca  Ca3  1  0.25637900  0.71975700  0.70724300  1
  Ca  Ca4  1  0.73283900  0.25358900  0.26004600  1
  Ca  Ca5  1  0.72011300  0.26205400  0.71224100  1
  Ca  Ca6  1  0.74170400  0.74388800  0.26761500  1
  Ca  Ca7  1  0.72806700  0.73339300  0.72648400  1
  Mn  Mn8  1  0.00306100  0.00296000  0.51856000  1
  Mn  Mn9  1  0.99898800  0.48777800  0.00309100  1
  Mn  Mn10  1  0.99900600  0.50804500  0.49099900  1
  Mn  Mn11  1  0.50806200  0.00186300  0.48975900  1
  Mn  Mn12  1  0.50022400  0.50236200  0.99929400  1
  Mn  Mn13  1  0.50348600  0.50368700  0.48709600  1
  Cr  Cr14  1  0.03038700  0.01925600  0.98373300  1
  Cr  Cr15  1  0.47375900  0.99792600  0.00673300  1
  O  O16  1  0.94157400  0.93034300  0.79444700  1
  O  O17  1  0.99670200  0.55364600  0.23969900  1
  O  O18  1  0.02046600  0.51051800  0.74880700  1
  O  O19  1  0.55981600  0.99880300  0.23896200  1
  O  O20  1  0.51543700  0.01642000  0.75173200  1
  O  O21  1  0.49020700  0.49448700  0.74356300  1
  O  O22  1  0.23486100  0.95679900  0.06459200  1
  O  O23  1  0.25170500  0.00835800  0.49827200  1
  O  O24  1  0.25319500  0.50349900  0.02909300  1
  O  O25  1  0.26152900  0.49891500  0.46883100  1
  O  O26  1  0.76202700  0.01008000  0.48803300  1
  O  O27  1  0.74880600  0.51263700  0.01449100  1
  O  O28  1  0.74366600  0.50159600  0.48564200  1
  O  O29  1  0.96157200  0.21969200  0.06295700  1
  O  O30  1  0.01004100  0.25148000  0.50212300  1
  O  O31  1  0.01077400  0.76230100  0.48215300  1
  O  O32  1  0.49874100  0.25500800  0.03111700  1
  O  O33  1  0.49758200  0.26280200  0.46941100  1
  O  O34  1  0.52222100  0.74928200  0.02180600  1
  O  O35  1  0.49994900  0.74454100  0.48268000  1
