# generated using pymatgen
data_Al2ZnS4
_symmetry_space_group_name_H-M   'P 1'
_cell_length_a   6.15986900
_cell_length_b   7.39995400
_cell_length_c   26.38757300
_cell_angle_alpha   90.00000000
_cell_angle_beta   90.00000000
_cell_angle_gamma   90.00000000
_symmetry_Int_Tables_number   1
_chemical_formula_structural   Al2ZnS4
_chemical_formula_sum   'Al16 Zn8 S32'
_cell_volume   1202.81807050
_cell_formula_units_Z   8
loop_
 _symmetry_equiv_pos_site_id
 _symmetry_equiv_pos_as_xyz
  1  'x, y, z'
loop_
 _atom_site_type_symbol
 _atom_site_label
 _atom_site_symmetry_multiplicity
 _atom_site_fract_x
 _atom_site_fract_y
 _atom_site_fract_z
 _atom_site_occupancy
  Al  Al0  1  0.37599100  0.25139300  0.28970700  1
  Al  Al1  1  0.37615900  0.24933200  0.78989200  1
  Al  Al2  1  0.37599100  0.74860700  0.28970700  1
  Al  Al3  1  0.37615900  0.75066800  0.78989200  1
  Al  Al4  1  0.37624400  0.24870800  0.03990200  1
  Al  Al5  1  0.37590300  0.24912900  0.53971200  1
  Al  Al6  1  0.37624400  0.75129200  0.03990200  1
  Al  Al7  1  0.37590300  0.75087100  0.53971200  1
  Al  Al8  1  0.87615900  0.25066800  0.46010800  1
  Al  Al9  1  0.87624400  0.25129200  0.21009800  1
  Al  Al10  1  0.87615900  0.74933200  0.46010800  1
  Al  Al11  1  0.87624400  0.74870800  0.21009800  1
  Al  Al12  1  0.87599100  0.24860700  0.96029300  1
  Al  Al13  1  0.87590300  0.25087100  0.71028800  1
  Al  Al14  1  0.87599100  0.75139300  0.96029300  1
  Al  Al15  1  0.87590300  0.74912900  0.71028800  1
  Zn  Zn16  1  0.37411400  0.50000000  0.16796700  1
  Zn  Zn17  1  0.37464400  0.00000000  0.66794500  1
  Zn  Zn18  1  0.37527400  0.00000000  0.41748900  1
  Zn  Zn19  1  0.37351900  0.00000000  0.91834400  1
  Zn  Zn20  1  0.87464400  0.50000000  0.58205500  1
  Zn  Zn21  1  0.87411400  0.00000000  0.08203300  1
  Zn  Zn22  1  0.87351900  0.50000000  0.33165600  1
  Zn  Zn23  1  0.87527400  0.50000000  0.83251100  1
  S  S24  1  0.00553400  0.26008700  0.04071800  1
  S  S25  1  0.99839100  0.00000000  0.16783800  1
  S  S26  1  0.00553400  0.73991300  0.04071800  1
  S  S27  1  0.00535100  0.23969700  0.29055100  1
  S  S28  1  0.98913600  0.50000000  0.16623800  1
  S  S29  1  0.00541700  0.24163900  0.54045300  1
  S  S30  1  0.00535100  0.76030300  0.29055100  1
  S  S31  1  0.99050900  0.00000000  0.66762900  1
  S  S32  1  0.99709000  0.50000000  0.66728600  1
  S  S33  1  0.00541700  0.75836100  0.54045300  1
  S  S34  1  0.00559700  0.24201200  0.79060000  1
  S  S35  1  0.00559700  0.75798800  0.79060000  1
  S  S36  1  0.50559700  0.25798800  0.45940000  1
  S  S37  1  0.50535100  0.26030300  0.95944900  1
  S  S38  1  0.50553400  0.23991300  0.20928200  1
  S  S39  1  0.50541700  0.25836100  0.70954700  1
  S  S40  1  0.50559700  0.74201200  0.45940000  1
  S  S41  1  0.50535100  0.73969700  0.95944900  1
  S  S42  1  0.50541700  0.74163900  0.70954700  1
  S  S43  1  0.50553400  0.76008700  0.20928200  1
  S  S44  1  0.48913600  0.00000000  0.08376200  1
  S  S45  1  0.49839100  0.50000000  0.08216200  1
  S  S46  1  0.49709000  0.00000000  0.58271400  1
  S  S47  1  0.49050900  0.50000000  0.58237100  1
  S  S48  1  0.49701200  0.00000000  0.83288300  1
  S  S49  1  0.49089500  0.50000000  0.83266500  1
  S  S50  1  0.49834500  0.00000000  0.33188400  1
  S  S51  1  0.48868300  0.50000000  0.33360400  1
  S  S52  1  0.99089500  0.00000000  0.41733500  1
  S  S53  1  0.99701200  0.50000000  0.41711700  1
  S  S54  1  0.99834500  0.50000000  0.91811600  1
  S  S55  1  0.98868300  0.00000000  0.91639600  1
