# generated using pymatgen
data_Ca8TiMn7O21
_symmetry_space_group_name_H-M   'P 1'
_cell_length_a   11.01871333
_cell_length_b   15.42236444
_cell_length_c   10.99542519
_cell_angle_alpha   89.99648855
_cell_angle_beta   91.41896180
_cell_angle_gamma   90.47115878
_symmetry_Int_Tables_number   1
_chemical_formula_structural   Ca8TiMn7O21
_chemical_formula_sum   'Ca32 Ti4 Mn28 O84'
_cell_volume   1867.86716700
_cell_formula_units_Z   4
loop_
 _symmetry_equiv_pos_site_id
 _symmetry_equiv_pos_as_xyz
  1  'x, y, z'
loop_
 _atom_site_type_symbol
 _atom_site_label
 _atom_site_symmetry_multiplicity
 _atom_site_fract_x
 _atom_site_fract_y
 _atom_site_fract_z
 _atom_site_occupancy
  Ca  Ca0  1  0.99112969  0.10944201  0.51817827  1
  Ca  Ca1  1  0.98796981  0.11683168  0.01189493  1
  Ca  Ca2  1  0.00611106  0.62385115  0.51374466  1
  Ca  Ca3  1  0.01828176  0.62219266  0.99199628  1
  Ca  Ca4  1  0.54368087  0.12554339  0.47498116  1
  Ca  Ca5  1  0.54997526  0.12667914  0.98654176  1
  Ca  Ca6  1  0.52990556  0.63036149  0.51246158  1
  Ca  Ca7  1  0.53375657  0.62134258  0.97400919  1
  Ca  Ca8  1  0.51035623  0.38635137  0.98598806  1
  Ca  Ca9  1  0.49628042  0.38012285  0.51098393  1
  Ca  Ca10  1  0.51955883  0.86011070  0.98091316  1
  Ca  Ca11  1  0.48967268  0.86510734  0.50632115  1
  Ca  Ca12  1  0.96497162  0.38758582  0.00539890  1
  Ca  Ca13  1  0.95927404  0.38890806  0.50421555  1
  Ca  Ca14  1  0.95514125  0.87620694  0.99646968  1
  Ca  Ca15  1  0.96601691  0.87010949  0.51487350  1
  Ca  Ca16  1  0.23887985  0.39216410  0.24671979  1
  Ca  Ca17  1  0.23748844  0.40490780  0.77335491  1
  Ca  Ca18  1  0.23654268  0.88284981  0.27640976  1
  Ca  Ca19  1  0.22347842  0.87325667  0.72937681  1
  Ca  Ca20  1  0.74863735  0.37925056  0.24666992  1
  Ca  Ca21  1  0.73389615  0.38460662  0.75459371  1
  Ca  Ca22  1  0.74663814  0.86449251  0.24947580  1
  Ca  Ca23  1  0.73234065  0.86634828  0.74558793  1
  Ca  Ca24  1  0.22815716  0.12153357  0.24274378  1
  Ca  Ca25  1  0.22101857  0.11367330  0.72966185  1
  Ca  Ca26  1  0.23852655  0.62467614  0.26551818  1
  Ca  Ca27  1  0.26484404  0.63014519  0.73898428  1
  Ca  Ca28  1  0.77645584  0.11809281  0.25202097  1
  Ca  Ca29  1  0.78059173  0.12404884  0.75141721  1
  Ca  Ca30  1  0.77981399  0.62229364  0.25805400  1
  Ca  Ca31  1  0.77393095  0.62377641  0.75632671  1
  Ti  Ti32  1  0.98994665  0.99252375  0.26096066  1
  Ti  Ti33  1  0.23501330  0.98901963  0.01879497  1
  Ti  Ti34  1  0.26931126  0.23174499  0.94591625  1
  Ti  Ti35  1  0.99259507  0.25435105  0.27155014  1
  Mn  Mn36  1  0.99170489  0.99457937  0.75463366  1
  Mn  Mn37  1  0.00208129  0.50154597  0.25282915  1
  Mn  Mn38  1  0.99747447  0.49987860  0.75597017  1
  Mn  Mn39  1  0.50427654  0.99018369  0.22880055  1
  Mn  Mn40  1  0.50537929  0.99537501  0.73267558  1
  Mn  Mn41  1  0.50732172  0.49034098  0.24362513  1
  Mn  Mn42  1  0.49624729  0.50053596  0.74942416  1
  Mn  Mn43  1  0.23781850  0.00414692  0.50850304  1
  Mn  Mn44  1  0.25396108  0.51606822  0.01306734  1
  Mn  Mn45  1  0.23710498  0.49455584  0.51024383  1
  Mn  Mn46  1  0.74456912  0.99966226  0.99312070  1
  Mn  Mn47  1  0.74159550  0.99678062  0.49667054  1
  Mn  Mn48  1  0.75212909  0.50349966  0.00245302  1
  Mn  Mn49  1  0.74399740  0.50260585  0.50226673  1
  Mn  Mn50  1  0.26646855  0.24576688  0.44921434  1
  Mn  Mn51  1  0.26354992  0.75354090  0.98035304  1
  Mn  Mn52  1  0.24819523  0.74976309  0.49901525  1
  Mn  Mn53  1  0.75770943  0.25022211  0.00404136  1
  Mn  Mn54  1  0.74978522  0.25074849  0.50417774  1
  Mn  Mn55  1  0.75404448  0.74516823  0.00057011  1
  Mn  Mn56  1  0.75237741  0.74623518  0.50387729  1
  Mn  Mn57  1  0.99317303  0.25848406  0.76283868  1
  Mn  Mn58  1  0.99749637  0.74900731  0.26335749  1
  Mn  Mn59  1  0.99903306  0.75071265  0.75171262  1
  Mn  Mn60  1  0.51683894  0.25268441  0.25021063  1
  Mn  Mn61  1  0.51166180  0.24747538  0.75255367  1
  Mn  Mn62  1  0.51091841  0.75179943  0.26083120  1
  Mn  Mn63  1  0.50284252  0.74667090  0.74834812  1
  O  O64  1  0.10047686  0.77046758  0.60863017  1
  O  O65  1  0.59024761  0.26078562  0.09445438  1
  O  O66  1  0.56991724  0.25063954  0.58622377  1
  O  O67  1  0.59830458  0.75862005  0.11141250  1
  O  O68  1  0.60545867  0.76279757  0.60028545  1
  O  O69  1  0.40093596  0.18787037  0.34402396  1
  O  O70  1  0.39431625  0.17936573  0.86179551  1
  O  O71  1  0.40019939  0.70364651  0.37060272  1
  O  O72  1  0.40976917  0.73061233  0.89964168  1
  O  O73  1  0.92810279  0.23635174  0.41880151  1
  O  O74  1  0.90965874  0.23921203  0.92237370  1
  O  O75  1  0.89424062  0.72967121  0.40790162  1
  O  O76  1  0.89982526  0.73303568  0.90261453  1
  O  O77  1  0.16240159  0.25524259  0.28540698  1
  O  O78  1  0.17178259  0.25258577  0.81040366  1
  O  O79  1  0.15783638  0.74841595  0.33791794  1
  O  O80  1  0.14534771  0.73750179  0.85168817  1
  O  O81  1  0.65871713  0.22342237  0.34418044  1
  O  O82  1  0.66055101  0.22718972  0.85710823  1
  O  O83  1  0.65652640  0.72566977  0.35403053  1
  O  O84  1  0.65041839  0.72773937  0.85625174  1
  O  O85  1  0.35324454  0.76324829  0.64148387  1
  O  O86  1  0.85973178  0.26889153  0.15552226  1
  O  O87  1  0.85413708  0.27705860  0.65584764  1
  O  O88  1  0.86727286  0.77117016  0.14269379  1
  O  O89  1  0.85292806  0.77128805  0.64859392  1
  O  O90  1  0.35621823  0.51277769  0.16698030  1
  O  O91  1  0.35285358  0.48797715  0.64404886  1
  O  O92  1  0.35219544  0.02281681  0.14344762  1
  O  O93  1  0.34543359  0.00627706  0.65303164  1
  O  O94  1  0.85828848  0.48358326  0.14646428  1
  O  O95  1  0.85603022  0.47991517  0.64691659  1
  O  O96  1  0.85481478  0.97966241  0.14600690  1
  O  O97  1  0.84265402  0.97958391  0.64220725  1
  O  O98  1  0.15092867  0.00897482  0.35305303  1
  O  O99  1  0.17111134  0.01160360  0.86691061  1
  O  O100  1  0.15010278  0.50751727  0.35539773  1
  O  O101  1  0.15056944  0.52554433  0.86449507  1
  O  O102  1  0.63656605  0.02205258  0.34159970  1
  O  O103  1  0.63643416  0.03042108  0.84675491  1
  O  O104  1  0.62134446  0.52801503  0.36290669  1
  O  O105  1  0.64328962  0.51673649  0.85741957  1
  O  O106  1  0.39277081  0.51059662  0.90545662  1
  O  O107  1  0.89101276  0.01265213  0.39190021  1
  O  O108  1  0.89265399  0.01305990  0.89665518  1
  O  O109  1  0.89372615  0.51991476  0.39037327  1
  O  O110  1  0.89353897  0.51742375  0.89932515  1
  O  O111  1  0.11212442  0.47636260  0.10767169  1
  O  O112  1  0.09915765  0.47330075  0.61980265  1
  O  O113  1  0.10236847  0.96974110  0.10838584  1
  O  O114  1  0.09306074  0.98249394  0.61678866  1
  O  O115  1  0.61097574  0.48817568  0.10644547  1
  O  O116  1  0.60184599  0.48496460  0.61337495  1
  O  O117  1  0.59535274  0.98967953  0.08006451  1
  O  O118  1  0.59003944  0.99157766  0.57741905  1
  O  O119  1  0.99574284  0.37878100  0.28707232  1
  O  O120  1  0.01547073  0.37954768  0.80144218  1
  O  O121  1  0.00327765  0.87275959  0.29060996  1
  O  O122  1  0.00969957  0.87314013  0.79413474  1
  O  O123  1  0.47518191  0.37454011  0.29193222  1
  O  O124  1  0.49037372  0.37460339  0.77560328  1
  O  O125  1  0.46053222  0.87192293  0.28247893  1
  O  O126  1  0.51151148  0.87084472  0.77260148  1
  O  O127  1  0.48550655  0.62349252  0.71975035  1
  O  O128  1  0.99855705  0.12490946  0.22502191  1
  O  O129  1  0.99864501  0.13145928  0.72684386  1
  O  O130  1  0.00650803  0.62690957  0.21428978  1
  O  O131  1  0.98945834  0.62460324  0.71999309  1
  O  O132  1  0.20191214  0.14671390  0.03755575  1
  O  O133  1  0.21229846  0.13290410  0.52304340  1
  O  O134  1  0.22802790  0.65089605  0.06048896  1
  O  O135  1  0.22711223  0.62130590  0.52510393  1
  O  O136  1  0.75633457  0.12545192  0.04055084  1
  O  O137  1  0.75467663  0.12355161  0.53406316  1
  O  O138  1  0.74525118  0.62443163  0.04209114  1
  O  O139  1  0.74555852  0.62478042  0.54418371  1
  O  O140  1  0.28110354  0.37318041  0.47048364  1
  O  O141  1  0.30533720  0.33471804  0.01649228  1
  O  O142  1  0.27846046  0.88365738  0.47836604  1
  O  O143  1  0.29570175  0.87821730  0.99568381  1
  O  O144  1  0.74370174  0.37712310  0.46168626  1
  O  O145  1  0.74903262  0.37634389  0.97089835  1
  O  O146  1  0.74792720  0.87275346  0.45951115  1
  O  O147  1  0.74304751  0.87260539  0.96395128  1
