# generated using pymatgen
data_Ba(Cu3P)2
_symmetry_space_group_name_H-M   'P 1'
_cell_length_a   15.16460042
_cell_length_b   15.16460042
_cell_length_c   29.65354197
_cell_angle_alpha   90.00000000
_cell_angle_beta   90.00000000
_cell_angle_gamma   90.00000000
_symmetry_Int_Tables_number   1
_chemical_formula_structural   Ba(Cu3P)2
_chemical_formula_sum   'Ba1 Cu6 P2'
_cell_volume   6819.27991939
_cell_formula_units_Z   1
loop_
 _symmetry_equiv_pos_site_id
 _symmetry_equiv_pos_as_xyz
  1  'x, y, z'
loop_
 _atom_site_type_symbol
 _atom_site_label
 _atom_site_symmetry_multiplicity
 _atom_site_fract_x
 _atom_site_fract_y
 _atom_site_fract_z
 _atom_site_occupancy
  Ba  Ba0  1  -0.00000000  0.00000000  0.00000000  1
  Cu  Cu1  1  0.50000000  0.00000000  0.69615179  1
  Cu  Cu2  1  0.00000000  0.50000000  0.30384821  1
  Cu  Cu3  1  -0.00000000  0.00000000  0.50000000  1
  Cu  Cu4  1  -0.00000000  0.50000000  0.69615179  1
  Cu  Cu5  1  0.50000000  0.50000000  0.50000000  1
  Cu  Cu6  1  0.50000000  -0.00000000  0.30384821  1
  P  P7  1  0.50000000  0.50000000  0.42654614  1
  P  P8  1  0.50000000  0.50000000  0.57345386  1
