# generated using pymatgen
data_SrCa7TiMn7O23
_symmetry_space_group_name_H-M   'P 1'
_cell_length_a   7.65244594
_cell_length_b   7.65244594
_cell_length_c   7.64977523
_cell_angle_alpha   89.92750552
_cell_angle_beta   89.92750552
_cell_angle_gamma   90.21510199
_symmetry_Int_Tables_number   1
_chemical_formula_structural   SrCa7TiMn7O23
_chemical_formula_sum   'Sr1 Ca7 Ti1 Mn7 O23'
_cell_volume   447.96641652
_cell_formula_units_Z   1
loop_
 _symmetry_equiv_pos_site_id
 _symmetry_equiv_pos_as_xyz
  1  'x, y, z'
loop_
 _atom_site_type_symbol
 _atom_site_label
 _atom_site_symmetry_multiplicity
 _atom_site_fract_x
 _atom_site_fract_y
 _atom_site_fract_z
 _atom_site_occupancy
  Sr  Sr0  1  0.25922100  0.25922100  0.25063100  1
  Ca  Ca1  1  0.25554800  0.25554800  0.74716800  1
  Ca  Ca2  1  0.26323600  0.72821700  0.25027700  1
  Ca  Ca3  1  0.26739200  0.74561200  0.74745500  1
  Ca  Ca4  1  0.72821700  0.26323600  0.25027700  1
  Ca  Ca5  1  0.74561200  0.26739200  0.74745500  1
  Ca  Ca6  1  0.74767600  0.74767600  0.25093200  1
  Ca  Ca7  1  0.72891500  0.72891500  0.74887300  1
  Ti  Ti8  1  0.99116400  0.99116400  0.97502900  1
  Mn  Mn9  1  0.99785300  0.99785300  0.50640000  1
  Mn  Mn10  1  0.00082100  0.50224700  0.00125700  1
  Mn  Mn11  1  0.00064000  0.50446100  0.49969600  1
  Mn  Mn12  1  0.50224700  0.00082100  0.00125700  1
  Mn  Mn13  1  0.50446100  0.00064000  0.49969600  1
  Mn  Mn14  1  0.50157900  0.50157900  0.99930300  1
  Mn  Mn15  1  0.50181500  0.50181500  0.50096600  1
  O  O16  1  0.94323900  0.94323900  0.75534900  1
  O  O17  1  0.97619100  0.44515800  0.25102900  1
  O  O18  1  0.01981500  0.55927400  0.75050300  1
  O  O19  1  0.44515800  0.97619100  0.25102900  1
  O  O20  1  0.55927400  0.01981500  0.75050300  1
  O  O21  1  0.52275700  0.52275700  0.25031400  1
  O  O22  1  0.47838900  0.47838900  0.75042500  1
  O  O23  1  0.25061900  0.00294300  0.96090800  1
  O  O24  1  0.25124200  0.00293200  0.54891600  1
  O  O25  1  0.25077500  0.50615500  0.02210800  1
  O  O26  1  0.25126000  0.50613400  0.48044400  1
  O  O27  1  0.75539600  0.00593300  0.06086700  1
  O  O28  1  0.75536300  0.00645900  0.43357600  1
  O  O29  1  0.75246400  0.50415200  0.97378500  1
  O  O30  1  0.75211400  0.50483800  0.52648400  1
  O  O31  1  0.00294300  0.25061900  0.96090800  1
  O  O32  1  0.00293200  0.25124200  0.54891600  1
  O  O33  1  0.00593300  0.75539600  0.06086700  1
  O  O34  1  0.00645900  0.75536300  0.43357600  1
  O  O35  1  0.50615500  0.25077500  0.02210800  1
  O  O36  1  0.50613400  0.25126000  0.48044400  1
  O  O37  1  0.50415200  0.75246400  0.97378500  1
  O  O38  1  0.50483800  0.75211400  0.52648400  1
