# generated using pymatgen
data_SrCa7Mn6Cr2O24
_symmetry_space_group_name_H-M   'P 1'
_cell_length_a   10.86251350
_cell_length_b   15.17886878
_cell_length_c   10.70498014
_cell_angle_alpha   90.00625238
_cell_angle_beta   90.02892518
_cell_angle_gamma   90.00340882
_symmetry_Int_Tables_number   1
_chemical_formula_structural   SrCa7Mn6Cr2O24
_chemical_formula_sum   'Sr4 Ca28 Mn24 Cr8 O96'
_cell_volume   1765.04402711
_cell_formula_units_Z   4
loop_
 _symmetry_equiv_pos_site_id
 _symmetry_equiv_pos_as_xyz
  1  'x, y, z'
loop_
 _atom_site_type_symbol
 _atom_site_label
 _atom_site_symmetry_multiplicity
 _atom_site_fract_x
 _atom_site_fract_y
 _atom_site_fract_z
 _atom_site_occupancy
  Sr  Sr0  1  0.01473355  0.12472422  0.49770388  1
  Sr  Sr1  1  0.48418020  0.37515410  0.00243525  1
  Sr  Sr2  1  0.23331616  0.37588604  0.24687279  1
  Sr  Sr3  1  0.26753677  0.12463897  0.25336432  1
  Ca  Ca4  1  0.01973359  0.12477113  0.99535285  1
  Ca  Ca5  1  0.02292781  0.62512072  0.49538454  1
  Ca  Ca6  1  0.02279515  0.62517084  0.99560235  1
  Ca  Ca7  1  0.52385503  0.12497189  0.49507361  1
  Ca  Ca8  1  0.52455793  0.12493770  0.99485263  1
  Ca  Ca9  1  0.52288737  0.62516991  0.49535341  1
  Ca  Ca10  1  0.52271878  0.62520529  0.99579425  1
  Ca  Ca11  1  0.47915834  0.37500534  0.50492409  1
  Ca  Ca12  1  0.47818682  0.87494288  0.00459390  1
  Ca  Ca13  1  0.47842923  0.87470212  0.50448747  1
  Ca  Ca14  1  0.97750456  0.37562255  0.00426596  1
  Ca  Ca15  1  0.97653203  0.37553430  0.50456957  1
  Ca  Ca16  1  0.97710923  0.87430510  0.00450438  1
  Ca  Ca17  1  0.97719780  0.87448354  0.50400067  1
  Ca  Ca18  1  0.22782511  0.37616213  0.74475112  1
  Ca  Ca19  1  0.22810432  0.87381145  0.24582695  1
  Ca  Ca20  1  0.22820867  0.87378037  0.74557987  1
  Ca  Ca21  1  0.72805472  0.37461049  0.24632353  1
  Ca  Ca22  1  0.72689334  0.37451653  0.74473115  1
  Ca  Ca23  1  0.72679580  0.87530741  0.24541888  1
  Ca  Ca24  1  0.72645368  0.87544972  0.74500702  1
  Ca  Ca25  1  0.27320145  0.12472995  0.75552855  1
  Ca  Ca26  1  0.27287154  0.62532874  0.25428557  1
  Ca  Ca27  1  0.27290962  0.62537485  0.75463066  1
  Ca  Ca28  1  0.76921253  0.12490416  0.25346731  1
  Ca  Ca29  1  0.77057168  0.12507273  0.75470039  1
  Ca  Ca30  1  0.77267636  0.62505355  0.25435949  1
  Ca  Ca31  1  0.77291484  0.62494578  0.75468844  1
  Mn  Mn32  1  0.99904080  0.50098281  0.24993985  1
  Mn  Mn33  1  0.99976319  0.50039806  0.75003601  1
  Mn  Mn34  1  0.50103415  0.99920923  0.25039784  1
  Mn  Mn35  1  0.50024897  0.99992546  0.75049359  1
  Mn  Mn36  1  0.50190650  0.50179456  0.25089527  1
  Mn  Mn37  1  0.50013435  0.50088532  0.74817344  1
  Mn  Mn38  1  0.24932220  0.50166299  0.99827658  1
  Mn  Mn39  1  0.24996236  0.50119911  0.50151302  1
  Mn  Mn40  1  0.74969805  0.99948020  0.99975630  1
  Mn  Mn41  1  0.74810567  0.99893232  0.49988130  1
  Mn  Mn42  1  0.75169204  0.50096745  0.00045142  1
  Mn  Mn43  1  0.75003489  0.50045674  0.50039750  1
  Mn  Mn44  1  0.25007020  0.74993928  0.99946159  1
  Mn  Mn45  1  0.25037432  0.74978290  0.49977084  1
  Mn  Mn46  1  0.75102024  0.24934692  0.00027317  1
  Mn  Mn47  1  0.74815671  0.25067435  0.50021603  1
  Mn  Mn48  1  0.75016874  0.75020215  0.99980453  1
  Mn  Mn49  1  0.74990983  0.74984720  0.50014050  1
  Mn  Mn50  1  0.99986483  0.74958831  0.24990098  1
  Mn  Mn51  1  0.99993414  0.74976996  0.74999894  1
  Mn  Mn52  1  0.50251583  0.24858759  0.25102639  1
  Mn  Mn53  1  0.50004214  0.24910506  0.74860395  1
  Mn  Mn54  1  0.50039186  0.75024940  0.25033443  1
  Mn  Mn55  1  0.50022464  0.75010711  0.75020009  1
  Cr  Cr56  1  0.99739906  0.99758725  0.24772068  1
  Cr  Cr57  1  0.99927818  0.99859402  0.75051287  1
  Cr  Cr58  1  0.25065866  0.99894010  0.99722517  1
  Cr  Cr59  1  0.25171471  0.99827593  0.50072618  1
  Cr  Cr60  1  0.24967046  0.24933132  0.99608852  1
  Cr  Cr61  1  0.25079496  0.25060740  0.50228975  1
  Cr  Cr62  1  0.99606833  0.25169260  0.24777611  1
  Cr  Cr63  1  0.99913409  0.25128565  0.75012023  1
  O  O64  1  0.10201219  0.26697486  0.10535877  1
  O  O65  1  0.10345725  0.27010664  0.60936234  1
  O  O66  1  0.10428943  0.77104092  0.10297746  1
  O  O67  1  0.10419335  0.77105700  0.60312826  1
  O  O68  1  0.60979310  0.26652604  0.10764518  1
  O  O69  1  0.60377601  0.26958719  0.60200548  1
  O  O70  1  0.60416615  0.77041199  0.10296045  1
  O  O71  1  0.60408051  0.77033981  0.60310044  1
  O  O72  1  0.39927957  0.23259914  0.39721108  1
  O  O73  1  0.39665401  0.22882489  0.89319790  1
  O  O74  1  0.39608846  0.72937649  0.39693640  1
  O  O75  1  0.39615494  0.72957702  0.89682287  1
  O  O76  1  0.88896175  0.23326459  0.39097142  1
  O  O77  1  0.89530555  0.23045121  0.89672962  1
  O  O78  1  0.89614400  0.72973948  0.39723721  1
  O  O79  1  0.89626708  0.72984411  0.89710453  1
  O  O80  1  0.14166439  0.23594858  0.36178753  1
  O  O81  1  0.14586676  0.23073770  0.85457694  1
  O  O82  1  0.14623893  0.72972564  0.35305225  1
  O  O83  1  0.14616481  0.72980916  0.85283544  1
  O  O84  1  0.64624532  0.22960200  0.35411929  1
  O  O85  1  0.64575662  0.23029961  0.85342718  1
  O  O86  1  0.64619005  0.72940743  0.35309274  1
  O  O87  1  0.64604008  0.72940904  0.85296033  1
  O  O88  1  0.35856589  0.26467189  0.14066684  1
  O  O89  1  0.35350644  0.26902748  0.64774446  1
  O  O90  1  0.35420980  0.77064380  0.14664636  1
  O  O91  1  0.35427889  0.77057139  0.64686914  1
  O  O92  1  0.85311806  0.26994138  0.14518901  1
  O  O93  1  0.85312919  0.26917175  0.64572701  1
  O  O94  1  0.85399661  0.77088854  0.14702268  1
  O  O95  1  0.85411024  0.77086048  0.64718962  1
  O  O96  1  0.35712481  0.48639297  0.14327169  1
  O  O97  1  0.35392766  0.48058153  0.64708073  1
  O  O98  1  0.35520533  0.97880586  0.14480832  1
  O  O99  1  0.35431067  0.97894700  0.64720538  1
  O  O100  1  0.85440889  0.47951937  0.14675512  1
  O  O101  1  0.85411965  0.47925912  0.64714941  1
  O  O102  1  0.85290244  0.97965356  0.14551928  1
  O  O103  1  0.85341488  0.98071652  0.64584014  1
  O  O104  1  0.14230584  0.01367212  0.35960395  1
  O  O105  1  0.14629007  0.01841845  0.85483346  1
  O  O106  1  0.14445105  0.52170353  0.35501201  1
  O  O107  1  0.14583296  0.52091503  0.85213156  1
  O  O108  1  0.64604976  0.01993834  0.35318398  1
  O  O109  1  0.64649094  0.02037286  0.85262112  1
  O  O110  1  0.64617831  0.52109430  0.35427601  1
  O  O111  1  0.64515490  0.51992657  0.85380933  1
  O  O112  1  0.39875368  0.01764936  0.39832800  1
  O  O113  1  0.39787996  0.01960776  0.89634212  1
  O  O114  1  0.39546646  0.52008694  0.39666555  1
  O  O115  1  0.39445478  0.52215126  0.89385890  1
  O  O116  1  0.88954673  0.01610056  0.39094605  1
  O  O117  1  0.89530779  0.01945799  0.89706370  1
  O  O118  1  0.89549455  0.52078676  0.39737317  1
  O  O119  1  0.89610283  0.52040288  0.89701252  1
  O  O120  1  0.10193528  0.48171164  0.10139723  1
  O  O121  1  0.10358253  0.47937425  0.60377234  1
  O  O122  1  0.10421914  0.98079174  0.10550615  1
  O  O123  1  0.10516257  0.97970151  0.60785774  1
  O  O124  1  0.60963725  0.48416890  0.10813661  1
  O  O125  1  0.60436185  0.48066826  0.60212181  1
  O  O126  1  0.60415829  0.97883949  0.10257080  1
  O  O127  1  0.60339171  0.97934514  0.60286256  1
  O  O128  1  0.00393858  0.37583200  0.28769737  1
  O  O129  1  0.00991661  0.37501057  0.78943702  1
  O  O130  1  0.00973987  0.87407018  0.28760612  1
  O  O131  1  0.01019174  0.87518994  0.78931769  1
  O  O132  1  0.50907265  0.37561450  0.28726645  1
  O  O133  1  0.51020245  0.37525047  0.77956086  1
  O  O134  1  0.51052571  0.87452497  0.28981304  1
  O  O135  1  0.51016273  0.87479369  0.78982063  1
  O  O136  1  0.49705586  0.12373110  0.21094569  1
  O  O137  1  0.48979325  0.12453971  0.70953660  1
  O  O138  1  0.49042986  0.62631136  0.21154229  1
  O  O139  1  0.49014507  0.62539197  0.70985535  1
  O  O140  1  0.99113055  0.12459685  0.21469430  1
  O  O141  1  0.99031473  0.12477382  0.72206592  1
  O  O142  1  0.98941123  0.62535813  0.21045028  1
  O  O143  1  0.98981073  0.62510121  0.71045442  1
  O  O144  1  0.23915071  0.12418021  0.02786248  1
  O  O145  1  0.24513041  0.12513560  0.53603629  1
  O  O146  1  0.23909569  0.62592256  0.03891604  1
  O  O147  1  0.24013316  0.62523072  0.54008519  1
  O  O148  1  0.74148382  0.12425641  0.03888745  1
  O  O149  1  0.74176291  0.12479181  0.53925847  1
  O  O150  1  0.74079012  0.62571807  0.03901471  1
  O  O151  1  0.73993002  0.62517705  0.53981315  1
  O  O152  1  0.26111439  0.37526305  0.47130279  1
  O  O153  1  0.25442613  0.37472856  0.96202921  1
  O  O154  1  0.26097326  0.87431910  0.46162743  1
  O  O155  1  0.25997539  0.87514743  0.96053211  1
  O  O156  1  0.75932341  0.37576940  0.46132921  1
  O  O157  1  0.75884785  0.37526622  0.96105981  1
  O  O158  1  0.75965380  0.87419769  0.46079510  1
  O  O159  1  0.76062122  0.87477158  0.95999862  1
