# generated using pymatgen
data_Mg2V2(SiO4)3
_symmetry_space_group_name_H-M   'P 1'
_cell_length_a   10.20290103
_cell_length_b   10.20290103
_cell_length_c   10.20290103
_cell_angle_alpha   109.89024366
_cell_angle_beta   109.89024366
_cell_angle_gamma   108.63638624
_symmetry_Int_Tables_number   1
_chemical_formula_structural   Mg2V2(SiO4)3
_chemical_formula_sum   'Mg8 V8 Si12 O48'
_cell_volume   817.48557088
_cell_formula_units_Z   4
loop_
 _symmetry_equiv_pos_site_id
 _symmetry_equiv_pos_as_xyz
  1  'x, y, z'
loop_
 _atom_site_type_symbol
 _atom_site_label
 _atom_site_symmetry_multiplicity
 _atom_site_fract_x
 _atom_site_fract_y
 _atom_site_fract_z
 _atom_site_occupancy
  Mg  Mg0  1  0.24557800  0.87500000  0.87057800  1
  Mg  Mg1  1  0.12500000  0.49557800  0.87057800  1
  Mg  Mg2  1  0.62500000  0.25442200  0.12942200  1
  Mg  Mg3  1  0.00442200  0.37500000  0.12942200  1
  Mg  Mg4  1  0.50442200  0.37500000  0.62942200  1
  Mg  Mg5  1  0.62500000  0.75442200  0.62942200  1
  Mg  Mg6  1  0.12500000  0.99557800  0.37057800  1
  Mg  Mg7  1  0.74557800  0.87500000  0.37057800  1
  V  V8  1  0.37500000  0.12500000  0.25000000  1
  V  V9  1  0.87500000  0.62500000  0.75000000  1
  V  V10  1  0.37500000  0.62500000  0.25000000  1
  V  V11  1  0.87500000  0.12500000  0.75000000  1
  V  V12  1  0.87500000  0.62500000  0.25000000  1
  V  V13  1  0.37500000  0.62500000  0.75000000  1
  V  V14  1  0.37500000  0.12500000  0.75000000  1
  V  V15  1  0.87500000  0.12500000  0.25000000  1
  Si  Si16  1  0.74918700  0.37500000  0.87418700  1
  Si  Si17  1  0.62500000  0.49918700  0.37418700  1
  Si  Si18  1  0.00000000  0.00000000  0.00000000  1
  Si  Si19  1  0.12500000  0.25081300  0.62581300  1
  Si  Si20  1  0.50000000  0.50000000  0.00000000  1
  Si  Si21  1  0.25000000  0.75000000  0.50000000  1
  Si  Si22  1  0.24918700  0.37500000  0.37418700  1
  Si  Si23  1  0.75000000  0.25000000  0.50000000  1
  Si  Si24  1  0.50081300  0.87500000  0.12581300  1
  Si  Si25  1  0.12500000  0.75081300  0.12581300  1
  Si  Si26  1  0.62500000  0.99918700  0.87418700  1
  Si  Si27  1  0.00081300  0.87500000  0.62581300  1
  O  O28  1  0.75284700  0.51434000  0.82680000  1
  O  O29  1  0.67604700  0.00284700  0.73850700  1
  O  O30  1  0.26434000  0.93754000  0.26149300  1
  O  O31  1  0.56749200  0.22169900  0.45421900  1
  O  O32  1  0.68250800  0.63672700  0.15420700  1
  O  O33  1  0.85750800  0.91870300  0.62493300  1
  O  O34  1  0.95623000  0.83129700  0.43880500  1
  O  O35  1  0.86327300  0.81749200  0.84579300  1
  O  O36  1  0.66870300  0.54377000  0.56119500  1
  O  O37  1  0.27830100  0.93250800  0.54578100  1
  O  O38  1  0.58129700  0.64249200  0.37506700  1
  O  O39  1  0.97169900  0.01748100  0.15420700  1
  O  O40  1  0.26742500  0.20623000  0.62493300  1
  O  O41  1  0.98257500  0.10750800  0.43880500  1
  O  O42  1  0.38672700  0.73251900  0.45421900  1
  O  O43  1  0.68754000  0.92604700  0.17320000  1
  O  O44  1  0.98566000  0.74715300  0.17320000  1
  O  O45  1  0.49715300  0.82395300  0.26149300  1
  O  O46  1  0.76748100  0.11327300  0.54578100  1
  O  O47  1  0.56246000  0.23566000  0.73850700  1
  O  O48  1  0.39249200  0.51742500  0.56119500  1
  O  O49  1  0.57395300  0.81246000  0.82680000  1
  O  O50  1  0.48251900  0.52830100  0.84579300  1
  O  O51  1  0.29377000  0.23257500  0.37506700  1
  O  O52  1  0.99715300  0.73566000  0.67320000  1
  O  O53  1  0.07395300  0.24715300  0.76149300  1
  O  O54  1  0.48566000  0.31246000  0.23850700  1
  O  O55  1  0.18250800  0.02830100  0.04578100  1
  O  O56  1  0.06749200  0.61327300  0.34579300  1
  O  O57  1  0.89249200  0.33129700  0.87506700  1
  O  O58  1  0.79377000  0.41870300  0.06119500  1
  O  O59  1  0.88672700  0.43250800  0.65420700  1
  O  O60  1  0.08129700  0.70623000  0.93880500  1
  O  O61  1  0.47169900  0.31749200  0.95421900  1
  O  O62  1  0.16870300  0.60750800  0.12493300  1
  O  O63  1  0.77830100  0.23251900  0.34579300  1
  O  O64  1  0.48257500  0.04377000  0.87506700  1
  O  O65  1  0.76742500  0.14249200  0.06119500  1
  O  O66  1  0.36327300  0.51748100  0.04578100  1
  O  O67  1  0.06246000  0.32395300  0.32680000  1
  O  O68  1  0.76434000  0.50284700  0.32680000  1
  O  O69  1  0.25284700  0.42604700  0.23850700  1
  O  O70  1  0.98251900  0.13672700  0.95421900  1
  O  O71  1  0.18754000  0.01434000  0.76149300  1
  O  O72  1  0.35750800  0.73257500  0.93880500  1
  O  O73  1  0.17604700  0.43754000  0.67320000  1
  O  O74  1  0.26748100  0.72169900  0.65420700  1
  O  O75  1  0.45623000  0.01742500  0.12493300  1
