# generated using pymatgen
data_ZnCr(SiO3)2
_symmetry_space_group_name_H-M   'P 1'
_cell_length_a   5.35195609
_cell_length_b   6.94484232
_cell_length_c   6.94527085
_cell_angle_alpha   87.99761420
_cell_angle_beta   74.75962352
_cell_angle_gamma   74.76264854
_symmetry_Int_Tables_number   1
_chemical_formula_structural   ZnCr(SiO3)2
_chemical_formula_sum   'Zn2 Cr2 Si4 O12'
_cell_volume   240.14909579
_cell_formula_units_Z   2
loop_
 _symmetry_equiv_pos_site_id
 _symmetry_equiv_pos_as_xyz
  1  'x, y, z'
loop_
 _atom_site_type_symbol
 _atom_site_label
 _atom_site_symmetry_multiplicity
 _atom_site_fract_x
 _atom_site_fract_y
 _atom_site_fract_z
 _atom_site_occupancy
  Zn  Zn0  1  0.74998100  0.24137600  0.75862700  1
  Zn  Zn1  1  0.24993800  0.75857100  0.24136300  1
  Cr  Cr2  1  0.75010800  0.89891000  0.10099500  1
  Cr  Cr3  1  0.24985100  0.10122000  0.89884700  1
  Si  Si4  1  0.22782300  0.21738100  0.38499000  1
  Si  Si5  1  0.27226400  0.61501900  0.78263700  1
  Si  Si6  1  0.72783100  0.38495300  0.21740500  1
  Si  Si7  1  0.77226000  0.78264100  0.61503800  1
  O  O8  1  0.47329600  0.32286700  0.37532100  1
  O  O9  1  0.02677300  0.62472500  0.67708200  1
  O  O10  1  0.52678200  0.67706800  0.62474700  1
  O  O11  1  0.97329800  0.37530000  0.32289600  1
  O  O12  1  0.12068200  0.15053200  0.61173800  1
  O  O13  1  0.37927600  0.38822900  0.84948200  1
  O  O14  1  0.87922900  0.84950100  0.38823000  1
  O  O15  1  0.62067000  0.61170400  0.15053800  1
  O  O16  1  0.84824000  0.21490300  0.03185200  1
  O  O17  1  0.65176400  0.96820700  0.78510700  1
  O  O18  1  0.34821700  0.03179400  0.21494000  1
  O  O19  1  0.15171600  0.78510100  0.96816700  1
