# generated using pymatgen
data_BaAl2O6
_symmetry_space_group_name_H-M   'P 1'
_cell_length_a   11.39709100
_cell_length_b   13.01839201
_cell_length_c   7.56852101
_cell_angle_alpha   90.00459492
_cell_angle_beta   90.00278252
_cell_angle_gamma   89.99856515
_symmetry_Int_Tables_number   1
_chemical_formula_structural   BaAl2O6
_chemical_formula_sum   'Ba8 Al16 O48'
_cell_volume   1122.95506878
_cell_formula_units_Z   8
loop_
 _symmetry_equiv_pos_site_id
 _symmetry_equiv_pos_as_xyz
  1  'x, y, z'
loop_
 _atom_site_type_symbol
 _atom_site_label
 _atom_site_symmetry_multiplicity
 _atom_site_fract_x
 _atom_site_fract_y
 _atom_site_fract_z
 _atom_site_occupancy
  Ba  Ba0  1  0.63837700  0.34569000  0.08737700  1
  Ba  Ba1  1  0.13839700  0.15430900  0.91260800  1
  Ba  Ba2  1  0.36161600  0.84568500  0.41265900  1
  Ba  Ba3  1  0.86163600  0.65430500  0.58738800  1
  Ba  Ba4  1  0.36162300  0.65431000  0.91262300  1
  Ba  Ba5  1  0.86160300  0.84569100  0.08739200  1
  Ba  Ba6  1  0.63838400  0.15431500  0.58734100  1
  Ba  Ba7  1  0.13836400  0.34569500  0.41261200  1
  Al  Al8  1  0.61059400  0.02847100  0.14908900  1
  Al  Al9  1  0.11060900  0.47151800  0.85092700  1
  Al  Al10  1  0.38937900  0.52844800  0.35090300  1
  Al  Al11  1  0.88940300  0.97154500  0.64909600  1
  Al  Al12  1  0.38940600  0.97152900  0.85091100  1
  Al  Al13  1  0.88939100  0.52848200  0.14907300  1
  Al  Al14  1  0.61062100  0.47155200  0.64909700  1
  Al  Al15  1  0.11059700  0.02845500  0.35090400  1
  Al  Al16  1  0.87585000  0.11247500  0.29763500  1
  Al  Al17  1  0.37586900  0.38752100  0.70240000  1
  Al  Al18  1  0.12413700  0.61248000  0.20238900  1
  Al  Al19  1  0.62416100  0.88753600  0.79759900  1
  Al  Al20  1  0.12415000  0.88752500  0.70236500  1
  Al  Al21  1  0.62413100  0.61247900  0.29760000  1
  Al  Al22  1  0.87586300  0.38752000  0.79761100  1
  Al  Al23  1  0.37583900  0.11246400  0.20240100  1
  O  O24  1  0.00691900  0.19406400  0.24721400  1
  O  O25  1  0.50692400  0.30590700  0.75279500  1
  O  O26  1  0.99309800  0.69412000  0.25275600  1
  O  O27  1  0.49310000  0.80592100  0.74722100  1
  O  O28  1  0.99308100  0.80593600  0.75278600  1
  O  O29  1  0.49307600  0.69409300  0.24720500  1
  O  O30  1  0.00690200  0.30588000  0.74724400  1
  O  O31  1  0.50690000  0.19407900  0.25277900  1
  O  O32  1  0.49179500  0.02992600  0.30399700  1
  O  O33  1  0.99182500  0.47002500  0.69597100  1
  O  O34  1  0.50818100  0.52992900  0.19598900  1
  O  O35  1  0.00822700  0.97009300  0.80397600  1
  O  O36  1  0.50820500  0.97007400  0.69600300  1
  O  O37  1  0.00817500  0.52997500  0.30402900  1
  O  O38  1  0.49181900  0.47007100  0.80401100  1
  O  O39  1  0.99177300  0.02990700  0.19602400  1
  O  O40  1  0.76914200  0.21356300  0.27784900  1
  O  O41  1  0.26914400  0.28644800  0.72212600  1
  O  O42  1  0.23088000  0.71353800  0.22214300  1
  O  O43  1  0.73087500  0.78645300  0.77781400  1
  O  O44  1  0.23085800  0.78643700  0.72215100  1
  O  O45  1  0.73085600  0.71355200  0.27787400  1
  O  O46  1  0.76912000  0.28646200  0.77785700  1
  O  O47  1  0.26912500  0.21354700  0.22218600  1
  O  O48  1  0.58455600  0.13537200  0.99893600  1
  O  O49  1  0.08458700  0.36462800  0.00109200  1
  O  O50  1  0.41542400  0.63536200  0.50103900  1
  O  O51  1  0.91541700  0.86464000  0.49893900  1
  O  O52  1  0.41544400  0.86462800  0.00106400  1
  O  O53  1  0.91541300  0.63537200  0.99890800  1
  O  O54  1  0.58457600  0.36463800  0.49896100  1
  O  O55  1  0.08458300  0.13536000  0.50106100  1
  O  O56  1  0.75037100  0.03285000  0.24381000  1
  O  O57  1  0.25040000  0.46715700  0.75627600  1
  O  O58  1  0.24959300  0.53281200  0.25624900  1
  O  O59  1  0.74962300  0.96717900  0.74378700  1
  O  O60  1  0.24962900  0.96715000  0.75619000  1
  O  O61  1  0.74960000  0.53284300  0.24372400  1
  O  O62  1  0.75040700  0.46718800  0.74375100  1
  O  O63  1  0.25037700  0.03282200  0.25621300  1
  O  O64  1  0.89112600  0.08889300  0.53193100  1
  O  O65  1  0.39113600  0.41111400  0.46810700  1
  O  O66  1  0.10884400  0.58887100  0.96810300  1
  O  O67  1  0.60889300  0.91112900  0.03189100  1
  O  O68  1  0.10887400  0.91110700  0.46806900  1
  O  O69  1  0.60886400  0.58888600  0.53189300  1
  O  O70  1  0.89115600  0.41112900  0.03189700  1
  O  O71  1  0.39110700  0.08887100  0.96810900  1
