# generated using pymatgen
data_Cs2CaAl4(SiO4)4
_symmetry_space_group_name_H-M   'P 1'
_cell_length_a   12.49763635
_cell_length_b   12.36339550
_cell_length_c   12.27325940
_cell_angle_alpha   90.53118712
_cell_angle_beta   90.14135040
_cell_angle_gamma   89.31316550
_symmetry_Int_Tables_number   1
_chemical_formula_structural   Cs2CaAl4(SiO4)4
_chemical_formula_sum   'Cs6 Ca3 Al12 Si12 O48'
_cell_volume   1896.15783465
_cell_formula_units_Z   3
loop_
 _symmetry_equiv_pos_site_id
 _symmetry_equiv_pos_as_xyz
  1  'x, y, z'
loop_
 _atom_site_type_symbol
 _atom_site_label
 _atom_site_symmetry_multiplicity
 _atom_site_fract_x
 _atom_site_fract_y
 _atom_site_fract_z
 _atom_site_occupancy
  Cs  Cs0  1  0.02113732  0.51846096  0.50904573  1
  Cs  Cs1  1  0.45841177  0.44906082  0.08744955  1
  Cs  Cs2  1  0.53104832  0.02215738  0.48641149  1
  Cs  Cs3  1  0.29481919  0.73845753  0.26193726  1
  Cs  Cs4  1  0.60725275  0.58845994  0.84049720  1
  Cs  Cs5  1  0.89643501  0.10021437  0.10105826  1
  Ca  Ca6  1  0.77923460  0.18917056  0.80983311  1
  Ca  Ca7  1  0.77431261  0.81052858  0.19729859  1
  Ca  Ca8  1  0.83270487  0.83798447  0.81447563  1
  Al  Al9  1  0.01393360  0.81352341  0.36920454  1
  Al  Al10  1  0.00536677  0.63208991  0.81840653  1
  Al  Al11  1  0.18777619  0.37211592  0.99567511  1
  Al  Al12  1  0.37220838  0.81640920  0.98753223  1
  Al  Al13  1  0.62310244  0.01600826  0.18916279  1
  Al  Al14  1  0.62947884  0.18701264  0.00924021  1
  Al  Al15  1  0.62951506  0.98556270  0.81532796  1
  Al  Al16  1  0.62285485  0.81144972  0.99877290  1
  Al  Al17  1  0.82361320  0.99044749  0.37014602  1
  Al  Al18  1  0.84172347  0.01116898  0.63092402  1
  Al  Al19  1  0.82887191  0.37160331  0.98284358  1
  Al  Al20  1  0.83261684  0.63488057  0.00902475  1
  Si  Si21  1  0.00670168  0.36534772  0.17767807  1
  Si  Si22  1  0.01319293  0.19466840  0.62065294  1
  Si  Si23  1  0.01390810  0.61823554  0.19583401  1
  Si  Si24  1  0.02735263  0.82522344  0.63128046  1
  Si  Si25  1  0.19798898  0.00916512  0.61697085  1
  Si  Si26  1  0.19110610  0.62110229  0.00868223  1
  Si  Si27  1  0.18853027  0.00661520  0.36351068  1
  Si  Si28  1  0.37349387  0.01126337  0.17583781  1
  Si  Si29  1  0.37727148  0.18429109  0.98877365  1
  Si  Si30  1  0.38165962  0.99875147  0.80200808  1
  Si  Si31  1  0.00031553  0.18220279  0.36529176  1
  Si  Si32  1  0.00604256  0.37848921  0.80082392  1
  O  O33  1  0.00263772  0.22854016  0.49186896  1
  O  O34  1  0.99657441  0.49022879  0.22805558  1
  O  O35  1  0.02911271  0.30812646  0.68615358  1
  O  O36  1  0.03029186  0.68358720  0.31009518  1
  O  O37  1  0.98422992  0.50246461  0.76028373  1
  O  O38  1  0.02507380  0.72209211  0.71059089  1
  O  O39  1  0.11039774  0.11165605  0.34423357  1
  O  O40  1  0.11872258  0.34505846  0.11699613  1
  O  O41  1  0.10502687  0.36528462  0.88194298  1
  O  O42  1  0.12828047  0.89265428  0.34599273  1
  O  O43  1  0.11408308  0.11082433  0.63755058  1
  O  O44  1  0.12406512  0.63300470  0.12664886  1
  O  O45  1  0.10929333  0.63480508  0.90932156  1
  O  O46  1  0.13900389  0.89445799  0.63961116  1
  O  O47  1  0.23897996  0.01348882  0.48906206  1
  O  O48  1  0.24752862  0.50133653  0.00994705  1
  O  O49  1  0.29733990  0.28626236  0.98125620  1
  O  O50  1  0.30270925  0.01876316  0.69408746  1
  O  O51  1  0.28081474  0.71347165  0.01485500  1
  O  O52  1  0.28816679  0.01150340  0.27948774  1
  O  O53  1  0.34970283  0.11729807  0.10077518  1
  O  O54  1  0.36691053  0.10546334  0.88121983  1
  O  O55  1  0.35770592  0.90153371  0.10509199  1
  O  O56  1  0.35216008  0.89003361  0.86637564  1
  O  O57  1  0.48949528  0.01583824  0.23624314  1
  O  O58  1  0.49713751  0.23486469  0.99847343  1
  O  O59  1  0.49838903  0.75156939  0.98906507  1
  O  O60  1  0.50374213  0.99476871  0.75121867  1
  O  O61  1  0.66318347  0.13888868  0.13688594  1
  O  O62  1  0.65599851  0.09266649  0.90381338  1
  O  O63  1  0.65087190  0.90848111  0.09796177  1
  O  O64  1  0.66236187  0.85478360  0.86565174  1
  O  O65  1  0.74587351  0.00694010  0.73417376  1
  O  O66  1  0.72089252  0.28478764  0.96287489  1
  O  O67  1  0.72116483  0.71606558  0.03984427  1
  O  O68  1  0.70676284  0.96933800  0.29502762  1
  O  O69  1  0.78771018  0.99362106  0.50551626  1
  O  O70  1  0.79025570  0.50529911  0.98222844  1
  O  O71  1  0.89724433  0.10896673  0.33966854  1
  O  O72  1  0.90576528  0.33716009  0.09868282  1
  O  O73  1  0.89663135  0.32813119  0.85660979  1
  O  O74  1  0.89838290  0.87659068  0.31823663  1
  O  O75  1  0.90197687  0.13919375  0.66279271  1
  O  O76  1  0.90857213  0.66488747  0.13031541  1
  O  O77  1  0.88930237  0.68545815  0.88632481  1
  O  O78  1  0.92981387  0.90637329  0.67516484  1
  O  O79  1  0.99996861  0.28802233  0.28715815  1
  O  O80  1  0.00610616  0.78444508  0.50815238  1
