# generated using pymatgen
data_Al2Sb2O7
_symmetry_space_group_name_H-M   'P 1'
_cell_length_a   7.02303688
_cell_length_b   7.02303688
_cell_length_c   7.02303688
_cell_angle_alpha   60.00000000
_cell_angle_beta   60.00000000
_cell_angle_gamma   60.00000000
_symmetry_Int_Tables_number   1
_chemical_formula_structural   Al2Sb2O7
_chemical_formula_sum   'Al4 Sb4 O14'
_cell_volume   244.94007621
_cell_formula_units_Z   2
loop_
 _symmetry_equiv_pos_site_id
 _symmetry_equiv_pos_as_xyz
  1  'x, y, z'
loop_
 _atom_site_type_symbol
 _atom_site_label
 _atom_site_symmetry_multiplicity
 _atom_site_fract_x
 _atom_site_fract_y
 _atom_site_fract_z
 _atom_site_occupancy
  Al  Al0  1  0.12500000  0.12500000  0.12500000  1
  Al  Al1  1  0.62500000  0.12500000  0.12500000  1
  Al  Al2  1  0.12500000  0.12500000  0.62500000  1
  Al  Al3  1  0.12500000  0.62500000  0.12500000  1
  Sb  Sb4  1  0.62500000  0.62500000  0.62500000  1
  Sb  Sb5  1  0.12500000  0.62500000  0.62500000  1
  Sb  Sb6  1  0.62500000  0.62500000  0.12500000  1
  Sb  Sb7  1  0.62500000  0.12500000  0.62500000  1
  O  O8  1  0.00000000  0.00000000  0.00000000  1
  O  O9  1  0.25000000  0.25000000  0.25000000  1
  O  O10  1  0.25880300  0.25880300  0.74119700  1
  O  O11  1  0.50880300  0.50880300  0.99119700  1
  O  O12  1  0.74119700  0.25880300  0.74119700  1
  O  O13  1  0.74119700  0.25880300  0.25880300  1
  O  O14  1  0.25880300  0.74119700  0.74119700  1
  O  O15  1  0.25880300  0.74119700  0.25880300  1
  O  O16  1  0.74119700  0.74119700  0.25880300  1
  O  O17  1  0.99119700  0.50880300  0.50880300  1
  O  O18  1  0.50880300  0.99119700  0.99119700  1
  O  O19  1  0.99119700  0.99119700  0.50880300  1
  O  O20  1  0.99119700  0.50880300  0.99119700  1
  O  O21  1  0.50880300  0.99119700  0.50880300  1
