# generated using pymatgen
data_Sr4Ta3PO14
_symmetry_space_group_name_H-M   'P 1'
_cell_length_a   3.95323796
_cell_length_b   5.81061719
_cell_length_c   13.49915926
_cell_angle_alpha   94.77894936
_cell_angle_beta   98.41982846
_cell_angle_gamma   90.00000429
_symmetry_Int_Tables_number   1
_chemical_formula_structural   Sr4Ta3PO14
_chemical_formula_sum   'Sr4 Ta3 P1 O14'
_cell_volume   305.65386281
_cell_formula_units_Z   1
loop_
 _symmetry_equiv_pos_site_id
 _symmetry_equiv_pos_as_xyz
  1  'x, y, z'
loop_
 _atom_site_type_symbol
 _atom_site_label
 _atom_site_symmetry_multiplicity
 _atom_site_fract_x
 _atom_site_fract_y
 _atom_site_fract_z
 _atom_site_occupancy
  Sr  Sr0  1  0.56559100  0.80853100  0.13118200  1
  Sr  Sr1  1  0.44494900  0.26431800  0.88989900  1
  Sr  Sr2  1  0.69363700  0.16636200  0.38727400  1
  Sr  Sr3  1  0.28418800  0.72046200  0.56837700  1
  Ta  Ta4  1  0.05593000  0.30916200  0.11186000  1
  Ta  Ta5  1  0.94564400  0.76902800  0.89128700  1
  Ta  Ta6  1  0.83566000  0.23273500  0.67132000  1
  P  P7  1  0.16611500  0.67026600  0.33222900  1
  O  O8  1  0.79238700  0.46867600  0.58477400  1
  O  O9  1  0.19905600  0.90362700  0.39811300  1
  O  O10  1  0.90236600  0.49300700  0.80473200  1
  O  O11  1  0.10717900  0.11289900  0.21435900  1
  O  O12  1  0.34808800  0.23396200  0.69617600  1
  O  O13  1  0.65792000  0.70761700  0.31584000  1
  O  O14  1  0.45378500  0.78799700  0.90757000  1
  O  O15  1  0.55080300  0.33456800  0.10160600  1
  O  O16  1  0.00644100  0.57961300  0.01288300  1
  O  O17  1  0.00143200  0.06744500  0.00286400  1
  O  O18  1  0.10662600  0.61357900  0.21325300  1
  O  O19  1  0.89883700  0.00817700  0.79767300  1
  O  O20  1  0.19763100  0.45939600  0.39526000  1
  O  O21  1  0.78573400  0.98817000  0.57146900  1
