# generated using pymatgen
data_Na7Al12Si12H6ClO48
_symmetry_space_group_name_H-M   'P 1'
_cell_length_a   9.36406729
_cell_length_b   9.18826112
_cell_length_c   18.34714992
_cell_angle_alpha   93.23167621
_cell_angle_beta   90.77149183
_cell_angle_gamma   90.14181598
_symmetry_Int_Tables_number   1
_chemical_formula_structural   Na7Al12Si12H6ClO48
_chemical_formula_sum   'Na7 Al12 Si12 H6 Cl1 O48'
_cell_volume   1575.91804005
_cell_formula_units_Z   1
loop_
 _symmetry_equiv_pos_site_id
 _symmetry_equiv_pos_as_xyz
  1  'x, y, z'
loop_
 _atom_site_type_symbol
 _atom_site_label
 _atom_site_symmetry_multiplicity
 _atom_site_fract_x
 _atom_site_fract_y
 _atom_site_fract_z
 _atom_site_occupancy
  Na  Na0  1  0.28686722  0.77579840  0.11529454  1
  Na  Na1  1  0.27106834  0.21633762  0.88451380  1
  Na  Na2  1  0.22128723  0.82653033  0.59207554  1
  Na  Na3  1  0.71584660  0.22586315  0.87974756  1
  Na  Na4  1  0.81633710  0.09273749  0.44484254  1
  Na  Na5  1  0.75139431  0.80891207  0.12022791  1
  Na  Na6  1  0.77136387  0.82112396  0.60737716  1
  Al  Al7  1  0.01102170  0.76783332  0.25370472  1
  Al  Al8  1  0.01443217  0.76209154  0.75394722  1
  Al  Al9  1  0.02947148  0.23869288  0.24653627  1
  Al  Al10  1  0.02598437  0.23292771  0.74044814  1
  Al  Al11  1  0.26601459  0.50320846  0.00454701  1
  Al  Al12  1  0.26233002  0.51652000  0.50437728  1
  Al  Al13  1  0.51550131  0.96429060  0.36969455  1
  Al  Al14  1  0.51417166  0.96575948  0.87482730  1
  Al  Al15  1  0.51173793  0.03296509  0.12739032  1
  Al  Al16  1  0.51523603  0.02860136  0.62527279  1
  Al  Al17  1  0.76211881  0.49481157  0.99777846  1
  Al  Al18  1  0.74840029  0.48181283  0.49981663  1
  Si  Si19  1  0.26548193  0.99461416  0.24519310  1
  Si  Si20  1  0.26839566  0.99013503  0.74452297  1
  Si  Si21  1  0.52762799  0.74720621  0.00354912  1
  Si  Si22  1  0.51516615  0.74938563  0.50108223  1
  Si  Si23  1  0.50487949  0.25075644  0.00017974  1
  Si  Si24  1  0.50843713  0.25819263  0.49756117  1
  Si  Si25  1  0.76039806  0.01569786  0.25899951  1
  Si  Si26  1  0.76336472  0.00720463  0.75339526  1
  Si  Si27  1  0.01457281  0.53188897  0.37847499  1
  Si  Si28  1  0.01845338  0.47470959  0.12006001  1
  Si  Si29  1  0.01763649  0.46829317  0.61789218  1
  Si  Si30  1  0.01579815  0.53008581  0.87929495  1
  H  H31  1  0.36313512  0.15945180  0.40795331  1
  H  H32  1  0.81525148  0.65494232  0.41563367  1
  H  H33  1  0.87320988  0.34612878  0.32424994  1
  H  H34  1  0.86545850  0.58290225  0.19838947  1
  H  H35  1  0.86587551  0.58124473  0.69725706  1
  H  H36  1  0.90087510  0.35664774  0.81991703  1
  Cl  Cl37  1  0.97029516  0.90235118  0.51473375  1
  O  O38  1  0.97325702  0.37906699  0.32438177  1
  O  O39  1  0.95687641  0.61970053  0.18189258  1
  O  O40  1  0.00020878  0.38505172  0.81228351  1
  O  O41  1  0.96328140  0.60537158  0.68371774  1
  O  O42  1  0.15792518  0.54172141  0.08366081  1
  O  O43  1  0.16007442  0.53470124  0.58507118  1
  O  O44  1  0.13618636  0.48822562  0.43254746  1
  O  O45  1  0.15571914  0.49224922  0.92554281  1
  O  O46  1  0.17196703  0.13660073  0.27306930  1
  O  O47  1  0.16017693  0.85225349  0.22293909  1
  O  O48  1  0.17255123  0.13636973  0.76807476  1
  O  O49  1  0.16392770  0.84852569  0.72302087  1
  O  O50  1  0.37330419  0.95199272  0.31029566  1
  O  O51  1  0.34617059  0.01956976  0.16934568  1
  O  O52  1  0.36666922  0.96632799  0.81558846  1
  O  O53  1  0.35218795  0.01615675  0.66926451  1
  O  O54  1  0.38063455  0.37197845  0.49653664  1
  O  O55  1  0.38415617  0.64878115  0.01297023  1
  O  O56  1  0.35083901  0.33476892  0.99772193  1
  O  O57  1  0.35443006  0.68129662  0.50283347  1
  O  O58  1  0.53509913  0.18555216  0.07840436  1
  O  O59  1  0.53024328  0.17776093  0.57123741  1
  O  O60  1  0.54895781  0.82018863  0.42370533  1
  O  O61  1  0.53084747  0.81203984  0.92394979  1
  O  O62  1  0.45417650  0.12866085  0.42880335  1
  O  O63  1  0.49351307  0.12828690  0.93089485  1
  O  O64  1  0.52144013  0.87126399  0.07133914  1
  O  O65  1  0.53066732  0.87108145  0.56802463  1
  O  O66  1  0.63843850  0.35536829  0.97822153  1
  O  O67  1  0.66429086  0.31772912  0.46985716  1
  O  O68  1  0.64123587  0.63011194  0.51766330  1
  O  O69  1  0.67659839  0.65919620  0.02164808  1
  O  O70  1  0.65240047  0.00773856  0.18970895  1
  O  O71  1  0.68051013  0.02467029  0.33834031  1
  O  O72  1  0.66655914  0.01956550  0.68060704  1
  O  O73  1  0.67208479  0.00188388  0.82753099  1
  O  O74  1  0.86513103  0.15706946  0.25810020  1
  O  O75  1  0.86353074  0.15590314  0.76572957  1
  O  O76  1  0.85268128  0.86302835  0.25029463  1
  O  O77  1  0.86039010  0.86058715  0.73849129  1
  O  O78  1  0.88010812  0.45268201  0.06887330  1
  O  O79  1  0.85030153  0.55494859  0.41985607  1
  O  O80  1  0.86377216  0.50145327  0.91703183  1
  O  O81  1  0.88026266  0.45789188  0.56397258  1
  O  O82  1  0.04946717  0.34450008  0.17279823  1
  O  O83  1  0.03693771  0.32183575  0.66051407  1
  O  O84  1  0.03281064  0.66842126  0.33060566  1
  O  O85  1  0.02660493  0.67541640  0.83497870  1
