# generated using pymatgen
data_SiWO4
_symmetry_space_group_name_H-M   'P 1'
_cell_length_a   10.02589469
_cell_length_b   10.02589469
_cell_length_c   10.02589469
_cell_angle_alpha   109.47122063
_cell_angle_beta   109.47122063
_cell_angle_gamma   109.47122063
_symmetry_Int_Tables_number   1
_chemical_formula_structural   SiWO4
_chemical_formula_sum   'Si12 W12 O48'
_cell_volume   775.79598087
_cell_formula_units_Z   12
loop_
 _symmetry_equiv_pos_site_id
 _symmetry_equiv_pos_as_xyz
  1  'x, y, z'
loop_
 _atom_site_type_symbol
 _atom_site_label
 _atom_site_symmetry_multiplicity
 _atom_site_fract_x
 _atom_site_fract_y
 _atom_site_fract_z
 _atom_site_occupancy
  Si  Si0  1  0.12500000  0.87500000  0.25000000  1
  Si  Si1  1  0.25000000  0.12500000  0.87500000  1
  Si  Si2  1  0.75000000  0.37500000  0.62500000  1
  Si  Si3  1  0.62500000  0.37500000  0.25000000  1
  Si  Si4  1  0.62500000  0.75000000  0.37500000  1
  Si  Si5  1  0.37500000  0.62500000  0.75000000  1
  Si  Si6  1  0.12500000  0.75000000  0.87500000  1
  Si  Si7  1  0.75000000  0.87500000  0.12500000  1
  Si  Si8  1  0.87500000  0.25000000  0.12500000  1
  Si  Si9  1  0.37500000  0.25000000  0.62500000  1
  Si  Si10  1  0.25000000  0.62500000  0.37500000  1
  Si  Si11  1  0.87500000  0.12500000  0.75000000  1
  W  W12  1  0.87500000  0.62500000  0.25000000  1
  W  W13  1  0.62500000  0.25000000  0.87500000  1
  W  W14  1  0.87500000  0.75000000  0.62500000  1
  W  W15  1  0.75000000  0.62500000  0.87500000  1
  W  W16  1  0.25000000  0.87500000  0.62500000  1
  W  W17  1  0.62500000  0.87500000  0.75000000  1
  W  W18  1  0.12500000  0.37500000  0.75000000  1
  W  W19  1  0.37500000  0.75000000  0.12500000  1
  W  W20  1  0.12500000  0.25000000  0.37500000  1
  W  W21  1  0.25000000  0.37500000  0.12500000  1
  W  W22  1  0.75000000  0.12500000  0.37500000  1
  W  W23  1  0.37500000  0.12500000  0.25000000  1
  O  O24  1  0.46861400  0.36964700  0.27436000  1
  O  O25  1  0.30574600  0.90103300  0.03138600  1
  O  O26  1  0.59896700  0.90471300  0.13035300  1
  O  O27  1  0.59528700  0.19425400  0.22564000  1
  O  O28  1  0.13035300  0.03138600  0.22564000  1
  O  O29  1  0.19425400  0.22564000  0.59528700  1
  O  O30  1  0.19425400  0.46861400  0.59896700  1
  O  O31  1  0.22564000  0.59528700  0.19425400  1
  O  O32  1  0.36964700  0.59528700  0.90103300  1
  O  O33  1  0.90471300  0.27436000  0.30574600  1
  O  O34  1  0.27436000  0.30574600  0.90471300  1
  O  O35  1  0.22564000  0.13035300  0.03138600  1
  O  O36  1  0.46861400  0.59896700  0.19425400  1
  O  O37  1  0.90103300  0.36964700  0.59528700  1
  O  O38  1  0.03138600  0.22564000  0.13035300  1
  O  O39  1  0.59896700  0.19425400  0.46861400  1
  O  O40  1  0.59528700  0.90103300  0.36964700  1
  O  O41  1  0.03138600  0.30574600  0.90103300  1
  O  O42  1  0.90471300  0.13035300  0.59896700  1
  O  O43  1  0.63035300  0.40471300  0.09896700  1
  O  O44  1  0.36964700  0.27436000  0.46861400  1
  O  O45  1  0.27436000  0.46861400  0.36964700  1
  O  O46  1  0.90103300  0.03138600  0.30574600  1
  O  O47  1  0.30574600  0.90471300  0.27436000  1
  O  O48  1  0.53138600  0.63035300  0.72564000  1
  O  O49  1  0.69425400  0.09896700  0.96861400  1
  O  O50  1  0.40103300  0.09528700  0.86964700  1
  O  O51  1  0.40471300  0.80574600  0.77436000  1
  O  O52  1  0.86964700  0.96861400  0.77436000  1
  O  O53  1  0.80574600  0.77436000  0.40471300  1
  O  O54  1  0.80574600  0.53138600  0.40103300  1
  O  O55  1  0.77436000  0.40471300  0.80574600  1
  O  O56  1  0.69425400  0.09528700  0.72564000  1
  O  O57  1  0.09896700  0.96861400  0.69425400  1
  O  O58  1  0.72564000  0.53138600  0.63035300  1
  O  O59  1  0.63035300  0.72564000  0.53138600  1
  O  O60  1  0.86964700  0.40103300  0.09528700  1
  O  O61  1  0.09528700  0.86964700  0.40103300  1
  O  O62  1  0.96861400  0.69425400  0.09896700  1
  O  O63  1  0.40471300  0.09896700  0.63035300  1
  O  O64  1  0.40103300  0.80574600  0.53138600  1
  O  O65  1  0.96861400  0.77436000  0.86964700  1
  O  O66  1  0.09896700  0.63035300  0.40471300  1
  O  O67  1  0.53138600  0.40103300  0.80574600  1
  O  O68  1  0.77436000  0.86964700  0.96861400  1
  O  O69  1  0.72564000  0.69425400  0.09528700  1
  O  O70  1  0.09528700  0.72564000  0.69425400  1
  O  O71  1  0.13035300  0.59896700  0.90471300  1
