# generated using pymatgen
data_Sr4Nb3PO14
_symmetry_space_group_name_H-M   'P 1'
_cell_length_a   4.04962423
_cell_length_b   5.73717313
_cell_length_c   13.55484099
_cell_angle_alpha   93.66529397
_cell_angle_beta   98.66173158
_cell_angle_gamma   90.43305659
_symmetry_Int_Tables_number   1
_chemical_formula_structural   Sr4Nb3PO14
_chemical_formula_sum   'Sr4 Nb3 P1 O14'
_cell_volume   310.64919591
_cell_formula_units_Z   1
loop_
 _symmetry_equiv_pos_site_id
 _symmetry_equiv_pos_as_xyz
  1  'x, y, z'
loop_
 _atom_site_type_symbol
 _atom_site_label
 _atom_site_symmetry_multiplicity
 _atom_site_fract_x
 _atom_site_fract_y
 _atom_site_fract_z
 _atom_site_occupancy
  Sr  Sr0  1  0.29721300  0.05106000  0.59665400  1
  Sr  Sr1  1  0.70816100  0.55303300  0.41789800  1
  Sr  Sr2  1  0.42140500  0.47100700  0.90138900  1
  Sr  Sr3  1  0.53637000  0.95509100  0.07930200  1
  Nb  Nb4  1  0.83988500  0.52506100  0.68312300  1
  Nb  Nb5  1  0.16109100  0.00424500  0.32451300  1
  Nb  Nb6  1  0.06142000  0.44225000  0.12773600  1
  P  P7  1  0.85062300  0.01069100  0.86148000  1
  O  O8  1  0.48526200  0.98449400  0.87504400  1
  O  O9  1  0.55200400  0.40462900  0.10228400  1
  O  O10  1  0.93796700  0.75394400  0.82150100  1
  O  O11  1  0.08807500  0.11890600  0.17583200  1
  O  O12  1  0.80089700  0.77879900  0.60655300  1
  O  O13  1  0.19955600  0.28685900  0.39851500  1
  O  O14  1  0.21825400  0.81292700  0.43618000  1
  O  O15  1  0.79067800  0.30137800  0.57507000  1
  O  O16  1  0.02233800  0.12088900  0.96562500  1
  O  O17  1  0.01044200  0.63817900  0.01778000  1
  O  O18  1  0.89058800  0.19794500  0.78352300  1
  O  O19  1  0.11887700  0.64497100  0.23806100  1
  O  O20  1  0.35588500  0.49213000  0.70641500  1
  O  O21  1  0.65298400  0.97175700  0.30557400  1
