# generated using pymatgen
data_Al5(FeO4)3
_symmetry_space_group_name_H-M   'P 1'
_cell_length_a   5.78017759
_cell_length_b   5.78017759
_cell_length_c   14.27385915
_cell_angle_alpha   89.90501487
_cell_angle_beta   89.90501487
_cell_angle_gamma   59.98578933
_symmetry_Int_Tables_number   1
_chemical_formula_structural   Al5(FeO4)3
_chemical_formula_sum   'Al10 Fe6 O24'
_cell_volume   412.94422808
_cell_formula_units_Z   2
loop_
 _symmetry_equiv_pos_site_id
 _symmetry_equiv_pos_as_xyz
  1  'x, y, z'
loop_
 _atom_site_type_symbol
 _atom_site_label
 _atom_site_symmetry_multiplicity
 _atom_site_fract_x
 _atom_site_fract_y
 _atom_site_fract_z
 _atom_site_occupancy
  Al  Al0  1  0.66894200  0.66894200  0.83316500  1
  Al  Al1  1  0.00193300  0.49809100  0.49742400  1
  Al  Al2  1  0.66855200  0.15837300  0.83333100  1
  Al  Al3  1  0.83802200  0.83802200  0.65927600  1
  Al  Al4  1  0.15837300  0.66855200  0.83333100  1
  Al  Al5  1  0.82737700  0.33395600  0.16703100  1
  Al  Al6  1  0.15914500  0.15914500  0.33835500  1
  Al  Al7  1  0.49809100  0.00193300  0.49742400  1
  Al  Al8  1  0.33489000  0.33489000  0.16738800  1
  Al  Al9  1  0.33395600  0.82737700  0.16703100  1
  Fe  Fe10  1  0.16459900  0.16459900  0.96166200  1
  Fe  Fe11  1  0.49873800  0.49873800  0.01219500  1
  Fe  Fe12  1  0.49444500  0.49444500  0.62244600  1
  Fe  Fe13  1  0.82854100  0.82854100  0.29199300  1
  Fe  Fe14  1  0.16876600  0.16876600  0.69882700  1
  Fe  Fe15  1  0.50522000  0.50522000  0.38032500  1
  O  O16  1  0.34166400  0.34166400  0.90545100  1
  O  O17  1  0.49823800  0.49823800  0.76239100  1
  O  O18  1  0.34169300  0.81143300  0.90513300  1
  O  O19  1  0.81143300  0.34169300  0.90513300  1
  O  O20  1  0.68024300  0.68024300  0.57801000  1
  O  O21  1  0.53074600  0.98001700  0.74981100  1
  O  O22  1  0.98001700  0.53074600  0.74981100  1
  O  O23  1  0.82101500  0.82101500  0.42313300  1
  O  O24  1  0.65596300  0.13610400  0.58527400  1
  O  O25  1  0.83259000  0.83259000  0.89253500  1
  O  O26  1  0.13610400  0.65596300  0.58527400  1
  O  O27  1  0.98456500  0.98456500  0.74774000  1
  O  O28  1  0.01568900  0.01568900  0.24895500  1
  O  O29  1  0.86577000  0.34004400  0.41455500  1
  O  O30  1  0.34004400  0.86577000  0.41455500  1
  O  O31  1  0.16479900  0.16479900  0.09650900  1
  O  O32  1  0.02081200  0.45806300  0.24729200  1
  O  O33  1  0.17718100  0.17718100  0.57102800  1
  O  O34  1  0.45806300  0.02081200  0.24729200  1
  O  O35  1  0.31902800  0.31902800  0.42089500  1
  O  O36  1  0.19820300  0.64897900  0.09874600  1
  O  O37  1  0.64897900  0.19820300  0.09874600  1
  O  O38  1  0.49877500  0.49877500  0.24617700  1
  O  O39  1  0.64956500  0.64956500  0.09840900  1
