# generated using pymatgen
data_BaYbAl2SiN5O2
_symmetry_space_group_name_H-M   'P 1'
_cell_length_a   6.27126283
_cell_length_b   6.35223302
_cell_length_c   9.20431436
_cell_angle_alpha   84.76513690
_cell_angle_beta   100.65135623
_cell_angle_gamma   119.57818749
_symmetry_Int_Tables_number   1
_chemical_formula_structural   BaYbAl2SiN5O2
_chemical_formula_sum   'Ba2 Yb2 Al4 Si2 N10 O4'
_cell_volume   313.39042643
_cell_formula_units_Z   2
loop_
 _symmetry_equiv_pos_site_id
 _symmetry_equiv_pos_as_xyz
  1  'x, y, z'
loop_
 _atom_site_type_symbol
 _atom_site_label
 _atom_site_symmetry_multiplicity
 _atom_site_fract_x
 _atom_site_fract_y
 _atom_site_fract_z
 _atom_site_occupancy
  Ba  Ba0  1  0.39607500  0.70278700  0.18695000  1
  Ba  Ba1  1  0.69332700  0.29723400  0.68691500  1
  Yb  Yb2  1  0.32020000  0.69125600  0.81872400  1
  Yb  Yb3  1  0.62894100  0.30883300  0.31866600  1
  Al  Al4  1  0.16380300  0.82943200  0.46035600  1
  Al  Al5  1  0.12219500  0.32917200  0.43494500  1
  Al  Al6  1  0.33443300  0.17058600  0.96037200  1
  Al  Al7  1  0.79303000  0.67080600  0.93495800  1
  Si  Si8  1  0.63019200  0.77014800  0.54710600  1
  Si  Si9  1  0.86001200  0.22979500  0.04709200  1
  N  N10  1  0.00105800  0.00745900  0.02932700  1
  N  N11  1  0.98246400  0.50637400  0.95669300  1
  N  N12  1  0.55063700  0.04474700  0.99064000  1
  N  N13  1  0.48546800  0.49097200  0.98814600  1
  N  N14  1  0.47601100  0.49357400  0.45669600  1
  N  N15  1  0.96772200  0.88211300  0.16494500  1
  N  N16  1  0.50592800  0.95527500  0.49066200  1
  N  N17  1  0.99356800  0.99252800  0.52932500  1
  N  N18  1  0.99443200  0.50902300  0.48807100  1
  N  N19  1  0.08557200  0.11787700  0.66495800  1
  O  O20  1  0.18480400  0.97758000  0.26756200  1
  O  O21  1  0.94744900  0.27204500  0.23314900  1
  O  O22  1  0.20727500  0.02249500  0.76756100  1
  O  O23  1  0.67540100  0.72789100  0.73318000  1
