# generated using pymatgen
data_Al4(BiS4)3
_symmetry_space_group_name_H-M   'P 1'
_cell_length_a   7.25642552
_cell_length_b   7.25642552
_cell_length_c   39.67041600
_cell_angle_alpha   90.00000000
_cell_angle_beta   90.00000000
_cell_angle_gamma   91.98614082
_symmetry_Int_Tables_number   1
_chemical_formula_structural   Al4(BiS4)3
_chemical_formula_sum   'Al16 Bi12 S48'
_cell_volume   2087.61906121
_cell_formula_units_Z   4
loop_
 _symmetry_equiv_pos_site_id
 _symmetry_equiv_pos_as_xyz
  1  'x, y, z'
loop_
 _atom_site_type_symbol
 _atom_site_label
 _atom_site_symmetry_multiplicity
 _atom_site_fract_x
 _atom_site_fract_y
 _atom_site_fract_z
 _atom_site_occupancy
  Al  Al0  1  0.00000000  0.50000000  0.41332800  1
  Al  Al1  1  0.00000000  0.50000000  0.73350100  1
  Al  Al2  1  0.00000000  0.50000000  0.48859400  1
  Al  Al3  1  0.00000000  0.50000000  0.15711900  1
  Al  Al4  1  0.00000000  0.50000000  0.91332800  1
  Al  Al5  1  0.00000000  0.50000000  0.23350100  1
  Al  Al6  1  0.50000000  0.00000000  0.01140600  1
  Al  Al7  1  0.50000000  0.00000000  0.34288100  1
  Al  Al8  1  0.50000000  0.00000000  0.58667200  1
  Al  Al9  1  0.50000000  0.00000000  0.26649900  1
  Al  Al10  1  0.50000000  0.00000000  0.76649900  1
  Al  Al11  1  0.50000000  0.00000000  0.08667200  1
  Al  Al12  1  0.00000000  0.50000000  0.65711900  1
  Al  Al13  1  0.00000000  0.50000000  0.98859400  1
  Al  Al14  1  0.50000000  0.00000000  0.51140600  1
  Al  Al15  1  0.50000000  0.00000000  0.84288100  1
  Bi  Bi16  1  0.50000000  0.50000000  0.70944800  1
  Bi  Bi17  1  0.50000000  0.50000000  0.04096800  1
  Bi  Bi18  1  0.50000000  0.50000000  0.36948700  1
  Bi  Bi19  1  0.00000000  0.00000000  0.45903200  1
  Bi  Bi20  1  0.00000000  0.00000000  0.79055200  1
  Bi  Bi21  1  0.00000000  0.00000000  0.13051300  1
  Bi  Bi22  1  0.50000000  0.50000000  0.63051300  1
  Bi  Bi23  1  0.50000000  0.50000000  0.95903200  1
  Bi  Bi24  1  0.50000000  0.50000000  0.29055200  1
  Bi  Bi25  1  0.00000000  0.00000000  0.54096800  1
  Bi  Bi26  1  0.00000000  0.00000000  0.86948700  1
  Bi  Bi27  1  0.00000000  0.00000000  0.20944800  1
  S  S28  1  0.82285700  0.33306800  0.45306500  1
  S  S29  1  0.80764200  0.32995100  0.76989500  1
  S  S30  1  0.80575800  0.30490800  0.13165900  1
  S  S31  1  0.68759400  0.79501800  0.61015300  1
  S  S32  1  0.70550000  0.83113800  0.97914400  1
  S  S33  1  0.67637400  0.84370800  0.30158500  1
  S  S34  1  0.33306800  0.82285700  0.54693500  1
  S  S35  1  0.30490800  0.80575800  0.86834100  1
  S  S36  1  0.32995100  0.80764200  0.23010500  1
  S  S37  1  0.84370800  0.67637400  0.69841500  1
  S  S38  1  0.83113800  0.70550000  0.02085600  1
  S  S39  1  0.79501800  0.68759400  0.38984700  1
  S  S40  1  0.31240600  0.20498200  0.61015300  1
  S  S41  1  0.29450000  0.16886200  0.97914400  1
  S  S42  1  0.32362600  0.15629200  0.30158500  1
  S  S43  1  0.17714300  0.66693200  0.45306500  1
  S  S44  1  0.19235800  0.67004900  0.76989500  1
  S  S45  1  0.19424200  0.69509200  0.13165900  1
  S  S46  1  0.80490800  0.30575800  0.63165900  1
  S  S47  1  0.83306800  0.32285700  0.95306500  1
  S  S48  1  0.82995100  0.30764200  0.26989500  1
  S  S49  1  0.66693200  0.17714300  0.54693500  1
  S  S50  1  0.69509200  0.19424200  0.86834100  1
  S  S51  1  0.67004900  0.19235800  0.23010500  1
  S  S52  1  0.69235800  0.17004900  0.73010500  1
  S  S53  1  0.67714300  0.16693200  0.04693500  1
  S  S54  1  0.69424200  0.19509200  0.36834100  1
  S  S55  1  0.15629200  0.32362600  0.69841500  1
  S  S56  1  0.16886200  0.29450000  0.02085600  1
  S  S57  1  0.20498200  0.31240600  0.38984700  1
  S  S58  1  0.66886200  0.79450000  0.47914400  1
  S  S59  1  0.65629200  0.82362600  0.80158500  1
  S  S60  1  0.70498200  0.81240600  0.11015300  1
  S  S61  1  0.33113800  0.20550000  0.47914400  1
  S  S62  1  0.34370800  0.17637400  0.80158500  1
  S  S63  1  0.29501800  0.18759400  0.11015300  1
  S  S64  1  0.19509200  0.69424200  0.63165900  1
  S  S65  1  0.16693200  0.67714300  0.95306500  1
  S  S66  1  0.17004900  0.69235800  0.26989500  1
  S  S67  1  0.20550000  0.33113800  0.52085600  1
  S  S68  1  0.18759400  0.29501800  0.88984700  1
  S  S69  1  0.17637400  0.34370800  0.19841500  1
  S  S70  1  0.79450000  0.66886200  0.52085600  1
  S  S71  1  0.81240600  0.70498200  0.88984700  1
  S  S72  1  0.82362600  0.65629200  0.19841500  1
  S  S73  1  0.30764200  0.82995100  0.73010500  1
  S  S74  1  0.32285700  0.83306800  0.04693500  1
  S  S75  1  0.30575800  0.80490800  0.36834100  1
