# generated using pymatgen
data_Ca2Al2SiO7
_symmetry_space_group_name_H-M   'P 1'
_cell_length_a   13.96348300
_cell_length_b   6.08276800
_cell_length_c   7.73631300
_cell_angle_alpha   90.00000000
_cell_angle_beta   90.00000000
_cell_angle_gamma   90.00000000
_symmetry_Int_Tables_number   1
_chemical_formula_structural   Ca2Al2SiO7
_chemical_formula_sum   'Ca8 Al8 Si4 O28'
_cell_volume   657.09633598
_cell_formula_units_Z   4
loop_
 _symmetry_equiv_pos_site_id
 _symmetry_equiv_pos_as_xyz
  1  'x, y, z'
loop_
 _atom_site_type_symbol
 _atom_site_label
 _atom_site_symmetry_multiplicity
 _atom_site_fract_x
 _atom_site_fract_y
 _atom_site_fract_z
 _atom_site_occupancy
  Ca  Ca0  1  0.32249400  0.11202400  0.65507600  1
  Ca  Ca1  1  0.20434400  0.69327300  0.40302700  1
  Ca  Ca2  1  0.29565600  0.19327300  0.09697300  1
  Ca  Ca3  1  0.17750600  0.61202400  0.84492400  1
  Ca  Ca4  1  0.70434400  0.30672700  0.59697300  1
  Ca  Ca5  1  0.82249400  0.88797600  0.34492400  1
  Ca  Ca6  1  0.67750600  0.38797600  0.15507600  1
  Ca  Ca7  1  0.79565600  0.80672700  0.90302700  1
  Al  Al8  1  0.02136500  0.01162000  0.03519000  1
  Al  Al9  1  0.97863500  0.48838000  0.53519000  1
  Al  Al10  1  0.60704100  0.83913600  0.25740300  1
  Al  Al11  1  0.89295900  0.33913600  0.24259700  1
  Al  Al12  1  0.52136500  0.98838000  0.96481000  1
  Al  Al13  1  0.47863500  0.51162000  0.46481000  1
  Al  Al14  1  0.10704100  0.16086400  0.74259700  1
  Al  Al15  1  0.39295900  0.66086400  0.75740300  1
  Si  Si16  1  0.89330300  0.33280400  0.85880600  1
  Si  Si17  1  0.60669700  0.83280400  0.64119400  1
  Si  Si18  1  0.39330300  0.66719600  0.14119400  1
  Si  Si19  1  0.10669700  0.16719600  0.35880600  1
  O  O20  1  0.35193100  0.54355500  0.96629700  1
  O  O21  1  0.10414000  0.97220600  0.20813000  1
  O  O22  1  0.32342500  0.85695400  0.21943900  1
  O  O23  1  0.09353600  0.45298700  0.62260500  1
  O  O24  1  0.28664400  0.73448100  0.64959500  1
  O  O25  1  0.99130000  0.23032300  0.39899400  1
  O  O26  1  0.07136900  0.89404800  0.84929300  1
  O  O27  1  0.50870000  0.73032300  0.10100600  1
  O  O28  1  0.42863100  0.39404800  0.65070700  1
  O  O29  1  0.21335600  0.23448100  0.85040500  1
  O  O30  1  0.39586000  0.47220600  0.29187000  1
  O  O31  1  0.17657500  0.35695400  0.28056100  1
  O  O32  1  0.40646400  0.95298700  0.87739500  1
  O  O33  1  0.14806900  0.04355500  0.53370300  1
  O  O34  1  0.85193100  0.45644500  0.03370300  1
  O  O35  1  0.60414000  0.02779400  0.79187000  1
  O  O36  1  0.78664400  0.26551900  0.35040500  1
  O  O37  1  0.59353600  0.54701300  0.37739500  1
  O  O38  1  0.82342500  0.14304600  0.78056100  1
  O  O39  1  0.57136900  0.10595200  0.15070700  1
  O  O40  1  0.49130000  0.76967700  0.60100600  1
  O  O41  1  0.92863100  0.60595200  0.34929300  1
  O  O42  1  0.00870000  0.26967700  0.89899400  1
  O  O43  1  0.90646400  0.04701300  0.12260500  1
  O  O44  1  0.67657500  0.64304600  0.71943900  1
  O  O45  1  0.89586000  0.52779400  0.70813000  1
  O  O46  1  0.71335600  0.76551900  0.14959500  1
  O  O47  1  0.64806900  0.95644500  0.46629700  1
