# generated using pymatgen
data_Mg3Mn2(Si2O7)2
_symmetry_space_group_name_H-M   'P 1'
_cell_length_a   9.35536808
_cell_length_b   9.35536808
_cell_length_c   9.94919819
_cell_angle_alpha   58.95279470
_cell_angle_beta   58.95279470
_cell_angle_gamma   48.24925344
_symmetry_Int_Tables_number   1
_chemical_formula_structural   Mg3Mn2(Si2O7)2
_chemical_formula_sum   'Mg6 Mn4 Si8 O28'
_cell_volume   535.97245892
_cell_formula_units_Z   2
loop_
 _symmetry_equiv_pos_site_id
 _symmetry_equiv_pos_as_xyz
  1  'x, y, z'
loop_
 _atom_site_type_symbol
 _atom_site_label
 _atom_site_symmetry_multiplicity
 _atom_site_fract_x
 _atom_site_fract_y
 _atom_site_fract_z
 _atom_site_occupancy
  Mg  Mg0  1  0.07397600  0.26255300  0.11129800  1
  Mg  Mg1  1  0.73744700  0.92602400  0.38870200  1
  Mg  Mg2  1  0.26255300  0.07397600  0.61129800  1
  Mg  Mg3  1  0.39138600  0.60861400  0.75000000  1
  Mg  Mg4  1  0.92602400  0.73744700  0.88870200  1
  Mg  Mg5  1  0.60861400  0.39138600  0.25000000  1
  Mn  Mn6  1  0.78736300  0.21263700  0.75000000  1
  Mn  Mn7  1  0.21263700  0.78736300  0.25000000  1
  Mn  Mn8  1  0.00000000  0.00000000  0.00000000  1
  Mn  Mn9  1  0.00000000  0.00000000  0.50000000  1
  Si  Si10  1  0.54847200  0.08027600  0.70532300  1
  Si  Si11  1  0.08027600  0.54847200  0.20532300  1
  Si  Si12  1  0.51262500  0.24943000  0.10628600  1
  Si  Si13  1  0.24943000  0.51262500  0.60628600  1
  Si  Si14  1  0.91972400  0.45152800  0.79467700  1
  Si  Si15  1  0.48737500  0.75057000  0.89371400  1
  Si  Si16  1  0.75057000  0.48737500  0.39371400  1
  Si  Si17  1  0.45152800  0.91972400  0.29467700  1
  O  O18  1  0.82893100  0.31670600  0.31930300  1
  O  O19  1  0.96781800  0.88849400  0.41267700  1
  O  O20  1  0.45694200  0.63402800  0.08746800  1
  O  O21  1  0.88849400  0.96781800  0.91267700  1
  O  O22  1  0.23074700  0.99238000  0.30720900  1
  O  O23  1  0.07273800  0.50045100  0.62403200  1
  O  O24  1  0.63402800  0.45694200  0.58746800  1
  O  O25  1  0.00762000  0.76925300  0.19279100  1
  O  O26  1  0.92726200  0.49954900  0.37596800  1
  O  O27  1  0.61456500  0.69380700  0.27049600  1
  O  O28  1  0.03218200  0.11150600  0.58732300  1
  O  O29  1  0.76925300  0.00762000  0.69279100  1
  O  O30  1  0.49954900  0.92726200  0.87596800  1
  O  O31  1  0.31670600  0.82893100  0.81930300  1
  O  O32  1  0.69380700  0.61456500  0.77049600  1
  O  O33  1  0.99238000  0.23074700  0.80720900  1
  O  O34  1  0.91918900  0.48135800  0.94145300  1
  O  O35  1  0.38543500  0.30619300  0.72950400  1
  O  O36  1  0.51864200  0.08081100  0.55854700  1
  O  O37  1  0.30619300  0.38543500  0.22950400  1
  O  O38  1  0.50045100  0.07273800  0.12403200  1
  O  O39  1  0.11150600  0.03218200  0.08732300  1
  O  O40  1  0.48135800  0.91918900  0.44145300  1
  O  O41  1  0.54305800  0.36597200  0.91253200  1
  O  O42  1  0.08081100  0.51864200  0.05854700  1
  O  O43  1  0.36597200  0.54305800  0.41253200  1
  O  O44  1  0.68329400  0.17106900  0.18069700  1
  O  O45  1  0.17106900  0.68329400  0.68069700  1
