# generated using pymatgen
data_ZnFe(SiO3)2
_symmetry_space_group_name_H-M   'P 1'
_cell_length_a   5.39890622
_cell_length_b   6.82118324
_cell_length_c   6.82286730
_cell_angle_alpha   87.45129581
_cell_angle_beta   75.03825727
_cell_angle_gamma   75.04215805
_symmetry_Int_Tables_number   1
_chemical_formula_structural   ZnFe(SiO3)2
_chemical_formula_sum   'Zn2 Fe2 Si4 O12'
_cell_volume   234.45556590
_cell_formula_units_Z   2
loop_
 _symmetry_equiv_pos_site_id
 _symmetry_equiv_pos_as_xyz
  1  'x, y, z'
loop_
 _atom_site_type_symbol
 _atom_site_label
 _atom_site_symmetry_multiplicity
 _atom_site_fract_x
 _atom_site_fract_y
 _atom_site_fract_z
 _atom_site_occupancy
  Zn  Zn0  1  0.74986600  0.23519200  0.76485900  1
  Zn  Zn1  1  0.24992500  0.76481600  0.23523200  1
  Fe  Fe2  1  0.24997800  0.10404300  0.89573100  1
  Fe  Fe3  1  0.74994300  0.89585000  0.10413600  1
  Si  Si4  1  0.22093100  0.22128300  0.38732800  1
  Si  Si5  1  0.27913000  0.61261200  0.77881800  1
  Si  Si6  1  0.72098500  0.38733300  0.22123000  1
  Si  Si7  1  0.77916600  0.77874900  0.61257400  1
  O  O8  1  0.45888300  0.33435600  0.37803800  1
  O  O9  1  0.04141000  0.62212300  0.66551500  1
  O  O10  1  0.54133300  0.66551100  0.62211800  1
  O  O11  1  0.95884400  0.37808700  0.33432200  1
  O  O12  1  0.12307100  0.14755300  0.61920700  1
  O  O13  1  0.37665100  0.38074000  0.85275900  1
  O  O14  1  0.87674200  0.85260800  0.38070500  1
  O  O15  1  0.62320200  0.61921700  0.14742200  1
  O  O16  1  0.83908700  0.20873500  0.04170800  1
  O  O17  1  0.66082600  0.95830000  0.79118500  1
  O  O18  1  0.33911200  0.04164100  0.20882100  1
  O  O19  1  0.16091300  0.79125400  0.95829400  1
