# generated using pymatgen
data_Na8Al11Si13(AgO16)3
_symmetry_space_group_name_H-M   'P 1'
_cell_length_a   12.67576463
_cell_length_b   12.46623500
_cell_length_c   11.81385768
_cell_angle_alpha   89.89501664
_cell_angle_beta   88.95720052
_cell_angle_gamma   89.79850048
_symmetry_Int_Tables_number   1
_chemical_formula_structural   Na8Al11Si13(AgO16)3
_chemical_formula_sum   'Na8 Al11 Si13 Ag3 O48'
_cell_volume   1866.49104910
_cell_formula_units_Z   1
loop_
 _symmetry_equiv_pos_site_id
 _symmetry_equiv_pos_as_xyz
  1  'x, y, z'
loop_
 _atom_site_type_symbol
 _atom_site_label
 _atom_site_symmetry_multiplicity
 _atom_site_fract_x
 _atom_site_fract_y
 _atom_site_fract_z
 _atom_site_occupancy
  Na  Na0  1  0.20650719  0.20197884  0.19402697  1
  Na  Na1  1  0.58615789  0.99689738  0.53683324  1
  Na  Na2  1  0.58393031  0.37711546  0.91618711  1
  Na  Na3  1  0.59366875  0.60636306  0.06152979  1
  Na  Na4  1  0.79542754  0.20070767  0.82838177  1
  Na  Na5  1  0.77386273  0.21612911  0.19576358  1
  Na  Na6  1  0.78954471  0.79488830  0.18230767  1
  Na  Na7  1  0.77942377  0.80436177  0.81796791  1
  Al  Al8  1  0.18103211  0.36792647  0.00124436  1
  Al  Al9  1  0.37892854  0.00215078  0.79700617  1
  Al  Al10  1  0.37976343  0.80874470  0.99945321  1
  Al  Al11  1  0.61272766  0.99904258  0.22265859  1
  Al  Al12  1  0.62379199  0.17326623  0.00817034  1
  Al  Al13  1  0.61916377  0.00373863  0.79499427  1
  Al  Al14  1  0.62225138  0.82642318  0.01149825  1
  Al  Al15  1  0.82166586  0.99949007  0.37054168  1
  Al  Al16  1  0.83856690  0.99486106  0.64188204  1
  Al  Al17  1  0.81334715  0.38005628  0.00378757  1
  Al  Al18  1  0.81907159  0.62678148  0.99493358  1
  Si  Si19  1  0.97963260  0.18215625  0.36624848  1
  Si  Si20  1  0.99698707  0.37598128  0.19441985  1
  Si  Si21  1  0.98838673  0.18179472  0.63477613  1
  Si  Si22  1  0.00202094  0.62274658  0.19002244  1
  Si  Si23  1  0.00500046  0.37271374  0.80956969  1
  Si  Si24  1  0.98931710  0.82110835  0.36296668  1
  Si  Si25  1  0.00936316  0.62451581  0.80707532  1
  Si  Si26  1  0.00113898  0.81590917  0.63291974  1
  Si  Si27  1  0.17066131  0.00408228  0.62475664  1
  Si  Si28  1  0.18411514  0.62455232  0.99816295  1
  Si  Si29  1  0.16090112  0.00629846  0.36060743  1
  Si  Si30  1  0.36871586  0.00051683  0.19216176  1
  Si  Si31  1  0.37785550  0.18725633  0.99980565  1
  Ag  Ag32  1  0.21407486  0.80737055  0.80384497  1
  Ag  Ag33  1  0.20690248  0.19283720  0.80501488  1
  Ag  Ag34  1  0.20588345  0.79601342  0.19409195  1
  O  O35  1  0.99476130  0.29964160  0.30733279  1
  O  O36  1  0.01002040  0.50058406  0.23849461  1
  O  O37  1  0.00219229  0.29887469  0.69492202  1
  O  O38  1  0.00813669  0.70675319  0.29642575  1
  O  O39  1  0.99132086  0.79175676  0.49747670  1
  O  O40  1  0.09901659  0.11218053  0.65157169  1
  O  O41  1  0.10943445  0.64984446  0.11321891  1
  O  O42  1  0.11225534  0.65654728  0.88572530  1
  O  O43  1  0.10859299  0.89009610  0.65365555  1
  O  O44  1  0.09067368  0.11427437  0.33529952  1
  O  O45  1  0.10131801  0.33995450  0.12149235  1
  O  O46  1  0.11052064  0.33443629  0.87765772  1
  O  O47  1  0.09734365  0.89459605  0.33118486  1
  O  O48  1  0.19991809  0.00314937  0.48978962  1
  O  O49  1  0.21906811  0.50122611  0.99430832  1
  O  O50  1  0.26231651  0.01826194  0.27689303  1
  O  O51  1  0.28753161  0.28022769  0.01714676  1
  O  O52  1  0.28095034  0.70667256  0.00442556  1
  O  O53  1  0.27255856  0.01260402  0.70029843  1
  O  O54  1  0.35649776  0.10761923  0.11070594  1
  O  O55  1  0.35499881  0.11984249  0.88402874  1
  O  O56  1  0.34518967  0.89053576  0.12190322  1
  O  O57  1  0.35328608  0.88594936  0.87846925  1
  O  O58  1  0.49501028  0.23966947  0.00196549  1
  O  O59  1  0.49738944  0.00705488  0.72425556  1
  O  O60  1  0.47456878  0.00120525  0.26313281  1
  O  O61  1  0.50289655  0.75103990  0.01407523  1
  O  O62  1  0.64138565  0.11213076  0.13799546  1
  O  O63  1  0.64425056  0.12083100  0.87329398  1
  O  O64  1  0.64215441  0.88407500  0.14419066  1
  O  O65  1  0.63909179  0.89604847  0.88637208  1
  O  O66  1  0.68619658  0.00063494  0.35011755  1
  O  O67  1  0.71461977  0.28372856  0.00354330  1
  O  O68  1  0.72505742  0.72642348  0.00619850  1
  O  O69  1  0.70792934  0.98879057  0.67881980  1
  O  O70  1  0.87523378  0.99803416  0.50234940  1
  O  O71  1  0.74844586  0.50477465  0.99466568  1
  O  O72  1  0.89446641  0.11666517  0.69778033  1
  O  O73  1  0.89700731  0.64249761  0.11830300  1
  O  O74  1  0.89903387  0.65019994  0.87213613  1
  O  O75  1  0.90214606  0.87446063  0.69427682  1
  O  O76  1  0.88061089  0.12096326  0.31165391  1
  O  O77  1  0.88705490  0.36100578  0.12828173  1
  O  O78  1  0.89687812  0.35549138  0.88285906  1
  O  O79  1  0.88657345  0.87967682  0.31234771  1
  O  O80  1  0.97447371  0.20757166  0.50105897  1
  O  O81  1  0.01896577  0.49858870  0.77024568  1
  O  O82  1  0.02406687  0.69963416  0.69364184  1
