# generated using pymatgen
data_MgFe2(SiO3)4
_symmetry_space_group_name_H-M   'P 1'
_cell_length_a   5.22163900
_cell_length_b   9.63553500
_cell_length_c   18.50604500
_cell_angle_alpha   90.00000000
_cell_angle_beta   90.00000000
_cell_angle_gamma   90.00000000
_symmetry_Int_Tables_number   1
_chemical_formula_structural   MgFe2(SiO3)4
_chemical_formula_sum   'Mg4 Fe8 Si16 O48'
_cell_volume   931.09992263
_cell_formula_units_Z   4
loop_
 _symmetry_equiv_pos_site_id
 _symmetry_equiv_pos_as_xyz
  1  'x, y, z'
loop_
 _atom_site_type_symbol
 _atom_site_label
 _atom_site_symmetry_multiplicity
 _atom_site_fract_x
 _atom_site_fract_y
 _atom_site_fract_z
 _atom_site_occupancy
  Mg  Mg0  1  0.14331900  0.83903500  0.37625400  1
  Mg  Mg1  1  0.85668100  0.83903500  0.87625400  1
  Mg  Mg2  1  0.14331900  0.33903500  0.12374600  1
  Mg  Mg3  1  0.85668100  0.33903500  0.62374600  1
  Fe  Fe4  1  0.12564400  0.02897500  0.12450700  1
  Fe  Fe5  1  0.36177700  0.97992700  0.87442000  1
  Fe  Fe6  1  0.63822300  0.97992700  0.37442000  1
  Fe  Fe7  1  0.87435600  0.02897500  0.62450700  1
  Fe  Fe8  1  0.12564400  0.52897500  0.37549300  1
  Fe  Fe9  1  0.36177700  0.47992700  0.62558000  1
  Fe  Fe10  1  0.63822300  0.47992700  0.12558000  1
  Fe  Fe11  1  0.87435600  0.52897500  0.87549300  1
  Si  Si12  1  0.32507800  0.65983200  0.22771300  1
  Si  Si13  1  0.47980100  0.83097400  0.52878100  1
  Si  Si14  1  0.52019900  0.83097400  0.02878100  1
  Si  Si15  1  0.67492200  0.15983200  0.77228700  1
  Si  Si16  1  0.83205300  0.33519100  0.27611600  1
  Si  Si17  1  0.16794700  0.83519100  0.72388400  1
  Si  Si18  1  0.97857000  0.66795200  0.52770100  1
  Si  Si19  1  0.47980100  0.33097400  0.97121900  1
  Si  Si20  1  0.52019900  0.33097400  0.47121900  1
  Si  Si21  1  0.67492200  0.65983200  0.72771300  1
  Si  Si22  1  0.16794700  0.33519100  0.77611600  1
  Si  Si23  1  0.32507800  0.15983200  0.27228700  1
  Si  Si24  1  0.02143000  0.16795200  0.47229900  1
  Si  Si25  1  0.83205300  0.83519100  0.22388400  1
  Si  Si26  1  0.02143000  0.66795200  0.02770100  1
  Si  Si27  1  0.97857000  0.16795200  0.97229900  1
  O  O28  1  0.65697500  0.50719000  0.68723900  1
  O  O29  1  0.06310500  0.02480000  0.92985400  1
  O  O30  1  0.84525400  0.48248400  0.31663400  1
  O  O31  1  0.45457400  0.36458600  0.05890900  1
  O  O32  1  0.00328300  0.17067400  0.06035600  1
  O  O33  1  0.67119900  0.19564200  0.95497300  1
  O  O34  1  0.70820700  0.66615500  0.81496900  1
  O  O35  1  0.83198400  0.85835200  0.31231400  1
  O  O36  1  0.45457400  0.86458600  0.44109100  1
  O  O37  1  0.70820700  0.16615500  0.68503100  1
  O  O38  1  0.15474600  0.48248400  0.81663400  1
  O  O39  1  0.54542600  0.36458600  0.55890900  1
  O  O40  1  0.39994300  0.95811300  0.07215400  1
  O  O41  1  0.16801600  0.85835200  0.81231400  1
  O  O42  1  0.34302500  0.00719000  0.31276100  1
  O  O43  1  0.06310500  0.52480000  0.57014600  1
  O  O44  1  0.15474600  0.98248400  0.68336600  1
  O  O45  1  0.91307400  0.75038300  0.69545700  1
  O  O46  1  0.08692600  0.75038300  0.19545700  1
  O  O47  1  0.32880100  0.69564200  0.04502700  1
  O  O48  1  0.54542600  0.86458600  0.94109100  1
  O  O49  1  0.29179300  0.66615500  0.31496900  1
  O  O50  1  0.60005700  0.45811300  0.92784600  1
  O  O51  1  0.91307400  0.25038300  0.80454300  1
  O  O52  1  0.99671700  0.17067400  0.56035600  1
  O  O53  1  0.29179300  0.16615500  0.18503100  1
  O  O54  1  0.39994300  0.45811300  0.42784600  1
  O  O55  1  0.00328300  0.67067400  0.43964400  1
  O  O56  1  0.93689500  0.52480000  0.07014600  1
  O  O57  1  0.40843500  0.73443200  0.70108500  1
  O  O58  1  0.84525400  0.98248400  0.18336600  1
  O  O59  1  0.59156500  0.73443200  0.20108500  1
  O  O60  1  0.59156500  0.23443200  0.29891500  1
  O  O61  1  0.60005700  0.95811300  0.57215400  1
  O  O62  1  0.99671700  0.67067400  0.93964400  1
  O  O63  1  0.93689500  0.02480000  0.42985400  1
  O  O64  1  0.08692600  0.25038300  0.30454300  1
  O  O65  1  0.81800300  0.79128200  0.05413500  1
  O  O66  1  0.18199700  0.79128200  0.55413500  1
  O  O67  1  0.40843500  0.23443200  0.79891500  1
  O  O68  1  0.18199700  0.29128200  0.94586500  1
  O  O69  1  0.32880100  0.19564200  0.45497300  1
  O  O70  1  0.81800300  0.29128200  0.44586500  1
  O  O71  1  0.16801600  0.35835200  0.68768600  1
  O  O72  1  0.34302500  0.50719000  0.18723900  1
  O  O73  1  0.67119900  0.69564200  0.54502700  1
  O  O74  1  0.83198400  0.35835200  0.18768600  1
  O  O75  1  0.65697500  0.00719000  0.81276100  1
