# generated using pymatgen
data_Zn3Si4(SbO7)2
_symmetry_space_group_name_H-M   'P 1'
_cell_length_a   9.39850532
_cell_length_b   9.39850532
_cell_length_c   10.61268390
_cell_angle_alpha   60.09367832
_cell_angle_beta   60.09367832
_cell_angle_gamma   53.00375317
_symmetry_Int_Tables_number   1
_chemical_formula_structural   Zn3Si4(SbO7)2
_chemical_formula_sum   'Zn6 Si8 Sb4 O28'
_cell_volume   621.74844419
_cell_formula_units_Z   2
loop_
 _symmetry_equiv_pos_site_id
 _symmetry_equiv_pos_as_xyz
  1  'x, y, z'
loop_
 _atom_site_type_symbol
 _atom_site_label
 _atom_site_symmetry_multiplicity
 _atom_site_fract_x
 _atom_site_fract_y
 _atom_site_fract_z
 _atom_site_occupancy
  Zn  Zn0  1  0.01462200  0.30978400  0.10830300  1
  Zn  Zn1  1  0.69021600  0.98537800  0.39169700  1
  Zn  Zn2  1  0.30978400  0.01462200  0.60830300  1
  Zn  Zn3  1  0.41950000  0.58050000  0.75000000  1
  Zn  Zn4  1  0.98537800  0.69021600  0.89169700  1
  Zn  Zn5  1  0.58050000  0.41950000  0.25000000  1
  Si  Si6  1  0.52249700  0.08895600  0.71249800  1
  Si  Si7  1  0.08895600  0.52249700  0.21249800  1
  Si  Si8  1  0.49165600  0.26676200  0.11336200  1
  Si  Si9  1  0.26676200  0.49165600  0.61336200  1
  Si  Si10  1  0.91104400  0.47750300  0.78750200  1
  Si  Si11  1  0.50834400  0.73323800  0.88663800  1
  Si  Si12  1  0.73323800  0.50834400  0.38663800  1
  Si  Si13  1  0.47750300  0.91104400  0.28750200  1
  Sb  Sb14  1  0.79660700  0.20339300  0.75000000  1
  Sb  Sb15  1  0.20339300  0.79660700  0.25000000  1
  Sb  Sb16  1  0.00000000  0.00000000  0.00000000  1
  Sb  Sb17  1  0.00000000  0.00000000  0.50000000  1
  O  O18  1  0.79751600  0.34249600  0.31711500  1
  O  O19  1  0.93657100  0.89798300  0.39923400  1
  O  O20  1  0.49322900  0.61341200  0.06336400  1
  O  O21  1  0.89798300  0.93657100  0.89923400  1
  O  O22  1  0.27034300  0.94308900  0.32142500  1
  O  O23  1  0.06919800  0.51526600  0.63121500  1
  O  O24  1  0.61341200  0.49322900  0.56336400  1
  O  O25  1  0.05691100  0.72965700  0.17857500  1
  O  O26  1  0.93080200  0.48473400  0.36878500  1
  O  O27  1  0.63328500  0.70439800  0.26215200  1
  O  O28  1  0.06342900  0.10201700  0.60076600  1
  O  O29  1  0.72965700  0.05691100  0.67857500  1
  O  O30  1  0.48473400  0.93080200  0.86878500  1
  O  O31  1  0.34249600  0.79751600  0.81711500  1
  O  O32  1  0.70439800  0.63328500  0.76215200  1
  O  O33  1  0.94308900  0.27034300  0.82142500  1
  O  O34  1  0.92327200  0.49977900  0.92456300  1
  O  O35  1  0.36671500  0.29560200  0.73784800  1
  O  O36  1  0.50022100  0.07672800  0.57543700  1
  O  O37  1  0.29560200  0.36671500  0.23784800  1
  O  O38  1  0.51526600  0.06919800  0.13121500  1
  O  O39  1  0.10201700  0.06342900  0.10076600  1
  O  O40  1  0.49977900  0.92327200  0.42456300  1
  O  O41  1  0.50677100  0.38658800  0.93663600  1
  O  O42  1  0.07672800  0.50022100  0.07543700  1
  O  O43  1  0.38658800  0.50677100  0.43663600  1
  O  O44  1  0.65750400  0.20248400  0.18288500  1
  O  O45  1  0.20248400  0.65750400  0.68288500  1
