# generated using pymatgen
data_Al(WF5)3
_symmetry_space_group_name_H-M   'P 1'
_cell_length_a   10.04022200
_cell_length_b   6.15238300
_cell_length_c   10.17806488
_cell_angle_alpha   75.85942727
_cell_angle_beta   90.00000000
_cell_angle_gamma   90.00000000
_symmetry_Int_Tables_number   1
_chemical_formula_structural   Al(WF5)3
_chemical_formula_sum   'Al2 W6 F30'
_cell_volume   609.66176494
_cell_formula_units_Z   2
loop_
 _symmetry_equiv_pos_site_id
 _symmetry_equiv_pos_as_xyz
  1  'x, y, z'
loop_
 _atom_site_type_symbol
 _atom_site_label
 _atom_site_symmetry_multiplicity
 _atom_site_fract_x
 _atom_site_fract_y
 _atom_site_fract_z
 _atom_site_occupancy
  Al  Al0  1  0.75000000  0.54431900  0.73460500  1
  Al  Al1  1  0.25000000  0.45568100  0.26539500  1
  W  W2  1  0.50000000  0.00000000  0.00000000  1
  W  W3  1  0.54492500  0.01964000  0.33347000  1
  W  W4  1  0.45507500  0.98036000  0.66653000  1
  W  W5  1  0.00000000  0.00000000  0.00000000  1
  W  W6  1  0.95507500  0.01964000  0.33347000  1
  W  W7  1  0.04492500  0.98036000  0.66653000  1
  F  F8  1  0.75000000  0.40134400  0.89699300  1
  F  F9  1  0.75000000  0.09985000  0.32618500  1
  F  F10  1  0.75000000  0.40457200  0.61572300  1
  F  F11  1  0.25000000  0.59865600  0.10300700  1
  F  F12  1  0.25000000  0.59542800  0.38427700  1
  F  F13  1  0.25000000  0.90015000  0.67381500  1
  F  F14  1  0.39768100  0.84361700  0.87276800  1
  F  F15  1  0.42268900  0.89763400  0.19965700  1
  F  F16  1  0.40489900  0.89287200  0.48199500  1
  F  F17  1  0.60231900  0.15638300  0.12723200  1
  F  F18  1  0.59510100  0.10712800  0.51800500  1
  F  F19  1  0.57731100  0.10236600  0.80034300  1
  F  F20  1  0.11249300  0.26220400  0.94930700  1
  F  F21  1  0.10509500  0.28367000  0.28868300  1
  F  F22  1  0.11556100  0.28012700  0.61034200  1
  F  F23  1  0.88750700  0.73779600  0.05069300  1
  F  F24  1  0.88443900  0.71987300  0.38965800  1
  F  F25  1  0.89490500  0.71633000  0.71131700  1
  F  F26  1  0.61249300  0.73779600  0.05069300  1
  F  F27  1  0.61556100  0.71987300  0.38965800  1
  F  F28  1  0.60509500  0.71633000  0.71131700  1
  F  F29  1  0.38750700  0.26220400  0.94930700  1
  F  F30  1  0.39490500  0.28367000  0.28868300  1
  F  F31  1  0.38443900  0.28012700  0.61034200  1
  F  F32  1  0.10231900  0.84361700  0.87276800  1
  F  F33  1  0.07731100  0.89763400  0.19965700  1
  F  F34  1  0.09510100  0.89287200  0.48199500  1
  F  F35  1  0.89768100  0.15638300  0.12723200  1
  F  F36  1  0.90489900  0.10712800  0.51800500  1
  F  F37  1  0.92268900  0.10236600  0.80034300  1
