# generated using pymatgen
data_Ba2AlCr3O7
_symmetry_space_group_name_H-M   'P 1'
_cell_length_a   3.82627000
_cell_length_b   3.96811500
_cell_length_c   11.57688900
_cell_angle_alpha   90.00000000
_cell_angle_beta   90.00000000
_cell_angle_gamma   90.00000000
_symmetry_Int_Tables_number   1
_chemical_formula_structural   Ba2AlCr3O7
_chemical_formula_sum   'Ba2 Al1 Cr3 O7'
_cell_volume   175.77282467
_cell_formula_units_Z   1
loop_
 _symmetry_equiv_pos_site_id
 _symmetry_equiv_pos_as_xyz
  1  'x, y, z'
loop_
 _atom_site_type_symbol
 _atom_site_label
 _atom_site_symmetry_multiplicity
 _atom_site_fract_x
 _atom_site_fract_y
 _atom_site_fract_z
 _atom_site_occupancy
  Ba  Ba0  1  0.50000000  0.50000000  0.31486000  1
  Ba  Ba1  1  0.50000000  0.50000000  0.68514000  1
  Al  Al2  1  0.50000000  0.50000000  0.00000000  1
  Cr  Cr3  1  0.00000000  0.00000000  0.13925100  1
  Cr  Cr4  1  0.00000000  0.00000000  0.86074900  1
  Cr  Cr5  1  0.00000000  0.00000000  0.50000000  1
  O  O6  1  0.00000000  0.50000000  0.50000000  1
  O  O7  1  0.50000000  0.00000000  0.10703900  1
  O  O8  1  0.50000000  0.00000000  0.89296100  1
  O  O9  1  0.00000000  0.50000000  0.10738400  1
  O  O10  1  0.00000000  0.50000000  0.89261600  1
  O  O11  1  0.00000000  0.00000000  0.32022000  1
  O  O12  1  0.00000000  0.00000000  0.67978000  1
