# generated using pymatgen
data_Ba2AlW2F11
_symmetry_space_group_name_H-M   'P 1'
_cell_length_a   7.72032339
_cell_length_b   7.72032339
_cell_length_c   15.17427400
_cell_angle_alpha   90.00000000
_cell_angle_beta   90.00000000
_cell_angle_gamma   119.99999473
_symmetry_Int_Tables_number   1
_chemical_formula_structural   Ba2AlW2F11
_chemical_formula_sum   'Ba6 Al3 W6 F33'
_cell_volume   783.26651572
_cell_formula_units_Z   3
loop_
 _symmetry_equiv_pos_site_id
 _symmetry_equiv_pos_as_xyz
  1  'x, y, z'
loop_
 _atom_site_type_symbol
 _atom_site_label
 _atom_site_symmetry_multiplicity
 _atom_site_fract_x
 _atom_site_fract_y
 _atom_site_fract_z
 _atom_site_occupancy
  Ba  Ba0  1  0.84939400  0.84787000  0.65191700  1
  Ba  Ba1  1  0.50407200  0.13669000  0.79027700  1
  Ba  Ba2  1  0.99847500  0.15060600  0.98525100  1
  Ba  Ba3  1  0.86331000  0.36738200  0.45694400  1
  Ba  Ba4  1  0.63261800  0.49592800  0.12361000  1
  Ba  Ba5  1  0.15213000  0.00152500  0.31858400  1
  Al  Al6  1  0.51664200  0.68303200  0.87191900  1
  Al  Al7  1  0.16639000  0.48335800  0.20525200  1
  Al  Al8  1  0.31696800  0.83361000  0.53858500  1
  W  W9  1  0.96834500  0.66039600  0.89285700  1
  W  W10  1  0.09448800  0.42072500  0.72838400  1
  W  W11  1  0.57927500  0.67376200  0.39505100  1
  W  W12  1  0.69205100  0.03165500  0.22619100  1
  W  W13  1  0.32623800  0.90551200  0.06171700  1
  W  W14  1  0.33960400  0.30794900  0.55952400  1
  F  F15  1  0.01027000  0.76023400  0.03039600  1
  F  F16  1  0.81088800  0.34326800  0.91836600  1
  F  F17  1  0.74996400  0.98973000  0.36372900  1
  F  F18  1  0.48094500  0.07220300  0.48488000  1
  F  F19  1  0.84439500  0.87144900  0.19558000  1
  F  F20  1  0.16960000  0.26646500  0.15562500  1
  F  F21  1  0.92779700  0.40874100  0.15154600  1
  F  F22  1  0.73353500  0.90313600  0.82229200  1
  F  F23  1  0.02705400  0.15560500  0.52891300  1
  F  F24  1  0.64291500  0.04832700  0.08642100  1
  F  F25  1  0.59125900  0.51905500  0.81821300  1
  F  F26  1  0.23976600  0.25003600  0.69706300  1
  F  F27  1  0.66072500  0.71758700  0.97281800  1
  F  F28  1  0.37462600  0.18767500  0.01874000  1
  F  F29  1  0.05686200  0.33927500  0.30615100  1
  F  F30  1  0.65673200  0.46762000  0.58503200  1
  F  F31  1  0.44004800  0.86067000  0.91136400  1
  F  F32  1  0.40541200  0.35708500  0.41975400  1
  F  F33  1  0.32848700  0.70639600  0.43320300  1
  F  F34  1  0.28241300  0.94313800  0.63948500  1
  F  F35  1  0.37790900  0.67151300  0.76653700  1
  F  F36  1  0.81232500  0.18695200  0.68540700  1
  F  F37  1  0.81304800  0.62537400  0.35207300  1
  F  F38  1  0.42062100  0.55995200  0.24469800  1
  F  F39  1  0.95167300  0.59458800  0.75308800  1
  F  F40  1  0.12855100  0.97294600  0.86224700  1
  F  F41  1  0.53238000  0.18911200  0.25169900  1
  F  F42  1  0.29442700  0.47176900  0.91522200  1
  F  F43  1  0.17734200  0.70557300  0.24855600  1
  F  F44  1  0.29360400  0.62209100  0.09987000  1
  F  F45  1  0.09686400  0.83040000  0.48895800  1
  F  F46  1  0.13933000  0.57937900  0.57803100  1
  F  F47  1  0.52823100  0.82265800  0.58188900  1
