# generated using pymatgen
data_AlV(WO4)2
_symmetry_space_group_name_H-M   'P 1'
_cell_length_a   5.13755458
_cell_length_b   5.55013401
_cell_length_c   9.20360353
_cell_angle_alpha   90.00359630
_cell_angle_beta   90.34321271
_cell_angle_gamma   89.99609762
_symmetry_Int_Tables_number   1
_chemical_formula_structural   AlV(WO4)2
_chemical_formula_sum   'Al2 V2 W4 O16'
_cell_volume   262.42791248
_cell_formula_units_Z   2
loop_
 _symmetry_equiv_pos_site_id
 _symmetry_equiv_pos_as_xyz
  1  'x, y, z'
loop_
 _atom_site_type_symbol
 _atom_site_label
 _atom_site_symmetry_multiplicity
 _atom_site_fract_x
 _atom_site_fract_y
 _atom_site_fract_z
 _atom_site_occupancy
  Al  Al0  1  0.24999400  0.65528000  0.24995700  1
  Al  Al1  1  0.74999300  0.34487000  0.75004400  1
  V  V2  1  0.75009400  0.35945600  0.25017500  1
  V  V3  1  0.24988300  0.64042300  0.74984000  1
  W  W4  1  0.75390100  0.83637100  0.49881300  1
  W  W5  1  0.74613600  0.83634300  0.00118400  1
  W  W6  1  0.24612600  0.16377000  0.50116400  1
  W  W7  1  0.25385400  0.16380800  0.99884300  1
  O  O8  1  0.39702300  0.38561800  0.13377200  1
  O  O9  1  0.10305100  0.38561700  0.36628100  1
  O  O10  1  0.60247500  0.61612100  0.86530500  1
  O  O11  1  0.89738500  0.61604500  0.63457700  1
  O  O12  1  0.40730100  0.87820800  0.60903900  1
  O  O13  1  0.09275000  0.87814200  0.89094100  1
  O  O14  1  0.59235900  0.12055800  0.39041000  1
  O  O15  1  0.90761200  0.12062800  0.10962500  1
  O  O16  1  0.93186400  0.62614500  0.14263200  1
  O  O17  1  0.56811400  0.62622100  0.35741400  1
  O  O18  1  0.06709100  0.37272600  0.85713300  1
  O  O19  1  0.43293900  0.37266500  0.64284400  1
  O  O20  1  0.41646100  0.87716200  0.11924800  1
  O  O21  1  0.58340700  0.12333400  0.88112200  1
  O  O22  1  0.08357300  0.87717000  0.38075400  1
  O  O23  1  0.91661100  0.12331800  0.61888500  1
