# generated using pymatgen
data_BaAlCo4O7
_symmetry_space_group_name_H-M   'P 1'
_cell_length_a   6.06942951
_cell_length_b   6.06942951
_cell_length_c   9.93359700
_cell_angle_alpha   90.00000000
_cell_angle_beta   90.00000000
_cell_angle_gamma   119.99999465
_symmetry_Int_Tables_number   1
_chemical_formula_structural   BaAlCo4O7
_chemical_formula_sum   'Ba2 Al2 Co8 O14'
_cell_volume   316.90780529
_cell_formula_units_Z   2
loop_
 _symmetry_equiv_pos_site_id
 _symmetry_equiv_pos_as_xyz
  1  'x, y, z'
loop_
 _atom_site_type_symbol
 _atom_site_label
 _atom_site_symmetry_multiplicity
 _atom_site_fract_x
 _atom_site_fract_y
 _atom_site_fract_z
 _atom_site_occupancy
  Ba  Ba0  1  0.66666700  0.33333300  0.50640100  1
  Ba  Ba1  1  0.33333300  0.66666700  0.00640100  1
  Al  Al2  1  0.66666700  0.33333300  0.88086000  1
  Al  Al3  1  0.33333300  0.66666700  0.38086000  1
  Co  Co4  1  0.82198200  0.17801800  0.18895200  1
  Co  Co5  1  0.64396400  0.82198200  0.68895200  1
  Co  Co6  1  0.17801800  0.35603600  0.68895200  1
  Co  Co7  1  0.82198200  0.64396400  0.18895200  1
  Co  Co8  1  0.35603600  0.17801800  0.18895200  1
  Co  Co9  1  0.17801800  0.82198200  0.68895200  1
  Co  Co10  1  0.00000000  0.00000000  0.44436000  1
  Co  Co11  1  0.00000000  0.00000000  0.94436000  1
  O  O12  1  0.81859700  0.18140300  0.99563100  1
  O  O13  1  0.63719500  0.81859700  0.49563100  1
  O  O14  1  0.18140300  0.36280500  0.49563100  1
  O  O15  1  0.81859700  0.63719500  0.99563100  1
  O  O16  1  0.36280500  0.18140300  0.99563100  1
  O  O17  1  0.18140300  0.81859700  0.49563100  1
  O  O18  1  0.00000000  0.00000000  0.74733400  1
  O  O19  1  0.00000000  0.00000000  0.24733400  1
  O  O20  1  0.48615000  0.51385000  0.26709800  1
  O  O21  1  0.97230100  0.48615000  0.76709800  1
  O  O22  1  0.51385000  0.02769900  0.76709800  1
  O  O23  1  0.48615000  0.97230100  0.26709800  1
  O  O24  1  0.51385000  0.48615000  0.76709800  1
  O  O25  1  0.02769900  0.51385000  0.26709800  1
