# generated using pymatgen
data_MnAlO3
_symmetry_space_group_name_H-M   'P 1'
_cell_length_a   6.02576293
_cell_length_b   6.00854868
_cell_length_c   10.61448202
_cell_angle_alpha   89.99296131
_cell_angle_beta   90.00154707
_cell_angle_gamma   127.36064077
_symmetry_Int_Tables_number   1
_chemical_formula_structural   MnAlO3
_chemical_formula_sum   'Mn6 Al6 O18'
_cell_volume   305.46087391
_cell_formula_units_Z   6
loop_
 _symmetry_equiv_pos_site_id
 _symmetry_equiv_pos_as_xyz
  1  'x, y, z'
loop_
 _atom_site_type_symbol
 _atom_site_label
 _atom_site_symmetry_multiplicity
 _atom_site_fract_x
 _atom_site_fract_y
 _atom_site_fract_z
 _atom_site_occupancy
  Mn  Mn0  1  0.65507400  0.98715500  0.49150200  1
  Mn  Mn1  1  0.68240500  0.68140400  0.01637100  1
  Mn  Mn2  1  0.01401100  0.34414000  0.99189700  1
  Mn  Mn3  1  0.98583800  0.65573000  0.49187200  1
  Mn  Mn4  1  0.31748000  0.31857700  0.51628300  1
  Mn  Mn5  1  0.34583200  0.01365500  0.99159700  1
  Al  Al6  1  0.64322500  0.33385200  0.23880800  1
  Al  Al7  1  0.35717000  0.66596700  0.73896000  1
  Al  Al8  1  0.66683500  0.35792800  0.73927600  1
  Al  Al9  1  0.33308300  0.64166000  0.23932600  1
  Al  Al10  1  0.96885300  0.97022800  0.75903100  1
  Al  Al11  1  0.03116500  0.02973600  0.25894400  1
  O  O12  1  0.74022500  0.39659200  0.04890900  1
  O  O13  1  0.26007500  0.60363700  0.54899900  1
  O  O14  1  0.60219300  0.26169100  0.54926600  1
  O  O15  1  0.39823800  0.73875700  0.04990400  1
  O  O16  1  0.06279300  0.06163600  0.93211600  1
  O  O17  1  0.93715800  0.93821500  0.43208300  1
  O  O18  1  0.44144400  0.00845500  0.82131600  1
  O  O19  1  0.37346500  0.37460200  0.34012100  1
  O  O20  1  0.99141200  0.55970800  0.32147500  1
  O  O21  1  0.00869000  0.44006600  0.82139900  1
  O  O22  1  0.62557400  0.62534400  0.84038200  1
  O  O23  1  0.55839800  0.99148100  0.32130500  1
  O  O24  1  0.29246600  0.04795100  0.16474500  1
  O  O25  1  0.29096600  0.29250000  0.69414000  1
  O  O26  1  0.95323600  0.70888700  0.66551100  1
  O  O27  1  0.04566300  0.29043600  0.16541800  1
  O  O28  1  0.70928700  0.70736500  0.19415800  1
  O  O29  1  0.70774700  0.95264200  0.66488800  1
