# generated using pymatgen
data_Ba2AlW3O8
_symmetry_space_group_name_H-M   'P 1'
_cell_length_a   3.96718600
_cell_length_b   3.96718600
_cell_length_c   12.86197600
_cell_angle_alpha   90.00000000
_cell_angle_beta   90.00000000
_cell_angle_gamma   90.00000000
_symmetry_Int_Tables_number   1
_chemical_formula_structural   Ba2AlW3O8
_chemical_formula_sum   'Ba2 Al1 W3 O8'
_cell_volume   202.42904220
_cell_formula_units_Z   1
loop_
 _symmetry_equiv_pos_site_id
 _symmetry_equiv_pos_as_xyz
  1  'x, y, z'
loop_
 _atom_site_type_symbol
 _atom_site_label
 _atom_site_symmetry_multiplicity
 _atom_site_fract_x
 _atom_site_fract_y
 _atom_site_fract_z
 _atom_site_occupancy
  Ba  Ba0  1  0.50000000  0.50000000  0.19278600  1
  Ba  Ba1  1  0.50000000  0.50000000  0.80721400  1
  Al  Al2  1  0.50000000  0.50000000  0.50000000  1
  W  W3  1  0.00000000  0.00000000  0.39994200  1
  W  W4  1  0.00000000  0.00000000  0.00000000  1
  W  W5  1  0.00000000  0.00000000  0.60005800  1
  O  O6  1  0.00000000  0.50000000  0.35038100  1
  O  O7  1  0.50000000  0.00000000  0.35038100  1
  O  O8  1  0.50000000  0.00000000  0.00000000  1
  O  O9  1  0.00000000  0.00000000  0.15115500  1
  O  O10  1  0.00000000  0.50000000  0.64961900  1
  O  O11  1  0.50000000  0.00000000  0.64961900  1
  O  O12  1  0.00000000  0.00000000  0.84884500  1
  O  O13  1  0.00000000  0.50000000  0.00000000  1
