# generated using pymatgen
data_Na17Zr12Si11P7O72
_symmetry_space_group_name_H-M   'P 1'
_cell_length_a   9.37555371
_cell_length_b   9.47720411
_cell_length_c   28.52066368
_cell_angle_alpha   57.74943416
_cell_angle_beta   57.98718971
_cell_angle_gamma   57.93894929
_symmetry_Int_Tables_number   1
_chemical_formula_structural   Na17Zr12Si11P7O72
_chemical_formula_sum   'Na17 Zr12 Si11 P7 O72'
_cell_volume   1705.21034369
_cell_formula_units_Z   1
loop_
 _symmetry_equiv_pos_site_id
 _symmetry_equiv_pos_as_xyz
  1  'x, y, z'
loop_
 _atom_site_type_symbol
 _atom_site_label
 _atom_site_symmetry_multiplicity
 _atom_site_fract_x
 _atom_site_fract_y
 _atom_site_fract_z
 _atom_site_occupancy
  Na  Na0  1  0.28229235  0.44967632  0.22888943  1
  Na  Na1  1  0.74850938  0.12340891  0.13203017  1
  Na  Na2  1  0.24886943  0.89097998  0.20105114  1
  Na  Na3  1  0.68021105  0.24974349  0.30328671  1
  Na  Na4  1  0.81388859  0.58992031  0.08474403  1
  Na  Na5  1  0.74662600  0.10922613  0.45948723  1
  Na  Na6  1  0.31360342  0.45039348  0.55666368  1
  Na  Na7  1  0.25096241  0.89169833  0.53439986  1
  Na  Na8  1  0.67055936  0.24443782  0.64059667  1
  Na  Na9  1  0.82508687  0.58133326  0.41715488  1
  Na  Na10  1  0.19043122  0.83232230  0.34710755  1
  Na  Na11  1  0.75011821  0.11943498  0.79525034  1
  Na  Na12  1  0.29943359  0.44831501  0.89285400  1
  Na  Na13  1  0.24993001  0.90124951  0.87521287  1
  Na  Na14  1  0.83044150  0.16037492  0.98693813  1
  Na  Na15  1  0.78078876  0.57147956  0.75723556  1
  Na  Na16  1  0.16931758  0.83767132  0.68182033  1
  Zr  Zr17  1  0.14886079  0.14508819  0.04500981  1
  Zr  Zr18  1  0.35300426  0.36472552  0.11559878  1
  Zr  Zr19  1  0.14395858  0.15069347  0.37958919  1
  Zr  Zr20  1  0.34917794  0.36332880  0.45048342  1
  Zr  Zr21  1  0.64121231  0.65787215  0.21690486  1
  Zr  Zr22  1  0.14784588  0.14795703  0.71181724  1
  Zr  Zr23  1  0.85331843  0.84869259  0.28133452  1
  Zr  Zr24  1  0.35442272  0.36565951  0.78144563  1
  Zr  Zr25  1  0.64527285  0.65392031  0.54963455  1
  Zr  Zr26  1  0.85563392  0.84715342  0.61535561  1
  Zr  Zr27  1  0.64545459  0.64760431  0.88584429  1
  Zr  Zr28  1  0.85046491  0.85208146  0.94749328  1
  Si  Si29  1  0.03627802  0.75343765  0.15660023  1
  Si  Si30  1  0.45671208  0.03239949  0.24841308  1
  Si  Si31  1  0.74605965  0.46049868  0.01443686  1
  Si  Si32  1  0.24658771  0.54715757  0.31888626  1
  Si  Si33  1  0.03900271  0.75386160  0.49019279  1
  Si  Si34  1  0.45805653  0.02642880  0.58261730  1
  Si  Si35  1  0.74597711  0.46031005  0.34752052  1
  Si  Si36  1  0.25197106  0.54436257  0.65046989  1
  Si  Si37  1  0.03946041  0.75076762  0.82413974  1
  Si  Si38  1  0.45883712  0.03077425  0.91452822  1
  Si  Si39  1  0.75315550  0.45517057  0.67889443  1
  P  P40  1  0.54384221  0.97627379  0.08066052  1
  P  P41  1  0.96142107  0.25730794  0.17428151  1
  P  P42  1  0.53920459  0.97297961  0.41432365  1
  P  P43  1  0.96017667  0.25179371  0.51000113  1
  P  P44  1  0.24225693  0.54636188  0.98611933  1
  P  P45  1  0.53732172  0.96629248  0.75012759  1
  P  P46  1  0.95976837  0.25310029  0.84257720  1
  O  O47  1  0.14897528  0.24401548  0.16186945  1
  O  O48  1  0.28700691  0.49727583  0.03879947  1
  O  O49  1  0.06818538  0.93217299  0.10063952  1
  O  O50  1  0.55018662  0.12722530  0.08593957  1
  O  O51  1  0.19074060  0.56880123  0.14597929  1
  O  O52  1  0.04552513  0.75389130  0.21298663  1
  O  O53  1  0.30073337  0.06516199  0.30955081  1
  O  O54  1  0.42413565  0.21423436  0.19143090  1
  O  O55  1  0.57591995  0.43100889  0.07550104  1
  O  O56  1  0.20348480  0.38133910  0.33168478  1
  O  O57  1  0.07489753  0.73595591  0.31059572  1
  O  O58  1  0.36009429  0.02719996  0.07898034  1
  O  O59  1  0.65488596  0.98430026  0.24651035  1
  O  O60  1  0.14871517  0.23720854  0.49722353  1
  O  O61  1  0.91704415  0.27404541  0.02403450  1
  O  O62  1  0.78515007  0.62858299  0.00179148  1
  O  O63  1  0.42236802  0.56278064  0.25744330  1
  O  O64  1  0.28038495  0.51364754  0.37529228  1
  O  O65  1  0.57127864  0.80086303  0.13488224  1
  O  O66  1  0.07376471  0.92067503  0.42838094  1
  O  O67  1  0.70100001  0.94021801  0.02395093  1
  O  O68  1  0.53865358  0.13024134  0.41842772  1
  O  O69  1  0.19232794  0.56439142  0.48309188  1
  O  O70  1  0.04837191  0.77268317  0.54262711  1
  O  O71  1  0.95905425  0.25546759  0.12065661  1
  O  O72  1  0.81309843  0.43262353  0.18495824  1
  O  O73  1  0.44567496  0.87014387  0.24512170  1
  O  O74  1  0.29837334  0.05467481  0.64402359  1
  O  O75  1  0.91889787  0.09713167  0.23135396  1
  O  O76  1  0.43000169  0.20820614  0.52530302  1
  O  O77  1  0.71057091  0.49737906  0.29072960  1
  O  O78  1  0.57445672  0.42853077  0.40811034  1
  O  O79  1  0.21174964  0.37629556  0.66327071  1
  O  O80  1  0.08229283  0.73379526  0.64204452  1
  O  O81  1  0.83847447  0.76298243  0.17079124  1
  O  O82  1  0.35242997  0.01142378  0.41784267  1
  O  O83  1  0.65182855  0.97785257  0.58386227  1
  O  O84  1  0.14437863  0.25185494  0.82778911  1
  O  O85  1  0.91671517  0.27627183  0.35836140  1
  O  O86  1  0.78291268  0.62836232  0.33665933  1
  O  O87  1  0.42720267  0.55948598  0.58837988  1
  O  O88  1  0.29220575  0.51101591  0.70546428  1
  O  O89  1  0.58531108  0.79654068  0.46580975  1
  O  O90  1  0.06479904  0.92341418  0.76401035  1
  O  O91  1  0.68586340  0.95141825  0.35459431  1
  O  O92  1  0.53747214  0.12537687  0.75297842  1
  O  O93  1  0.19926225  0.56728602  0.81388534  1
  O  O94  1  0.04628991  0.76444523  0.87823597  1
  O  O95  1  0.96043550  0.23642553  0.45840974  1
  O  O96  1  0.81737757  0.43437484  0.51547372  1
  O  O97  1  0.45020102  0.86646456  0.57692556  1
  O  O98  1  0.30300430  0.07492169  0.97368629  1
  O  O99  1  0.90946468  0.10125809  0.56945837  1
  O  O100  1  0.43148113  0.21052966  0.85662686  1
  O  O101  1  0.71362441  0.48938052  0.62351474  1
  O  O102  1  0.58244845  0.42740907  0.74042977  1
  O  O103  1  0.20230574  0.39292115  0.99480781  1
  O  O104  1  0.07489851  0.71924442  0.98151087  1
  O  O105  1  0.84039695  0.76075523  0.50618348  1
  O  O106  1  0.35324931  0.00916235  0.75057718  1
  O  O107  1  0.65613539  0.98409145  0.91375302  1
  O  O108  1  0.92176356  0.27063107  0.69053623  1
  O  O109  1  0.79440006  0.62148496  0.66706888  1
  O  O110  1  0.40066467  0.57570352  0.92630136  1
  O  O111  1  0.57332892  0.79248280  0.80363881  1
  O  O112  1  0.69027123  0.93535125  0.69224028  1
  O  O113  1  0.95695341  0.23767772  0.79160034  1
  O  O114  1  0.80662535  0.42816160  0.85165682  1
  O  O115  1  0.45881620  0.86724762  0.90918036  1
  O  O116  1  0.92860875  0.09186438  0.90139677  1
  O  O117  1  0.71117440  0.48467274  0.95948005  1
  O  O118  1  0.84473814  0.74536488  0.84156831  1
