# generated using pymatgen
data_LiAlFeO4
_symmetry_space_group_name_H-M   'P 1'
_cell_length_a   9.46230278
_cell_length_b   2.90232767
_cell_length_c   10.06302004
_cell_angle_alpha   89.99226266
_cell_angle_beta   90.00510708
_cell_angle_gamma   91.78903107
_symmetry_Int_Tables_number   1
_chemical_formula_structural   LiAlFeO4
_chemical_formula_sum   'Li4 Al4 Fe4 O16'
_cell_volume   276.22301958
_cell_formula_units_Z   4
loop_
 _symmetry_equiv_pos_site_id
 _symmetry_equiv_pos_as_xyz
  1  'x, y, z'
loop_
 _atom_site_type_symbol
 _atom_site_label
 _atom_site_symmetry_multiplicity
 _atom_site_fract_x
 _atom_site_fract_y
 _atom_site_fract_z
 _atom_site_occupancy
  Li  Li0  1  0.08242200  0.29157500  0.62777200  1
  Li  Li1  1  0.41762000  0.70851500  0.12779700  1
  Li  Li2  1  0.58156700  0.29360800  0.87267600  1
  Li  Li3  1  0.91832600  0.70710500  0.37260000  1
  Al  Al4  1  0.00125700  0.23878100  0.12718600  1
  Al  Al5  1  0.49874600  0.76126500  0.62721800  1
  Al  Al6  1  0.50107200  0.23889600  0.37255400  1
  Al  Al7  1  0.99888600  0.76107200  0.87254600  1
  Fe  Fe8  1  0.22430800  0.75411100  0.35135600  1
  Fe  Fe9  1  0.27566700  0.24585200  0.85122000  1
  Fe  Fe10  1  0.72471800  0.75262000  0.14878900  1
  Fe  Fe11  1  0.77537100  0.24634200  0.64866600  1
  O  O12  1  0.10199500  0.26200100  0.96404200  1
  O  O13  1  0.13037600  0.28395200  0.44188300  1
  O  O14  1  0.08195600  0.74306100  0.21500300  1
  O  O15  1  0.16185200  0.78920600  0.75703400  1
  O  O16  1  0.33821900  0.21077200  0.25705600  1
  O  O17  1  0.41803900  0.25682500  0.71501600  1
  O  O18  1  0.36963000  0.71596200  0.94190400  1
  O  O19  1  0.39797900  0.73801500  0.46412200  1
  O  O20  1  0.60161900  0.26215600  0.53579200  1
  O  O21  1  0.63143000  0.28184000  0.05825500  1
  O  O22  1  0.58183800  0.74327000  0.28492300  1
  O  O23  1  0.66153900  0.78984800  0.74290300  1
  O  O24  1  0.83851400  0.21014900  0.24286800  1
  O  O25  1  0.91816100  0.25678800  0.78488500  1
  O  O26  1  0.86855600  0.71859500  0.55819000  1
  O  O27  1  0.89834000  0.73781600  0.03574100  1
