# generated using pymatgen
data_AlCu3(AgO3)4
_symmetry_space_group_name_H-M   'P 1'
_cell_length_a   6.67420144
_cell_length_b   6.67420144
_cell_length_c   6.67420144
_cell_angle_alpha   109.47122063
_cell_angle_beta   109.47122063
_cell_angle_gamma   109.47122063
_symmetry_Int_Tables_number   1
_chemical_formula_structural   AlCu3(AgO3)4
_chemical_formula_sum   'Al1 Cu3 Ag4 O12'
_cell_volume   228.86323949
_cell_formula_units_Z   1
loop_
 _symmetry_equiv_pos_site_id
 _symmetry_equiv_pos_as_xyz
  1  'x, y, z'
loop_
 _atom_site_type_symbol
 _atom_site_label
 _atom_site_symmetry_multiplicity
 _atom_site_fract_x
 _atom_site_fract_y
 _atom_site_fract_z
 _atom_site_occupancy
  Al  Al0  1  0.00000000  0.00000000  0.00000000  1
  Cu  Cu1  1  0.00000000  0.50000000  0.50000000  1
  Cu  Cu2  1  0.50000000  0.00000000  0.50000000  1
  Cu  Cu3  1  0.50000000  0.50000000  0.00000000  1
  Ag  Ag4  1  0.00000000  0.00000000  0.50000000  1
  Ag  Ag5  1  0.00000000  0.50000000  0.00000000  1
  Ag  Ag6  1  0.50000000  0.00000000  0.00000000  1
  Ag  Ag7  1  0.50000000  0.50000000  0.50000000  1
  O  O8  1  0.30898600  0.15362400  0.84463800  1
  O  O9  1  0.69101400  0.84637600  0.15536200  1
  O  O10  1  0.69101400  0.53565200  0.84463800  1
  O  O11  1  0.46434800  0.15536200  0.30898600  1
  O  O12  1  0.15536200  0.30898600  0.46434800  1
  O  O13  1  0.84463800  0.30898600  0.15362400  1
  O  O14  1  0.84637600  0.15536200  0.69101400  1
  O  O15  1  0.84463800  0.69101400  0.53565200  1
  O  O16  1  0.30898600  0.46434800  0.15536200  1
  O  O17  1  0.53565200  0.84463800  0.69101400  1
  O  O18  1  0.15536200  0.69101400  0.84637600  1
  O  O19  1  0.15362400  0.84463800  0.30898600  1
