# generated using pymatgen
data_CeBeSiHO5
_symmetry_space_group_name_H-M   'P 1'
_cell_length_a   5.87957453
_cell_length_b   7.40613191
_cell_length_c   10.21289108
_cell_angle_alpha   89.98819434
_cell_angle_beta   119.18111350
_cell_angle_gamma   89.99276202
_symmetry_Int_Tables_number   1
_chemical_formula_structural   CeBeSiHO5
_chemical_formula_sum   'Ce4 Be4 Si4 H4 O20'
_cell_volume   388.27682866
_cell_formula_units_Z   4
loop_
 _symmetry_equiv_pos_site_id
 _symmetry_equiv_pos_as_xyz
  1  'x, y, z'
loop_
 _atom_site_type_symbol
 _atom_site_label
 _atom_site_symmetry_multiplicity
 _atom_site_fract_x
 _atom_site_fract_y
 _atom_site_fract_z
 _atom_site_occupancy
  Ce  Ce0  1  0.01171115  0.01527845  0.31429693  1
  Ce  Ce1  1  0.01140957  0.48458071  0.81418063  1
  Ce  Ce2  1  0.98859043  0.51541929  0.18581937  1
  Ce  Ce3  1  0.98828885  0.98472155  0.68570307  1
  Be  Be4  1  0.56863039  0.12533416  0.96294640  1
  Be  Be5  1  0.56847945  0.37460416  0.46294175  1
  Be  Be6  1  0.43152055  0.62539584  0.53705825  1
  Be  Be7  1  0.43136961  0.87466584  0.03705360  1
  Si  Si8  1  0.53413448  0.72531820  0.81345502  1
  Si  Si9  1  0.53438155  0.77462588  0.31345131  1
  Si  Si10  1  0.46561845  0.22537412  0.68654869  1
  Si  Si11  1  0.46586552  0.27468180  0.18654498  1
  H  H12  1  0.94348192  0.34061338  0.49990696  1
  H  H13  1  0.94407896  0.15879677  0.00017663  1
  H  H14  1  0.05592104  0.84120323  0.99982337  1
  H  H15  1  0.05651808  0.65938662  0.50009304  1
  O  O16  1  0.45842135  0.40605136  0.58692345  1
  O  O17  1  0.45873881  0.09395959  0.08704437  1
  O  O18  1  0.63000745  0.74252681  0.68466477  1
  O  O19  1  0.63014553  0.75734686  0.18462298  1
  O  O20  1  0.26826145  0.42567509  0.06917700  1
  O  O21  1  0.26817681  0.07438411  0.56927502  1
  O  O22  1  0.22294156  0.82721750  0.22484732  1
  O  O23  1  0.22270703  0.67278790  0.72486667  1
  O  O24  1  0.13235941  0.68042892  0.43484454  1
  O  O25  1  0.13211756  0.81997067  0.93479180  1
  O  O26  1  0.86788244  0.18002933  0.06520820  1
  O  O27  1  0.86764059  0.31957108  0.56515546  1
  O  O28  1  0.77729297  0.32721210  0.27513333  1
  O  O29  1  0.77705844  0.17278250  0.77515268  1
  O  O30  1  0.73182319  0.92561589  0.43072498  1
  O  O31  1  0.73173855  0.57432491  0.93082300  1
  O  O32  1  0.36985447  0.24265314  0.81537702  1
  O  O33  1  0.36999255  0.25747319  0.31533523  1
  O  O34  1  0.54126119  0.90604041  0.91295563  1
  O  O35  1  0.54157865  0.59394864  0.41307655  1
