# generated using pymatgen
data_Al4(FeO4)3
_symmetry_space_group_name_H-M   'P 1'
_cell_length_a   5.69413988
_cell_length_b   5.69413988
_cell_length_c   14.09918169
_cell_angle_alpha   89.08106599
_cell_angle_beta   89.08106599
_cell_angle_gamma   62.40787588
_symmetry_Int_Tables_number   1
_chemical_formula_structural   Al4(FeO4)3
_chemical_formula_sum   'Al8 Fe6 O24'
_cell_volume   405.07786941
_cell_formula_units_Z   2
loop_
 _symmetry_equiv_pos_site_id
 _symmetry_equiv_pos_as_xyz
  1  'x, y, z'
loop_
 _atom_site_type_symbol
 _atom_site_label
 _atom_site_symmetry_multiplicity
 _atom_site_fract_x
 _atom_site_fract_y
 _atom_site_fract_z
 _atom_site_occupancy
  Al  Al0  1  0.84659500  0.84659500  0.95641400  1
  Al  Al1  1  0.50393200  0.50393200  0.61713900  1
  Al  Al2  1  0.17423200  0.17423200  0.29559400  1
  Al  Al3  1  0.50095500  0.50095500  0.99715300  1
  Al  Al4  1  0.82798800  0.82798800  0.33378400  1
  Al  Al5  1  0.99858100  0.99858100  0.50619900  1
  Al  Al6  1  0.82630200  0.82630200  0.71380100  1
  Al  Al7  1  0.15388600  0.15388600  0.03717700  1
  Fe  Fe8  1  0.84235000  0.33178900  0.82684800  1
  Fe  Fe9  1  0.49985700  0.00002900  0.50234200  1
  Fe  Fe10  1  0.16793900  0.66355500  0.16619900  1
  Fe  Fe11  1  0.33178900  0.84235000  0.82684800  1
  Fe  Fe12  1  0.00002900  0.49985700  0.50234200  1
  Fe  Fe13  1  0.66355500  0.16793900  0.16619900  1
  O  O14  1  0.66580300  0.66580300  0.92223500  1
  O  O15  1  0.33202800  0.33202800  0.57268100  1
  O  O16  1  0.99446300  0.99446300  0.25593700  1
  O  O17  1  0.51844000  0.51844000  0.74587100  1
  O  O18  1  0.15592700  0.15592700  0.42309100  1
  O  O19  1  0.84566700  0.84566700  0.08840100  1
  O  O20  1  0.67607500  0.19168500  0.92057700  1
  O  O21  1  0.32473300  0.83523900  0.57094400  1
  O  O22  1  0.00830200  0.51686100  0.25783600  1
  O  O23  1  0.19168500  0.67607500  0.92057700  1
  O  O24  1  0.83523900  0.32473300  0.57094400  1
  O  O25  1  0.51686100  0.00830200  0.25783600  1
  O  O26  1  0.49659000  0.98976800  0.75569600  1
  O  O27  1  0.11384600  0.69175600  0.42528400  1
  O  O28  1  0.81430300  0.32641500  0.07915900  1
  O  O29  1  0.98976800  0.49659000  0.75569600  1
  O  O30  1  0.69175600  0.11384600  0.42528400  1
  O  O31  1  0.32641500  0.81430300  0.07915900  1
  O  O32  1  0.15805600  0.15805600  0.91107400  1
  O  O33  1  0.83861900  0.83861900  0.58623000  1
  O  O34  1  0.48532000  0.48532000  0.23036800  1
  O  O35  1  0.99251700  0.99251700  0.75972100  1
  O  O36  1  0.68220600  0.68220600  0.42382400  1
  O  O37  1  0.33367000  0.33367000  0.07539800  1
