# generated using pymatgen
data_Mn2Zn3(Si2O7)2
_symmetry_space_group_name_H-M   'P 1'
_cell_length_a   9.21037930
_cell_length_b   9.21037930
_cell_length_c   9.95402925
_cell_angle_alpha   60.30029681
_cell_angle_beta   60.30029681
_cell_angle_gamma   49.89413394
_symmetry_Int_Tables_number   1
_chemical_formula_structural   Mn2Zn3(Si2O7)2
_chemical_formula_sum   'Mn4 Zn6 Si8 O28'
_cell_volume   540.90113237
_cell_formula_units_Z   2
loop_
 _symmetry_equiv_pos_site_id
 _symmetry_equiv_pos_as_xyz
  1  'x, y, z'
loop_
 _atom_site_type_symbol
 _atom_site_label
 _atom_site_symmetry_multiplicity
 _atom_site_fract_x
 _atom_site_fract_y
 _atom_site_fract_z
 _atom_site_occupancy
  Mn  Mn0  1  0.78929700  0.21070300  0.75000000  1
  Mn  Mn1  1  0.21070300  0.78929700  0.25000000  1
  Mn  Mn2  1  0.00000000  0.00000000  0.00000000  1
  Mn  Mn3  1  0.00000000  0.00000000  0.50000000  1
  Zn  Zn4  1  0.05584500  0.27524700  0.10587400  1
  Zn  Zn5  1  0.72475300  0.94415500  0.39412600  1
  Zn  Zn6  1  0.27524700  0.05584500  0.60587400  1
  Zn  Zn7  1  0.39573300  0.60426700  0.75000000  1
  Zn  Zn8  1  0.94415500  0.72475300  0.89412600  1
  Zn  Zn9  1  0.60426700  0.39573300  0.25000000  1
  Si  Si10  1  0.53996700  0.09115300  0.70392700  1
  Si  Si11  1  0.09115300  0.53996700  0.20392700  1
  Si  Si12  1  0.51496200  0.24494400  0.10433800  1
  Si  Si13  1  0.24494400  0.51496200  0.60433800  1
  Si  Si14  1  0.90884700  0.46003300  0.79607300  1
  Si  Si15  1  0.48503800  0.75505600  0.89566200  1
  Si  Si16  1  0.75505600  0.48503800  0.39566200  1
  Si  Si17  1  0.46003300  0.90884700  0.29607300  1
  O  O18  1  0.82655000  0.31165700  0.32466900  1
  O  O19  1  0.96549700  0.88476900  0.41180000  1
  O  O20  1  0.45442600  0.64393200  0.08777800  1
  O  O21  1  0.88476900  0.96549700  0.91180000  1
  O  O22  1  0.23897800  0.97094200  0.32216700  1
  O  O23  1  0.06134500  0.50614800  0.62852800  1
  O  O24  1  0.64393200  0.45442600  0.58777800  1
  O  O25  1  0.02905800  0.76102200  0.17783300  1
  O  O26  1  0.93865500  0.49385200  0.37147200  1
  O  O27  1  0.62013400  0.68433000  0.27444900  1
  O  O28  1  0.03450300  0.11523100  0.58820000  1
  O  O29  1  0.76102200  0.02905800  0.67783300  1
  O  O30  1  0.49385200  0.93865500  0.87147200  1
  O  O31  1  0.31165700  0.82655000  0.82466900  1
  O  O32  1  0.68433000  0.62013400  0.77444900  1
  O  O33  1  0.97094200  0.23897800  0.82216700  1
  O  O34  1  0.90723800  0.50002400  0.93904300  1
  O  O35  1  0.37986600  0.31567000  0.72555100  1
  O  O36  1  0.49997600  0.09276200  0.56095700  1
  O  O37  1  0.31567000  0.37986600  0.22555100  1
  O  O38  1  0.50614800  0.06134500  0.12852800  1
  O  O39  1  0.11523100  0.03450300  0.08820000  1
  O  O40  1  0.50002400  0.90723800  0.43904300  1
  O  O41  1  0.54557400  0.35606800  0.91222200  1
  O  O42  1  0.09276200  0.49997600  0.06095700  1
  O  O43  1  0.35606800  0.54557400  0.41222200  1
  O  O44  1  0.68834300  0.17345000  0.17533100  1
  O  O45  1  0.17345000  0.68834300  0.67533100  1
