# generated using pymatgen
data_Y4Co13Si2(SbO14)2
_symmetry_space_group_name_H-M   'P 1'
_cell_length_a   12.20338749
_cell_length_b   12.20338749
_cell_length_c   9.56132815
_cell_angle_alpha   87.87095807
_cell_angle_beta   87.87095807
_cell_angle_gamma   153.70933431
_symmetry_Int_Tables_number   1
_chemical_formula_structural   Y4Co13Si2(SbO14)2
_chemical_formula_sum   'Y4 Co13 Si2 Sb2 O28'
_cell_volume   622.20883649
_cell_formula_units_Z   1
loop_
 _symmetry_equiv_pos_site_id
 _symmetry_equiv_pos_as_xyz
  1  'x, y, z'
loop_
 _atom_site_type_symbol
 _atom_site_label
 _atom_site_symmetry_multiplicity
 _atom_site_fract_x
 _atom_site_fract_y
 _atom_site_fract_z
 _atom_site_occupancy
  Y  Y0  1  0.51479900  0.92679500  0.34058000  1
  Y  Y1  1  0.07320500  0.48520100  0.65942000  1
  Y  Y2  1  0.48520100  0.07320500  0.65942000  1
  Y  Y3  1  0.92679500  0.51479900  0.34058000  1
  Co  Co4  1  0.33675500  0.07915600  0.37275600  1
  Co  Co5  1  0.20361300  0.32853400  0.69101000  1
  Co  Co6  1  0.92084400  0.66324500  0.62724400  1
  Co  Co7  1  0.66324500  0.92084400  0.62724400  1
  Co  Co8  1  0.79638700  0.67146600  0.30899000  1
  Co  Co9  1  0.29190200  0.70809800  0.00000000  1
  Co  Co10  1  0.67146600  0.79638700  0.30899000  1
  Co  Co11  1  0.00000000  0.00000000  0.00000000  1
  Co  Co12  1  0.42769000  0.57231000  0.00000000  1
  Co  Co13  1  0.32853400  0.20361300  0.69101000  1
  Co  Co14  1  0.07915600  0.33675500  0.37275600  1
  Co  Co15  1  0.57231000  0.42769000  0.00000000  1
  Co  Co16  1  0.70809800  0.29190200  0.00000000  1
  Si  Si17  1  0.75503600  0.75503600  0.71381500  1
  Si  Si18  1  0.24496400  0.24496400  0.28618500  1
  Sb  Sb19  1  0.85852900  0.14147100  0.00000000  1
  Sb  Sb20  1  0.14147100  0.85852900  0.00000000  1
  O  O21  1  0.03143600  0.28520400  0.59483800  1
  O  O22  1  0.46197500  0.87909800  0.60857700  1
  O  O23  1  0.05032900  0.05032900  0.65643900  1
  O  O24  1  0.70375000  0.70375000  0.89035200  1
  O  O25  1  0.53802500  0.12090200  0.39142300  1
  O  O26  1  0.96856400  0.71479600  0.40516200  1
  O  O27  1  0.40412900  0.99009400  0.89293800  1
  O  O28  1  0.59587100  0.00990600  0.10706200  1
  O  O29  1  0.29625000  0.29625000  0.10964800  1
  O  O30  1  0.72500100  0.87798100  0.10366200  1
  O  O31  1  0.57023600  0.68116700  0.65435500  1
  O  O32  1  0.71479600  0.96856400  0.40516200  1
  O  O33  1  0.00990600  0.59587100  0.10706200  1
  O  O34  1  0.12201900  0.27499900  0.89633800  1
  O  O35  1  0.31883300  0.42976400  0.34564500  1
  O  O36  1  0.94967100  0.94967100  0.34356100  1
  O  O37  1  0.87798100  0.72500100  0.10366200  1
  O  O38  1  0.27499900  0.12201900  0.89633800  1
  O  O39  1  0.99009400  0.40412900  0.89293800  1
  O  O40  1  0.59009800  0.87659300  0.87965900  1
  O  O41  1  0.40990200  0.12340700  0.12034100  1
  O  O42  1  0.68116700  0.57023600  0.65435500  1
  O  O43  1  0.87659300  0.59009800  0.87965900  1
  O  O44  1  0.87909800  0.46197500  0.60857700  1
  O  O45  1  0.42976400  0.31883300  0.34564500  1
  O  O46  1  0.12340700  0.40990200  0.12034100  1
  O  O47  1  0.28520400  0.03143600  0.59483800  1
  O  O48  1  0.12090200  0.53802500  0.39142300  1
