# generated using pymatgen
data_CaCd2
_symmetry_space_group_name_H-M   'P 1'
_cell_length_a   6.10597212
_cell_length_b   6.10597212
_cell_length_c   9.63003900
_cell_angle_alpha   90.00000000
_cell_angle_beta   90.00000000
_cell_angle_gamma   120.00000125
_symmetry_Int_Tables_number   1
_chemical_formula_structural   CaCd2
_chemical_formula_sum   'Ca4 Cd8'
_cell_volume   310.93406558
_cell_formula_units_Z   4
loop_
 _symmetry_equiv_pos_site_id
 _symmetry_equiv_pos_as_xyz
  1  'x, y, z'
loop_
 _atom_site_type_symbol
 _atom_site_label
 _atom_site_symmetry_multiplicity
 _atom_site_fract_x
 _atom_site_fract_y
 _atom_site_fract_z
 _atom_site_occupancy
  Ca  Ca0  1  0.33333300  0.66666700  0.06024800  1
  Ca  Ca1  1  0.66666700  0.33333300  0.56024800  1
  Ca  Ca2  1  0.66666700  0.33333300  0.93975200  1
  Ca  Ca3  1  0.33333300  0.66666700  0.43975200  1
  Cd  Cd4  1  0.00000000  0.00000000  0.00000000  1
  Cd  Cd5  1  0.00000000  0.00000000  0.50000000  1
  Cd  Cd6  1  0.34170100  0.17085000  0.25000000  1
  Cd  Cd7  1  0.17085000  0.34170100  0.75000000  1
  Cd  Cd8  1  0.17085000  0.82915000  0.75000000  1
  Cd  Cd9  1  0.82915000  0.17085000  0.25000000  1
  Cd  Cd10  1  0.82915000  0.65829900  0.25000000  1
  Cd  Cd11  1  0.65829900  0.82915000  0.75000000  1
