# generated using pymatgen
data_Sr2AlGaFe2O7
_symmetry_space_group_name_H-M   'P 1'
_cell_length_a   11.77610041
_cell_length_b   11.77610041
_cell_length_c   5.51008399
_cell_angle_alpha   76.55296039
_cell_angle_beta   76.55296039
_cell_angle_gamma   28.31290843
_symmetry_Int_Tables_number   1
_chemical_formula_structural   Sr2AlGaFe2O7
_chemical_formula_sum   'Sr4 Al2 Ga2 Fe4 O14'
_cell_volume   351.83456519
_cell_formula_units_Z   2
loop_
 _symmetry_equiv_pos_site_id
 _symmetry_equiv_pos_as_xyz
  1  'x, y, z'
loop_
 _atom_site_type_symbol
 _atom_site_label
 _atom_site_symmetry_multiplicity
 _atom_site_fract_x
 _atom_site_fract_y
 _atom_site_fract_z
 _atom_site_occupancy
  Sr  Sr0  1  0.11848200  0.68609900  0.84473700  1
  Sr  Sr1  1  0.87395500  0.32728400  0.14535500  1
  Sr  Sr2  1  0.68609900  0.11848200  0.34473700  1
  Sr  Sr3  1  0.32728400  0.87395500  0.64535500  1
  Al  Al4  1  0.50523700  0.00191300  0.50332100  1
  Al  Al5  1  0.00191300  0.50523700  0.00332100  1
  Ga  Ga6  1  0.67331800  0.32850600  0.71613600  1
  Ga  Ga7  1  0.32850600  0.67331800  0.21613600  1
  Fe  Fe8  1  0.93788800  0.44792000  0.56014500  1
  Fe  Fe9  1  0.55879000  0.08120500  0.93363000  1
  Fe  Fe10  1  0.44792000  0.93788800  0.06014500  1
  Fe  Fe11  1  0.08120500  0.55879000  0.43363000  1
  O  O12  1  0.89188100  0.71849700  0.75785700  1
  O  O13  1  0.61233200  0.39047100  0.37410700  1
  O  O14  1  0.71849700  0.89188100  0.25785700  1
  O  O15  1  0.26703000  0.88446200  0.20256700  1
  O  O16  1  0.60839300  0.78023500  0.72687000  1
  O  O17  1  0.78023500  0.60839300  0.22687000  1
  O  O18  1  0.39047100  0.61233200  0.87410700  1
  O  O19  1  0.27727600  0.12209700  0.37873000  1
  O  O20  1  0.12209700  0.27727600  0.87873000  1
  O  O21  1  0.88446200  0.26703000  0.70256700  1
  O  O22  1  0.71582800  0.13135700  0.84833400  1
  O  O23  1  0.13135700  0.71582800  0.34833400  1
  O  O24  1  0.40598000  0.21612700  0.61495200  1
  O  O25  1  0.21612700  0.40598000  0.11495200  1
