# generated using pymatgen
data_Ba2Ti2AlF11
_symmetry_space_group_name_H-M   'P 1'
_cell_length_a   7.47728409
_cell_length_b   7.47728409
_cell_length_c   14.10120400
_cell_angle_alpha   90.00000000
_cell_angle_beta   90.00000000
_cell_angle_gamma   120.00000080
_symmetry_Int_Tables_number   1
_chemical_formula_structural   Ba2Ti2AlF11
_chemical_formula_sum   'Ba6 Ti6 Al3 F33'
_cell_volume   682.77024540
_cell_formula_units_Z   3
loop_
 _symmetry_equiv_pos_site_id
 _symmetry_equiv_pos_as_xyz
  1  'x, y, z'
loop_
 _atom_site_type_symbol
 _atom_site_label
 _atom_site_symmetry_multiplicity
 _atom_site_fract_x
 _atom_site_fract_y
 _atom_site_fract_z
 _atom_site_occupancy
  Ba  Ba0  1  0.87560900  0.88092300  0.66233600  1
  Ba  Ba1  1  0.51938400  0.17915900  0.79824400  1
  Ba  Ba2  1  0.00531400  0.12439100  0.99566900  1
  Ba  Ba3  1  0.82084100  0.34022500  0.46491000  1
  Ba  Ba4  1  0.65977500  0.48061600  0.13157700  1
  Ba  Ba5  1  0.11907700  0.99468600  0.32900300  1
  Ti  Ti6  1  0.00532100  0.63857900  0.87561600  1
  Ti  Ti7  1  0.12660600  0.45148900  0.74315800  1
  Ti  Ti8  1  0.54851100  0.67511700  0.40982500  1
  Ti  Ti9  1  0.63325800  0.99467900  0.20895000  1
  Ti  Ti10  1  0.32488300  0.87339400  0.07649200  1
  Ti  Ti11  1  0.36142100  0.36674200  0.54228300  1
  Al  Al12  1  0.51802900  0.68331000  0.87478300  1
  Al  Al13  1  0.16528100  0.48197100  0.20811700  1
  Al  Al14  1  0.31669000  0.83471900  0.54145000  1
  F  F15  1  0.02158700  0.75130000  0.02203000  1
  F  F16  1  0.82550500  0.37750600  0.94420700  1
  F  F17  1  0.72971300  0.97841300  0.35536300  1
  F  F18  1  0.40641300  0.10296200  0.49799000  1
  F  F19  1  0.83622900  0.89737500  0.17324000  1
  F  F20  1  0.23603600  0.28524100  0.18936200  1
  F  F21  1  0.89703800  0.30345000  0.16465700  1
  F  F22  1  0.71475900  0.95079500  0.85602800  1
  F  F23  1  0.06114500  0.16377100  0.50657400  1
  F  F24  1  0.63217600  0.01628000  0.06241100  1
  F  F25  1  0.69655000  0.59358700  0.83132400  1
  F  F26  1  0.24870000  0.27028700  0.68869700  1
  F  F27  1  0.59887400  0.67100400  0.99026000  1
  F  F28  1  0.37270300  0.14924100  0.02092300  1
  F  F29  1  0.07213000  0.40112600  0.32359300  1
  F  F30  1  0.62249400  0.44800000  0.61087300  1
  F  F31  1  0.33579800  0.77983100  0.91343500  1
  F  F32  1  0.38410400  0.36782400  0.39574500  1
  F  F33  1  0.31405500  0.75744400  0.41734500  1
  F  F34  1  0.32899600  0.92787000  0.65692600  1
  F  F35  1  0.44338900  0.68594500  0.75067800  1
  F  F36  1  0.85075900  0.22346200  0.68759000  1
  F  F37  1  0.77653800  0.62729700  0.35425700  1
  F  F38  1  0.44403300  0.66420200  0.24676800  1
  F  F39  1  0.98372000  0.61589600  0.72907800  1
  F  F40  1  0.10262500  0.93885500  0.83990700  1
  F  F41  1  0.55200000  0.17449500  0.27754000  1
  F  F42  1  0.29869100  0.41737300  0.87262800  1
  F  F43  1  0.11868300  0.70130900  0.20596100  1
  F  F44  1  0.24255600  0.55661100  0.08401200  1
  F  F45  1  0.04920500  0.76396400  0.52269500  1
  F  F46  1  0.22016900  0.55596700  0.58010100  1
  F  F47  1  0.58262700  0.88131700  0.53929400  1
