# generated using pymatgen
data_AlCu7O12
_symmetry_space_group_name_H-M   'P 1'
_cell_length_a   6.26826936
_cell_length_b   6.26826936
_cell_length_c   6.26826936
_cell_angle_alpha   109.47122063
_cell_angle_beta   109.47122063
_cell_angle_gamma   109.47122063
_symmetry_Int_Tables_number   1
_chemical_formula_structural   AlCu7O12
_chemical_formula_sum   'Al1 Cu7 O12'
_cell_volume   189.59245949
_cell_formula_units_Z   1
loop_
 _symmetry_equiv_pos_site_id
 _symmetry_equiv_pos_as_xyz
  1  'x, y, z'
loop_
 _atom_site_type_symbol
 _atom_site_label
 _atom_site_symmetry_multiplicity
 _atom_site_fract_x
 _atom_site_fract_y
 _atom_site_fract_z
 _atom_site_occupancy
  Al  Al0  1  0.00000000  0.00000000  0.00000000  1
  Cu  Cu1  1  0.00000000  0.00000000  0.50000000  1
  Cu  Cu2  1  0.00000000  0.50000000  0.00000000  1
  Cu  Cu3  1  0.50000000  0.00000000  0.00000000  1
  Cu  Cu4  1  0.50000000  0.50000000  0.50000000  1
  Cu  Cu5  1  0.00000000  0.50000000  0.50000000  1
  Cu  Cu6  1  0.50000000  0.00000000  0.50000000  1
  Cu  Cu7  1  0.50000000  0.50000000  0.00000000  1
  O  O8  1  0.29927400  0.13326800  0.83399400  1
  O  O9  1  0.70072600  0.86673200  0.16600600  1
  O  O10  1  0.70072600  0.53471900  0.83399400  1
  O  O11  1  0.46528100  0.16600600  0.29927400  1
  O  O12  1  0.16600600  0.29927400  0.46528100  1
  O  O13  1  0.83399400  0.29927400  0.13326800  1
  O  O14  1  0.86673200  0.16600600  0.70072600  1
  O  O15  1  0.83399400  0.70072600  0.53471900  1
  O  O16  1  0.29927400  0.46528100  0.16600600  1
  O  O17  1  0.53471900  0.83399400  0.70072600  1
  O  O18  1  0.16600600  0.70072600  0.86673200  1
  O  O19  1  0.13326800  0.83399400  0.29927400  1
