# generated using pymatgen
data_MgTi(SiO3)2
_symmetry_space_group_name_H-M   'P 1'
_cell_length_a   5.31224000
_cell_length_b   9.04413100
_cell_length_c   18.54766400
_cell_angle_alpha   90.00000000
_cell_angle_beta   90.00000000
_cell_angle_gamma   90.00000000
_symmetry_Int_Tables_number   1
_chemical_formula_structural   MgTi(SiO3)2
_chemical_formula_sum   'Mg8 Ti8 Si16 O48'
_cell_volume   891.11499512
_cell_formula_units_Z   8
loop_
 _symmetry_equiv_pos_site_id
 _symmetry_equiv_pos_as_xyz
  1  'x, y, z'
loop_
 _atom_site_type_symbol
 _atom_site_label
 _atom_site_symmetry_multiplicity
 _atom_site_fract_x
 _atom_site_fract_y
 _atom_site_fract_z
 _atom_site_occupancy
  Mg  Mg0  1  0.62298500  0.15458100  0.37506700  1
  Mg  Mg1  1  0.37701500  0.84541900  0.62493300  1
  Mg  Mg2  1  0.62298500  0.65458100  0.12493300  1
  Mg  Mg3  1  0.12298500  0.84541900  0.12493300  1
  Mg  Mg4  1  0.87701500  0.15458100  0.87506700  1
  Mg  Mg5  1  0.37701500  0.34541900  0.87506700  1
  Mg  Mg6  1  0.12298500  0.34541900  0.37506700  1
  Mg  Mg7  1  0.87701500  0.65458100  0.62493300  1
  Ti  Ti8  1  0.36558400  0.97802100  0.87856500  1
  Ti  Ti9  1  0.63441600  0.02197900  0.12143500  1
  Ti  Ti10  1  0.86558400  0.02197900  0.62143500  1
  Ti  Ti11  1  0.13441600  0.97802100  0.37856500  1
  Ti  Ti12  1  0.36558400  0.47802100  0.62143500  1
  Ti  Ti13  1  0.63441600  0.52197900  0.37856500  1
  Ti  Ti14  1  0.86558400  0.52197900  0.87856500  1
  Ti  Ti15  1  0.13441600  0.47802100  0.12143500  1
  Si  Si16  1  0.55330500  0.65982100  0.77020200  1
  Si  Si17  1  0.70243100  0.83644000  0.47489300  1
  Si  Si18  1  0.79756900  0.83644000  0.97489300  1
  Si  Si19  1  0.94669500  0.15982100  0.22979800  1
  Si  Si20  1  0.05330500  0.34017900  0.72979800  1
  Si  Si21  1  0.44669500  0.84017900  0.27020200  1
  Si  Si22  1  0.20243100  0.66356000  0.47489300  1
  Si  Si23  1  0.70243100  0.33644000  0.02510700  1
  Si  Si24  1  0.79756900  0.33644000  0.52510700  1
  Si  Si25  1  0.94669500  0.65982100  0.27020200  1
  Si  Si26  1  0.44669500  0.34017900  0.22979800  1
  Si  Si27  1  0.55330500  0.15982100  0.72979800  1
  Si  Si28  1  0.29756900  0.16356000  0.52510700  1
  Si  Si29  1  0.05330500  0.84017900  0.77020200  1
  Si  Si30  1  0.29756900  0.66356000  0.97489300  1
  Si  Si31  1  0.20243100  0.16356000  0.02510700  1
  O  O32  1  0.95187200  0.50060000  0.30951500  1
  O  O33  1  0.28719100  0.01321800  0.06485000  1
  O  O34  1  0.04812800  0.49940000  0.69048500  1
  O  O35  1  0.70822700  0.33590600  0.93640900  1
  O  O36  1  0.20822700  0.16409400  0.93640900  1
  O  O37  1  0.90522600  0.20311800  0.05164700  1
  O  O38  1  0.95328800  0.66356800  0.18223600  1
  O  O39  1  0.04671200  0.83643200  0.68223600  1
  O  O40  1  0.70822700  0.83590600  0.56359100  1
  O  O41  1  0.95328800  0.16356800  0.31776400  1
  O  O42  1  0.45187200  0.49940000  0.19048500  1
  O  O43  1  0.79177300  0.33590600  0.43640900  1
  O  O44  1  0.71280900  0.98678200  0.93515000  1
  O  O45  1  0.45328800  0.83643200  0.18223600  1
  O  O46  1  0.54812800  0.00060000  0.69048500  1
  O  O47  1  0.28719100  0.51321800  0.43515000  1
  O  O48  1  0.45187200  0.99940000  0.30951500  1
  O  O49  1  0.17140600  0.77218000  0.30121000  1
  O  O50  1  0.32859400  0.77218000  0.80121000  1
  O  O51  1  0.59477400  0.70311800  0.94835300  1
  O  O52  1  0.79177300  0.83590600  0.06359100  1
  O  O53  1  0.54671200  0.66356800  0.68223600  1
  O  O54  1  0.78719100  0.48678200  0.06485000  1
  O  O55  1  0.17140600  0.27218000  0.19879000  1
  O  O56  1  0.29177300  0.16409400  0.43640900  1
  O  O57  1  0.54671200  0.16356800  0.81776400  1
  O  O58  1  0.71280900  0.48678200  0.56485000  1
  O  O59  1  0.20822700  0.66409400  0.56359100  1
  O  O60  1  0.21280900  0.51321800  0.93515000  1
  O  O61  1  0.67140600  0.72782000  0.30121000  1
  O  O62  1  0.04812800  0.99940000  0.80951500  1
  O  O63  1  0.82859400  0.72782000  0.80121000  1
  O  O64  1  0.82859400  0.22782000  0.69879000  1
  O  O65  1  0.78719100  0.98678200  0.43515000  1
  O  O66  1  0.29177300  0.66409400  0.06359100  1
  O  O67  1  0.21280900  0.01321800  0.56485000  1
  O  O68  1  0.32859400  0.27218000  0.69879000  1
  O  O69  1  0.09477400  0.79688200  0.94835300  1
  O  O70  1  0.40522600  0.79688200  0.44835300  1
  O  O71  1  0.67140600  0.22782000  0.19879000  1
  O  O72  1  0.40522600  0.29688200  0.05164700  1
  O  O73  1  0.59477400  0.20311800  0.55164700  1
  O  O74  1  0.09477400  0.29688200  0.55164700  1
  O  O75  1  0.45328800  0.33643200  0.31776400  1
  O  O76  1  0.54812800  0.50060000  0.80951500  1
  O  O77  1  0.90522600  0.70311800  0.44835300  1
  O  O78  1  0.04671200  0.33643200  0.81776400  1
  O  O79  1  0.95187200  0.00060000  0.19048500  1
