# generated using pymatgen
data_Al13(CuS8)3
_symmetry_space_group_name_H-M   'P 1'
_cell_length_a   7.01683531
_cell_length_b   7.01683531
_cell_length_c   17.26106247
_cell_angle_alpha   89.78779006
_cell_angle_beta   89.78779006
_cell_angle_gamma   60.38304907
_symmetry_Int_Tables_number   1
_chemical_formula_structural   Al13(CuS8)3
_chemical_formula_sum   'Al13 Cu3 S24'
_cell_volume   738.82255094
_cell_formula_units_Z   1
loop_
 _symmetry_equiv_pos_site_id
 _symmetry_equiv_pos_as_xyz
  1  'x, y, z'
loop_
 _atom_site_type_symbol
 _atom_site_label
 _atom_site_symmetry_multiplicity
 _atom_site_fract_x
 _atom_site_fract_y
 _atom_site_fract_z
 _atom_site_occupancy
  Al  Al0  1  0.33918500  0.82155300  0.16278100  1
  Al  Al1  1  0.00450300  0.49265300  0.49932700  1
  Al  Al2  1  0.66790300  0.16295200  0.83593100  1
  Al  Al3  1  0.16357200  0.16357200  0.33901300  1
  Al  Al4  1  0.83688600  0.83688600  0.66767900  1
  Al  Al5  1  0.82155300  0.33918500  0.16278100  1
  Al  Al6  1  0.49265300  0.00450300  0.49932700  1
  Al  Al7  1  0.16295200  0.66790300  0.83593100  1
  Al  Al8  1  0.33940200  0.33940200  0.16250900  1
  Al  Al9  1  0.66880500  0.66880500  0.83585700  1
  Al  Al10  1  0.83044000  0.83044000  0.29377600  1
  Al  Al11  1  0.49274000  0.49274000  0.62481500  1
  Al  Al12  1  0.16636200  0.16636200  0.95095000  1
  Cu  Cu13  1  0.83374600  0.83374600  0.04479000  1
  Cu  Cu14  1  0.50354600  0.50354600  0.37688700  1
  Cu  Cu15  1  0.16640700  0.16640700  0.70593300  1
  S  S16  1  0.65720300  0.65720300  0.08546800  1
  S  S17  1  0.32382000  0.32382000  0.41809000  1
  S  S18  1  0.99051300  0.99051300  0.75353700  1
  S  S19  1  0.18491200  0.65780100  0.08545800  1
  S  S20  1  0.85142500  0.32689600  0.41925000  1
  S  S21  1  0.52193800  0.98815500  0.75223100  1
  S  S22  1  0.49965600  0.49965600  0.24265300  1
  S  S23  1  0.17004100  0.17004100  0.57715400  1
  S  S24  1  0.83316700  0.83316700  0.91060300  1
  S  S25  1  0.65780100  0.18491200  0.08545800  1
  S  S26  1  0.32689600  0.85142500  0.41925000  1
  S  S27  1  0.98815500  0.52193800  0.75223100  1
  S  S28  1  0.01249700  0.47577700  0.24678700  1
  S  S29  1  0.67524700  0.14609600  0.58083900  1
  S  S30  1  0.34296000  0.81354600  0.91358600  1
  S  S31  1  0.16650100  0.16650100  0.09003200  1
  S  S32  1  0.83164900  0.83164900  0.42364100  1
  S  S33  1  0.50056700  0.50056700  0.75810800  1
  S  S34  1  0.47577700  0.01249700  0.24678700  1
  S  S35  1  0.14609600  0.67524700  0.58083900  1
  S  S36  1  0.81354600  0.34296000  0.91358600  1
  S  S37  1  0.01046300  0.01046300  0.24741300  1
  S  S38  1  0.67593700  0.67593700  0.58077800  1
  S  S39  1  0.34349200  0.34349200  0.91339000  1
