# generated using pymatgen
data_Yb3Si2ClO8
_symmetry_space_group_name_H-M   'P 1'
_cell_length_a   6.25287010
_cell_length_b   6.95564360
_cell_length_c   18.06426146
_cell_angle_alpha   90.39457322
_cell_angle_beta   89.85712870
_cell_angle_gamma   89.80643975
_symmetry_Int_Tables_number   1
_chemical_formula_structural   Yb3Si2ClO8
_chemical_formula_sum   'Yb12 Si8 Cl4 O32'
_cell_volume   785.63855147
_cell_formula_units_Z   4
loop_
 _symmetry_equiv_pos_site_id
 _symmetry_equiv_pos_as_xyz
  1  'x, y, z'
loop_
 _atom_site_type_symbol
 _atom_site_label
 _atom_site_symmetry_multiplicity
 _atom_site_fract_x
 _atom_site_fract_y
 _atom_site_fract_z
 _atom_site_occupancy
  Yb  Yb0  1  0.12883400  0.01659700  0.09406100  1
  Yb  Yb1  1  0.62756500  0.48112500  0.90545300  1
  Yb  Yb2  1  0.37021700  0.51912900  0.40584100  1
  Yb  Yb3  1  0.88459800  0.28731700  0.24979300  1
  Yb  Yb4  1  0.11515600  0.71133200  0.74980500  1
  Yb  Yb5  1  0.61757300  0.78923200  0.24871800  1
  Yb  Yb6  1  0.86840200  0.98153100  0.90525900  1
  Yb  Yb7  1  0.38234900  0.21107700  0.75033900  1
  Yb  Yb8  1  0.37659300  0.51965200  0.09517100  1
  Yb  Yb9  1  0.12447700  0.02542500  0.40562200  1
  Yb  Yb10  1  0.62918200  0.47951100  0.59438600  1
  Yb  Yb11  1  0.87451100  0.97547100  0.59396000  1
  Si  Si12  1  0.63246800  0.01526500  0.39770200  1
  Si  Si13  1  0.62957400  0.01496400  0.10145000  1
  Si  Si14  1  0.36625100  0.98542400  0.89874700  1
  Si  Si15  1  0.36909300  0.98216000  0.60137700  1
  Si  Si16  1  0.12959800  0.47919100  0.60128700  1
  Si  Si17  1  0.87312500  0.51286600  0.10090400  1
  Si  Si18  1  0.87088100  0.52320300  0.39964000  1
  Si  Si19  1  0.12872200  0.48726800  0.89985700  1
  Cl  Cl20  1  0.23388800  0.57247600  0.24965000  1
  Cl  Cl21  1  0.73391200  0.92923900  0.74963200  1
  Cl  Cl22  1  0.27011200  0.07582300  0.25029800  1
  Cl  Cl23  1  0.76519100  0.42676700  0.75040200  1
  O  O24  1  0.28700600  0.46926500  0.82777900  1
  O  O25  1  0.03438900  0.33210100  0.11738700  1
  O  O26  1  0.03017700  0.34165300  0.38161200  1
  O  O27  1  0.71635600  0.51015200  0.47213600  1
  O  O28  1  0.52657600  0.80025700  0.90855900  1
  O  O29  1  0.78038300  0.00179300  0.02781800  1
  O  O30  1  0.78953700  0.03034400  0.32577100  1
  O  O31  1  0.03305900  0.70605600  0.40940100  1
  O  O32  1  0.96969000  0.66083300  0.61860400  1
  O  O33  1  0.52851200  0.16486000  0.61819500  1
  O  O34  1  0.97014000  0.30149800  0.91019000  1
  O  O35  1  0.28900300  0.46498300  0.67314800  1
  O  O36  1  0.28342300  0.48894200  0.52840300  1
  O  O37  1  0.46833700  0.83583300  0.11838500  1
  O  O38  1  0.21584500  0.99390300  0.52870100  1
  O  O39  1  0.21141300  0.96788400  0.67361000  1
  O  O40  1  0.78336200  0.00667600  0.47107100  1
  O  O41  1  0.20919900  0.00208200  0.97067800  1
  O  O42  1  0.03659400  0.69444100  0.09054800  1
  O  O43  1  0.79185200  0.03070400  0.17229500  1
  O  O44  1  0.53092300  0.16348500  0.88284900  1
  O  O45  1  0.96778300  0.29630400  0.59068500  1
  O  O46  1  0.71919300  0.49812400  0.02833000  1
  O  O47  1  0.28477400  0.50730100  0.97203000  1
  O  O48  1  0.20908300  0.96953900  0.82653700  1
  O  O49  1  0.96290100  0.66424400  0.88329100  1
  O  O50  1  0.46480100  0.19478900  0.40763900  1
  O  O51  1  0.53495800  0.80130200  0.59213000  1
  O  O52  1  0.46858900  0.19880800  0.09087400  1
  O  O53  1  0.71013900  0.53739000  0.32777700  1
  O  O54  1  0.47377200  0.83155600  0.38110700  1
  O  O55  1  0.71596700  0.53085400  0.17310500  1
