# generated using pymatgen
data_MgCr(Si2O5)2
_symmetry_space_group_name_H-M   'P 1'
_cell_length_a   7.34417400
_cell_length_b   7.34417400
_cell_length_c   14.92063900
_cell_angle_alpha   90.00000000
_cell_angle_beta   90.00000000
_cell_angle_gamma   90.00000000
_symmetry_Int_Tables_number   1
_chemical_formula_structural   MgCr(Si2O5)2
_chemical_formula_sum   'Mg4 Cr4 Si16 O40'
_cell_volume   804.77289047
_cell_formula_units_Z   4
loop_
 _symmetry_equiv_pos_site_id
 _symmetry_equiv_pos_as_xyz
  1  'x, y, z'
loop_
 _atom_site_type_symbol
 _atom_site_label
 _atom_site_symmetry_multiplicity
 _atom_site_fract_x
 _atom_site_fract_y
 _atom_site_fract_z
 _atom_site_occupancy
  Mg  Mg0  1  0.50000000  0.50000000  0.50000000  1
  Mg  Mg1  1  0.00000000  0.00000000  0.50000000  1
  Mg  Mg2  1  0.00000000  0.00000000  0.00000000  1
  Mg  Mg3  1  0.50000000  0.50000000  0.00000000  1
  Cr  Cr4  1  0.50000000  0.00000000  0.57058200  1
  Cr  Cr5  1  0.00000000  0.50000000  0.92941800  1
  Cr  Cr6  1  0.00000000  0.50000000  0.42941800  1
  Cr  Cr7  1  0.50000000  0.00000000  0.07058200  1
  Si  Si8  1  0.16181900  0.24173800  0.64478500  1
  Si  Si9  1  0.83818100  0.75826200  0.64478500  1
  Si  Si10  1  0.24173800  0.16181900  0.85521500  1
  Si  Si11  1  0.74173800  0.33818100  0.64478500  1
  Si  Si12  1  0.25826200  0.66181900  0.64478500  1
  Si  Si13  1  0.33818100  0.74173800  0.85521500  1
  Si  Si14  1  0.66181900  0.25826200  0.85521500  1
  Si  Si15  1  0.75826200  0.83818100  0.85521500  1
  Si  Si16  1  0.33818100  0.25826200  0.35521500  1
  Si  Si17  1  0.66181900  0.74173800  0.35521500  1
  Si  Si18  1  0.25826200  0.33818100  0.14478500  1
  Si  Si19  1  0.75826200  0.16181900  0.35521500  1
  Si  Si20  1  0.24173800  0.83818100  0.35521500  1
  Si  Si21  1  0.16181900  0.75826200  0.14478500  1
  Si  Si22  1  0.83818100  0.24173800  0.14478500  1
  Si  Si23  1  0.74173800  0.66181900  0.14478500  1
  O  O24  1  0.23124900  0.08721200  0.57561400  1
  O  O25  1  0.76875100  0.91278800  0.57561400  1
  O  O26  1  0.08721200  0.23124900  0.92438600  1
  O  O27  1  0.58721200  0.26875100  0.57561400  1
  O  O28  1  0.41278800  0.73124900  0.57561400  1
  O  O29  1  0.26875100  0.58721200  0.92438600  1
  O  O30  1  0.73124900  0.41278800  0.92438600  1
  O  O31  1  0.91278800  0.76875100  0.92438600  1
  O  O32  1  0.26875100  0.41278800  0.42438600  1
  O  O33  1  0.73124900  0.58721200  0.42438600  1
  O  O34  1  0.41278800  0.26875100  0.07561400  1
  O  O35  1  0.91278800  0.23124900  0.42438600  1
  O  O36  1  0.08721200  0.76875100  0.42438600  1
  O  O37  1  0.23124900  0.91278800  0.07561400  1
  O  O38  1  0.76875100  0.08721200  0.07561400  1
  O  O39  1  0.25162600  0.05738400  0.37495200  1
  O  O40  1  0.58721200  0.73124900  0.07561400  1
  O  O41  1  0.75162600  0.55738400  0.62504800  1
  O  O42  1  0.44261600  0.24837400  0.87495200  1
  O  O43  1  0.94261600  0.25162600  0.62504800  1
  O  O44  1  0.05738400  0.74837400  0.62504800  1
  O  O45  1  0.25162600  0.94261600  0.87495200  1
  O  O46  1  0.74837400  0.05738400  0.87495200  1
  O  O47  1  0.55738400  0.75162600  0.87495200  1
  O  O48  1  0.69627300  0.69627300  0.25000000  1
  O  O49  1  0.80372700  0.19627300  0.25000000  1
  O  O50  1  0.19627300  0.80372700  0.25000000  1
  O  O51  1  0.30372700  0.30372700  0.25000000  1
  O  O52  1  0.80372700  0.80372700  0.75000000  1
  O  O53  1  0.69627300  0.30372700  0.75000000  1
  O  O54  1  0.30372700  0.69627300  0.75000000  1
  O  O55  1  0.19627300  0.19627300  0.75000000  1
  O  O56  1  0.94261600  0.74837400  0.12504800  1
  O  O57  1  0.75162600  0.44261600  0.12504800  1
  O  O58  1  0.24837400  0.55738400  0.12504800  1
  O  O59  1  0.44261600  0.75162600  0.37495200  1
  O  O60  1  0.55738400  0.24837400  0.37495200  1
  O  O61  1  0.05738400  0.25162600  0.12504800  1
  O  O62  1  0.74837400  0.94261600  0.37495200  1
  O  O63  1  0.24837400  0.44261600  0.62504800  1
