# generated using pymatgen
data_MgVSiO5
_symmetry_space_group_name_H-M   'P 1'
_cell_length_a   5.40735751
_cell_length_b   6.98094144
_cell_length_c   10.09939393
_cell_angle_alpha   69.04389177
_cell_angle_beta   92.32237701
_cell_angle_gamma   75.23605711
_symmetry_Int_Tables_number   1
_chemical_formula_structural   MgVSiO5
_chemical_formula_sum   'Mg4 V4 Si4 O20'
_cell_volume   340.58602456
_cell_formula_units_Z   4
loop_
 _symmetry_equiv_pos_site_id
 _symmetry_equiv_pos_as_xyz
  1  'x, y, z'
loop_
 _atom_site_type_symbol
 _atom_site_label
 _atom_site_symmetry_multiplicity
 _atom_site_fract_x
 _atom_site_fract_y
 _atom_site_fract_z
 _atom_site_occupancy
  Mg  Mg0  1  0.54510400  0.87149600  0.32438400  1
  Mg  Mg1  1  0.04535700  0.37160000  0.82435400  1
  Mg  Mg2  1  0.49408200  0.02374500  0.68033700  1
  Mg  Mg3  1  0.99482600  0.52261300  0.18020100  1
  V  V4  1  0.98839500  0.99367900  0.49455200  1
  V  V5  1  0.51155300  0.97807800  0.00657100  1
  V  V6  1  0.48840900  0.49364300  0.99460300  1
  V  V7  1  0.01136100  0.47833300  0.50647100  1
  Si  Si8  1  0.47510900  0.60467500  0.65233500  1
  Si  Si9  1  0.97512100  0.10457600  0.15232200  1
  Si  Si10  1  0.51725400  0.39586800  0.34640900  1
  Si  Si11  1  0.01732900  0.89595200  0.84636800  1
  O  O12  1  0.27097200  0.46201800  0.65706800  1
  O  O13  1  0.77060100  0.96234600  0.15709000  1
  O  O14  1  0.62955300  0.16782500  0.48611000  1
  O  O15  1  0.12961600  0.66800400  0.98606300  1
  O  O16  1  0.37176400  0.82989100  0.50831500  1
  O  O17  1  0.87230300  0.32995100  0.00838800  1
  O  O18  1  0.71326200  0.54540400  0.34759400  1
  O  O19  1  0.21334100  0.04547700  0.84759200  1
  O  O20  1  0.46865300  0.35222900  0.19999900  1
  O  O21  1  0.96880000  0.85220900  0.70002000  1
  O  O22  1  0.27181400  0.96652000  0.15235000  1
  O  O23  1  0.77187600  0.46693200  0.65227200  1
  O  O24  1  0.72040400  0.02940900  0.85117200  1
  O  O25  1  0.22030700  0.52931100  0.35113600  1
  O  O26  1  0.49700100  0.68152000  0.78803400  1
  O  O27  1  0.99725900  0.18132500  0.28804400  1
  O  O28  1  0.12366300  0.19475500  0.55106800  1
  O  O29  1  0.62377800  0.69472600  0.05109000  1
  O  O30  1  0.89007100  0.79768500  0.44877400  1
  O  O31  1  0.39018800  0.29764600  0.94903300  1
