# generated using pymatgen
data_Zn3Si4(BiO7)2
_symmetry_space_group_name_H-M   'P 1'
_cell_length_a   9.49637824
_cell_length_b   9.49637824
_cell_length_c   10.55283865
_cell_angle_alpha   59.73588143
_cell_angle_beta   59.73588143
_cell_angle_gamma   53.04917691
_symmetry_Int_Tables_number   1
_chemical_formula_structural   Zn3Si4(BiO7)2
_chemical_formula_sum   'Zn6 Si8 Bi4 O28'
_cell_volume   628.39981775
_cell_formula_units_Z   2
loop_
 _symmetry_equiv_pos_site_id
 _symmetry_equiv_pos_as_xyz
  1  'x, y, z'
loop_
 _atom_site_type_symbol
 _atom_site_label
 _atom_site_symmetry_multiplicity
 _atom_site_fract_x
 _atom_site_fract_y
 _atom_site_fract_z
 _atom_site_occupancy
  Zn  Zn0  1  0.07208200  0.29500200  0.06870500  1
  Zn  Zn1  1  0.70499800  0.92791800  0.43129500  1
  Zn  Zn2  1  0.29500200  0.07208200  0.56870500  1
  Zn  Zn3  1  0.38535600  0.61464400  0.75000000  1
  Zn  Zn4  1  0.92791800  0.70499800  0.93129500  1
  Zn  Zn5  1  0.61464400  0.38535600  0.25000000  1
  Si  Si6  1  0.51105300  0.09619500  0.71344500  1
  Si  Si7  1  0.09619500  0.51105300  0.21344500  1
  Si  Si8  1  0.49643200  0.26288500  0.11187000  1
  Si  Si9  1  0.26288500  0.49643200  0.61187000  1
  Si  Si10  1  0.90380500  0.48894700  0.78655500  1
  Si  Si11  1  0.50356800  0.73711500  0.88813000  1
  Si  Si12  1  0.73711500  0.50356800  0.38813000  1
  Si  Si13  1  0.48894700  0.90380500  0.28655500  1
  Bi  Bi14  1  0.76801300  0.23198700  0.75000000  1
  Bi  Bi15  1  0.23198700  0.76801300  0.25000000  1
  Bi  Bi16  1  0.00000000  0.00000000  0.00000000  1
  Bi  Bi17  1  0.00000000  0.00000000  0.50000000  1
  O  O18  1  0.79563400  0.33382200  0.33253800  1
  O  O19  1  0.93651800  0.88190000  0.40496400  1
  O  O20  1  0.50211000  0.61136700  0.06650600  1
  O  O21  1  0.88190000  0.93651800  0.90496400  1
  O  O22  1  0.28800800  0.92726400  0.32480000  1
  O  O23  1  0.06640500  0.51967800  0.63029300  1
  O  O24  1  0.61136700  0.50211000  0.56650600  1
  O  O25  1  0.07273600  0.71199200  0.17520000  1
  O  O26  1  0.93359500  0.48032200  0.36970700  1
  O  O27  1  0.64675900  0.69972200  0.25788100  1
  O  O28  1  0.06348200  0.11810000  0.59503600  1
  O  O29  1  0.71199200  0.07273600  0.67520000  1
  O  O30  1  0.48032200  0.93359500  0.86970700  1
  O  O31  1  0.33382200  0.79563400  0.83253800  1
  O  O32  1  0.69972200  0.64675900  0.75788100  1
  O  O33  1  0.92726400  0.28800800  0.82480000  1
  O  O34  1  0.91358500  0.51007800  0.92760300  1
  O  O35  1  0.35324100  0.30027800  0.74211900  1
  O  O36  1  0.48992200  0.08641500  0.57239700  1
  O  O37  1  0.30027800  0.35324100  0.24211900  1
  O  O38  1  0.51967800  0.06640500  0.13029300  1
  O  O39  1  0.11810000  0.06348200  0.09503600  1
  O  O40  1  0.51007800  0.91358500  0.42760300  1
  O  O41  1  0.49789000  0.38863300  0.93349400  1
  O  O42  1  0.08641500  0.48992200  0.07239700  1
  O  O43  1  0.38863300  0.49789000  0.43349400  1
  O  O44  1  0.66617800  0.20436600  0.16746200  1
  O  O45  1  0.20436600  0.66617800  0.66746200  1
