# generated using pymatgen
data_Al2FeRh
_symmetry_space_group_name_H-M   'P 1'
_cell_length_a   9.60160625
_cell_length_b   9.50987207
_cell_length_c   9.50987256
_cell_angle_alpha   67.49899721
_cell_angle_beta   59.68038741
_cell_angle_gamma   59.68038597
_symmetry_Int_Tables_number   1
_chemical_formula_structural   Al2FeRh
_chemical_formula_sum   'Al2 Fe1 Rh1'
_cell_volume   637.45620120
_cell_formula_units_Z   1
loop_
 _symmetry_equiv_pos_site_id
 _symmetry_equiv_pos_as_xyz
  1  'x, y, z'
loop_
 _atom_site_type_symbol
 _atom_site_label
 _atom_site_symmetry_multiplicity
 _atom_site_fract_x
 _atom_site_fract_y
 _atom_site_fract_z
 _atom_site_occupancy
  Al  Al0  1  0.74305200  0.00000000  0.00000000  1
  Al  Al1  1  0.25694800  0.00000000  0.00000000  1
  Fe  Fe2  1  0.00000000  0.00000000  0.00000000  1
  Rh  Rh3  1  0.50000000  0.00000000  0.00000000  1
