# generated using pymatgen
data_AlCrF5
_symmetry_space_group_name_H-M   'P 1'
_cell_length_a   5.27135294
_cell_length_b   5.27135294
_cell_length_c   5.27135294
_cell_angle_alpha   139.34926499
_cell_angle_beta   106.18023380
_cell_angle_gamma   87.85924354
_symmetry_Int_Tables_number   1
_chemical_formula_structural   AlCrF5
_chemical_formula_sum   'Al1 Cr1 F5'
_cell_volume   88.02344081
_cell_formula_units_Z   1
loop_
 _symmetry_equiv_pos_site_id
 _symmetry_equiv_pos_as_xyz
  1  'x, y, z'
loop_
 _atom_site_type_symbol
 _atom_site_label
 _atom_site_symmetry_multiplicity
 _atom_site_fract_x
 _atom_site_fract_y
 _atom_site_fract_z
 _atom_site_occupancy
  Al  Al0  1  0.50000000  0.50000000  0.00000000  1
  Cr  Cr1  1  0.00000000  0.00000000  0.00000000  1
  F  F2  1  0.78979500  0.50000000  0.28979500  1
  F  F3  1  0.21020500  0.50000000  0.71020500  1
  F  F4  1  0.26233000  0.26233000  0.00000000  1
  F  F5  1  0.73767000  0.73767000  0.00000000  1
  F  F6  1  0.50000000  0.00000000  0.50000000  1
