# generated using pymatgen
data_Si2H2O3
_symmetry_space_group_name_H-M   'P 1'
_cell_length_a   13.40069054
_cell_length_b   9.56883002
_cell_length_c   13.40155651
_cell_angle_alpha   104.91052746
_cell_angle_beta   143.30252401
_cell_angle_gamma   91.14853554
_symmetry_Int_Tables_number   1
_chemical_formula_structural   Si2H2O3
_chemical_formula_sum   'Si20 H20 O30'
_cell_volume   912.94519301
_cell_formula_units_Z   10
loop_
 _symmetry_equiv_pos_site_id
 _symmetry_equiv_pos_as_xyz
  1  'x, y, z'
loop_
 _atom_site_type_symbol
 _atom_site_label
 _atom_site_symmetry_multiplicity
 _atom_site_fract_x
 _atom_site_fract_y
 _atom_site_fract_z
 _atom_site_occupancy
  Si  Si0  1  0.72232400  0.86947000  0.59680800  1
  Si  Si1  1  0.75076200  0.59447400  0.38035600  1
  Si  Si2  1  0.21355300  0.09405600  0.34253000  1
  Si  Si3  1  0.27238800  0.36915000  0.64660200  1
  Si  Si4  1  0.10998800  0.12748100  0.86858900  1
  Si  Si5  1  0.79288500  0.38298800  0.52015800  1
  Si  Si6  1  0.86222800  0.88282000  0.08905900  1
  Si  Si7  1  0.25892200  0.62742800  0.51736600  1
  Si  Si8  1  0.43033100  0.07241400  0.23031400  1
  Si  Si9  1  0.25711900  0.49676200  0.96556700  1
  Si  Si10  1  0.53089200  0.99732200  0.73956200  1
  Si  Si11  1  0.84229300  0.57273000  0.14231900  1
  Si  Si12  1  0.41117800  0.78914800  0.98256700  1
  Si  Si13  1  0.19544600  0.75736100  0.15348300  1
  Si  Si14  1  0.60396500  0.25733100  0.06195700  1
  Si  Si15  1  0.80644300  0.28974300  0.87796700  1
  Si  Si16  1  0.14820400  0.90284200  0.65924600  1
  Si  Si17  1  0.75198800  0.60788200  0.73279600  1
  Si  Si18  1  0.87491400  0.10744600  0.35532600  1
  Si  Si19  1  0.24334200  0.40282800  0.25426600  1
  H  H20  1  0.04685200  0.91197600  0.89192300  1
  H  H21  1  0.01993500  0.41226900  0.36506700  1
  H  H22  1  0.99886500  0.29407500  0.75915300  1
  H  H23  1  0.53429000  0.79413200  0.79440500  1
  H  H24  1  0.23557100  0.79974700  0.01627600  1
  H  H25  1  0.09841200  0.63503600  0.77137900  1
  H  H26  1  0.86328400  0.13504500  0.03598800  1
  H  H27  1  0.78348200  0.30009500  0.06412200  1
  H  H28  1  0.88023200  0.69397300  0.34641200  1
  H  H29  1  0.34766700  0.19390300  0.31341200  1
  H  H30  1  0.64142400  0.79503000  0.34969700  1
  H  H31  1  0.44429800  0.29379800  0.65229100  1
  H  H32  1  0.98651000  0.05915700  0.59068000  1
  H  H33  1  0.62183400  0.33958500  0.51570100  1
  H  H34  1  0.82610400  0.83955000  0.21896200  1
  H  H35  1  0.46832600  0.55887700  0.57239500  1
  H  H36  1  0.64453800  0.01954400  0.28629000  1
  H  H37  1  0.30216800  0.54033100  0.18090600  1
  H  H38  1  0.35919700  0.04119600  0.73815900  1
  H  H39  1  0.73306400  0.52003300  0.87507400  1
  O  O40  1  0.97506100  0.96401000  0.80935300  1
  O  O41  1  0.89059000  0.56921100  0.57892700  1
  O  O42  1  0.98968900  0.06879800  0.17722900  1
  O  O43  1  0.15452300  0.46409200  0.48881700  1
  O  O44  1  0.30641500  0.11997800  0.05503700  1
  O  O45  1  0.00559400  0.39317900  0.74395700  1
  O  O46  1  0.64856400  0.89339200  0.88701600  1
  O  O47  1  0.06511700  0.62023500  0.31367200  1
  O  O48  1  0.25079700  0.88293500  0.09464200  1
  O  O49  1  0.23168300  0.65943800  0.90460100  1
  O  O50  1  0.75444200  0.15974800  0.92739700  1
  O  O51  1  0.78849500  0.38323700  0.13230500  1
  O  O52  1  0.26165500  0.85548000  0.83002500  1
  O  O53  1  0.97829300  0.67134400  0.93101400  1
  O  O54  1  0.74019700  0.17076300  0.19228400  1
  O  O55  1  0.02519000  0.35543800  0.09360900  1
  O  O56  1  0.71751800  0.73243500  0.64822000  1
  O  O57  1  0.93138900  0.72770200  0.46304200  1
  O  O58  1  0.26468500  0.22757000  0.29588700  1
  O  O59  1  0.08398200  0.23252300  0.51471700  1
  O  O60  1  0.71246500  0.75607300  0.44371900  1
  O  O61  1  0.31140300  0.25528200  0.54225800  1
  O  O62  1  0.06793600  0.02626100  0.69511400  1
  O  O63  1  0.71260300  0.44105500  0.58207300  1
  O  O64  1  0.85962300  0.94106400  0.22845900  1
  O  O65  1  0.33098000  0.52600300  0.45807000  1
  O  O66  1  0.51996000  0.95626300  0.20277000  1
  O  O67  1  0.27417200  0.59975200  0.11246700  1
  O  O68  1  0.48700900  0.10052500  0.82559600  1
  O  O69  1  0.75377700  0.45675400  0.93664900  1
