# generated using pymatgen
data_Li2Si3Ni2O9
_symmetry_space_group_name_H-M   'P 1'
_cell_length_a   9.98011001
_cell_length_b   9.98014218
_cell_length_c   12.14395101
_cell_angle_alpha   89.99613347
_cell_angle_beta   90.00291134
_cell_angle_gamma   119.99687870
_symmetry_Int_Tables_number   1
_chemical_formula_structural   Li2Si3Ni2O9
_chemical_formula_sum   'Li12 Si18 Ni12 O54'
_cell_volume   1047.55383869
_cell_formula_units_Z   6
loop_
 _symmetry_equiv_pos_site_id
 _symmetry_equiv_pos_as_xyz
  1  'x, y, z'
loop_
 _atom_site_type_symbol
 _atom_site_label
 _atom_site_symmetry_multiplicity
 _atom_site_fract_x
 _atom_site_fract_y
 _atom_site_fract_z
 _atom_site_occupancy
  Li  Li0  1  0.14537700  0.98714900  0.17383800  1
  Li  Li1  1  0.20011500  0.76415600  0.01659000  1
  Li  Li2  1  0.23581200  0.43592500  0.68320700  1
  Li  Li3  1  0.01293500  0.15832100  0.84050700  1
  Li  Li4  1  0.56410700  0.79989000  0.34992200  1
  Li  Li5  1  0.17482400  0.01697000  0.67098700  1
  Li  Li6  1  0.33335300  0.28069000  0.78884900  1
  Li  Li7  1  0.84176700  0.85459900  0.50716700  1
  Li  Li8  1  0.84198000  0.82517700  0.00431400  1
  Li  Li9  1  0.71939400  0.05267500  0.45549400  1
  Li  Li10  1  0.94732600  0.66669600  0.12212000  1
  Li  Li11  1  0.98316500  0.15789300  0.33761000  1
  Si  Si12  1  0.12870100  0.95238000  0.91979600  1
  Si  Si13  1  0.29781600  0.82237700  0.76519200  1
  Si  Si14  1  0.19199900  0.50709700  0.89202500  1
  Si  Si15  1  0.31508900  0.80798100  0.22535600  1
  Si  Si16  1  0.04763000  0.17635300  0.58643600  1
  Si  Si17  1  0.17766900  0.47547800  0.43183900  1
  Si  Si18  1  0.18542400  0.01562800  0.42834200  1
  Si  Si19  1  0.49290600  0.68491800  0.55868700  1
  Si  Si20  1  0.52453500  0.70215900  0.09854800  1
  Si  Si21  1  0.61730000  0.49786900  0.44444200  1
  Si  Si22  1  0.48210000  0.20064600  0.57806800  1
  Si  Si23  1  0.82364500  0.87121000  0.25312900  1
  Si  Si24  1  0.83016900  0.81456500  0.76166500  1
  Si  Si25  1  0.71851500  0.51789500  0.91139900  1
  Si  Si26  1  0.50212900  0.11940400  0.11112500  1
  Si  Si27  1  0.88057500  0.38274700  0.77777200  1
  Si  Si28  1  0.79935200  0.28142000  0.24473800  1
  Si  Si29  1  0.98437300  0.16978700  0.09497600  1
  Ni  Ni30  1  0.33128400  0.84313800  0.49214000  1
  Ni  Ni31  1  0.15684700  0.48814800  0.15882200  1
  Ni  Ni32  1  0.51184500  0.66870500  0.82549900  1
  Ni  Ni33  1  0.33342500  0.32470500  0.24259600  1
  Ni  Ni34  1  0.36950600  0.33269900  0.00337100  1
  Ni  Ni35  1  0.51059400  0.16001900  0.84155000  1
  Ni  Ni36  1  0.64943900  0.48938400  0.17490600  1
  Ni  Ni37  1  0.99125700  0.66660500  0.57591600  1
  Ni  Ni38  1  0.96321600  0.63046200  0.33667800  1
  Ni  Ni39  1  0.66729000  0.03683100  0.67000800  1
  Ni  Ni40  1  0.67533500  0.00874800  0.90925300  1
  Ni  Ni41  1  0.83996100  0.35051900  0.50821600  1
  O  O42  1  0.10666900  0.82587900  0.43375000  1
  O  O43  1  0.06635900  0.87170600  0.03781200  1
  O  O44  1  0.19602700  0.84903200  0.86050900  1
  O  O45  1  0.13032800  0.68047500  0.21835200  1
  O  O46  1  0.04770600  0.52675500  0.44582100  1
  O  O47  1  0.04297900  0.38365400  0.81560100  1
  O  O48  1  0.21850200  0.80279200  0.64436900  1
  O  O49  1  0.14215300  0.55048100  0.00517000  1
  O  O50  1  0.34060800  0.95706400  0.14901600  1
  O  O51  1  0.28819100  0.66223000  0.81123400  1
  O  O52  1  0.15101600  0.34695500  0.52707100  1
  O  O53  1  0.40831100  0.85771000  0.33849500  1
  O  O54  1  0.12829300  0.19473300  0.70445300  1
  O  O55  1  0.19728700  0.41584300  0.31099700  1
  O  O56  1  0.47905700  0.95232800  0.77915300  1
  O  O57  1  0.37404000  0.71195500  0.14441600  1
  O  O58  1  0.31948600  0.44982600  0.88504400  1
  O  O59  1  0.17413600  0.28069900  0.10044700  1
  O  O60  1  0.07985400  0.05345100  0.51471500  1
  O  O61  1  0.33781700  0.62595600  0.47786800  1
  O  O62  1  0.20469500  0.10405300  0.31379000  1
  O  O63  1  0.44945200  0.59171300  0.67185400  1
  O  O64  1  0.55021500  0.86970100  0.55167500  1
  O  O65  1  0.58441900  0.78148100  0.97773400  1
  O  O66  1  0.25674000  0.13226500  0.91160000  1
  O  O67  1  0.47318700  0.52090900  0.11250900  1
  O  O68  1  0.65290800  0.80384800  0.19392000  1
  O  O69  1  0.61639100  0.65937000  0.48230100  1
  O  O70  1  0.35132600  0.06452600  0.49293900  1
  O  O71  1  0.71921800  0.89338400  0.76710200  1
  O  O72  1  0.54122400  0.44804700  0.32264200  1
  O  O73  1  0.40353300  0.16773000  0.69893400  1
  O  O74  1  0.80544000  0.93364200  0.37113800  1
  O  O75  1  0.50589600  0.36528200  0.53301500  1
  O  O76  1  0.46224600  0.25908500  0.12778300  1
  O  O77  1  0.54946300  0.36601300  0.89835500  1
  O  O78  1  0.71320900  0.64871900  0.82630200  1
  O  O79  1  0.55189500  0.09312800  0.98930200  1
  O  O80  1  0.76413700  0.59644300  0.03226800  1
  O  O81  1  0.89918800  0.79518800  0.64709000  1
  O  O82  1  0.87548800  0.74315300  0.24492100  1
  O  O83  1  0.63398200  0.18346300  0.56503100  1
  O  O84  1  0.79688800  0.53780300  0.46109700  1
  O  O85  1  0.97362400  0.92015200  0.84798200  1
  O  O86  1  0.63477100  0.14055600  0.19963900  1
  O  O87  1  0.85938600  0.49417500  0.86630500  1
  O  O88  1  0.81651800  0.45047900  0.23167700  1
  O  O89  1  0.74092700  0.20317000  0.79443900  1
  O  O90  1  0.83229600  0.23580000  0.36561900  1
  O  O91  1  0.90679100  0.45878700  0.65595200  1
  O  O92  1  0.86775500  0.12456500  0.57825700  1
  O  O93  1  0.93549300  0.28675400  0.15965000  1
  O  O94  1  0.89599900  0.10084000  0.98038000  1
  O  O95  1  0.94640100  0.02623500  0.18124400  1
