# generated using pymatgen
data_Mg3Si4(AgO7)2
_symmetry_space_group_name_H-M   'P 1'
_cell_length_a   9.66001708
_cell_length_b   9.66001708
_cell_length_c   10.28758885
_cell_angle_alpha   58.13954561
_cell_angle_beta   58.13954561
_cell_angle_gamma   47.20792911
_symmetry_Int_Tables_number   1
_chemical_formula_structural   Mg3Si4(AgO7)2
_chemical_formula_sum   'Mg6 Si8 Ag4 O28'
_cell_volume   575.84365534
_cell_formula_units_Z   2
loop_
 _symmetry_equiv_pos_site_id
 _symmetry_equiv_pos_as_xyz
  1  'x, y, z'
loop_
 _atom_site_type_symbol
 _atom_site_label
 _atom_site_symmetry_multiplicity
 _atom_site_fract_x
 _atom_site_fract_y
 _atom_site_fract_z
 _atom_site_occupancy
  Mg  Mg0  1  0.05556500  0.28185500  0.12405700  1
  Mg  Mg1  1  0.71814500  0.94443500  0.37594300  1
  Mg  Mg2  1  0.28185500  0.05556500  0.62405700  1
  Mg  Mg3  1  0.38879900  0.61120100  0.75000000  1
  Mg  Mg4  1  0.94443500  0.71814500  0.87594300  1
  Mg  Mg5  1  0.61120100  0.38879900  0.25000000  1
  Si  Si6  1  0.56799600  0.04809000  0.70642700  1
  Si  Si7  1  0.04809000  0.56799600  0.20642700  1
  Si  Si8  1  0.48982800  0.27515100  0.11003000  1
  Si  Si9  1  0.27515100  0.48982800  0.61003000  1
  Si  Si10  1  0.95191000  0.43200400  0.79357300  1
  Si  Si11  1  0.51017200  0.72484900  0.88997000  1
  Si  Si12  1  0.72484900  0.51017200  0.38997000  1
  Si  Si13  1  0.43200400  0.95191000  0.29357300  1
  Ag  Ag14  1  0.77660000  0.22340000  0.75000000  1
  Ag  Ag15  1  0.22340000  0.77660000  0.25000000  1
  Ag  Ag16  1  0.00000000  0.00000000  0.00000000  1
  Ag  Ag17  1  0.00000000  0.00000000  0.50000000  1
  O  O18  1  0.80247100  0.35335500  0.30813700  1
  O  O19  1  0.96193400  0.89803100  0.40416000  1
  O  O20  1  0.47504100  0.61861100  0.08234700  1
  O  O21  1  0.89803100  0.96193400  0.90416000  1
  O  O22  1  0.20920200  0.05037500  0.29433800  1
  O  O23  1  0.08970600  0.49840400  0.62672500  1
  O  O24  1  0.61861100  0.47504100  0.58234700  1
  O  O25  1  0.94962500  0.79079800  0.20566200  1
  O  O26  1  0.91029400  0.50159600  0.37327500  1
  O  O27  1  0.57797800  0.72409500  0.28432400  1
  O  O28  1  0.03806600  0.10196900  0.59584000  1
  O  O29  1  0.79079800  0.94962500  0.70566200  1
  O  O30  1  0.50159600  0.91029400  0.87327500  1
  O  O31  1  0.35335500  0.80247100  0.80813700  1
  O  O32  1  0.72409500  0.57797800  0.78432400  1
  O  O33  1  0.05037500  0.20920200  0.79433800  1
  O  O34  1  0.95042200  0.45973400  0.93575200  1
  O  O35  1  0.42202200  0.27590500  0.71567600  1
  O  O36  1  0.54026600  0.04957800  0.56424800  1
  O  O37  1  0.27590500  0.42202200  0.21567600  1
  O  O38  1  0.49840400  0.08970600  0.12672500  1
  O  O39  1  0.10196900  0.03806600  0.09584000  1
  O  O40  1  0.45973400  0.95042200  0.43575200  1
  O  O41  1  0.52495900  0.38138900  0.91765300  1
  O  O42  1  0.04957800  0.54026600  0.06424800  1
  O  O43  1  0.38138900  0.52495900  0.41765300  1
  O  O44  1  0.64664500  0.19752900  0.19186300  1
  O  O45  1  0.19752900  0.64664500  0.69186300  1
