# generated using pymatgen
data_K2SrBe2F8
_symmetry_space_group_name_H-M   'P 1'
_cell_length_a   7.60743885
_cell_length_b   7.60743885
_cell_length_c   7.60743864
_cell_angle_alpha   42.33660954
_cell_angle_beta   42.33660954
_cell_angle_gamma   42.33661185
_symmetry_Int_Tables_number   1
_chemical_formula_structural   K2SrBe2F8
_chemical_formula_sum   'K2 Sr1 Be2 F8'
_cell_volume   180.76208048
_cell_formula_units_Z   1
loop_
 _symmetry_equiv_pos_site_id
 _symmetry_equiv_pos_as_xyz
  1  'x, y, z'
loop_
 _atom_site_type_symbol
 _atom_site_label
 _atom_site_symmetry_multiplicity
 _atom_site_fract_x
 _atom_site_fract_y
 _atom_site_fract_z
 _atom_site_occupancy
  K  K0  1  0.20226300  0.20226300  0.20226300  1
  K  K1  1  0.79773700  0.79773700  0.79773700  1
  Sr  Sr2  1  0.00000000  0.00000000  0.00000000  1
  Be  Be3  1  0.59861600  0.59861600  0.59861600  1
  Be  Be4  1  0.40138400  0.40138400  0.40138400  1
  F  F5  1  0.73058700  0.26154000  0.73058700  1
  F  F6  1  0.26154000  0.73058700  0.73058700  1
  F  F7  1  0.73058700  0.73058700  0.26154000  1
  F  F8  1  0.32662100  0.32662100  0.32662100  1
  F  F9  1  0.67337900  0.67337900  0.67337900  1
  F  F10  1  0.73846000  0.26941300  0.26941300  1
  F  F11  1  0.26941300  0.26941300  0.73846000  1
  F  F12  1  0.26941300  0.73846000  0.26941300  1
