# generated using pymatgen
data_Sr3Nd10Al12Si18(N2O)18
_symmetry_space_group_name_H-M   'P 1'
_cell_length_a   11.69800718
_cell_length_b   11.67457780
_cell_length_c   11.67457772
_cell_angle_alpha   109.39036602
_cell_angle_beta   109.36046096
_cell_angle_gamma   109.36045794
_symmetry_Int_Tables_number   1
_chemical_formula_structural   Sr3Nd10Al12Si18(N2O)18
_chemical_formula_sum   'Sr3 Nd10 Al12 Si18 N36 O18'
_cell_volume   1231.91992514
_cell_formula_units_Z   1
loop_
 _symmetry_equiv_pos_site_id
 _symmetry_equiv_pos_as_xyz
  1  'x, y, z'
loop_
 _atom_site_type_symbol
 _atom_site_label
 _atom_site_symmetry_multiplicity
 _atom_site_fract_x
 _atom_site_fract_y
 _atom_site_fract_z
 _atom_site_occupancy
  Sr  Sr0  1  0.67988088  0.42389889  0.99774793  1
  Sr  Sr1  1  0.67988088  0.99774793  0.42389889  1
  Sr  Sr2  1  0.91906417  0.97594220  0.97594220  1
  Nd  Nd3  1  0.25347483  0.57562529  0.57562529  1
  Nd  Nd4  1  0.32992388  0.75084788  0.32500463  1
  Nd  Nd5  1  0.32992388  0.32500463  0.75084788  1
  Nd  Nd6  1  0.42053815  0.00229340  0.67203925  1
  Nd  Nd7  1  0.42053815  0.67203925  0.00229340  1
  Nd  Nd8  1  0.57956650  0.57267100  0.24982431  1
  Nd  Nd9  1  0.57956650  0.24982431  0.57267100  1
  Nd  Nd10  1  0.74917314  0.32964764  0.32964764  1
  Nd  Nd11  1  0.00108473  0.67563956  0.42490835  1
  Nd  Nd12  1  0.00108473  0.42490835  0.67563956  1
  Al  Al13  1  0.16257334  0.99955816  0.75440439  1
  Al  Al14  1  0.00093013  0.75534012  0.16263197  1
  Al  Al15  1  0.00093013  0.16263197  0.75534012  1
  Al  Al16  1  0.16257334  0.75440439  0.99955816  1
  Al  Al17  1  0.58641286  0.83645759  0.83645759  1
  Al  Al18  1  0.25009739  0.24916170  0.41288167  1
  Al  Al19  1  0.25009739  0.41288167  0.24916170  1
  Al  Al20  1  0.41146156  0.24815039  0.24815039  1
  Al  Al21  1  0.83775441  0.59086743  0.83784615  1
  Al  Al22  1  0.83775441  0.83784615  0.59086743  1
  Al  Al23  1  0.75489368  0.00092869  0.16346974  1
  Al  Al24  1  0.75489368  0.16346974  0.00092869  1
  Si  Si25  1  0.00053386  0.69819862  0.69819862  1
  Si  Si26  1  0.29979008  0.83818547  0.83818547  1
  Si  Si27  1  0.00155648  0.16089396  0.46230907  1
  Si  Si28  1  0.30244790  0.00000032  0.30063340  1
  Si  Si29  1  0.16095946  0.99861766  0.46118062  1
  Si  Si30  1  0.16095946  0.46118062  0.99861766  1
  Si  Si31  1  0.53915235  0.70080696  0.54007501  1
  Si  Si32  1  0.53915235  0.54007501  0.70080696  1
  Si  Si33  1  0.30244790  0.30063340  0.00000032  1
  Si  Si34  1  0.70041549  0.53931588  0.53931588  1
  Si  Si35  1  0.46266012  0.99919227  0.16009007  1
  Si  Si36  1  0.46266012  0.16009007  0.99919227  1
  Si  Si37  1  0.84048445  0.84222328  0.30185259  1
  Si  Si38  1  0.84048445  0.30185259  0.84222328  1
  Si  Si39  1  0.70053044  0.70076288  0.00087218  1
  Si  Si40  1  0.70053044  0.00087218  0.70076288  1
  Si  Si41  1  0.00155648  0.46230907  0.16089396  1
  Si  Si42  1  0.00257197  0.30110541  0.30110541  1
  N  N43  1  0.99991361  0.68115296  0.83874380  1
  N  N44  1  0.99991361  0.83874380  0.68115296  1
  N  N45  1  0.14595476  0.69372655  0.69372655  1
  N  N46  1  0.99952538  0.30453610  0.44982622  1
  N  N47  1  0.15965052  0.84585872  0.15860123  1
  N  N48  1  0.15965052  0.15860123  0.84585872  1
  N  N49  1  0.15298204  0.48070375  0.15098504  1
  N  N50  1  0.15298204  0.15098504  0.48070375  1
  N  N51  1  0.15896801  0.31647883  0.31647883  1
  N  N52  1  0.44992838  0.99767392  0.30249784  1
  N  N53  1  0.32763454  0.99906902  0.84938752  1
  N  N54  1  0.32763454  0.84938752  0.99906902  1
  N  N55  1  0.69577346  0.84683307  0.99851669  1
  N  N56  1  0.52588023  0.67503655  0.67503655  1
  N  N57  1  0.55070566  0.85639223  0.55303086  1
  N  N58  1  0.55070566  0.55303086  0.85639223  1
  N  N59  1  0.32503696  0.16195952  0.32520745  1
  N  N60  1  0.32503696  0.32520745  0.16195952  1
  N  N61  1  0.30161488  0.99222085  0.44643195  1
  N  N62  1  0.30161488  0.44643195  0.99222085  1
  N  N63  1  0.67181388  0.52182406  0.67233375  1
  N  N64  1  0.67181388  0.67233375  0.52182406  1
  N  N65  1  0.84766943  0.00005943  0.70081021  1
  N  N66  1  0.44992838  0.30249784  0.99767392  1
  N  N67  1  0.47876425  0.15028883  0.15028883  1
  N  N68  1  0.69577346  0.99851669  0.84683307  1
  N  N69  1  0.69600049  0.70072522  0.14729836  1
  N  N70  1  0.69600049  0.14729836  0.70072522  1
  N  N71  1  0.85540377  0.55043797  0.55043797  1
  N  N72  1  0.00005937  0.84918335  0.32915672  1
  N  N73  1  0.00005937  0.32915672  0.84918335  1
  N  N74  1  0.84766943  0.70081021  0.00005943  1
  N  N75  1  0.85474709  0.15378450  0.15378450  1
  N  N76  1  0.85694637  0.00260621  0.32508915  1
  N  N77  1  0.85694637  0.32508915  0.00260621  1
  N  N78  1  0.99952538  0.44982622  0.30453610  1
  O  O79  1  0.25012207  0.74854998  0.50087606  1
  O  O80  1  0.25012207  0.50087606  0.74854998  1
  O  O81  1  0.41964826  0.80925121  0.80925121  1
  O  O82  1  0.18885607  0.99782385  0.60994748  1
  O  O83  1  0.18885607  0.60994748  0.99782385  1
  O  O84  1  0.38742985  0.39667879  0.58110266  1
  O  O85  1  0.38742985  0.58110266  0.39667879  1
  O  O86  1  0.48520606  0.23995591  0.72977698  1
  O  O87  1  0.48520606  0.72977698  0.23995591  1
  O  O88  1  0.60864876  0.99681911  0.18073610  1
  O  O89  1  0.58135500  0.39084295  0.39084295  1
  O  O90  1  0.80913397  0.42269821  0.81701356  1
  O  O91  1  0.80913397  0.81701356  0.42269821  1
  O  O92  1  0.75615531  0.50840397  0.26691899  1
  O  O93  1  0.75615531  0.26691899  0.50840397  1
  O  O94  1  0.60864876  0.18073610  0.99681911  1
  O  O95  1  0.99738951  0.18629079  0.60925796  1
  O  O96  1  0.99738951  0.60925796  0.18629079  1
