# generated using pymatgen
data_Sr2AlGaSn2O7
_symmetry_space_group_name_H-M   'P 1'
_cell_length_a   5.75289800
_cell_length_b   6.58520377
_cell_length_c   12.19799930
_cell_angle_alpha   105.53447328
_cell_angle_beta   103.54403811
_cell_angle_gamma   89.88282780
_symmetry_Int_Tables_number   1
_chemical_formula_structural   Sr2AlGaSn2O7
_chemical_formula_sum   'Sr4 Al2 Ga2 Sn4 O14'
_cell_volume   431.93718560
_cell_formula_units_Z   2
loop_
 _symmetry_equiv_pos_site_id
 _symmetry_equiv_pos_as_xyz
  1  'x, y, z'
loop_
 _atom_site_type_symbol
 _atom_site_label
 _atom_site_symmetry_multiplicity
 _atom_site_fract_x
 _atom_site_fract_y
 _atom_site_fract_z
 _atom_site_occupancy
  Sr  Sr0  1  0.15176700  0.22858200  0.32159200  1
  Sr  Sr1  1  0.83156000  0.79319400  0.67463300  1
  Sr  Sr2  1  0.65908000  0.62075700  0.32697500  1
  Sr  Sr3  1  0.32921600  0.40593100  0.67894400  1
  Al  Al4  1  0.54300700  0.29601000  0.06492300  1
  Al  Al5  1  0.98139200  0.73108600  0.93838100  1
  Ga  Ga6  1  0.21040900  0.84690700  0.49912500  1
  Ga  Ga7  1  0.69964800  0.15686800  0.50059300  1
  Sn  Sn8  1  0.42840800  0.00002000  0.84896600  1
  Sn  Sn9  1  0.08381500  0.65289400  0.15755500  1
  Sn  Sn10  1  0.90143300  0.32533700  0.80742700  1
  Sn  Sn11  1  0.59784600  0.02178900  0.19431900  1
  O  O12  1  0.82979900  0.40768300  0.14448600  1
  O  O13  1  0.87262600  0.91343300  0.50082800  1
  O  O14  1  0.33623500  0.41926100  0.14098700  1
  O  O15  1  0.83087400  0.38741600  0.63552700  1
  O  O16  1  0.61216400  0.12420000  0.74743600  1
  O  O17  1  0.13344800  0.11780100  0.75279400  1
  O  O18  1  0.36682700  0.11261400  0.50024400  1
  O  O19  1  0.18981100  0.76185300  0.85769400  1
  O  O20  1  0.70010900  0.78498300  0.86345400  1
  O  O21  1  0.33030000  0.74275700  0.62860300  1
  O  O22  1  0.19570200  0.61765100  0.36543600  1
  O  O23  1  0.69924500  0.25499900  0.36662000  1
  O  O24  1  0.88300200  0.87020600  0.24995100  1
  O  O25  1  0.36872800  0.88095800  0.25417000  1
