# generated using pymatgen
data_MgMnSiO5
_symmetry_space_group_name_H-M   'P 1'
_cell_length_a   5.25349730
_cell_length_b   6.93213075
_cell_length_c   10.09050299
_cell_angle_alpha   73.19151252
_cell_angle_beta   94.44824546
_cell_angle_gamma   75.02720435
_symmetry_Int_Tables_number   1
_chemical_formula_structural   MgMnSiO5
_chemical_formula_sum   'Mg4 Mn4 Si4 O20'
_cell_volume   335.19386906
_cell_formula_units_Z   4
loop_
 _symmetry_equiv_pos_site_id
 _symmetry_equiv_pos_as_xyz
  1  'x, y, z'
loop_
 _atom_site_type_symbol
 _atom_site_label
 _atom_site_symmetry_multiplicity
 _atom_site_fract_x
 _atom_site_fract_y
 _atom_site_fract_z
 _atom_site_occupancy
  Mg  Mg0  1  0.50629900  0.90529800  0.33471800  1
  Mg  Mg1  1  0.00633300  0.40533600  0.83474900  1
  Mg  Mg2  1  0.49652200  0.07916900  0.66507700  1
  Mg  Mg3  1  0.99654700  0.57928500  0.16511100  1
  Mn  Mn4  1  0.00098900  0.99330700  0.50025200  1
  Mn  Mn5  1  0.50034500  0.99362500  0.00022300  1
  Mn  Mn6  1  0.50089200  0.49337100  0.00026200  1
  Mn  Mn7  1  0.00043900  0.49353500  0.50027700  1
  Si  Si8  1  0.48138900  0.58305400  0.66048100  1
  Si  Si9  1  0.98130800  0.08307600  0.16048100  1
  Si  Si10  1  0.51978500  0.40364800  0.34019400  1
  Si  Si11  1  0.01970800  0.90367700  0.84020400  1
  O  O12  1  0.13342600  0.19871500  0.54461900  1
  O  O13  1  0.63340600  0.69875800  0.04460500  1
  O  O14  1  0.86854100  0.78801000  0.45603500  1
  O  O15  1  0.36852900  0.28806000  0.95601900  1
  O  O16  1  0.25731600  0.45459100  0.66300300  1
  O  O17  1  0.75717300  0.95467800  0.16300400  1
  O  O18  1  0.37329100  0.82141300  0.54507000  1
  O  O19  1  0.87326600  0.32143500  0.04507300  1
  O  O20  1  0.74268500  0.53326100  0.33769000  1
  O  O21  1  0.24251200  0.03336700  0.83768500  1
  O  O22  1  0.62897400  0.16544300  0.45561200  1
  O  O23  1  0.12895700  0.66551000  0.95562300  1
  O  O24  1  0.42119800  0.38933700  0.18586600  1
  O  O25  1  0.92127800  0.88927900  0.68587100  1
  O  O26  1  0.73529300  0.04428700  0.86544600  1
  O  O27  1  0.23543700  0.54425200  0.36551300  1
  O  O28  1  0.58076000  0.59766600  0.81459600  1
  O  O29  1  0.08084900  0.09759500  0.31461700  1
  O  O30  1  0.26484600  0.94190100  0.13477400  1
  O  O31  1  0.76497300  0.44186800  0.63483500  1
