# generated using pymatgen
data_Li2FeSiO4
_symmetry_space_group_name_H-M   'P 1'
_cell_length_a   6.37568881
_cell_length_b   5.11710700
_cell_length_c   10.90160925
_cell_angle_alpha   90.00000000
_cell_angle_beta   88.34018393
_cell_angle_gamma   90.00000000
_symmetry_Int_Tables_number   1
_chemical_formula_structural   Li2FeSiO4
_chemical_formula_sum   'Li8 Fe4 Si4 O16'
_cell_volume   355.51666362
_cell_formula_units_Z   4
loop_
 _symmetry_equiv_pos_site_id
 _symmetry_equiv_pos_as_xyz
  1  'x, y, z'
loop_
 _atom_site_type_symbol
 _atom_site_label
 _atom_site_symmetry_multiplicity
 _atom_site_fract_x
 _atom_site_fract_y
 _atom_site_fract_z
 _atom_site_occupancy
  Li  Li0  1  0.00462700  0.20012300  0.83044100  1
  Li  Li1  1  0.00462700  0.29987700  0.33044100  1
  Li  Li2  1  0.21609500  0.30199700  0.57119400  1
  Li  Li3  1  0.21609500  0.19800300  0.07119400  1
  Li  Li4  1  0.78390500  0.80199700  0.92880600  1
  Li  Li5  1  0.78390500  0.69800300  0.42880600  1
  Li  Li6  1  0.99537300  0.70012300  0.66955900  1
  Li  Li7  1  0.99537300  0.79987700  0.16955900  1
  Fe  Fe8  1  0.50575800  0.20661700  0.84288200  1
  Fe  Fe9  1  0.49424200  0.70661700  0.65711800  1
  Fe  Fe10  1  0.50575800  0.29338300  0.34288200  1
  Fe  Fe11  1  0.49424200  0.79338300  0.15711800  1
  Si  Si12  1  0.24590200  0.69859900  0.91028400  1
  Si  Si13  1  0.24590200  0.80140100  0.41028400  1
  Si  Si14  1  0.75409800  0.19859900  0.58971600  1
  Si  Si15  1  0.75409800  0.30140100  0.08971600  1
  O  O16  1  0.04866100  0.81397000  0.83664700  1
  O  O17  1  0.04866100  0.68603000  0.33664700  1
  O  O18  1  0.24217000  0.37468700  0.91086400  1
  O  O19  1  0.24631800  0.69259000  0.55288600  1
  O  O20  1  0.24217000  0.12531300  0.41086400  1
  O  O21  1  0.47586000  0.78970300  0.84187800  1
  O  O22  1  0.24631800  0.80741000  0.05288600  1
  O  O23  1  0.47586000  0.71029700  0.34187800  1
  O  O24  1  0.52414000  0.28970300  0.65812200  1
  O  O25  1  0.75368200  0.19259000  0.94711400  1
  O  O26  1  0.52414000  0.21029700  0.15812200  1
  O  O27  1  0.75783000  0.87468700  0.58913600  1
  O  O28  1  0.75368200  0.30741000  0.44711400  1
  O  O29  1  0.75783000  0.62531300  0.08913600  1
  O  O30  1  0.95133900  0.31397000  0.66335300  1
  O  O31  1  0.95133900  0.18603000  0.16335300  1
