# generated using pymatgen
data_Al2Cr2O7
_symmetry_space_group_name_H-M   'P 1'
_cell_length_a   6.43874710
_cell_length_b   6.68509787
_cell_length_c   6.89196436
_cell_angle_alpha   62.12757122
_cell_angle_beta   61.27204067
_cell_angle_gamma   60.64562554
_symmetry_Int_Tables_number   1
_chemical_formula_structural   Al2Cr2O7
_chemical_formula_sum   'Al4 Cr4 O14'
_cell_volume   216.05286382
_cell_formula_units_Z   2
loop_
 _symmetry_equiv_pos_site_id
 _symmetry_equiv_pos_as_xyz
  1  'x, y, z'
loop_
 _atom_site_type_symbol
 _atom_site_label
 _atom_site_symmetry_multiplicity
 _atom_site_fract_x
 _atom_site_fract_y
 _atom_site_fract_z
 _atom_site_occupancy
  Al  Al0  1  0.50000000  0.00000000  0.50000000  1
  Al  Al1  1  0.00000000  0.50000000  0.50000000  1
  Al  Al2  1  0.50000000  0.50000000  0.00000000  1
  Al  Al3  1  0.50000000  0.50000000  0.50000000  1
  Cr  Cr4  1  0.00000000  0.50000000  0.00000000  1
  Cr  Cr5  1  0.50000000  0.00000000  0.00000000  1
  Cr  Cr6  1  0.00000000  0.00000000  0.50000000  1
  Cr  Cr7  1  0.00000000  0.00000000  0.00000000  1
  O  O8  1  0.62827400  0.57066600  0.67704500  1
  O  O9  1  0.37172600  0.42933400  0.32295500  1
  O  O10  1  0.22773600  0.95851300  0.09875100  1
  O  O11  1  0.12388900  0.60887100  0.65027700  1
  O  O12  1  0.83886700  0.30119200  0.01651500  1
  O  O13  1  0.85236800  0.87078700  0.35944100  1
  O  O14  1  0.33175500  0.31129800  0.01436000  1
  O  O15  1  0.42281400  0.87375300  0.35732200  1
  O  O16  1  0.87611100  0.39112900  0.34972300  1
  O  O17  1  0.66824500  0.68870200  0.98564000  1
  O  O18  1  0.14763200  0.12921300  0.64055900  1
  O  O19  1  0.77226400  0.04148700  0.90124900  1
  O  O20  1  0.57718600  0.12624700  0.64267800  1
  O  O21  1  0.16113300  0.69880800  0.98348500  1
