# generated using pymatgen
data_Be3V2(SiO4)3
_symmetry_space_group_name_H-M   'P 1'
_cell_length_a   7.55190800
_cell_length_b   8.05181200
_cell_length_c   15.93215832
_cell_angle_alpha   60.07668986
_cell_angle_beta   90.00000000
_cell_angle_gamma   90.00000000
_symmetry_Int_Tables_number   1
_chemical_formula_structural   Be3V2(SiO4)3
_chemical_formula_sum   'Be12 V8 Si12 O48'
_cell_volume   839.63523725
_cell_formula_units_Z   4
loop_
 _symmetry_equiv_pos_site_id
 _symmetry_equiv_pos_as_xyz
  1  'x, y, z'
loop_
 _atom_site_type_symbol
 _atom_site_label
 _atom_site_symmetry_multiplicity
 _atom_site_fract_x
 _atom_site_fract_y
 _atom_site_fract_z
 _atom_site_occupancy
  Be  Be0  1  0.85028700  0.80803200  0.76569600  1
  Be  Be1  1  0.65368400  0.16769100  0.40244700  1
  Be  Be2  1  0.15368400  0.83230900  0.09755300  1
  Be  Be3  1  0.34631600  0.83230900  0.59755300  1
  Be  Be4  1  0.84631600  0.16769100  0.90244700  1
  Be  Be5  1  0.14940300  0.46998400  0.41546100  1
  Be  Be6  1  0.64940300  0.53001600  0.08453900  1
  Be  Be7  1  0.85059700  0.53001600  0.58453900  1
  Be  Be8  1  0.35059700  0.46998400  0.91546100  1
  Be  Be9  1  0.64971300  0.80803200  0.26569600  1
  Be  Be10  1  0.14971300  0.19196800  0.23430400  1
  Be  Be11  1  0.35028700  0.19196800  0.73430400  1
  V  V12  1  0.45602800  0.16722100  0.09176700  1
  V  V13  1  0.04397200  0.16722100  0.59176700  1
  V  V14  1  0.54397200  0.83277900  0.90823300  1
  V  V15  1  0.95602800  0.83277900  0.40823300  1
  V  V16  1  0.56013700  0.82094900  0.42976100  1
  V  V17  1  0.06013700  0.17905100  0.07023900  1
  V  V18  1  0.43986300  0.17905100  0.57023900  1
  V  V19  1  0.93986300  0.82094900  0.92976100  1
  Si  Si20  1  0.22994800  0.80771400  0.76562200  1
  Si  Si21  1  0.72994800  0.19228600  0.73437800  1
  Si  Si22  1  0.77005200  0.19228600  0.23437800  1
  Si  Si23  1  0.27005200  0.80771400  0.26562200  1
  Si  Si24  1  0.73264300  0.46644500  0.91853500  1
  Si  Si25  1  0.23264300  0.53355500  0.58146500  1
  Si  Si26  1  0.26735700  0.53355500  0.08146500  1
  Si  Si27  1  0.76735700  0.46644500  0.41853500  1
  Si  Si28  1  0.23483400  0.15717200  0.90220800  1
  Si  Si29  1  0.73483400  0.84282800  0.59779200  1
  Si  Si30  1  0.76516600  0.84282800  0.09779200  1
  Si  Si31  1  0.26516600  0.15717200  0.40220800  1
  O  O32  1  0.12297200  0.71294400  0.03713000  1
  O  O33  1  0.04117400  0.78470600  0.82308800  1
  O  O34  1  0.54117400  0.21529400  0.67691200  1
  O  O35  1  0.95882600  0.21529400  0.17691200  1
  O  O36  1  0.45882600  0.78470600  0.32308800  1
  O  O37  1  0.53954500  0.35783300  0.95762600  1
  O  O38  1  0.03954500  0.64216700  0.54237400  1
  O  O39  1  0.46045500  0.64216700  0.04237400  1
  O  O40  1  0.96045500  0.35783300  0.45762600  1
  O  O41  1  0.03712900  0.08249000  0.89015700  1
  O  O42  1  0.53712900  0.91751000  0.60984300  1
  O  O43  1  0.96287100  0.91751000  0.10984300  1
  O  O44  1  0.12474800  0.06699000  0.35412800  1
  O  O45  1  0.62474800  0.93301000  0.14587200  1
  O  O46  1  0.87525200  0.93301000  0.64587200  1
  O  O47  1  0.37525200  0.06699000  0.85412800  1
  O  O48  1  0.62297200  0.28705600  0.46287000  1
  O  O49  1  0.46287100  0.08249000  0.39015700  1
  O  O50  1  0.37702800  0.71294400  0.53713000  1
  O  O51  1  0.87702800  0.28705600  0.96287000  1
  O  O52  1  0.76133300  0.94809200  0.47514600  1
  O  O53  1  0.62088600  0.28851900  0.14484900  1
  O  O54  1  0.87911400  0.28851900  0.64484900  1
  O  O55  1  0.37911400  0.71148100  0.85515100  1
  O  O56  1  0.73678400  0.26867200  0.80868500  1
  O  O57  1  0.23678400  0.73132800  0.69131500  1
  O  O58  1  0.26321600  0.73132800  0.19131500  1
  O  O59  1  0.76321600  0.26867200  0.30868500  1
  O  O60  1  0.74519000  0.62105400  0.80690600  1
  O  O61  1  0.24519000  0.37894600  0.69309400  1
  O  O62  1  0.25481000  0.37894600  0.19309400  1
  O  O63  1  0.75481000  0.62105400  0.30690600  1
  O  O64  1  0.24000100  0.37937300  0.86803600  1
  O  O65  1  0.74000100  0.62062700  0.63196400  1
  O  O66  1  0.75999900  0.62062700  0.13196400  1
  O  O67  1  0.25999900  0.37937300  0.36803600  1
  O  O68  1  0.74894500  0.94920000  0.80550700  1
  O  O69  1  0.24894500  0.05080000  0.69449300  1
  O  O70  1  0.25105500  0.05080000  0.19449300  1
  O  O71  1  0.75105500  0.94920000  0.30550700  1
  O  O72  1  0.75177300  0.59955200  0.97404900  1
  O  O73  1  0.25177300  0.40044800  0.52595100  1
  O  O74  1  0.24822700  0.40044800  0.02595100  1
  O  O75  1  0.74822700  0.59955200  0.47404900  1
  O  O76  1  0.73866700  0.94809200  0.97514600  1
  O  O77  1  0.23866700  0.05190800  0.52485400  1
  O  O78  1  0.26133300  0.05190800  0.02485400  1
  O  O79  1  0.12088600  0.71148100  0.35515100  1
