# generated using pymatgen
data_Al4(BiSe4)3
_symmetry_space_group_name_H-M   'P 1'
_cell_length_a   7.73923209
_cell_length_b   7.73923209
_cell_length_c   38.72399400
_cell_angle_alpha   90.00000000
_cell_angle_beta   90.00000000
_cell_angle_gamma   90.55847358
_symmetry_Int_Tables_number   1
_chemical_formula_structural   Al4(BiSe4)3
_chemical_formula_sum   'Al16 Bi12 Se48'
_cell_volume   2319.29106318
_cell_formula_units_Z   4
loop_
 _symmetry_equiv_pos_site_id
 _symmetry_equiv_pos_as_xyz
  1  'x, y, z'
loop_
 _atom_site_type_symbol
 _atom_site_label
 _atom_site_symmetry_multiplicity
 _atom_site_fract_x
 _atom_site_fract_y
 _atom_site_fract_z
 _atom_site_occupancy
  Al  Al0  1  0.00000000  0.50000000  0.24329200  1
  Al  Al1  1  0.00000000  0.50000000  0.91459800  1
  Al  Al2  1  0.00000000  0.50000000  0.66348900  1
  Al  Al3  1  0.00000000  0.50000000  0.99458200  1
  Al  Al4  1  0.00000000  0.50000000  0.41459800  1
  Al  Al5  1  0.00000000  0.50000000  0.74329200  1
  Al  Al6  1  0.50000000  0.00000000  0.50541800  1
  Al  Al7  1  0.50000000  0.00000000  0.83651100  1
  Al  Al8  1  0.50000000  0.00000000  0.75670800  1
  Al  Al9  1  0.50000000  0.00000000  0.08540200  1
  Al  Al10  1  0.50000000  0.00000000  0.25670800  1
  Al  Al11  1  0.50000000  0.00000000  0.58540200  1
  Al  Al12  1  0.00000000  0.50000000  0.49458200  1
  Al  Al13  1  0.00000000  0.50000000  0.16348900  1
  Al  Al14  1  0.50000000  0.00000000  0.33651100  1
  Al  Al15  1  0.50000000  0.00000000  0.00541800  1
  Bi  Bi16  1  0.00000000  0.00000000  0.29249700  1
  Bi  Bi17  1  0.00000000  0.00000000  0.62613300  1
  Bi  Bi18  1  0.00000000  0.00000000  0.95867900  1
  Bi  Bi19  1  0.50000000  0.50000000  0.54132100  1
  Bi  Bi20  1  0.50000000  0.50000000  0.87386700  1
  Bi  Bi21  1  0.50000000  0.50000000  0.20750300  1
  Bi  Bi22  1  0.50000000  0.50000000  0.45867900  1
  Bi  Bi23  1  0.50000000  0.50000000  0.79249700  1
  Bi  Bi24  1  0.50000000  0.50000000  0.12613300  1
  Bi  Bi25  1  0.00000000  0.00000000  0.37386700  1
  Bi  Bi26  1  0.00000000  0.00000000  0.70750300  1
  Bi  Bi27  1  0.00000000  0.00000000  0.04132100  1
  Se  Se28  1  0.33978100  0.17949900  0.29497100  1
  Se  Se29  1  0.34650600  0.16978400  0.62534200  1
  Se  Se30  1  0.32220500  0.20893900  0.97290200  1
  Se  Se31  1  0.29106100  0.17779500  0.47290200  1
  Se  Se32  1  0.32050100  0.16021900  0.79497100  1
  Se  Se33  1  0.33021600  0.15349400  0.12534200  1
  Se  Se34  1  0.83559300  0.32050700  0.45636200  1
  Se  Se35  1  0.81944800  0.29411600  0.77693500  1
  Se  Se36  1  0.83968500  0.32929600  0.12429300  1
  Se  Se37  1  0.66021900  0.82050100  0.29497100  1
  Se  Se38  1  0.65349400  0.83021600  0.62534200  1
  Se  Se39  1  0.67779500  0.79106100  0.97290200  1
  Se  Se40  1  0.32050700  0.83559300  0.54363800  1
  Se  Se41  1  0.32929600  0.83968500  0.87570700  1
  Se  Se42  1  0.29411600  0.81944800  0.22306500  1
  Se  Se43  1  0.16978400  0.34650600  0.37465800  1
  Se  Se44  1  0.17949900  0.33978100  0.70502900  1
  Se  Se45  1  0.20893900  0.32220500  0.02709800  1
  Se  Se46  1  0.33968500  0.82929600  0.37570700  1
  Se  Se47  1  0.31944800  0.79411600  0.72306500  1
  Se  Se48  1  0.33559300  0.82050700  0.04363800  1
  Se  Se49  1  0.79411600  0.31944800  0.27693500  1
  Se  Se50  1  0.82929600  0.33968500  0.62429300  1
  Se  Se51  1  0.82050700  0.33559300  0.95636200  1
  Se  Se52  1  0.83021600  0.65349400  0.37465800  1
  Se  Se53  1  0.82050100  0.66021900  0.70502900  1
  Se  Se54  1  0.79106100  0.67779500  0.02709800  1
  Se  Se55  1  0.67949300  0.16440700  0.54363800  1
  Se  Se56  1  0.67070400  0.16031500  0.87570700  1
  Se  Se57  1  0.70588400  0.18055200  0.22306500  1
  Se  Se58  1  0.20588400  0.68055200  0.27693500  1
  Se  Se59  1  0.17070400  0.66031500  0.62429300  1
  Se  Se60  1  0.17949300  0.66440700  0.95636200  1
  Se  Se61  1  0.70893900  0.82220500  0.47290200  1
  Se  Se62  1  0.67949900  0.83978100  0.79497100  1
  Se  Se63  1  0.66978400  0.84650600  0.12534200  1
  Se  Se64  1  0.16440700  0.67949300  0.45636200  1
  Se  Se65  1  0.18055200  0.70588400  0.77693500  1
  Se  Se66  1  0.16031500  0.67070400  0.12429300  1
  Se  Se67  1  0.82220500  0.70893900  0.52709800  1
  Se  Se68  1  0.84650600  0.66978400  0.87465800  1
  Se  Se69  1  0.83978100  0.67949900  0.20502900  1
  Se  Se70  1  0.17779500  0.29106100  0.52709800  1
  Se  Se71  1  0.15349400  0.33021600  0.87465800  1
  Se  Se72  1  0.16021900  0.32050100  0.20502900  1
  Se  Se73  1  0.66031500  0.17070400  0.37570700  1
  Se  Se74  1  0.68055200  0.20588400  0.72306500  1
  Se  Se75  1  0.66440700  0.17949300  0.04363800  1
