data_image0
_chemical_formula_structural       Ge4Sm2
_chemical_formula_sum              "Ge4 Sm2"
_cell_length_a       4.12785
_cell_length_b       4.12785
_cell_length_c       8.47212
_cell_angle_alpha    104.1
_cell_angle_beta     104.1
_cell_angle_gamma    90

_space_group_name_H-M_alt    "P 1"
_space_group_IT_number       1

loop_
  _space_group_symop_operation_xyz
  'x, y, z'

loop_
  _atom_site_type_symbol
  _atom_site_label
  _atom_site_symmetry_multiplicity
  _atom_site_fract_x
  _atom_site_fract_y
  _atom_site_fract_z
  _atom_site_occupancy
  Ge  Ge1       1.0  0.58000  0.58000  0.16000  1.0000
  Ge  Ge2       1.0  0.67000  0.17000  0.34000  1.0000
  Ge  Ge3       1.0  0.83000  0.33000  0.66000  1.0000
  Ge  Ge4       1.0  0.42000  0.42000  0.84000  1.0000
  Sm  Sm1       1.0  0.00000  0.00000  0.00000  1.0000
  Sm  Sm2       1.0  0.25000  0.75000  0.50000  1.0000
