# generated using pymatgen
data_Ca2AlWO5
_symmetry_space_group_name_H-M   'P 1'
_cell_length_a   8.26908255
_cell_length_b   8.26908255
_cell_length_c   8.26908255
_cell_angle_alpha   140.86366996
_cell_angle_beta   136.92060151
_cell_angle_gamma   59.59863827
_symmetry_Int_Tables_number   1
_chemical_formula_structural   Ca2AlWO5
_chemical_formula_sum   'Ca4 Al2 W2 O10'
_cell_volume   241.33895583
_cell_formula_units_Z   2
loop_
 _symmetry_equiv_pos_site_id
 _symmetry_equiv_pos_as_xyz
  1  'x, y, z'
loop_
 _atom_site_type_symbol
 _atom_site_label
 _atom_site_symmetry_multiplicity
 _atom_site_fract_x
 _atom_site_fract_y
 _atom_site_fract_z
 _atom_site_occupancy
  Ca  Ca0  1  0.93466500  0.89874100  0.05586700  1
  Ca  Ca1  1  0.65712600  0.62120200  0.05586700  1
  Ca  Ca2  1  0.06533500  0.12120200  0.96407600  1
  Ca  Ca3  1  0.34287400  0.39874100  0.96407600  1
  Al  Al4  1  0.33628900  0.79191800  0.62820600  1
  Al  Al5  1  0.66371100  0.29191800  0.45562900  1
  W  W6  1  0.00000000  0.49650300  0.49650300  1
  W  W7  1  0.50000000  0.99650300  0.49650300  1
  O  O8  1  0.40550200  0.11855100  0.02405300  1
  O  O9  1  0.59449800  0.61855100  0.71304900  1
  O  O10  1  0.92245500  0.32375500  0.54781200  1
  O  O11  1  0.07754500  0.62535700  0.40130000  1
  O  O12  1  0.27594300  0.82375500  0.40130000  1
  O  O13  1  0.72405700  0.12535700  0.54781200  1
  O  O14  1  0.26609500  0.26326400  0.49992700  1
  O  O15  1  0.73390500  0.23383200  0.99716900  1
  O  O16  1  0.73666300  0.73383200  0.49992700  1
  O  O17  1  0.26333700  0.76326400  0.99716900  1
