# generated using pymatgen
data_ZnSi2NiO6
_symmetry_space_group_name_H-M   'P 1'
_cell_length_a   5.28289300
_cell_length_b   9.10574800
_cell_length_c   18.52110600
_cell_angle_alpha   90.00000000
_cell_angle_beta   90.00000000
_cell_angle_gamma   90.00000000
_symmetry_Int_Tables_number   1
_chemical_formula_structural   ZnSi2NiO6
_chemical_formula_sum   'Zn8 Si16 Ni8 O48'
_cell_volume   890.95210646
_cell_formula_units_Z   8
loop_
 _symmetry_equiv_pos_site_id
 _symmetry_equiv_pos_as_xyz
  1  'x, y, z'
loop_
 _atom_site_type_symbol
 _atom_site_label
 _atom_site_symmetry_multiplicity
 _atom_site_fract_x
 _atom_site_fract_y
 _atom_site_fract_z
 _atom_site_occupancy
  Zn  Zn0  1  0.61871500  0.14813300  0.37617100  1
  Zn  Zn1  1  0.38128500  0.85186700  0.62382900  1
  Zn  Zn2  1  0.61871500  0.64813300  0.12382900  1
  Zn  Zn3  1  0.11871500  0.85186700  0.12382900  1
  Zn  Zn4  1  0.88128500  0.14813300  0.87617100  1
  Zn  Zn5  1  0.38128500  0.35186700  0.87617100  1
  Zn  Zn6  1  0.11871500  0.35186700  0.37617100  1
  Zn  Zn7  1  0.88128500  0.64813300  0.62382900  1
  Si  Si8  1  0.56547100  0.65958000  0.77245600  1
  Si  Si9  1  0.71637200  0.83642700  0.47409600  1
  Si  Si10  1  0.78362800  0.83642700  0.97409600  1
  Si  Si11  1  0.93452900  0.15958000  0.22754400  1
  Si  Si12  1  0.06547100  0.34042000  0.72754400  1
  Si  Si13  1  0.43452900  0.84042000  0.27245600  1
  Si  Si14  1  0.21637200  0.66357300  0.47409600  1
  Si  Si15  1  0.71637200  0.33642700  0.02590400  1
  Si  Si16  1  0.78362800  0.33642700  0.52590400  1
  Si  Si17  1  0.93452900  0.65958000  0.27245600  1
  Si  Si18  1  0.43452900  0.34042000  0.22754400  1
  Si  Si19  1  0.56547100  0.15958000  0.72754400  1
  Si  Si20  1  0.28362800  0.16357300  0.52590400  1
  Si  Si21  1  0.06547100  0.84042000  0.77245600  1
  Si  Si22  1  0.28362800  0.66357300  0.97409600  1
  Si  Si23  1  0.21637200  0.16357300  0.02590400  1
  Ni  Ni24  1  0.37625200  0.99850800  0.87576500  1
  Ni  Ni25  1  0.62374800  0.00149200  0.12423500  1
  Ni  Ni26  1  0.87625200  0.00149200  0.62423500  1
  Ni  Ni27  1  0.12374800  0.99850800  0.37576500  1
  Ni  Ni28  1  0.37625200  0.49850800  0.62423500  1
  Ni  Ni29  1  0.62374800  0.50149200  0.37576500  1
  Ni  Ni30  1  0.87625200  0.50149200  0.87576500  1
  Ni  Ni31  1  0.12374800  0.49850800  0.12423500  1
  O  O32  1  0.92783700  0.50125900  0.31184300  1
  O  O33  1  0.30725800  0.01625400  0.06698800  1
  O  O34  1  0.07216300  0.49874100  0.68815700  1
  O  O35  1  0.71436900  0.34225000  0.93674200  1
  O  O36  1  0.21436900  0.15775000  0.93674200  1
  O  O37  1  0.92064500  0.20522300  0.05043400  1
  O  O38  1  0.94728100  0.65729200  0.18374800  1
  O  O39  1  0.05271900  0.84270800  0.68374800  1
  O  O40  1  0.71436900  0.84225000  0.56325800  1
  O  O41  1  0.94728100  0.15729200  0.31625200  1
  O  O42  1  0.42783700  0.49874100  0.18815700  1
  O  O43  1  0.78563100  0.34225000  0.43674200  1
  O  O44  1  0.69274200  0.98374600  0.93301200  1
  O  O45  1  0.44728100  0.84270800  0.18374800  1
  O  O46  1  0.57216300  0.00125900  0.68815700  1
  O  O47  1  0.30725800  0.51625400  0.43301200  1
  O  O48  1  0.42783700  0.99874100  0.31184300  1
  O  O49  1  0.16458100  0.76711000  0.30139100  1
  O  O50  1  0.33541900  0.76711000  0.80139100  1
  O  O51  1  0.57935500  0.70522300  0.94956600  1
  O  O52  1  0.78563100  0.84225000  0.06325800  1
  O  O53  1  0.55271900  0.65729200  0.68374800  1
  O  O54  1  0.80725800  0.48374600  0.06698800  1
  O  O55  1  0.16458100  0.26711000  0.19860900  1
  O  O56  1  0.28563100  0.15775000  0.43674200  1
  O  O57  1  0.55271900  0.15729200  0.81625200  1
  O  O58  1  0.69274200  0.48374600  0.56698800  1
  O  O59  1  0.21436900  0.65775000  0.56325800  1
  O  O60  1  0.19274200  0.51625400  0.93301200  1
  O  O61  1  0.66458100  0.73289000  0.30139100  1
  O  O62  1  0.07216300  0.99874100  0.81184300  1
  O  O63  1  0.83541900  0.73289000  0.80139100  1
  O  O64  1  0.83541900  0.23289000  0.69860900  1
  O  O65  1  0.80725800  0.98374600  0.43301200  1
  O  O66  1  0.28563100  0.65775000  0.06325800  1
  O  O67  1  0.19274200  0.01625400  0.56698800  1
  O  O68  1  0.33541900  0.26711000  0.69860900  1
  O  O69  1  0.07935500  0.79477700  0.94956600  1
  O  O70  1  0.42064500  0.79477700  0.44956600  1
  O  O71  1  0.66458100  0.23289000  0.19860900  1
  O  O72  1  0.42064500  0.29477700  0.05043400  1
  O  O73  1  0.57935500  0.20522300  0.55043400  1
  O  O74  1  0.07935500  0.29477700  0.55043400  1
  O  O75  1  0.44728100  0.34270800  0.31625200  1
  O  O76  1  0.57216300  0.50125900  0.81184300  1
  O  O77  1  0.92064500  0.70522300  0.44956600  1
  O  O78  1  0.05271900  0.34270800  0.81625200  1
  O  O79  1  0.92783700  0.00125900  0.18815700  1
