# generated using pymatgen
data_NaCaGaSi2O7
_symmetry_space_group_name_H-M   'P 1'
_cell_length_a   7.22818400
_cell_length_b   10.55486300
_cell_length_c   9.46854900
_cell_angle_alpha   90.00000000
_cell_angle_beta   90.00000000
_cell_angle_gamma   90.00000000
_symmetry_Int_Tables_number   1
_chemical_formula_structural   NaCaGaSi2O7
_chemical_formula_sum   'Na4 Ca4 Ga4 Si8 O28'
_cell_volume   722.37919750
_cell_formula_units_Z   4
loop_
 _symmetry_equiv_pos_site_id
 _symmetry_equiv_pos_as_xyz
  1  'x, y, z'
loop_
 _atom_site_type_symbol
 _atom_site_label
 _atom_site_symmetry_multiplicity
 _atom_site_fract_x
 _atom_site_fract_y
 _atom_site_fract_z
 _atom_site_occupancy
  Na  Na0  1  0.39269300  0.68115300  0.76339900  1
  Na  Na1  1  0.10730700  0.81884700  0.26339900  1
  Na  Na2  1  0.89269300  0.31884700  0.23660100  1
  Na  Na3  1  0.60730700  0.18115300  0.73660100  1
  Ca  Ca4  1  0.47102600  0.23009200  0.13850100  1
  Ca  Ca5  1  0.02897400  0.26990800  0.63850100  1
  Ca  Ca6  1  0.97102600  0.76990800  0.86149900  1
  Ca  Ca7  1  0.52897400  0.73009200  0.36149900  1
  Ga  Ga8  1  0.89888300  0.02119700  0.10907700  1
  Ga  Ga9  1  0.10111700  0.52119700  0.39092300  1
  Ga  Ga10  1  0.39888300  0.97880300  0.89092300  1
  Ga  Ga11  1  0.60111700  0.47880300  0.60907700  1
  Si  Si12  1  0.67375800  0.10197600  0.41095700  1
  Si  Si13  1  0.73124400  0.89093500  0.61425400  1
  Si  Si14  1  0.82624200  0.39802400  0.91095700  1
  Si  Si15  1  0.76875600  0.60906500  0.11425400  1
  Si  Si16  1  0.23124400  0.10906500  0.38574600  1
  Si  Si17  1  0.17375800  0.89802400  0.58904300  1
  Si  Si18  1  0.26875600  0.39093500  0.88574600  1
  Si  Si19  1  0.32624200  0.60197600  0.08904300  1
  O  O20  1  0.16640100  0.05122300  0.54071300  1
  O  O21  1  0.17129900  0.03846800  0.24409900  1
  O  O22  1  0.27732900  0.81763400  0.46984300  1
  O  O23  1  0.29132800  0.16425300  0.78521100  1
  O  O24  1  0.13491500  0.25455100  0.40307900  1
  O  O25  1  0.04724300  0.35569600  0.89020100  1
  O  O26  1  0.25534600  0.62255300  0.25120100  1
  O  O27  1  0.45275700  0.14430400  0.39020100  1
  O  O28  1  0.24465400  0.87744700  0.75120100  1
  O  O29  1  0.22267100  0.68236600  0.96984300  1
  O  O30  1  0.20867200  0.33574700  0.28521100  1
  O  O31  1  0.32870100  0.46153200  0.74409900  1
  O  O32  1  0.36508500  0.24544900  0.90307900  1
  O  O33  1  0.33359900  0.44877700  0.04071300  1
  O  O34  1  0.66640100  0.94877700  0.45928700  1
  O  O35  1  0.67129900  0.96153200  0.75590100  1
  O  O36  1  0.63491500  0.74544900  0.59692100  1
  O  O37  1  0.79132800  0.83574700  0.21478900  1
  O  O38  1  0.77732900  0.18236600  0.53015700  1
  O  O39  1  0.75534600  0.37744700  0.74879900  1
  O  O40  1  0.54724300  0.64430400  0.10979900  1
  O  O41  1  0.74465400  0.12255300  0.24879900  1
  O  O42  1  0.95275700  0.85569600  0.60979900  1
  O  O43  1  0.86508500  0.75455100  0.09692100  1
  O  O44  1  0.82870100  0.53846800  0.25590100  1
  O  O45  1  0.70867200  0.66425300  0.71478900  1
  O  O46  1  0.72267100  0.31763400  0.03015700  1
  O  O47  1  0.83359900  0.55122300  0.95928700  1
