# generated using pymatgen
data_Ca3(CoO3)2
_symmetry_space_group_name_H-M   'P 1'
_cell_length_a   6.34989867
_cell_length_b   6.40136072
_cell_length_c   6.37185999
_cell_angle_alpha   92.09264976
_cell_angle_beta   92.23790183
_cell_angle_gamma   91.89351465
_symmetry_Int_Tables_number   1
_chemical_formula_structural   Ca3(CoO3)2
_chemical_formula_sum   'Ca6 Co4 O12'
_cell_volume   258.47905233
_cell_formula_units_Z   2
loop_
 _symmetry_equiv_pos_site_id
 _symmetry_equiv_pos_as_xyz
  1  'x, y, z'
loop_
 _atom_site_type_symbol
 _atom_site_label
 _atom_site_symmetry_multiplicity
 _atom_site_fract_x
 _atom_site_fract_y
 _atom_site_fract_z
 _atom_site_occupancy
  Ca  Ca0  1  0.61748800  0.88172400  0.25157900  1
  Ca  Ca1  1  0.24728100  0.61478000  0.88478700  1
  Ca  Ca2  1  0.88446700  0.25601300  0.61573500  1
  Ca  Ca3  1  0.38350000  0.11692000  0.74861100  1
  Ca  Ca4  1  0.11494400  0.74455100  0.38365000  1
  Ca  Ca5  1  0.75258700  0.38636300  0.11432400  1
  Co  Co6  1  0.74382000  0.75315300  0.75167400  1
  Co  Co7  1  0.00094600  0.00282100  0.00049800  1
  Co  Co8  1  0.49840700  0.49828600  0.49874200  1
  Co  Co9  1  0.25658300  0.24528100  0.24863200  1
  O  O10  1  0.78386600  0.57976200  0.45532600  1
  O  O11  1  0.58317500  0.45541300  0.78415300  1
  O  O12  1  0.45590000  0.78505800  0.58102800  1
  O  O13  1  0.04287100  0.91495400  0.71492900  1
  O  O14  1  0.91299100  0.70717000  0.04910000  1
  O  O15  1  0.71245600  0.04527200  0.91703400  1
  O  O16  1  0.21463700  0.41944600  0.54506100  1
  O  O17  1  0.41560200  0.54327600  0.21434000  1
  O  O18  1  0.54390600  0.21310600  0.41842300  1
  O  O19  1  0.95825800  0.08648100  0.28704000  1
  O  O20  1  0.28953200  0.95511700  0.08496200  1
  O  O21  1  0.08678400  0.29505300  0.95037300  1
