# generated using pymatgen
data_Ca(FeO2)2
_symmetry_space_group_name_H-M   'P 1'
_cell_length_a   5.21268520
_cell_length_b   6.02194406
_cell_length_c   11.20186101
_cell_angle_alpha   90.00340361
_cell_angle_beta   89.99342121
_cell_angle_gamma   90.02175977
_symmetry_Int_Tables_number   1
_chemical_formula_structural   Ca(FeO2)2
_chemical_formula_sum   'Ca4 Fe8 O16'
_cell_volume   351.63197475
_cell_formula_units_Z   4
loop_
 _symmetry_equiv_pos_site_id
 _symmetry_equiv_pos_as_xyz
  1  'x, y, z'
loop_
 _atom_site_type_symbol
 _atom_site_label
 _atom_site_symmetry_multiplicity
 _atom_site_fract_x
 _atom_site_fract_y
 _atom_site_fract_z
 _atom_site_occupancy
  Ca  Ca0  1  0.85517500  0.24960600  0.75004900  1
  Ca  Ca1  1  0.14481600  0.75040900  0.24995900  1
  Ca  Ca2  1  0.53422300  0.25102200  0.25004300  1
  Ca  Ca3  1  0.46575300  0.74866400  0.74994800  1
  Fe  Fe4  1  0.49501900  0.25066200  0.51520000  1
  Fe  Fe5  1  0.49500000  0.25069200  0.98493200  1
  Fe  Fe6  1  0.99972000  0.50038800  0.49976000  1
  Fe  Fe7  1  0.99973100  0.50042500  0.00023500  1
  Fe  Fe8  1  0.50498200  0.75100900  0.48479800  1
  Fe  Fe9  1  0.50501900  0.75101700  0.01505400  1
  Fe  Fe10  1  0.00028900  0.00042300  0.99976600  1
  Fe  Fe11  1  0.00027300  0.00039300  0.50024300  1
  O  O12  1  0.84237900  0.74918800  0.40237700  1
  O  O13  1  0.84231100  0.74930000  0.09761600  1
  O  O14  1  0.15759800  0.24936900  0.59764600  1
  O  O15  1  0.15768600  0.24932400  0.90237900  1
  O  O16  1  0.18214900  0.74956700  0.58891300  1
  O  O17  1  0.18209300  0.74954400  0.91100700  1
  O  O18  1  0.81784900  0.24951400  0.41108500  1
  O  O19  1  0.81791500  0.24959400  0.08898700  1
  O  O20  1  0.66486700  0.50222300  0.60412700  1
  O  O21  1  0.66511900  0.99720600  0.89636200  1
  O  O22  1  0.33513300  0.00284700  0.39593700  1
  O  O23  1  0.33490400  0.49770800  0.10364100  1
  O  O24  1  0.33489500  0.49772200  0.39630400  1
  O  O25  1  0.33512400  0.00277700  0.10405000  1
  O  O26  1  0.66509000  0.99711800  0.60365200  1
  O  O27  1  0.66488600  0.50228700  0.89593000  1
