# generated using pymatgen
data_SrCoO3
_symmetry_space_group_name_H-M   'P 1'
_cell_length_a   3.87545268
_cell_length_b   3.89716860
_cell_length_c   15.37347411
_cell_angle_alpha   89.95853369
_cell_angle_beta   90.04075786
_cell_angle_gamma   89.56967037
_symmetry_Int_Tables_number   1
_chemical_formula_structural   SrCoO3
_chemical_formula_sum   'Sr4 Co4 O12'
_cell_volume   232.18340686
_cell_formula_units_Z   4
loop_
 _symmetry_equiv_pos_site_id
 _symmetry_equiv_pos_as_xyz
  1  'x, y, z'
loop_
 _atom_site_type_symbol
 _atom_site_label
 _atom_site_symmetry_multiplicity
 _atom_site_fract_x
 _atom_site_fract_y
 _atom_site_fract_z
 _atom_site_occupancy
  Sr  Sr0  1  0.50064200  0.49956000  0.12225400  1
  Sr  Sr1  1  0.49962000  0.50020200  0.37732700  1
  Sr  Sr2  1  0.49996900  0.50042600  0.62272800  1
  Sr  Sr3  1  0.49988900  0.49984300  0.87744500  1
  Co  Co4  1  0.99948100  0.00034900  0.49951000  1
  Co  Co5  1  0.00011800  0.00016700  0.74970000  1
  Co  Co6  1  0.99991200  0.99972800  0.99930000  1
  Co  Co7  1  0.00132900  0.99927100  0.24967000  1
  O  O8  1  0.00109500  0.99926100  0.12063400  1
  O  O9  1  0.99883900  0.00142600  0.37955000  1
  O  O10  1  0.00027600  0.00081400  0.62083200  1
  O  O11  1  0.99911500  0.99839000  0.87963100  1
  O  O12  1  0.99993600  0.49919100  0.00017300  1
  O  O13  1  0.99999800  0.50016600  0.24984100  1
  O  O14  1  0.99996400  0.50071300  0.50079600  1
  O  O15  1  0.00016000  0.50010500  0.74994200  1
  O  O16  1  0.50006000  0.00005300  0.00065200  1
  O  O17  1  0.49994300  0.00002900  0.24953000  1
  O  O18  1  0.49966400  0.99997700  0.50051900  1
  O  O19  1  0.49999200  0.00032700  0.74996400  1
