# generated using pymatgen
data_LaMnO3
_symmetry_space_group_name_H-M   'P 1'
_cell_length_a   5.55081100
_cell_length_b   5.71415600
_cell_length_c   7.88248100
_cell_angle_alpha   90.00002457
_cell_angle_beta   89.99990478
_cell_angle_gamma   90.00283530
_symmetry_Int_Tables_number   1
_chemical_formula_structural   LaMnO3
_chemical_formula_sum   'La4 Mn4 O12'
_cell_volume   250.01810855
_cell_formula_units_Z   4
loop_
 _symmetry_equiv_pos_site_id
 _symmetry_equiv_pos_as_xyz
  1  'x, y, z'
loop_
 _atom_site_type_symbol
 _atom_site_label
 _atom_site_symmetry_multiplicity
 _atom_site_fract_x
 _atom_site_fract_y
 _atom_site_fract_z
 _atom_site_occupancy
  La  La0  1  0.49999900  0.00000200  0.25002000  1
  La  La1  1  0.50000000  0.00000200  0.74998000  1
  La  La2  1  0.99999800  0.49999700  0.24998100  1
  La  La3  1  0.99999900  0.49999800  0.75002000  1
  Mn  Mn4  1  0.50000500  0.50000600  0.49999800  1
  Mn  Mn5  1  0.99999900  0.99999700  0.50000300  1
  Mn  Mn6  1  0.50000300  0.49999800  0.99999900  1
  Mn  Mn7  1  0.00000300  0.99999800  0.00000000  1
  O  O8  1  0.49999900  0.49999900  0.25011000  1
  O  O9  1  0.49999900  0.50000000  0.74988800  1
  O  O10  1  0.00000100  0.00000000  0.25000000  1
  O  O11  1  0.00000000  0.00000000  0.74999700  1
  O  O12  1  0.70468200  0.82041600  0.00000000  1
  O  O13  1  0.70455100  0.82039900  0.49999900  1
  O  O14  1  0.79543900  0.32036300  0.00000100  1
  O  O15  1  0.79534200  0.32046100  0.50000000  1
  O  O16  1  0.29531400  0.17958200  0.00000100  1
  O  O17  1  0.29545100  0.17960400  0.49999900  1
  O  O18  1  0.20455700  0.67963400  0.00000200  1
  O  O19  1  0.20465900  0.67954300  0.50000000  1
