# generated using pymatgen
data_Rb2CoO3
_symmetry_space_group_name_H-M   'P 1'
_cell_length_a   7.39646443
_cell_length_b   8.36506814
_cell_length_c   8.35589399
_cell_angle_alpha   99.30451882
_cell_angle_beta   116.19168979
_cell_angle_gamma   63.68434015
_symmetry_Int_Tables_number   1
_chemical_formula_structural   Rb2CoO3
_chemical_formula_sum   'Rb8 Co4 O12'
_cell_volume   415.46271079
_cell_formula_units_Z   4
loop_
 _symmetry_equiv_pos_site_id
 _symmetry_equiv_pos_as_xyz
  1  'x, y, z'
loop_
 _atom_site_type_symbol
 _atom_site_label
 _atom_site_symmetry_multiplicity
 _atom_site_fract_x
 _atom_site_fract_y
 _atom_site_fract_z
 _atom_site_occupancy
  Rb  Rb0  1  0.81696800  0.20966600  0.53292000  1
  Rb  Rb1  1  0.81750700  0.71211400  0.03380100  1
  Rb  Rb2  1  0.50447700  0.96250300  0.28197600  1
  Rb  Rb3  1  0.50282500  0.46175800  0.78436100  1
  Rb  Rb4  1  0.49372100  0.53288500  0.20962600  1
  Rb  Rb5  1  0.49582400  0.03374700  0.71207900  1
  Rb  Rb6  1  0.18501300  0.28192500  0.96245800  1
  Rb  Rb7  1  0.18020900  0.78432500  0.46172000  1
  Co  Co8  1  0.91883300  0.61726800  0.61726400  1
  Co  Co9  1  0.07422200  0.86937800  0.86939500  1
  Co  Co10  1  0.92711300  0.11918400  0.11917500  1
  Co  Co11  1  0.07449000  0.36867000  0.36866900  1
  O  O12  1  0.68363400  0.11602600  0.11600900  1
  O  O13  1  0.67875600  0.61468100  0.61465700  1
  O  O14  1  0.31671200  0.36556300  0.36555700  1
  O  O15  1  0.31798800  0.86701200  0.86702600  1
  O  O16  1  0.88648300  0.11273600  0.87888800  1
  O  O17  1  0.88582400  0.61267900  0.37397300  1
  O  O18  1  0.88069000  0.86670200  0.62821700  1
  O  O19  1  0.87988600  0.36260500  0.12772700  1
  O  O20  1  0.12035700  0.87884000  0.11269900  1
  O  O21  1  0.12454600  0.37391800  0.61262100  1
  O  O22  1  0.11918800  0.62814200  0.86665200  1
  O  O23  1  0.11473500  0.12768000  0.36253400  1
