# generated using pymatgen
data_Sr2ZrVO6
_symmetry_space_group_name_H-M   'P 1'
_cell_length_a   5.68924316
_cell_length_b   5.74778023
_cell_length_c   18.92475406
_cell_angle_alpha   81.63603871
_cell_angle_beta   90.12578509
_cell_angle_gamma   120.07170612
_symmetry_Int_Tables_number   1
_chemical_formula_structural   Sr2ZrVO6
_chemical_formula_sum   'Sr8 Zr4 V4 O24'
_cell_volume   528.04628014
_cell_formula_units_Z   4
loop_
 _symmetry_equiv_pos_site_id
 _symmetry_equiv_pos_as_xyz
  1  'x, y, z'
loop_
 _atom_site_type_symbol
 _atom_site_label
 _atom_site_symmetry_multiplicity
 _atom_site_fract_x
 _atom_site_fract_y
 _atom_site_fract_z
 _atom_site_occupancy
  Sr  Sr0  1  0.31482200  0.62168500  0.06333900  1
  Sr  Sr1  1  0.55433100  0.13071500  0.31069400  1
  Sr  Sr2  1  0.81181500  0.62704100  0.56238200  1
  Sr  Sr3  1  0.07562800  0.11646100  0.81192100  1
  Sr  Sr4  1  0.93344300  0.88219800  0.18703300  1
  Sr  Sr5  1  0.17626700  0.38334400  0.43772000  1
  Sr  Sr6  1  0.43726400  0.86878400  0.68797300  1
  Sr  Sr7  1  0.69773400  0.37024600  0.93869000  1
  Zr  Zr8  1  0.62350200  0.25147400  0.12488000  1
  Zr  Zr9  1  0.86606300  0.75617500  0.37576900  1
  Zr  Zr10  1  0.12556700  0.24857000  0.62476600  1
  Zr  Zr11  1  0.38528400  0.74399000  0.87457300  1
  V  V12  1  0.49600300  0.00383300  0.49989700  1
  V  V13  1  0.75348000  0.49347500  0.74999500  1
  V  V14  1  0.00656800  0.99937100  0.99955700  1
  V  V15  1  0.24432900  0.50347200  0.25048900  1
  O  O16  1  0.77882400  0.61143000  0.05000300  1
  O  O17  1  0.01600000  0.11645400  0.30110500  1
  O  O18  1  0.30742500  0.61717600  0.55218200  1
  O  O19  1  0.56377700  0.10741800  0.79998700  1
  O  O20  1  0.46823700  0.88917800  0.19943700  1
  O  O21  1  0.68230000  0.38978700  0.44917800  1
  O  O22  1  0.94454800  0.88094700  0.69775500  1
  O  O23  1  0.23783500  0.38737200  0.95029800  1
  O  O24  1  0.96125900  0.44397200  0.18691200  1
  O  O25  1  0.16848700  0.92756100  0.44347800  1
  O  O26  1  0.43627000  0.41685200  0.69345800  1
  O  O27  1  0.73966800  0.94204300  0.93483100  1
  O  O28  1  0.27984500  0.05435000  0.06511900  1
  O  O29  1  0.51975800  0.56200300  0.31255200  1
  O  O30  1  0.81702700  0.08295900  0.55546900  1
  O  O31  1  0.07625700  0.56890600  0.80863700  1
  O  O32  1  0.83283700  0.11974600  0.06615000  1
  O  O33  1  0.07129900  0.62396600  0.31840800  1
  O  O34  1  0.34796200  0.10587000  0.57259300  1
  O  O35  1  0.61485500  0.60203400  0.82151800  1
  O  O36  1  0.40831800  0.37976300  0.18250300  1
  O  O37  1  0.62967700  0.89414100  0.42763200  1
  O  O38  1  0.90630300  0.39279500  0.67809500  1
  O  O39  1  0.18913000  0.88244800  0.93302600  1
