# generated using pymatgen
data_AlMo3Se2ClO8
_symmetry_space_group_name_H-M   'P 1'
_cell_length_a   7.27296697
_cell_length_b   6.54978581
_cell_length_c   9.75192063
_cell_angle_alpha   93.99111063
_cell_angle_beta   106.38111517
_cell_angle_gamma   93.64282590
_symmetry_Int_Tables_number   1
_chemical_formula_structural   AlMo3Se2ClO8
_chemical_formula_sum   'Al2 Mo6 Se4 Cl2 O16'
_cell_volume   442.92621157
_cell_formula_units_Z   2
loop_
 _symmetry_equiv_pos_site_id
 _symmetry_equiv_pos_as_xyz
  1  'x, y, z'
loop_
 _atom_site_type_symbol
 _atom_site_label
 _atom_site_symmetry_multiplicity
 _atom_site_fract_x
 _atom_site_fract_y
 _atom_site_fract_z
 _atom_site_occupancy
  Al  Al0  1  0.26384600  0.26741300  0.26477400  1
  Al  Al1  1  0.72234700  0.73573100  0.74471100  1
  Mo  Mo2  1  0.50687500  0.01536000  0.00793700  1
  Mo  Mo3  1  0.49294700  0.99070300  0.49887800  1
  Mo  Mo4  1  0.00701600  0.99143300  0.00815800  1
  Mo  Mo5  1  0.73440500  0.24113500  0.75991300  1
  Mo  Mo6  1  0.29497800  0.75396500  0.24075200  1
  Mo  Mo7  1  0.99411200  0.99556600  0.49644200  1
  Se  Se8  1  0.84758300  0.40990600  0.03157900  1
  Se  Se9  1  0.17338900  0.57723200  0.85360300  1
  Se  Se10  1  0.73230100  0.43685000  0.43131000  1
  Se  Se11  1  0.25968900  0.55707000  0.57497700  1
  Cl  Cl12  1  0.25958100  0.12177600  0.75966900  1
  Cl  Cl13  1  0.74442500  0.86846400  0.24442400  1
  O  O14  1  0.30741200  0.03748100  0.14025900  1
  O  O15  1  0.31319300  0.48485400  0.16671300  1
  O  O16  1  0.74003800  0.48847900  0.61290900  1
  O  O17  1  0.64186800  0.31296200  0.07192800  1
  O  O18  1  0.45549000  0.75229200  0.63109800  1
  O  O19  1  0.06372600  0.69823400  0.53408000  1
  O  O20  1  0.70469700  0.96893000  0.87567800  1
  O  O21  1  0.00500900  0.23777700  0.16203100  1
  O  O22  1  0.92473600  0.29479500  0.45675600  1
  O  O23  1  0.98982900  0.76032300  0.83556000  1
  O  O24  1  0.20907100  0.03291600  0.37822200  1
  O  O25  1  0.77962100  0.96236400  0.62222000  1
  O  O26  1  0.36071300  0.72368300  0.97951800  1
  O  O27  1  0.53784600  0.24554600  0.38018900  1
  O  O28  1  0.66319900  0.51939000  0.84081700  1
  O  O29  1  0.27006200  0.51737200  0.39489100  1
