# generated using pymatgen
data_BaLa(FeO3)2
_symmetry_space_group_name_H-M   'P 1'
_cell_length_a   5.59558557
_cell_length_b   5.59558698
_cell_length_c   8.07407700
_cell_angle_alpha   89.99924019
_cell_angle_beta   90.00280800
_cell_angle_gamma   90.00059372
_symmetry_Int_Tables_number   1
_chemical_formula_structural   BaLa(FeO3)2
_chemical_formula_sum   'Ba2 La2 Fe4 O12'
_cell_volume   252.80408021
_cell_formula_units_Z   2
loop_
 _symmetry_equiv_pos_site_id
 _symmetry_equiv_pos_as_xyz
  1  'x, y, z'
loop_
 _atom_site_type_symbol
 _atom_site_label
 _atom_site_symmetry_multiplicity
 _atom_site_fract_x
 _atom_site_fract_y
 _atom_site_fract_z
 _atom_site_occupancy
  Ba  Ba0  1  0.99995600  0.49992300  0.24999400  1
  Ba  Ba1  1  0.50003700  0.00005700  0.75000800  1
  La  La2  1  0.00008600  0.50014400  0.74999400  1
  La  La3  1  0.49984000  0.99977600  0.25003400  1
  Fe  Fe4  1  0.99995400  0.00001200  0.50000800  1
  Fe  Fe5  1  0.49997700  0.49998400  0.50000200  1
  Fe  Fe6  1  0.49996700  0.50000200  0.99999700  1
  Fe  Fe7  1  0.99986500  0.00002600  0.00000300  1
  O  O8  1  0.74468300  0.74464000  0.99999700  1
  O  O9  1  0.24467300  0.24466100  0.49999700  1
  O  O10  1  0.25535700  0.25534300  0.99999300  1
  O  O11  1  0.75540000  0.75536800  0.49999700  1
  O  O12  1  0.49999100  0.50000500  0.74232100  1
  O  O13  1  0.00010900  0.99996600  0.24232900  1
  O  O14  1  0.50000100  0.50010200  0.25767600  1
  O  O15  1  0.00000800  0.99994800  0.75766400  1
  O  O16  1  0.74469200  0.25534300  0.99998800  1
  O  O17  1  0.24469600  0.75534000  0.49998700  1
  O  O18  1  0.25533300  0.74467900  0.00000300  1
  O  O19  1  0.75537400  0.24468200  0.50000700  1
