data_image0
_chemical_formula_structural       Ag2Se4Tb2
_chemical_formula_sum              "Ag2 Se4 Tb2"
_cell_length_a       5.68006
_cell_length_b       5.68006
_cell_length_c       7.407
_cell_angle_alpha    112.546
_cell_angle_beta     112.546
_cell_angle_gamma    90

_space_group_name_H-M_alt    "P 1"
_space_group_IT_number       1

loop_
  _space_group_symop_operation_xyz
  'x, y, z'

loop_
  _atom_site_type_symbol
  _atom_site_label
  _atom_site_symmetry_multiplicity
  _atom_site_fract_x
  _atom_site_fract_y
  _atom_site_fract_z
  _atom_site_occupancy
  Ag  Ag1       1.0  0.54100  0.54100  0.08150  1.0000
  Ag  Ag2       1.0  0.79100  0.29100  0.58100  1.0000
  Se  Se1       1.0  0.01700  0.51700  0.03410  1.0000
  Se  Se2       1.0  0.23100  0.23100  0.46200  1.0000
  Se  Se3       1.0  0.76700  0.76700  0.53400  1.0000
  Se  Se4       1.0  0.48100  0.98100  0.96200  1.0000
  Tb  Tb1       1.0  0.00135  0.00135  0.00269  1.0000
  Tb  Tb2       1.0  0.25100  0.75100  0.50300  1.0000
