# generated using pymatgen
data_VCoO3
_symmetry_space_group_name_H-M   'P 1'
_cell_length_a   5.06005649
_cell_length_b   5.52611077
_cell_length_c   4.98940519
_cell_angle_alpha   63.35074915
_cell_angle_beta   118.81426230
_cell_angle_gamma   118.43172080
_symmetry_Int_Tables_number   1
_chemical_formula_structural   VCoO3
_chemical_formula_sum   'V2 Co2 O6'
_cell_volume   103.06190016
_cell_formula_units_Z   2
loop_
 _symmetry_equiv_pos_site_id
 _symmetry_equiv_pos_as_xyz
  1  'x, y, z'
loop_
 _atom_site_type_symbol
 _atom_site_label
 _atom_site_symmetry_multiplicity
 _atom_site_fract_x
 _atom_site_fract_y
 _atom_site_fract_z
 _atom_site_occupancy
  V  V0  1  0.34987100  0.05312000  0.64873900  1
  V  V1  1  0.66073800  0.94913000  0.34945900  1
  Co  Co2  1  0.84928800  0.56958800  0.13164000  1
  Co  Co3  1  0.15409700  0.45144600  0.84734300  1
  O  O4  1  0.45450500  0.22541500  0.28664500  1
  O  O5  1  0.53446900  0.74989800  0.72753600  1
  O  O6  1  0.92231600  0.76806400  0.43431900  1
  O  O7  1  0.06730100  0.22882900  0.57946800  1
  O  O8  1  0.74031500  0.24544500  0.94268400  1
  O  O9  1  0.26710100  0.75906500  0.05216700  1
