# generated using pymatgen
data_Mg2MnSbO6
_symmetry_space_group_name_H-M   'P 1'
_cell_length_a   5.40742798
_cell_length_b   7.55637600
_cell_length_c   10.62622436
_cell_angle_alpha   89.99996688
_cell_angle_beta   94.65423862
_cell_angle_gamma   90.00008847
_symmetry_Int_Tables_number   1
_chemical_formula_structural   Mg2MnSbO6
_chemical_formula_sum   'Mg8 Mn4 Sb4 O24'
_cell_volume   432.76171961
_cell_formula_units_Z   4
loop_
 _symmetry_equiv_pos_site_id
 _symmetry_equiv_pos_as_xyz
  1  'x, y, z'
loop_
 _atom_site_type_symbol
 _atom_site_label
 _atom_site_symmetry_multiplicity
 _atom_site_fract_x
 _atom_site_fract_y
 _atom_site_fract_z
 _atom_site_occupancy
  Mg  Mg0  1  0.56981300  0.74999900  0.26396600  1
  Mg  Mg1  1  0.56980700  0.74999800  0.76396700  1
  Mg  Mg2  1  0.43019100  0.25000000  0.23603500  1
  Mg  Mg3  1  0.43018800  0.25000100  0.73603500  1
  Mg  Mg4  1  0.02694000  0.75000000  0.01639700  1
  Mg  Mg5  1  0.02693300  0.74999800  0.51640000  1
  Mg  Mg6  1  0.97305900  0.25000200  0.48360300  1
  Mg  Mg7  1  0.97306500  0.25000100  0.98360100  1
  Mn  Mn8  1  0.00000200  0.50000400  0.74999600  1
  Mn  Mn9  1  0.99997200  0.00000300  0.74999600  1
  Mn  Mn10  1  0.00002200  0.49999000  0.25000300  1
  Mn  Mn11  1  0.00000200  0.00000800  0.24999300  1
  Sb  Sb12  1  0.49999800  0.50000000  0.00000400  1
  Sb  Sb13  1  0.50000600  0.49999900  0.49999800  1
  Sb  Sb14  1  0.49999500  0.00000000  0.00000200  1
  Sb  Sb15  1  0.50000300  0.99999900  0.49999700  1
  O  O16  1  0.58156100  0.25000000  0.43230500  1
  O  O17  1  0.58155800  0.24999900  0.93231300  1
  O  O18  1  0.41844000  0.75000100  0.06769700  1
  O  O19  1  0.41844200  0.75000000  0.56768700  1
  O  O20  1  0.92535900  0.74999800  0.19528900  1
  O  O21  1  0.92537000  0.75000100  0.69529200  1
  O  O22  1  0.07464400  0.25000100  0.30471400  1
  O  O23  1  0.07462800  0.25000000  0.80470700  1
  O  O24  1  0.67938400  0.43549100  0.16525300  1
  O  O25  1  0.67938000  0.43549100  0.66524800  1
  O  O26  1  0.32061900  0.93549000  0.33474800  1
  O  O27  1  0.32061600  0.93549100  0.83475100  1
  O  O28  1  0.67938200  0.06451100  0.16525200  1
  O  O29  1  0.67937800  0.06450800  0.66524700  1
  O  O30  1  0.32062400  0.56451000  0.33474900  1
  O  O31  1  0.32061800  0.56450900  0.83475100  1
  O  O32  1  0.19854900  0.07129800  0.07905300  1
  O  O33  1  0.19853500  0.07130100  0.57903700  1
  O  O34  1  0.80145000  0.57129700  0.42094900  1
  O  O35  1  0.80146800  0.57130200  0.92096300  1
  O  O36  1  0.19855000  0.42870200  0.07905200  1
  O  O37  1  0.19853200  0.42869900  0.57903600  1
  O  O38  1  0.80145200  0.92870200  0.42095000  1
  O  O39  1  0.80146800  0.92869800  0.92096300  1
