# generated using pymatgen
data_MnO2
_symmetry_space_group_name_H-M   'P 1'
_cell_length_a   2.92330995
_cell_length_b   21.16409901
_cell_length_c   2.92330808
_cell_angle_alpha   89.99624381
_cell_angle_beta   60.00065601
_cell_angle_gamma   89.99664285
_symmetry_Int_Tables_number   1
_chemical_formula_structural   MnO2
_chemical_formula_sum   'Mn4 O8'
_cell_volume   156.63280935
_cell_formula_units_Z   4
loop_
 _symmetry_equiv_pos_site_id
 _symmetry_equiv_pos_as_xyz
  1  'x, y, z'
loop_
 _atom_site_type_symbol
 _atom_site_label
 _atom_site_symmetry_multiplicity
 _atom_site_fract_x
 _atom_site_fract_y
 _atom_site_fract_z
 _atom_site_occupancy
  Mn  Mn0  1  0.99999500  0.74999200  0.00000200  1
  Mn  Mn1  1  0.00000400  0.50000700  0.00000000  1
  Mn  Mn2  1  0.99999400  0.24998700  0.99999900  1
  Mn  Mn3  1  0.00000100  0.00001300  0.00000000  1
  O  O4  1  0.33332500  0.29539900  0.33332400  1
  O  O5  1  0.33332500  0.79537200  0.33332400  1
  O  O6  1  0.33335600  0.45463000  0.33335300  1
  O  O7  1  0.33335500  0.95460400  0.33335400  1
  O  O8  1  0.66666800  0.20456700  0.66667800  1
  O  O9  1  0.66666800  0.70458000  0.66667800  1
  O  O10  1  0.66665500  0.04543100  0.66664400  1
  O  O11  1  0.66665400  0.54541900  0.66664400  1
