# generated using pymatgen
data_Na2CoO3
_symmetry_space_group_name_H-M   'P 1'
_cell_length_a   5.26887632
_cell_length_b   5.68754440
_cell_length_c   9.05026455
_cell_angle_alpha   89.86868726
_cell_angle_beta   90.17071255
_cell_angle_gamma   70.73309091
_symmetry_Int_Tables_number   1
_chemical_formula_structural   Na2CoO3
_chemical_formula_sum   'Na8 Co4 O12'
_cell_volume   256.01635184
_cell_formula_units_Z   4
loop_
 _symmetry_equiv_pos_site_id
 _symmetry_equiv_pos_as_xyz
  1  'x, y, z'
loop_
 _atom_site_type_symbol
 _atom_site_label
 _atom_site_symmetry_multiplicity
 _atom_site_fract_x
 _atom_site_fract_y
 _atom_site_fract_z
 _atom_site_occupancy
  Na  Na0  1  0.99927700  0.50086500  0.50096900  1
  Na  Na1  1  0.50086700  0.49815200  0.99854300  1
  Na  Na2  1  0.99891600  0.00097300  0.99885700  1
  Na  Na3  1  0.50295800  0.99960500  0.50084900  1
  Na  Na4  1  0.00000100  0.49961500  0.15723900  1
  Na  Na5  1  0.50001100  0.50063600  0.65861100  1
  Na  Na6  1  0.99824000  0.49987300  0.84463900  1
  Na  Na7  1  0.50035300  0.49916300  0.34150800  1
  Co  Co8  1  0.49856900  0.00065800  0.17047600  1
  Co  Co9  1  0.00170300  0.99723300  0.32670000  1
  Co  Co10  1  0.00730000  0.00125800  0.66593600  1
  Co  Co11  1  0.50262000  0.00182000  0.83079500  1
  O  O12  1  0.18939300  0.79916000  0.49529400  1
  O  O13  1  0.68404800  0.80366200  0.00158300  1
  O  O14  1  0.81907500  0.19434600  0.49873900  1
  O  O15  1  0.31061700  0.19950800  0.00274100  1
  O  O16  1  0.24795900  0.19530700  0.30807100  1
  O  O17  1  0.73964400  0.19731300  0.81065100  1
  O  O18  1  0.25452700  0.20529300  0.69489800  1
  O  O19  1  0.74752300  0.19613400  0.19256500  1
  O  O20  1  0.73923500  0.79693000  0.69658200  1
  O  O21  1  0.25263500  0.80350100  0.19052000  1
  O  O22  1  0.75401600  0.80186800  0.30723400  1
  O  O23  1  0.25051400  0.80712700  0.80599800  1
