# generated using pymatgen
data_LaMn2CdO6
_symmetry_space_group_name_H-M   'P 1'
_cell_length_a   5.54046652
_cell_length_b   7.56184475
_cell_length_c   5.56546302
_cell_angle_alpha   89.59502464
_cell_angle_beta   90.59089693
_cell_angle_gamma   90.45603506
_symmetry_Int_Tables_number   1
_chemical_formula_structural   LaMn2CdO6
_chemical_formula_sum   'La2 Mn4 Cd2 O12'
_cell_volume   233.14598465
_cell_formula_units_Z   2
loop_
 _symmetry_equiv_pos_site_id
 _symmetry_equiv_pos_as_xyz
  1  'x, y, z'
loop_
 _atom_site_type_symbol
 _atom_site_label
 _atom_site_symmetry_multiplicity
 _atom_site_fract_x
 _atom_site_fract_y
 _atom_site_fract_z
 _atom_site_occupancy
  La  La0  1  0.50064300  0.74916400  0.00124200  1
  La  La1  1  0.00047500  0.24916200  0.50142600  1
  Mn  Mn2  1  0.49923900  0.99953900  0.49954100  1
  Mn  Mn3  1  0.00098700  0.00007800  0.00045800  1
  Mn  Mn4  1  0.99915700  0.49947700  0.99952300  1
  Mn  Mn5  1  0.50099200  0.50014600  0.50052200  1
  Cd  Cd6  1  0.50013300  0.25089100  0.99788200  1
  Cd  Cd7  1  0.00004400  0.75089300  0.49805100  1
  O  O8  1  0.20171300  0.54252100  0.71523500  1
  O  O9  1  0.70167600  0.04251600  0.21516300  1
  O  O10  1  0.28839600  0.45858200  0.20241400  1
  O  O11  1  0.78832800  0.95861000  0.70230500  1
  O  O12  1  0.00058200  0.75086800  0.08291600  1
  O  O13  1  0.50051600  0.25091200  0.58277300  1
  O  O14  1  0.71811800  0.53000000  0.79111600  1
  O  O15  1  0.21802100  0.03004500  0.29100700  1
  O  O16  1  0.99942900  0.24895800  0.93162500  1
  O  O17  1  0.49934100  0.74899700  0.43147000  1
  O  O18  1  0.79109300  0.46932600  0.27771400  1
  O  O19  1  0.29111800  0.96931600  0.77762100  1
