# generated using pymatgen
data_Sr2ZrVO6
_symmetry_space_group_name_H-M   'P 1'
_cell_length_a   5.71337202
_cell_length_b   11.40739505
_cell_length_c   8.16452600
_cell_angle_alpha   89.99944800
_cell_angle_beta   89.99997295
_cell_angle_gamma   90.00981642
_symmetry_Int_Tables_number   1
_chemical_formula_structural   Sr2ZrVO6
_chemical_formula_sum   'Sr8 Zr4 V4 O24'
_cell_volume   532.12045682
_cell_formula_units_Z   4
loop_
 _symmetry_equiv_pos_site_id
 _symmetry_equiv_pos_as_xyz
  1  'x, y, z'
loop_
 _atom_site_type_symbol
 _atom_site_label
 _atom_site_symmetry_multiplicity
 _atom_site_fract_x
 _atom_site_fract_y
 _atom_site_fract_z
 _atom_site_occupancy
  Sr  Sr0  1  0.00091000  0.25052100  0.74918300  1
  Sr  Sr1  1  0.49958800  0.49944000  0.24926800  1
  Sr  Sr2  1  0.99861700  0.75052300  0.74995800  1
  Sr  Sr3  1  0.50032400  0.99969700  0.24916800  1
  Sr  Sr4  1  0.00089800  0.25053100  0.25083500  1
  Sr  Sr5  1  0.49957200  0.49943900  0.75072700  1
  Sr  Sr6  1  0.99864700  0.75049100  0.25003600  1
  Sr  Sr7  1  0.50033500  0.99968600  0.75083000  1
  Zr  Zr8  1  0.50123700  0.25044100  0.00000200  1
  Zr  Zr9  1  0.99787400  0.49997800  0.50000200  1
  Zr  Zr10  1  0.49860200  0.75037200  0.99999800  1
  Zr  Zr11  1  0.00210400  0.99923600  0.49998800  1
  V  V12  1  0.99736800  0.50056000  0.00003600  1
  V  V13  1  0.49697000  0.74932600  0.49998700  1
  V  V14  1  0.00250000  0.00063300  0.99999700  1
  V  V15  1  0.50294300  0.24944500  0.49999300  1
  O  O16  1  0.51014200  0.25007500  0.74413000  1
  O  O17  1  0.98996700  0.50008900  0.24411700  1
  O  O18  1  0.49008700  0.74993500  0.74412300  1
  O  O19  1  0.01025900  0.99988100  0.24412000  1
  O  O20  1  0.50991000  0.24986300  0.25587300  1
  O  O21  1  0.98976100  0.49988100  0.75587400  1
  O  O22  1  0.48988100  0.74973900  0.25587500  1
  O  O23  1  0.01003900  0.99967600  0.75586800  1
  O  O24  1  0.77694900  0.37602600  0.00016600  1
  O  O25  1  0.23176000  0.63683000  0.50014500  1
  O  O26  1  0.74441800  0.88227900  0.00014800  1
  O  O27  1  0.27952900  0.12847900  0.50014400  1
  O  O28  1  0.26115900  0.11640700  0.99983900  1
  O  O29  1  0.72320900  0.37361200  0.49984800  1
  O  O30  1  0.22026500  0.62204300  0.99985800  1
  O  O31  1  0.76283900  0.86436300  0.49985200  1
  O  O32  1  0.77941900  0.12187700  0.99994200  1
  O  O33  1  0.24382700  0.36812500  0.49996200  1
  O  O34  1  0.73854900  0.61625600  0.99995800  1
  O  O35  1  0.28386100  0.87682600  0.49995200  1
  O  O36  1  0.25634500  0.38265600  0.00005000  1
  O  O37  1  0.71378900  0.62533100  0.50004700  1
  O  O38  1  0.22388200  0.87629400  0.00005700  1
  O  O39  1  0.76167000  0.13313900  0.50004600  1
