# generated using pymatgen
data_Mn(FeO2)2
_symmetry_space_group_name_H-M   'P 1'
_cell_length_a   6.10730908
_cell_length_b   6.05589572
_cell_length_c   6.11314752
_cell_angle_alpha   59.84436160
_cell_angle_beta   59.34137478
_cell_angle_gamma   60.17587797
_symmetry_Int_Tables_number   1
_chemical_formula_structural   Mn(FeO2)2
_chemical_formula_sum   'Mn2 Fe4 O8'
_cell_volume   159.08457002
_cell_formula_units_Z   2
loop_
 _symmetry_equiv_pos_site_id
 _symmetry_equiv_pos_as_xyz
  1  'x, y, z'
loop_
 _atom_site_type_symbol
 _atom_site_label
 _atom_site_symmetry_multiplicity
 _atom_site_fract_x
 _atom_site_fract_y
 _atom_site_fract_z
 _atom_site_occupancy
  Mn  Mn0  1  0.12319800  0.12905700  0.12151600  1
  Mn  Mn1  1  0.87679500  0.87110800  0.87821300  1
  Fe  Fe2  1  0.49984500  0.49988600  0.50003200  1
  Fe  Fe3  1  0.49993300  0.50004200  0.00008300  1
  Fe  Fe4  1  0.00011000  0.49997100  0.49986400  1
  Fe  Fe5  1  0.50008800  0.99989700  0.50006700  1
  O  O6  1  0.73368500  0.73963500  0.73690800  1
  O  O7  1  0.26676200  0.26911700  0.70664700  1
  O  O8  1  0.26139900  0.71361900  0.24796600  1
  O  O9  1  0.70725000  0.27277900  0.25490100  1
  O  O10  1  0.73854400  0.28653200  0.75195600  1
  O  O11  1  0.29279600  0.72718700  0.74505700  1
  O  O12  1  0.26638200  0.26033700  0.26314600  1
  O  O13  1  0.73320800  0.73083800  0.29364000  1
