# generated using pymatgen
data_La2ZnCoO6
_symmetry_space_group_name_H-M   'P 1'
_cell_length_a   5.47288631
_cell_length_b   9.61700933
_cell_length_c   9.61054176
_cell_angle_alpha   79.25538123
_cell_angle_beta   88.53340818
_cell_angle_gamma   74.31240912
_symmetry_Int_Tables_number   1
_chemical_formula_structural   La2ZnCoO6
_chemical_formula_sum   'La8 Zn4 Co4 O24'
_cell_volume   478.28511975
_cell_formula_units_Z   4
loop_
 _symmetry_equiv_pos_site_id
 _symmetry_equiv_pos_as_xyz
  1  'x, y, z'
loop_
 _atom_site_type_symbol
 _atom_site_label
 _atom_site_symmetry_multiplicity
 _atom_site_fract_x
 _atom_site_fract_y
 _atom_site_fract_z
 _atom_site_occupancy
  La  La0  1  0.31537700  0.37396300  0.43583500  1
  La  La1  1  0.56580800  0.87926300  0.18273600  1
  La  La2  1  0.81562400  0.37066900  0.93944000  1
  La  La3  1  0.06326600  0.87862900  0.68828300  1
  La  La4  1  0.43554300  0.11885600  0.81775800  1
  La  La5  1  0.68460100  0.62680300  0.56047600  1
  La  La6  1  0.93587100  0.12277600  0.31125400  1
  La  La7  1  0.18360500  0.62876000  0.06442000  1
  Zn  Zn8  1  0.87551900  0.24792500  0.62521800  1
  Zn  Zn9  1  0.12483800  0.75182300  0.37262500  1
  Zn  Zn10  1  0.37613400  0.24838200  0.12649700  1
  Zn  Zn11  1  0.62369200  0.75153200  0.87575900  1
  Co  Co12  1  0.50023200  0.99971800  0.50039900  1
  Co  Co13  1  0.75020300  0.49937100  0.25072000  1
  Co  Co14  1  0.00024200  0.00040300  0.99926600  1
  Co  Co15  1  0.24972800  0.50030900  0.74951300  1
  O  O16  1  0.73282600  0.08521100  0.57385000  1
  O  O17  1  0.98054600  0.58373400  0.32685400  1
  O  O18  1  0.23584200  0.08793700  0.07331200  1
  O  O19  1  0.48174100  0.58520400  0.82365300  1
  O  O20  1  0.92508700  0.15824500  0.83464600  1
  O  O21  1  0.17845800  0.65226800  0.58742100  1
  O  O22  1  0.42800500  0.15342900  0.33970900  1
  O  O23  1  0.68036000  0.65306600  0.08857300  1
  O  O24  1  0.51635900  0.38398600  0.65595700  1
  O  O25  1  0.76549100  0.88330100  0.40432200  1
  O  O26  1  0.01842100  0.38342700  0.15491800  1
  O  O27  1  0.26776900  0.88047400  0.90241700  1
  O  O28  1  0.01981900  0.41594000  0.67448300  1
  O  O29  1  0.26712300  0.91379900  0.42749100  1
  O  O30  1  0.51730600  0.41535500  0.17595100  1
  O  O31  1  0.76468200  0.91292900  0.92456400  1
  O  O32  1  0.23582700  0.11603300  0.59696500  1
  O  O33  1  0.48218000  0.61380800  0.34720700  1
  O  O34  1  0.73166800  0.12061600  0.09568000  1
  O  O35  1  0.98244300  0.61870100  0.84216300  1
  O  O36  1  0.82164300  0.34414700  0.41342500  1
  O  O37  1  0.07352700  0.84380900  0.16415800  1
  O  O38  1  0.32009700  0.35047300  0.91108700  1
  O  O39  1  0.57249900  0.84492600  0.66099300  1
