# generated using pymatgen
data_BaLaMn2O6
_symmetry_space_group_name_H-M   'P 1'
_cell_length_a   5.61030252
_cell_length_b   5.60575299
_cell_length_c   9.64469514
_cell_angle_alpha   105.55474693
_cell_angle_beta   74.51030872
_cell_angle_gamma   118.80330533
_symmetry_Int_Tables_number   1
_chemical_formula_structural   BaLaMn2O6
_chemical_formula_sum   'Ba2 La2 Mn4 O12'
_cell_volume   252.62495072
_cell_formula_units_Z   2
loop_
 _symmetry_equiv_pos_site_id
 _symmetry_equiv_pos_as_xyz
  1  'x, y, z'
loop_
 _atom_site_type_symbol
 _atom_site_label
 _atom_site_symmetry_multiplicity
 _atom_site_fract_x
 _atom_site_fract_y
 _atom_site_fract_z
 _atom_site_occupancy
  Ba  Ba0  1  0.86476500  0.11391700  0.37564300  1
  Ba  Ba1  1  0.38608000  0.63535300  0.87563400  1
  La  La2  1  0.59915100  0.34746300  0.12941100  1
  La  La3  1  0.15262600  0.90100100  0.62947800  1
  Mn  Mn4  1  0.00737100  0.00936400  0.00024500  1
  Mn  Mn5  1  0.24177000  0.74238200  0.25206400  1
  Mn  Mn6  1  0.49068100  0.49250900  0.50016500  1
  Mn  Mn7  1  0.75774000  0.25829800  0.75205400  1
  O  O8  1  0.12254700  0.33205900  0.63203600  1
  O  O9  1  0.65923200  0.87294000  0.12226400  1
  O  O10  1  0.38931400  0.14887500  0.86650500  1
  O  O11  1  0.80512800  0.58443600  0.35309600  1
  O  O12  1  0.62669600  0.84085800  0.62215200  1
  O  O13  1  0.16783300  0.37738300  0.13197700  1
  O  O14  1  0.91547900  0.69465000  0.85328400  1
  O  O15  1  0.35116000  0.11060200  0.36668700  1
  O  O16  1  0.86508500  0.17822100  0.90809900  1
  O  O17  1  0.32159700  0.63457100  0.40805400  1
  O  O18  1  0.61782000  0.34262000  0.61054300  1
  O  O19  1  0.15792600  0.88249700  0.11061000  1
