# generated using pymatgen
data_VReO4
_symmetry_space_group_name_H-M   'P 1'
_cell_length_a   4.79407677
_cell_length_b   5.55716173
_cell_length_c   5.55711820
_cell_angle_alpha   61.95514755
_cell_angle_beta   91.26544827
_cell_angle_gamma   91.26849230
_symmetry_Int_Tables_number   1
_chemical_formula_structural   VReO4
_chemical_formula_sum   'V2 Re2 O8'
_cell_volume   130.62225329
_cell_formula_units_Z   2
loop_
 _symmetry_equiv_pos_site_id
 _symmetry_equiv_pos_as_xyz
  1  'x, y, z'
loop_
 _atom_site_type_symbol
 _atom_site_label
 _atom_site_symmetry_multiplicity
 _atom_site_fract_x
 _atom_site_fract_y
 _atom_site_fract_z
 _atom_site_occupancy
  V  V0  1  0.48880600  0.51422100  0.01414600  1
  V  V1  1  0.51138500  0.98584300  0.48582500  1
  Re  Re2  1  0.99998300  0.03095000  0.96906300  1
  Re  Re3  1  0.99996900  0.46900300  0.53100000  1
  O  O4  1  0.21890000  0.13346300  0.63356700  1
  O  O5  1  0.18785100  0.65705200  0.15695500  1
  O  O6  1  0.81205500  0.84294500  0.34289400  1
  O  O7  1  0.78107700  0.36645100  0.86658000  1
  O  O8  1  0.29034100  0.15206900  0.13267800  1
  O  O9  1  0.29037400  0.63277800  0.65208900  1
  O  O10  1  0.70962300  0.34793500  0.36721400  1
  O  O11  1  0.70963800  0.86729200  0.84798900  1
