# generated using pymatgen
data_MnOF
_symmetry_space_group_name_H-M   'P 1'
_cell_length_a   3.83698201
_cell_length_b   6.25723103
_cell_length_c   3.18681803
_cell_angle_alpha   90.01323204
_cell_angle_beta   90.00768415
_cell_angle_gamma   90.00067098
_symmetry_Int_Tables_number   1
_chemical_formula_structural   MnOF
_chemical_formula_sum   'Mn2 O2 F2'
_cell_volume   76.51193826
_cell_formula_units_Z   2
loop_
 _symmetry_equiv_pos_site_id
 _symmetry_equiv_pos_as_xyz
  1  'x, y, z'
loop_
 _atom_site_type_symbol
 _atom_site_label
 _atom_site_symmetry_multiplicity
 _atom_site_fract_x
 _atom_site_fract_y
 _atom_site_fract_z
 _atom_site_occupancy
  Mn  Mn0  1  0.24999400  0.15085700  0.75667700  1
  Mn  Mn1  1  0.74999800  0.84911600  0.25647500  1
  O  O2  1  0.24999400  0.92451000  0.19221300  1
  O  O3  1  0.74999500  0.07549800  0.69246000  1
  F  F4  1  0.25002100  0.34865100  0.30139700  1
  F  F5  1  0.74999900  0.65136900  0.80077900  1
