# generated using pymatgen
data_Co(HO)2
_symmetry_space_group_name_H-M   'P 1'
_cell_length_a   3.17353949
_cell_length_b   5.95478676
_cell_length_c   5.61292516
_cell_angle_alpha   122.64498192
_cell_angle_beta   90.92543890
_cell_angle_gamma   83.69663290
_symmetry_Int_Tables_number   1
_chemical_formula_structural   Co(HO)2
_chemical_formula_sum   'Co2 H4 O4'
_cell_volume   88.65782314
_cell_formula_units_Z   2
loop_
 _symmetry_equiv_pos_site_id
 _symmetry_equiv_pos_as_xyz
  1  'x, y, z'
loop_
 _atom_site_type_symbol
 _atom_site_label
 _atom_site_symmetry_multiplicity
 _atom_site_fract_x
 _atom_site_fract_y
 _atom_site_fract_z
 _atom_site_occupancy
  Co  Co0  1  0.98225700  0.97568700  0.02984500  1
  Co  Co1  1  0.48220200  0.97591100  0.52994900  1
  H  H2  1  0.53694500  0.57175400  0.95794700  1
  H  H3  1  0.03835400  0.57190200  0.45783100  1
  H  H4  1  0.90760700  0.38050400  0.62095000  1
  H  H5  1  0.40977200  0.38039000  0.12145100  1
  O  O6  1  0.52101200  0.76665000  0.07352100  1
  O  O7  1  0.02137600  0.76683000  0.57370600  1
  O  O8  1  0.94107200  0.18640100  0.49016400  1
  O  O9  1  0.44156300  0.18636400  0.99028500  1
