# generated using pymatgen
data_MnB4
_symmetry_space_group_name_H-M   'P 1'
_cell_length_a   2.94818200
_cell_length_b   4.61487800
_cell_length_c   5.36582100
_cell_angle_alpha   90.00000000
_cell_angle_beta   90.00000000
_cell_angle_gamma   90.00000000
_symmetry_Int_Tables_number   1
_chemical_formula_structural   MnB4
_chemical_formula_sum   'Mn2 B8'
_cell_volume   73.00467897
_cell_formula_units_Z   2
loop_
 _symmetry_equiv_pos_site_id
 _symmetry_equiv_pos_as_xyz
  1  'x, y, z'
loop_
 _atom_site_type_symbol
 _atom_site_label
 _atom_site_symmetry_multiplicity
 _atom_site_fract_x
 _atom_site_fract_y
 _atom_site_fract_z
 _atom_site_occupancy
  Mn  Mn0  1  0.00000000  0.50000000  0.50000000  1
  Mn  Mn1  1  0.50000000  0.00000000  0.00000000  1
  B  B2  1  0.00000000  0.33487600  0.86875700  1
  B  B3  1  0.50000000  0.16512400  0.36875700  1
  B  B4  1  0.00000000  0.66512400  0.13124300  1
  B  B5  1  0.50000000  0.83487600  0.63124300  1
  B  B6  1  0.00000000  0.26441200  0.18350800  1
  B  B7  1  0.50000000  0.23558800  0.68350800  1
  B  B8  1  0.00000000  0.73558800  0.81649200  1
  B  B9  1  0.50000000  0.76441200  0.31649200  1
