# generated using pymatgen
data_NaFeF3
_symmetry_space_group_name_H-M   'P 1'
_cell_length_a   5.41972196
_cell_length_b   5.41972196
_cell_length_c   7.51824900
_cell_angle_alpha   90.00000000
_cell_angle_beta   90.00000000
_cell_angle_gamma   145.82370908
_symmetry_Int_Tables_number   1
_chemical_formula_structural   NaFeF3
_chemical_formula_sum   'Na2 Fe2 F6'
_cell_volume   124.05289567
_cell_formula_units_Z   2
loop_
 _symmetry_equiv_pos_site_id
 _symmetry_equiv_pos_as_xyz
  1  'x, y, z'
loop_
 _atom_site_type_symbol
 _atom_site_label
 _atom_site_symmetry_multiplicity
 _atom_site_fract_x
 _atom_site_fract_y
 _atom_site_fract_z
 _atom_site_occupancy
  Na  Na0  1  0.25299700  0.74700300  0.25000000  1
  Na  Na1  1  0.74700300  0.25299700  0.75000000  1
  Fe  Fe2  1  0.00000000  0.00000000  0.50000000  1
  Fe  Fe3  1  0.00000000  0.00000000  0.00000000  1
  F  F4  1  0.91601000  0.08399000  0.25000000  1
  F  F5  1  0.08399000  0.91601000  0.75000000  1
  F  F6  1  0.36985900  0.63014100  0.55780000  1
  F  F7  1  0.63014100  0.36985900  0.44220000  1
  F  F8  1  0.36985900  0.63014100  0.94220000  1
  F  F9  1  0.63014100  0.36985900  0.05780000  1
