# generated using pymatgen
data_LaMnO3
_symmetry_space_group_name_H-M   'P 1'
_cell_length_a   5.49228027
_cell_length_b   5.60165729
_cell_length_c   8.08411000
_cell_angle_alpha   90.00010077
_cell_angle_beta   90.00006675
_cell_angle_gamma   89.96349915
_symmetry_Int_Tables_number   1
_chemical_formula_structural   LaMnO3
_chemical_formula_sum   'La4 Mn4 O12'
_cell_volume   248.71464165
_cell_formula_units_Z   4
loop_
 _symmetry_equiv_pos_site_id
 _symmetry_equiv_pos_as_xyz
  1  'x, y, z'
loop_
 _atom_site_type_symbol
 _atom_site_label
 _atom_site_symmetry_multiplicity
 _atom_site_fract_x
 _atom_site_fract_y
 _atom_site_fract_z
 _atom_site_occupancy
  La  La0  1  0.49999500  0.99999300  0.24943100  1
  La  La1  1  0.49999500  0.99999600  0.75057200  1
  La  La2  1  0.00000400  0.50000200  0.25063000  1
  La  La3  1  0.00000500  0.50000400  0.74937200  1
  Mn  Mn4  1  0.49993900  0.50005100  0.49999800  1
  Mn  Mn5  1  0.00007600  0.00002200  0.00000600  1
  Mn  Mn6  1  0.49997000  0.49998600  0.99999900  1
  Mn  Mn7  1  0.99998500  0.99997000  0.49998000  1
  O  O8  1  0.50000100  0.49999700  0.23572900  1
  O  O9  1  0.50000000  0.49999500  0.76427500  1
  O  O10  1  0.00000500  0.99999600  0.26430800  1
  O  O11  1  0.00000400  0.99999800  0.73568900  1
  O  O12  1  0.70210000  0.82723800  0.99999900  1
  O  O13  1  0.68812900  0.80986900  0.50000200  1
  O  O14  1  0.81186200  0.31017400  0.00000200  1
  O  O15  1  0.79811700  0.32716800  0.50000300  1
  O  O16  1  0.29790800  0.17275400  0.99999900  1
  O  O17  1  0.31187400  0.19012800  0.50000100  1
  O  O18  1  0.18814600  0.68982000  0.00000300  1
  O  O19  1  0.20188500  0.67283700  0.50000300  1
