# generated using pymatgen
data_V3(O2F)2
_symmetry_space_group_name_H-M   'P 1'
_cell_length_a   4.67683380
_cell_length_b   7.76541065
_cell_length_c   5.58787407
_cell_angle_alpha   94.19600414
_cell_angle_beta   89.67965309
_cell_angle_gamma   89.36157379
_symmetry_Int_Tables_number   1
_chemical_formula_structural   V3(O2F)2
_chemical_formula_sum   'V6 O8 F4'
_cell_volume   202.37711378
_cell_formula_units_Z   2
loop_
 _symmetry_equiv_pos_site_id
 _symmetry_equiv_pos_as_xyz
  1  'x, y, z'
loop_
 _atom_site_type_symbol
 _atom_site_label
 _atom_site_symmetry_multiplicity
 _atom_site_fract_x
 _atom_site_fract_y
 _atom_site_fract_z
 _atom_site_occupancy
  V  V0  1  0.00829100  0.66867200  0.68744000  1
  V  V1  1  0.52046300  0.35591000  0.80832000  1
  V  V2  1  0.01800100  0.97656300  0.01603400  1
  V  V3  1  0.50972900  0.66269900  0.15449200  1
  V  V4  1  0.48081000  0.01380500  0.49288500  1
  V  V5  1  0.98169000  0.32186100  0.32975700  1
  O  O6  1  0.79232200  0.43916900  0.63044200  1
  O  O7  1  0.29565500  0.88816200  0.21169500  1
  O  O8  1  0.80896500  0.08892700  0.28383200  1
  O  O9  1  0.30138200  0.24404900  0.53642400  1
  O  O10  1  0.80723400  0.76864700  0.97363600  1
  O  O11  1  0.30281400  0.56106800  0.86285400  1
  O  O12  1  0.68953100  0.42817100  0.12169600  1
  O  O13  1  0.19112600  0.91345900  0.72224400  1
  F  F14  1  0.70070700  0.11065000  0.80012700  1
  F  F15  1  0.21225800  0.22264700  0.02657900  1
  F  F16  1  0.69336700  0.76928900  0.47814600  1
  F  F17  1  0.18565300  0.56625300  0.36339700  1
