# generated using pymatgen
data_CaLa2FeO6
_symmetry_space_group_name_H-M   'P 1'
_cell_length_a   5.84203893
_cell_length_b   18.66789647
_cell_length_c   5.86877606
_cell_angle_alpha   78.23357193
_cell_angle_beta   118.23643796
_cell_angle_gamma   97.78993665
_symmetry_Int_Tables_number   1
_chemical_formula_structural   CaLa2FeO6
_chemical_formula_sum   'Ca4 La8 Fe4 O24'
_cell_volume   551.46210996
_cell_formula_units_Z   4
loop_
 _symmetry_equiv_pos_site_id
 _symmetry_equiv_pos_as_xyz
  1  'x, y, z'
loop_
 _atom_site_type_symbol
 _atom_site_label
 _atom_site_symmetry_multiplicity
 _atom_site_fract_x
 _atom_site_fract_y
 _atom_site_fract_z
 _atom_site_occupancy
  Ca  Ca0  1  0.12522400  0.37500200  0.87548000  1
  Ca  Ca1  1  0.86978900  0.62507900  0.12075900  1
  Ca  Ca2  1  0.62451800  0.87504600  0.37508200  1
  Ca  Ca3  1  0.38045700  0.12487700  0.62869500  1
  La  La4  1  0.18716300  0.57158500  0.81434900  1
  La  La5  1  0.94056400  0.82160600  0.06748700  1
  La  La6  1  0.69837400  0.07156500  0.32275900  1
  La  La7  1  0.44362100  0.32132800  0.56972900  1
  La  La8  1  0.06362100  0.17843200  0.93572900  1
  La  La9  1  0.80651100  0.42855900  0.18084000  1
  La  La10  1  0.55213100  0.67848300  0.42695000  1
  La  La11  1  0.30795500  0.92841100  0.68218100  1
  Fe  Fe12  1  0.49639800  0.49990000  0.49718700  1
  Fe  Fe13  1  0.24614900  0.75001700  0.74669500  1
  Fe  Fe14  1  0.00347900  0.99998500  0.00297900  1
  Fe  Fe15  1  0.75406200  0.25007000  0.25318800  1
  O  O16  1  0.82401900  0.31224700  0.99302400  1
  O  O17  1  0.56791900  0.56200800  0.23779600  1
  O  O18  1  0.32110500  0.81197200  0.48935400  1
  O  O19  1  0.07829600  0.06175100  0.74432500  1
  O  O20  1  0.03189500  0.31133800  0.54468900  1
  O  O21  1  0.77511000  0.56192500  0.78790400  1
  O  O22  1  0.52780300  0.81165700  0.04108500  1
  O  O23  1  0.28587200  0.06116500  0.29687900  1
  O  O24  1  0.49134100  0.31430700  0.18874900  1
  O  O25  1  0.23467200  0.56425400  0.43354600  1
  O  O26  1  0.98911800  0.81481100  0.68598400  1
  O  O27  1  0.74719900  0.06526400  0.94089400  1
  O  O28  1  0.42620400  0.43792200  0.75759900  1
  O  O29  1  0.17216600  0.68794300  0.00503700  1
  O  O30  1  0.92755500  0.93837900  0.26070400  1
  O  O31  1  0.68277700  0.18778100  0.51213000  1
  O  O32  1  0.75847900  0.43546900  0.56169200  1
  O  O33  1  0.50356900  0.68507100  0.80865100  1
  O  O34  1  0.25921000  0.93490200  0.06386700  1
  O  O35  1  0.01636000  0.18593100  0.31661100  1
  O  O36  1  0.21830200  0.43850900  0.20644700  1
  O  O37  1  0.96438500  0.68902600  0.45206300  1
  O  O38  1  0.72096900  0.93827900  0.70929600  1
  O  O39  1  0.47565700  0.18814600  0.96158500  1
