# generated using pymatgen
data_SrCaTiMnO6
_symmetry_space_group_name_H-M   'P 1'
_cell_length_a   5.46986636
_cell_length_b   9.45742814
_cell_length_c   9.45324500
_cell_angle_alpha   108.90365019
_cell_angle_beta   89.99734599
_cell_angle_gamma   90.00128209
_symmetry_Int_Tables_number   1
_chemical_formula_structural   SrCaTiMnO6
_chemical_formula_sum   'Sr4 Ca4 Ti4 Mn4 O24'
_cell_volume   462.64889235
_cell_formula_units_Z   4
loop_
 _symmetry_equiv_pos_site_id
 _symmetry_equiv_pos_as_xyz
  1  'x, y, z'
loop_
 _atom_site_type_symbol
 _atom_site_label
 _atom_site_symmetry_multiplicity
 _atom_site_fract_x
 _atom_site_fract_y
 _atom_site_fract_z
 _atom_site_occupancy
  Sr  Sr0  1  0.50004600  0.62358200  0.37211400  1
  Sr  Sr1  1  0.99990800  0.87830000  0.62587500  1
  Sr  Sr2  1  0.49997900  0.12361900  0.87219000  1
  Sr  Sr3  1  0.99996500  0.37828800  0.12577900  1
  Ca  Ca4  1  0.50000900  0.87541900  0.13161100  1
  Ca  Ca5  1  0.99998100  0.11889000  0.37410600  1
  Ca  Ca6  1  0.49993000  0.37544200  0.63166800  1
  Ca  Ca7  1  0.99999000  0.61888800  0.87419500  1
  Ti  Ti8  1  0.99997400  0.99475100  0.00249700  1
  Ti  Ti9  1  0.49999300  0.24768000  0.25520700  1
  Ti  Ti10  1  0.00001900  0.49468700  0.50246600  1
  Ti  Ti11  1  0.49995400  0.74769300  0.75534700  1
  Mn  Mn12  1  0.00004600  0.75002800  0.24844800  1
  Mn  Mn13  1  0.50010700  0.00193700  0.50017000  1
  Mn  Mn14  1  0.00004000  0.24994200  0.74820800  1
  Mn  Mn15  1  0.49992600  0.50194200  0.99994600  1
  O  O16  1  0.00001900  0.65388000  0.39759500  1
  O  O17  1  0.49987900  0.85199800  0.59587100  1
  O  O18  1  0.99996400  0.15387500  0.89745900  1
  O  O19  1  0.49998100  0.35205500  0.09579800  1
  O  O20  1  0.99997900  0.83836000  0.09152600  1
  O  O21  1  0.49999100  0.15838700  0.41185000  1
  O  O22  1  0.00028100  0.33831100  0.59139700  1
  O  O23  1  0.50015500  0.65854800  0.91186300  1
  O  O24  1  0.24974300  0.88690100  0.86140500  1
  O  O25  1  0.74995500  0.10657800  0.14227300  1
  O  O26  1  0.24958300  0.38702700  0.36139400  1
  O  O27  1  0.75009700  0.60656900  0.64230300  1
  O  O28  1  0.25001300  0.10657900  0.14227200  1
  O  O29  1  0.75039800  0.38700900  0.36139400  1
  O  O30  1  0.25009300  0.60616200  0.64278300  1
  O  O31  1  0.75021800  0.88692600  0.86139900  1
  O  O32  1  0.25032600  0.61116200  0.14021600  1
  O  O33  1  0.75020600  0.89879100  0.35265000  1
  O  O34  1  0.25042700  0.11114500  0.64023200  1
  O  O35  1  0.75023400  0.39877200  0.85267300  1
  O  O36  1  0.24977900  0.89879500  0.35265900  1
  O  O37  1  0.74949600  0.11118100  0.64025200  1
  O  O38  1  0.24970500  0.39876600  0.85269300  1
  O  O39  1  0.74961100  0.61113900  0.14021300  1
