# generated using pymatgen
data_VOF2
_symmetry_space_group_name_H-M   'P 1'
_cell_length_a   5.31012356
_cell_length_b   5.38601273
_cell_length_c   9.23027741
_cell_angle_alpha   106.36325924
_cell_angle_beta   105.61530559
_cell_angle_gamma   60.75216031
_symmetry_Int_Tables_number   1
_chemical_formula_structural   VOF2
_chemical_formula_sum   'V4 O4 F8'
_cell_volume   218.26029043
_cell_formula_units_Z   4
loop_
 _symmetry_equiv_pos_site_id
 _symmetry_equiv_pos_as_xyz
  1  'x, y, z'
loop_
 _atom_site_type_symbol
 _atom_site_label
 _atom_site_symmetry_multiplicity
 _atom_site_fract_x
 _atom_site_fract_y
 _atom_site_fract_z
 _atom_site_occupancy
  V  V0  1  0.51311100  0.51208200  0.49053200  1
  V  V1  1  0.26003500  0.25900100  0.73728300  1
  V  V2  1  0.01310500  0.01215200  0.99054600  1
  V  V3  1  0.76008100  0.75899300  0.23729800  1
  O  O4  1  0.63490600  0.63580400  0.39095500  1
  O  O5  1  0.13490500  0.13592000  0.89098700  1
  O  O6  1  0.85902400  0.85909900  0.11466800  1
  O  O7  1  0.35889600  0.35904600  0.61461500  1
  F  F8  1  0.15738500  0.54136900  0.34244400  1
  F  F9  1  0.65734200  0.04149800  0.84247200  1
  F  F10  1  0.77566800  0.39224400  0.10768500  1
  F  F11  1  0.27572000  0.89217300  0.60770600  1
  F  F12  1  0.71579100  0.09952900  0.40053700  1
  F  F13  1  0.21573300  0.59963100  0.90046300  1
  F  F14  1  0.33418200  0.95075600  0.16589800  1
  F  F15  1  0.83411400  0.45070400  0.66591100  1
