# generated using pymatgen
data_CaLa2Ti2Mn2O12
_symmetry_space_group_name_H-M   'P 1'
_cell_length_a   5.42445429
_cell_length_b   9.44914870
_cell_length_c   9.42944416
_cell_angle_alpha   70.31827475
_cell_angle_beta   89.78269656
_cell_angle_gamma   90.30635594
_symmetry_Int_Tables_number   1
_chemical_formula_structural   CaLa2Ti2Mn2O12
_chemical_formula_sum   'Ca2 La4 Ti4 Mn4 O24'
_cell_volume   455.06901739
_cell_formula_units_Z   2
loop_
 _symmetry_equiv_pos_site_id
 _symmetry_equiv_pos_as_xyz
  1  'x, y, z'
loop_
 _atom_site_type_symbol
 _atom_site_label
 _atom_site_symmetry_multiplicity
 _atom_site_fract_x
 _atom_site_fract_y
 _atom_site_fract_z
 _atom_site_occupancy
  Ca  Ca0  1  0.49876400  0.38988200  0.86074200  1
  Ca  Ca1  1  0.49872800  0.88988500  0.36072700  1
  La  La2  1  0.00581600  0.13783200  0.11197700  1
  La  La3  1  0.00580400  0.63783000  0.61194500  1
  La  La4  1  0.50648100  0.61525800  0.13520700  1
  La  La5  1  0.50648000  0.11526000  0.63521500  1
  Ti  Ti6  1  0.00034100  0.74789800  0.23912900  1
  Ti  Ti7  1  0.00033900  0.24790400  0.73913300  1
  Ti  Ti8  1  0.50460400  0.75663700  0.75830000  1
  Ti  Ti9  1  0.50460500  0.25662800  0.25829300  1
  Mn  Mn10  1  0.00122900  0.00112700  0.49761400  1
  Mn  Mn11  1  0.50199100  0.00136800  0.99922500  1
  Mn  Mn12  1  0.00124100  0.50112900  0.99761000  1
  Mn  Mn13  1  0.50197900  0.50135800  0.49923000  1
  O  O14  1  0.05332900  0.63024800  0.11693600  1
  O  O15  1  0.05333000  0.13024600  0.61693400  1
  O  O16  1  0.23332500  0.40613400  0.63304100  1
  O  O17  1  0.23332500  0.90613400  0.13304100  1
  O  O18  1  0.22815300  0.61391800  0.84535200  1
  O  O19  1  0.22816000  0.11391400  0.34535200  1
  O  O20  1  0.28463300  0.15587400  0.87618000  1
  O  O21  1  0.28467900  0.65587500  0.37622000  1
  O  O22  1  0.27572800  0.37582500  0.09138100  1
  O  O23  1  0.27574200  0.87581900  0.59138500  1
  O  O24  1  0.45025000  0.37698200  0.37591900  1
  O  O25  1  0.45024900  0.87698100  0.87591600  1
  O  O26  1  0.55740400  0.62078000  0.62461700  1
  O  O27  1  0.55740100  0.12077700  0.12461600  1
  O  O28  1  0.71588800  0.61389500  0.90232600  1
  O  O29  1  0.71588700  0.11389200  0.40232900  1
  O  O30  1  0.71195100  0.85115800  0.13213200  1
  O  O31  1  0.71194900  0.35115700  0.63213200  1
  O  O32  1  0.77037700  0.37827200  0.14587500  1
  O  O33  1  0.77036500  0.87826500  0.64588300  1
  O  O34  1  0.76827700  0.60293200  0.37242500  1
  O  O35  1  0.76825700  0.10292600  0.87243200  1
  O  O36  1  0.94156000  0.37241100  0.88216800  1
  O  O37  1  0.94156300  0.87240900  0.38216200  1
