# generated using pymatgen
data_Ba2FeWO6
_symmetry_space_group_name_H-M   'P 1'
_cell_length_a   5.84096198
_cell_length_b   10.11454166
_cell_length_c   5.86586859
_cell_angle_alpha   73.70473486
_cell_angle_beta   119.59379792
_cell_angle_gamma   106.65842587
_symmetry_Int_Tables_number   1
_chemical_formula_structural   Ba2FeWO6
_chemical_formula_sum   'Ba4 Fe2 W2 O12'
_cell_volume   284.64473763
_cell_formula_units_Z   2
loop_
 _symmetry_equiv_pos_site_id
 _symmetry_equiv_pos_as_xyz
  1  'x, y, z'
loop_
 _atom_site_type_symbol
 _atom_site_label
 _atom_site_symmetry_multiplicity
 _atom_site_fract_x
 _atom_site_fract_y
 _atom_site_fract_z
 _atom_site_occupancy
  Ba  Ba0  1  0.37267300  0.12455000  0.62625300  1
  Ba  Ba1  1  0.87774200  0.62482100  0.12305400  1
  Ba  Ba2  1  0.12729600  0.37542600  0.87371700  1
  Ba  Ba3  1  0.62217000  0.87516400  0.37685700  1
  Fe  Fe4  1  0.25015200  0.74999000  0.75012600  1
  Fe  Fe5  1  0.75017400  0.25012400  0.25025700  1
  W  W6  1  0.50388400  0.50013900  0.49791100  1
  W  W7  1  0.99610600  0.99986100  0.00208600  1
  O  O8  1  0.15125100  0.38184300  0.37968100  1
  O  O9  1  0.63681700  0.88025700  0.88397000  1
  O  O10  1  0.87454400  0.11939100  0.12224500  1
  O  O11  1  0.38728700  0.61874800  0.61603500  1
  O  O12  1  0.62545100  0.38059700  0.37774100  1
  O  O13  1  0.11270300  0.88123000  0.88391800  1
  O  O14  1  0.34870300  0.11814500  0.12027700  1
  O  O15  1  0.86311900  0.61972900  0.61597000  1
  O  O16  1  0.87704600  0.11730600  0.65032600  1
  O  O17  1  0.38873600  0.61798400  0.14497600  1
  O  O18  1  0.62293800  0.38268800  0.84961400  1
  O  O19  1  0.11120800  0.88200800  0.35498500  1
