# generated using pymatgen
data_Cr4OF11
_symmetry_space_group_name_H-M   'P 1'
_cell_length_a   5.10198941
_cell_length_b   5.33597087
_cell_length_c   8.78074139
_cell_angle_alpha   74.69939331
_cell_angle_beta   89.68043615
_cell_angle_gamma   118.21487667
_symmetry_Int_Tables_number   1
_chemical_formula_structural   Cr4OF11
_chemical_formula_sum   'Cr4 O1 F11'
_cell_volume   200.77460935
_cell_formula_units_Z   1
loop_
 _symmetry_equiv_pos_site_id
 _symmetry_equiv_pos_as_xyz
  1  'x, y, z'
loop_
 _atom_site_type_symbol
 _atom_site_label
 _atom_site_symmetry_multiplicity
 _atom_site_fract_x
 _atom_site_fract_y
 _atom_site_fract_z
 _atom_site_occupancy
  Cr  Cr0  1  0.49869700  0.98275600  0.49172100  1
  Cr  Cr1  1  0.99944600  0.00093700  0.00024900  1
  Cr  Cr2  1  0.25054800  0.50489200  0.25362800  1
  Cr  Cr3  1  0.74806600  0.49666000  0.74761100  1
  O  O4  1  0.50101900  0.76051700  0.38068100  1
  F  F5  1  0.99005400  0.74789700  0.87390700  1
  F  F6  1  0.56491400  0.75280100  0.68293900  1
  F  F7  1  0.56704800  0.75266600  0.06910900  1
  F  F8  1  0.00712700  0.25248500  0.12593300  1
  F  F9  1  0.50803100  0.24357600  0.62184900  1
  F  F10  1  0.93354400  0.24907600  0.81498500  1
  F  F11  1  0.43309500  0.25097400  0.93206300  1
  F  F12  1  0.93041500  0.25198200  0.43672500  1
  F  F13  1  0.43360600  0.24833600  0.31973000  1
  F  F14  1  0.06819900  0.75063000  0.56400100  1
  F  F15  1  0.06619400  0.75381500  0.18486800  1
