# generated using pymatgen
data_Ba2LaMn2O7
_symmetry_space_group_name_H-M   'P 1'
_cell_length_a   5.67717085
_cell_length_b   10.82766175
_cell_length_c   5.67679467
_cell_angle_alpha   105.19708702
_cell_angle_beta   90.00545235
_cell_angle_gamma   89.99858793
_symmetry_Int_Tables_number   1
_chemical_formula_structural   Ba2LaMn2O7
_chemical_formula_sum   'Ba4 La2 Mn4 O14'
_cell_volume   336.75229398
_cell_formula_units_Z   2
loop_
 _symmetry_equiv_pos_site_id
 _symmetry_equiv_pos_as_xyz
  1  'x, y, z'
loop_
 _atom_site_type_symbol
 _atom_site_label
 _atom_site_symmetry_multiplicity
 _atom_site_fract_x
 _atom_site_fract_y
 _atom_site_fract_z
 _atom_site_occupancy
  Ba  Ba0  1  0.00000000  0.36246400  0.68123900  1
  Ba  Ba1  1  0.50000000  0.36238400  0.18119800  1
  Ba  Ba2  1  0.49999900  0.63762700  0.81881000  1
  Ba  Ba3  1  0.99999800  0.63755200  0.31876800  1
  La  La4  1  0.00000000  0.00000400  0.50000100  1
  La  La5  1  0.50000100  0.00000100  0.00000100  1
  Mn  Mn6  1  0.00000000  0.81487900  0.90745200  1
  Mn  Mn7  1  0.00000500  0.18512500  0.09254300  1
  Mn  Mn8  1  0.49999900  0.81191800  0.40597900  1
  Mn  Mn9  1  0.50000000  0.18808000  0.59402300  1
  O  O10  1  0.50000000  0.00001100  0.50000700  1
  O  O11  1  0.00000000  0.00000000  0.00000100  1
  O  O12  1  0.99999900  0.62879900  0.81443800  1
  O  O13  1  0.49999900  0.62743400  0.31375500  1
  O  O14  1  0.50000000  0.37255700  0.68624200  1
  O  O15  1  0.00000100  0.37119300  0.18555900  1
  O  O16  1  0.75950900  0.82770100  0.67330400  1
  O  O17  1  0.24047600  0.82769900  0.15443700  1
  O  O18  1  0.75955400  0.82770200  0.15440700  1
  O  O19  1  0.24045800  0.82770500  0.67333600  1
  O  O20  1  0.75951200  0.17229500  0.84554700  1
  O  O21  1  0.24050300  0.17229200  0.32670700  1
  O  O22  1  0.75953200  0.17228700  0.32667100  1
  O  O23  1  0.24045600  0.17229000  0.84557700  1
