# generated using pymatgen
data_SrLa(FeO3)2
_symmetry_space_group_name_H-M   'P 1'
_cell_length_a   5.49124261
_cell_length_b   7.96900161
_cell_length_c   5.54964383
_cell_angle_alpha   89.26945850
_cell_angle_beta   89.97568490
_cell_angle_gamma   90.72094660
_symmetry_Int_Tables_number   1
_chemical_formula_structural   SrLa(FeO3)2
_chemical_formula_sum   'Sr2 La2 Fe4 O12'
_cell_volume   242.81186186
_cell_formula_units_Z   2
loop_
 _symmetry_equiv_pos_site_id
 _symmetry_equiv_pos_as_xyz
  1  'x, y, z'
loop_
 _atom_site_type_symbol
 _atom_site_label
 _atom_site_symmetry_multiplicity
 _atom_site_fract_x
 _atom_site_fract_y
 _atom_site_fract_z
 _atom_site_occupancy
  Sr  Sr0  1  0.49956900  0.25076400  0.00099300  1
  Sr  Sr1  1  0.99956800  0.75073300  0.50094700  1
  La  La2  1  0.50071200  0.74902700  0.00171000  1
  La  La3  1  0.00076800  0.24907800  0.50163900  1
  Fe  Fe4  1  0.50021800  0.00034100  0.50036900  1
  Fe  Fe5  1  0.99970800  0.99981900  0.00068600  1
  Fe  Fe6  1  0.00022200  0.50035000  0.00032700  1
  Fe  Fe7  1  0.49973500  0.49983300  0.50073600  1
  O  O8  1  0.22376200  0.52335200  0.73295700  1
  O  O9  1  0.72372300  0.02334800  0.23294500  1
  O  O10  1  0.26728400  0.47676400  0.22262300  1
  O  O11  1  0.76729600  0.97670400  0.72260600  1
  O  O12  1  0.00018800  0.75640100  0.04471800  1
  O  O13  1  0.50012900  0.25640600  0.54476800  1
  O  O14  1  0.72442400  0.53062800  0.78513200  1
  O  O15  1  0.22438000  0.03066100  0.28515700  1
  O  O16  1  0.00019800  0.24362800  0.93651200  1
  O  O17  1  0.50017600  0.74363100  0.43653800  1
  O  O18  1  0.78396000  0.46930700  0.27429500  1
  O  O19  1  0.28398100  0.96922300  0.77434300  1
