# generated using pymatgen
data_Ba2MnNbO6
_symmetry_space_group_name_H-M   'P 1'
_cell_length_a   8.16860500
_cell_length_b   10.11407168
_cell_length_c   8.24862200
_cell_angle_alpha   65.93491180
_cell_angle_beta   89.99961606
_cell_angle_gamma   66.18285122
_symmetry_Int_Tables_number   1
_chemical_formula_structural   Ba2MnNbO6
_chemical_formula_sum   'Ba8 Mn4 Nb4 O24'
_cell_volume   558.08983621
_cell_formula_units_Z   4
loop_
 _symmetry_equiv_pos_site_id
 _symmetry_equiv_pos_as_xyz
  1  'x, y, z'
loop_
 _atom_site_type_symbol
 _atom_site_label
 _atom_site_symmetry_multiplicity
 _atom_site_fract_x
 _atom_site_fract_y
 _atom_site_fract_z
 _atom_site_occupancy
  Ba  Ba0  1  0.25000500  0.50002100  0.74949100  1
  Ba  Ba1  1  0.50080400  0.00001800  0.49999800  1
  Ba  Ba2  1  0.75002800  0.49999600  0.25052900  1
  Ba  Ba3  1  0.99917600  0.99999600  0.00000200  1
  Ba  Ba4  1  0.75000300  0.50002800  0.74947300  1
  Ba  Ba5  1  0.99918600  0.00002700  0.50002500  1
  Ba  Ba6  1  0.24997100  0.49999600  0.25051500  1
  Ba  Ba7  1  0.50084200  0.99999600  0.99999500  1
  Mn  Mn8  1  0.12533400  0.24953600  0.12500300  1
  Mn  Mn9  1  0.37499700  0.75013300  0.87524300  1
  Mn  Mn10  1  0.87496200  0.74989000  0.37504700  1
  Mn  Mn11  1  0.62490800  0.25010200  0.62497700  1
  Nb  Nb12  1  0.37593700  0.74811600  0.37599100  1
  Nb  Nb13  1  0.62584000  0.24832600  0.12580200  1
  Nb  Nb14  1  0.87419300  0.75164200  0.87425000  1
  Nb  Nb15  1  0.12405200  0.25185800  0.62396300  1
  O  O16  1  0.50504700  0.48993500  0.50508700  1
  O  O17  1  0.75528300  0.98949000  0.25528500  1
  O  O18  1  0.99148300  0.51704600  0.99146000  1
  O  O19  1  0.24134300  0.01734700  0.74131800  1
  O  O20  1  0.25862700  0.98272000  0.25866600  1
  O  O21  1  0.50853300  0.48299600  0.00847500  1
  O  O22  1  0.74467100  0.01051200  0.74468000  1
  O  O23  1  0.99487500  0.51010900  0.49490100  1
  O  O24  1  0.62264300  0.74312100  0.37849200  1
  O  O25  1  0.88208200  0.24463400  0.12766800  1
  O  O26  1  0.12672200  0.75535900  0.87232300  1
  O  O27  1  0.36573100  0.25698300  0.62148200  1
  O  O28  1  0.13419400  0.74308600  0.37849800  1
  O  O29  1  0.37327200  0.24465800  0.12763800  1
  O  O30  1  0.61794700  0.75533400  0.87231600  1
  O  O31  1  0.87731400  0.25689500  0.62151400  1
  O  O32  1  0.37778400  0.74452300  0.12627200  1
  O  O33  1  0.62861700  0.24282100  0.88786500  1
  O  O34  1  0.87140700  0.75718700  0.63068500  1
  O  O35  1  0.12225500  0.25546500  0.37076000  1
  O  O36  1  0.37777100  0.74451800  0.62923600  1
  O  O37  1  0.62858700  0.24283600  0.36927000  1
  O  O38  1  0.87135500  0.75724300  0.11209400  1
  O  O39  1  0.12222300  0.25550100  0.87371000  1
