# generated using pymatgen
data_VO2
_symmetry_space_group_name_H-M   'P 1'
_cell_length_a   3.05785055
_cell_length_b   7.21021433
_cell_length_c   7.19604835
_cell_angle_alpha   87.39682664
_cell_angle_beta   77.73407522
_cell_angle_gamma   77.76005634
_symmetry_Int_Tables_number   1
_chemical_formula_structural   VO2
_chemical_formula_sum   'V4 O8'
_cell_volume   151.51071666
_cell_formula_units_Z   4
loop_
 _symmetry_equiv_pos_site_id
 _symmetry_equiv_pos_as_xyz
  1  'x, y, z'
loop_
 _atom_site_type_symbol
 _atom_site_label
 _atom_site_symmetry_multiplicity
 _atom_site_fract_x
 _atom_site_fract_y
 _atom_site_fract_z
 _atom_site_occupancy
  V  V0  1  0.15728300  0.50527500  0.18018300  1
  V  V1  1  0.84271700  0.49472600  0.81981500  1
  V  V2  1  0.66289400  0.17967900  0.49472700  1
  V  V3  1  0.33710600  0.82032600  0.50527400  1
  O  O4  1  0.83437900  0.69825200  0.63282400  1
  O  O5  1  0.46732900  0.36731500  0.69790700  1
  O  O6  1  0.53267000  0.63268500  0.30209400  1
  O  O7  1  0.16562200  0.30175100  0.36717300  1
  O  O8  1  0.15871300  0.04786400  0.63477400  1
  O  O9  1  0.79309600  0.36566000  0.04814600  1
  O  O10  1  0.84129200  0.95213100  0.36522500  1
  O  O11  1  0.20690100  0.63433900  0.95186100  1
