# generated using pymatgen
data_Na2CoO3
_symmetry_space_group_name_H-M   'P 1'
_cell_length_a   5.28137362
_cell_length_b   5.28147196
_cell_length_c   10.89310864
_cell_angle_alpha   94.17331340
_cell_angle_beta   85.83111438
_cell_angle_gamma   60.08152237
_symmetry_Int_Tables_number   1
_chemical_formula_structural   Na2CoO3
_chemical_formula_sum   'Na8 Co4 O12'
_cell_volume   260.55988687
_cell_formula_units_Z   4
loop_
 _symmetry_equiv_pos_site_id
 _symmetry_equiv_pos_as_xyz
  1  'x, y, z'
loop_
 _atom_site_type_symbol
 _atom_site_label
 _atom_site_symmetry_multiplicity
 _atom_site_fract_x
 _atom_site_fract_y
 _atom_site_fract_z
 _atom_site_occupancy
  Na  Na0  1  0.25126800  0.75085400  0.25187500  1
  Na  Na1  1  0.75085600  0.25126600  0.74812500  1
  Na  Na2  1  0.00009900  0.00010400  0.00000300  1
  Na  Na3  1  0.49992500  0.49992600  0.49999900  1
  Na  Na4  1  0.90656000  0.40866000  0.25152300  1
  Na  Na5  1  0.40865700  0.90656300  0.74847400  1
  Na  Na6  1  0.59294400  0.09051600  0.25110800  1
  Na  Na7  1  0.09051400  0.59294500  0.74889500  1
  Co  Co8  1  0.17063800  0.17064200  0.49999700  1
  Co  Co9  1  0.82940000  0.82940000  0.49999800  1
  Co  Co10  1  0.66853700  0.66857000  0.00000000  1
  Co  Co11  1  0.33211700  0.33209200  0.99999800  1
  O  O12  1  0.91262400  0.08761400  0.40202000  1
  O  O13  1  0.41927800  0.59504800  0.89936500  1
  O  O14  1  0.59501400  0.41924100  0.10063500  1
  O  O15  1  0.08761800  0.91262300  0.59798300  1
  O  O16  1  0.94710300  0.66179300  0.10075600  1
  O  O17  1  0.46104400  0.15336100  0.59808100  1
  O  O18  1  0.35692500  0.01745300  0.09985500  1
  O  O19  1  0.84739500  0.53885400  0.59714000  1
  O  O20  1  0.53885300  0.84739300  0.40285900  1
  O  O21  1  0.01749400  0.35690900  0.90015100  1
  O  O22  1  0.15336000  0.46104100  0.40192000  1
  O  O23  1  0.66177900  0.94713300  0.89924000  1
