# generated using pymatgen
data_SrLaCoO4
_symmetry_space_group_name_H-M   'P 1'
_cell_length_a   6.94552094
_cell_length_b   7.70225764
_cell_length_c   8.64399115
_cell_angle_alpha   63.58965676
_cell_angle_beta   82.74948205
_cell_angle_gamma   106.10971778
_symmetry_Int_Tables_number   1
_chemical_formula_structural   SrLaCoO4
_chemical_formula_sum   'Sr4 La4 Co4 O16'
_cell_volume   380.78309018
_cell_formula_units_Z   4
loop_
 _symmetry_equiv_pos_site_id
 _symmetry_equiv_pos_as_xyz
  1  'x, y, z'
loop_
 _atom_site_type_symbol
 _atom_site_label
 _atom_site_symmetry_multiplicity
 _atom_site_fract_x
 _atom_site_fract_y
 _atom_site_fract_z
 _atom_site_occupancy
  Sr  Sr0  1  0.28641000  0.73276700  0.17754700  1
  Sr  Sr1  1  0.28516300  0.23188300  0.17910600  1
  Sr  Sr2  1  0.28305500  0.48368300  0.67877400  1
  Sr  Sr3  1  0.28471300  0.97903800  0.67969600  1
  La  La4  1  0.71641300  0.27174200  0.81989500  1
  La  La5  1  0.71759500  0.76650300  0.82102000  1
  La  La6  1  0.71334500  0.01751600  0.32154100  1
  La  La7  1  0.71258900  0.51689100  0.32261400  1
  Co  Co8  1  0.00771000  0.00243000  0.99935300  1
  Co  Co9  1  0.00795400  0.25353700  0.49671400  1
  Co  Co10  1  0.00823200  0.50162700  0.00053300  1
  Co  Co11  1  0.00874000  0.75466800  0.49520200  1
  O  O12  1  0.66906800  0.87581800  0.08202800  1
  O  O13  1  0.66495600  0.37027100  0.09285600  1
  O  O14  1  0.66403200  0.62852100  0.57482200  1
  O  O15  1  0.66829800  0.12522800  0.58375400  1
  O  O16  1  0.34750600  0.13252200  0.91114400  1
  O  O17  1  0.34918700  0.62909300  0.91406400  1
  O  O18  1  0.34678800  0.88062700  0.41194400  1
  O  O19  1  0.34504000  0.37831600  0.41578900  1
  O  O20  1  0.99163500  0.12175900  0.75216600  1
  O  O21  1  0.97529800  0.61564000  0.75613600  1
  O  O22  1  0.99225100  0.87649300  0.24294100  1
  O  O23  1  0.99190700  0.36765200  0.26095300  1
  O  O24  1  0.98975000  0.25220700  0.00398000  1
  O  O25  1  0.99182800  0.73926500  0.00369000  1
  O  O26  1  0.99053700  0.99037200  0.50101300  1
  O  O27  1  0.99000300  0.50393000  0.50072900  1
