# generated using pymatgen
data_CoO2
_symmetry_space_group_name_H-M   'P 1'
_cell_length_a   2.81464258
_cell_length_b   4.93760898
_cell_length_c   10.29481765
_cell_angle_alpha   89.82556036
_cell_angle_beta   89.90652404
_cell_angle_gamma   89.99541646
_symmetry_Int_Tables_number   1
_chemical_formula_structural   CoO2
_chemical_formula_sum   'Co4 O8'
_cell_volume   143.07244990
_cell_formula_units_Z   4
loop_
 _symmetry_equiv_pos_site_id
 _symmetry_equiv_pos_as_xyz
  1  'x, y, z'
loop_
 _atom_site_type_symbol
 _atom_site_label
 _atom_site_symmetry_multiplicity
 _atom_site_fract_x
 _atom_site_fract_y
 _atom_site_fract_z
 _atom_site_occupancy
  Co  Co0  1  0.49877300  0.50097100  0.50183200  1
  Co  Co1  1  0.99874900  0.00102600  0.00231800  1
  Co  Co2  1  0.99877300  0.00094000  0.50183200  1
  Co  Co3  1  0.49874800  0.50102000  0.00231400  1
  O  O4  1  0.49928700  0.83410800  0.41061600  1
  O  O5  1  0.99929400  0.33400000  0.41067800  1
  O  O6  1  0.49817600  0.83292800  0.09345200  1
  O  O7  1  0.99818200  0.33304300  0.09350300  1
  O  O8  1  0.49825800  0.16778100  0.59300200  1
  O  O9  1  0.99825300  0.66789800  0.59294400  1
  O  O10  1  0.49931300  0.16907100  0.91124100  1
  O  O11  1  0.99930700  0.66897900  0.91118200  1
