# generated using pymatgen
data_Sr2CrOsO6
_symmetry_space_group_name_H-M   'P 1'
_cell_length_a   5.60861189
_cell_length_b   5.60857653
_cell_length_c   9.71286004
_cell_angle_alpha   73.21870063
_cell_angle_beta   90.00013346
_cell_angle_gamma   120.00010843
_symmetry_Int_Tables_number   1
_chemical_formula_structural   Sr2CrOsO6
_chemical_formula_sum   'Sr4 Cr2 Os2 O12'
_cell_volume   249.45999781
_cell_formula_units_Z   2
loop_
 _symmetry_equiv_pos_site_id
 _symmetry_equiv_pos_as_xyz
  1  'x, y, z'
loop_
 _atom_site_type_symbol
 _atom_site_label
 _atom_site_symmetry_multiplicity
 _atom_site_fract_x
 _atom_site_fract_y
 _atom_site_fract_z
 _atom_site_occupancy
  Sr  Sr0  1  0.87603000  0.75203300  0.37202600  1
  Sr  Sr1  1  0.37391400  0.74786000  0.87822100  1
  Sr  Sr2  1  0.62397400  0.24797300  0.12797300  1
  Sr  Sr3  1  0.12608100  0.25213000  0.62179700  1
  Cr  Cr4  1  0.00145300  0.00292800  0.99560200  1
  Cr  Cr5  1  0.49853700  0.99705400  0.50445800  1
  Os  Os6  1  0.74998900  0.49998300  0.74999900  1
  Os  Os7  1  0.25000800  0.50001700  0.24996600  1
  O  O8  1  0.62312600  0.74910000  0.12503000  1
  O  O9  1  0.12184800  0.74803900  0.62584100  1
  O  O10  1  0.87688700  0.25089300  0.37496900  1
  O  O11  1  0.37820900  0.25199500  0.87414400  1
  O  O12  1  0.37401800  0.25090600  0.37496900  1
  O  O13  1  0.87376100  0.25200400  0.87414500  1
  O  O14  1  0.12596100  0.74911100  0.12502600  1
  O  O15  1  0.62621400  0.74802900  0.62583400  1
  O  O16  1  0.37402100  0.74801500  0.37502800  1
  O  O17  1  0.87375400  0.74751400  0.87421000  1
  O  O18  1  0.12597400  0.25195300  0.12498300  1
  O  O19  1  0.62624000  0.25246300  0.62577700  1
