# generated using pymatgen
data_SrMn2BiO6
_symmetry_space_group_name_H-M   'P 1'
_cell_length_a   5.55133071
_cell_length_b   5.70551747
_cell_length_c   5.47189513
_cell_angle_alpha   60.43486976
_cell_angle_beta   61.40908336
_cell_angle_gamma   93.15601745
_symmetry_Int_Tables_number   1
_chemical_formula_structural   SrMn2BiO6
_chemical_formula_sum   'Sr1 Mn2 Bi1 O6'
_cell_volume   122.36656715
_cell_formula_units_Z   1
loop_
 _symmetry_equiv_pos_site_id
 _symmetry_equiv_pos_as_xyz
  1  'x, y, z'
loop_
 _atom_site_type_symbol
 _atom_site_label
 _atom_site_symmetry_multiplicity
 _atom_site_fract_x
 _atom_site_fract_y
 _atom_site_fract_z
 _atom_site_occupancy
  Sr  Sr0  1  0.02640800  0.02642200  0.94717700  1
  Mn  Mn1  1  0.78751200  0.28749600  0.42499900  1
  Mn  Mn2  1  0.28489900  0.78490600  0.43019700  1
  Bi  Bi3  1  0.48166500  0.48169900  0.03660300  1
  O  O4  1  0.04071700  0.54069100  0.91861500  1
  O  O5  1  0.54278200  0.04277200  0.91444900  1
  O  O6  1  0.55267900  0.52115600  0.39679100  1
  O  O7  1  0.05051700  0.08205100  0.39679100  1
  O  O8  1  0.06554700  0.53839200  0.39278100  1
  O  O9  1  0.54170400  0.06884400  0.39273600  1
