# generated using pymatgen
data_Sr2Co(BrO)2
_symmetry_space_group_name_H-M   'P 1'
_cell_length_a   8.09613101
_cell_length_b   9.11519243
_cell_length_c   9.29762553
_cell_angle_alpha   96.34143883
_cell_angle_beta   64.17320228
_cell_angle_gamma   77.16921994
_symmetry_Int_Tables_number   1
_chemical_formula_structural   Sr2Co(BrO)2
_chemical_formula_sum   'Sr8 Co4 Br8 O8'
_cell_volume   585.16451755
_cell_formula_units_Z   4
loop_
 _symmetry_equiv_pos_site_id
 _symmetry_equiv_pos_as_xyz
  1  'x, y, z'
loop_
 _atom_site_type_symbol
 _atom_site_label
 _atom_site_symmetry_multiplicity
 _atom_site_fract_x
 _atom_site_fract_y
 _atom_site_fract_z
 _atom_site_occupancy
  Sr  Sr0  1  0.44557000  0.81152400  0.70300300  1
  Sr  Sr1  1  0.94578200  0.81132200  0.70289400  1
  Sr  Sr2  1  0.19452800  0.81177400  0.20310600  1
  Sr  Sr3  1  0.69650200  0.81217700  0.20305100  1
  Sr  Sr4  1  0.55549500  0.18819300  0.29695800  1
  Sr  Sr5  1  0.05357100  0.18782000  0.29687000  1
  Sr  Sr6  1  0.30439300  0.18844300  0.79700900  1
  Sr  Sr7  1  0.80417700  0.18873200  0.79709500  1
  Co  Co8  1  0.24956700  0.00001700  0.50084000  1
  Co  Co9  1  0.50042200  0.99999900  0.99915800  1
  Co  Co10  1  0.74955500  0.99996700  0.50094600  1
  Co  Co11  1  0.00043100  0.00004800  0.99906800  1
  Br  Br12  1  0.62135200  0.34272300  0.58596000  1
  Br  Br13  1  0.12118500  0.34366000  0.58578500  1
  Br  Br14  1  0.37072700  0.34368000  0.08598000  1
  Br  Br15  1  0.87174800  0.34268000  0.08523200  1
  Br  Br16  1  0.37914600  0.65631400  0.41403200  1
  Br  Br17  1  0.87813200  0.65730700  0.41474800  1
  Br  Br18  1  0.12874000  0.65730500  0.91408400  1
  Br  Br19  1  0.62895900  0.65632400  0.91419800  1
  O  O20  1  0.50301700  0.00013900  0.50054300  1
  O  O21  1  0.99650100  0.99987100  0.50042200  1
  O  O22  1  0.24698400  0.99999200  0.99939600  1
  O  O23  1  0.75350200  0.00000800  0.99963100  1
  O  O24  1  0.87510800  0.99993700  0.24999500  1
  O  O25  1  0.37497300  0.99998900  0.24999500  1
  O  O26  1  0.62182000  0.99997100  0.75656500  1
  O  O27  1  0.12811100  0.00008600  0.74343800  1
