# generated using pymatgen
data_Sr2VMoO6
_symmetry_space_group_name_H-M   'P 1'
_cell_length_a   6.92367076
_cell_length_b   6.92390302
_cell_length_c   6.92341191
_cell_angle_alpha   70.48487951
_cell_angle_beta   70.73900284
_cell_angle_gamma   109.63649379
_symmetry_Int_Tables_number   1
_chemical_formula_structural   Sr2VMoO6
_chemical_formula_sum   'Sr4 V2 Mo2 O12'
_cell_volume   255.49808734
_cell_formula_units_Z   2
loop_
 _symmetry_equiv_pos_site_id
 _symmetry_equiv_pos_as_xyz
  1  'x, y, z'
loop_
 _atom_site_type_symbol
 _atom_site_label
 _atom_site_symmetry_multiplicity
 _atom_site_fract_x
 _atom_site_fract_y
 _atom_site_fract_z
 _atom_site_occupancy
  Sr  Sr0  1  0.50000000  0.50000000  0.50000000  1
  Sr  Sr1  1  0.00000000  0.50000000  0.00000000  1
  Sr  Sr2  1  0.50000000  0.00000000  0.00000000  1
  Sr  Sr3  1  0.00000000  0.00000000  0.50000000  1
  V  V4  1  0.50000000  0.00000000  0.50000000  1
  V  V5  1  0.00000000  0.00000000  0.00000000  1
  Mo  Mo6  1  0.00000000  0.50000000  0.50000000  1
  Mo  Mo7  1  0.50000000  0.50000000  0.00000000  1
  O  O8  1  0.24984900  0.99996800  0.75016000  1
  O  O9  1  0.75015100  0.00003200  0.24984000  1
  O  O10  1  0.75906900  0.50001200  0.74088700  1
  O  O11  1  0.24093100  0.49998800  0.25911400  1
  O  O12  1  0.23734800  0.23734400  0.00003200  1
  O  O13  1  0.74891600  0.24895000  0.50000200  1
  O  O14  1  0.76265200  0.76265600  0.99996800  1
  O  O15  1  0.25108400  0.75105000  0.49999800  1
  O  O16  1  0.50001300  0.23763700  0.26235100  1
  O  O17  1  0.00006300  0.24910800  0.75089800  1
  O  O18  1  0.49998600  0.76236400  0.73764900  1
  O  O19  1  0.99993700  0.75089200  0.24910200  1
