# generated using pymatgen
data_BaFe2(PO4)2
_symmetry_space_group_name_H-M   'P 1'
_cell_length_a   4.94383889
_cell_length_b   4.94692745
_cell_length_c   16.21488493
_cell_angle_alpha   81.46214804
_cell_angle_beta   90.50132137
_cell_angle_gamma   60.01263940
_symmetry_Int_Tables_number   1
_chemical_formula_structural   BaFe2(PO4)2
_chemical_formula_sum   'Ba2 Fe4 P4 O16'
_cell_volume   338.07545842
_cell_formula_units_Z   2
loop_
 _symmetry_equiv_pos_site_id
 _symmetry_equiv_pos_as_xyz
  1  'x, y, z'
loop_
 _atom_site_type_symbol
 _atom_site_label
 _atom_site_symmetry_multiplicity
 _atom_site_fract_x
 _atom_site_fract_y
 _atom_site_fract_z
 _atom_site_occupancy
  Ba  Ba0  1  0.00285300  0.99050800  0.99989900  1
  Ba  Ba1  1  0.49512200  0.01067900  0.49991600  1
  Fe  Fe2  1  0.90678600  0.17165700  0.74479000  1
  Fe  Fe3  1  0.59220400  0.82282000  0.75507700  1
  Fe  Fe4  1  0.41710200  0.17749600  0.24497700  1
  Fe  Fe5  1  0.07757800  0.82836200  0.25505700  1
  P  P6  1  0.71678700  0.56851400  0.13814100  1
  P  P7  1  0.20980200  0.58224100  0.63806500  1
  P  P8  1  0.78334200  0.42976500  0.36193800  1
  P  P9  1  0.29091800  0.41950900  0.86191600  1
  O  O10  1  0.68632300  0.62849500  0.04236700  1
  O  O11  1  0.17413600  0.64902800  0.54229500  1
  O  O12  1  0.80910600  0.37651700  0.45769500  1
  O  O13  1  0.32324100  0.34513900  0.95764800  1
  O  O14  1  0.73992100  0.84243500  0.16991700  1
  O  O15  1  0.23503600  0.85209400  0.67105200  1
  O  O16  1  0.02018900  0.24201600  0.17186200  1
  O  O17  1  0.51659600  0.25446400  0.66967300  1
  O  O18  1  0.42036200  0.56051400  0.16950800  1
  O  O19  1  0.91444800  0.57416000  0.67030800  1
  O  O20  1  0.76523600  0.15149600  0.33174300  1
  O  O21  1  0.26638000  0.15270800  0.82589700  1
  O  O22  1  0.47948400  0.75591700  0.32640000  1
  O  O23  1  0.98834900  0.75028500  0.83102600  1
  O  O24  1  0.08252000  0.43158800  0.33088200  1
  O  O25  1  0.58617700  0.43159300  0.83195200  1
