# generated using pymatgen
data_Co2As2O7
_symmetry_space_group_name_H-M   'P 1'
_cell_length_a   4.87254734
_cell_length_b   6.52006000
_cell_length_c   8.71087878
_cell_angle_alpha   89.76148778
_cell_angle_beta   89.94213133
_cell_angle_gamma   102.06123900
_symmetry_Int_Tables_number   1
_chemical_formula_structural   Co2As2O7
_chemical_formula_sum   'Co4 As4 O14'
_cell_volume   270.62663235
_cell_formula_units_Z   2
loop_
 _symmetry_equiv_pos_site_id
 _symmetry_equiv_pos_as_xyz
  1  'x, y, z'
loop_
 _atom_site_type_symbol
 _atom_site_label
 _atom_site_symmetry_multiplicity
 _atom_site_fract_x
 _atom_site_fract_y
 _atom_site_fract_z
 _atom_site_occupancy
  Co  Co0  1  0.49363500  0.99815700  0.31640500  1
  Co  Co1  1  0.49040000  0.00653200  0.69624500  1
  Co  Co2  1  0.49484600  0.50233700  0.81119300  1
  Co  Co3  1  0.49170600  0.50099100  0.19265200  1
  As  As4  1  0.10010700  0.74884500  0.00029900  1
  As  As5  1  0.09929700  0.24752400  0.49909600  1
  As  As6  1  0.90002500  0.22507500  0.00128500  1
  As  As7  1  0.90061700  0.72357900  0.49985400  1
  O  O8  1  0.07112200  0.51659200  0.48460000  1
  O  O9  1  0.06629500  0.01595900  0.98704200  1
  O  O10  1  0.75558900  0.61424400  0.00302000  1
  O  O11  1  0.75328800  0.11523300  0.50411700  1
  O  O12  1  0.20432300  0.42013100  0.00102600  1
  O  O13  1  0.20338600  0.92103800  0.50476600  1
  O  O14  1  0.28915000  0.75610000  0.83161600  1
  O  O15  1  0.28127500  0.25067100  0.32797400  1
  O  O16  1  0.28756700  0.76022300  0.16824600  1
  O  O17  1  0.28560700  0.26171700  0.66800500  1
  O  O18  1  0.70541100  0.23289400  0.83845600  1
  O  O19  1  0.70948700  0.73367100  0.33589600  1
  O  O20  1  0.70754400  0.22562400  0.16446300  1
  O  O21  1  0.70932200  0.72285900  0.66374300  1
