# generated using pymatgen
data_Ba3Cr2O8
_symmetry_space_group_name_H-M   'P 1'
_cell_length_a   7.96298509
_cell_length_b   7.98083409
_cell_length_c   7.98117157
_cell_angle_alpha   42.95717561
_cell_angle_beta   43.00826585
_cell_angle_gamma   43.01377057
_symmetry_Int_Tables_number   1
_chemical_formula_structural   Ba3Cr2O8
_chemical_formula_sum   'Ba3 Cr2 O8'
_cell_volume   213.77593511
_cell_formula_units_Z   1
loop_
 _symmetry_equiv_pos_site_id
 _symmetry_equiv_pos_as_xyz
  1  'x, y, z'
loop_
 _atom_site_type_symbol
 _atom_site_label
 _atom_site_symmetry_multiplicity
 _atom_site_fract_x
 _atom_site_fract_y
 _atom_site_fract_z
 _atom_site_occupancy
  Ba  Ba0  1  0.79307100  0.79356000  0.79453300  1
  Ba  Ba1  1  0.20695100  0.20549300  0.20643100  1
  Ba  Ba2  1  0.99979900  0.00451700  0.99567900  1
  Cr  Cr3  1  0.59309700  0.59417200  0.59185000  1
  Cr  Cr4  1  0.40685100  0.40825500  0.40577400  1
  O  O5  1  0.67495700  0.66294800  0.67769900  1
  O  O6  1  0.32563700  0.32177100  0.33697900  1
  O  O7  1  0.27137700  0.27255500  0.75615100  1
  O  O8  1  0.27786500  0.75632600  0.27096300  1
  O  O9  1  0.75631600  0.27779300  0.27012000  1
  O  O10  1  0.72834100  0.24383000  0.72772600  1
  O  O11  1  0.72200200  0.72917800  0.24377900  1
  O  O12  1  0.24373600  0.72960300  0.72231700  1
