# generated using pymatgen
data_CoHO2
_symmetry_space_group_name_H-M   'P 1'
_cell_length_a   4.86024604
_cell_length_b   5.23068306
_cell_length_c   6.04582591
_cell_angle_alpha   93.51127160
_cell_angle_beta   85.44654696
_cell_angle_gamma   111.51486479
_symmetry_Int_Tables_number   1
_chemical_formula_structural   CoHO2
_chemical_formula_sum   'Co4 H4 O8'
_cell_volume   142.45315534
_cell_formula_units_Z   4
loop_
 _symmetry_equiv_pos_site_id
 _symmetry_equiv_pos_as_xyz
  1  'x, y, z'
loop_
 _atom_site_type_symbol
 _atom_site_label
 _atom_site_symmetry_multiplicity
 _atom_site_fract_x
 _atom_site_fract_y
 _atom_site_fract_z
 _atom_site_occupancy
  Co  Co0  1  0.00240600  0.49659100  0.74999200  1
  Co  Co1  1  0.99813500  0.99140300  0.49740400  1
  Co  Co2  1  0.00153500  0.50819000  0.25258200  1
  Co  Co3  1  0.99787800  0.00373400  0.00002200  1
  H  H4  1  0.45554100  0.98562300  0.75526800  1
  H  H5  1  0.53872000  0.00929700  0.24283800  1
  H  H6  1  0.46001400  0.48984700  0.50694700  1
  H  H7  1  0.54523300  0.51518200  0.99479900  1
  O  O8  1  0.22374600  0.90128300  0.75616400  1
  O  O9  1  0.22143900  0.91768200  0.25108600  1
  O  O10  1  0.22696500  0.41281100  0.50389200  1
  O  O11  1  0.21330700  0.39833000  0.00771800  1
  O  O12  1  0.78694300  0.10194600  0.74226700  1
  O  O13  1  0.77240600  0.08660300  0.24584300  1
  O  O14  1  0.77888800  0.58222500  0.49912100  1
  O  O15  1  0.77684300  0.59925300  0.99405800  1
