# generated using pymatgen
data_VOF2
_symmetry_space_group_name_H-M   'P 1'
_cell_length_a   5.21265087
_cell_length_b   7.55559737
_cell_length_c   5.40737555
_cell_angle_alpha   92.17751713
_cell_angle_beta   90.05986634
_cell_angle_gamma   89.98448479
_symmetry_Int_Tables_number   1
_chemical_formula_structural   VOF2
_chemical_formula_sum   'V4 O4 F8'
_cell_volume   212.81391116
_cell_formula_units_Z   4
loop_
 _symmetry_equiv_pos_site_id
 _symmetry_equiv_pos_as_xyz
  1  'x, y, z'
loop_
 _atom_site_type_symbol
 _atom_site_label
 _atom_site_symmetry_multiplicity
 _atom_site_fract_x
 _atom_site_fract_y
 _atom_site_fract_z
 _atom_site_occupancy
  V  V0  1  0.97841200  0.50568000  0.03816300  1
  V  V1  1  0.97891400  0.99429800  0.96244800  1
  V  V2  1  0.47110900  0.00557000  0.47093500  1
  V  V3  1  0.46918600  0.49448100  0.52912700  1
  O  O4  1  0.79383200  0.53964300  0.28573600  1
  O  O5  1  0.79016000  0.95983600  0.71737900  1
  O  O6  1  0.22773700  0.04220000  0.28065000  1
  O  O7  1  0.22257600  0.45766700  0.71497700  1
  F  F8  1  0.90657900  0.24996500  0.00019000  1
  F  F9  1  0.10532600  0.74975600  0.99926800  1
  F  F10  1  0.60428700  0.25025900  0.50147300  1
  F  F11  1  0.40854600  0.74983900  0.49813500  1
  F  F12  1  0.72711400  0.94423500  0.21770500  1
  F  F13  1  0.72057300  0.55734900  0.78720800  1
  F  F14  1  0.29934500  0.44768000  0.20862600  1
  F  F15  1  0.29630300  0.05154200  0.78798100  1
