# generated using pymatgen
data_MnBO3
_symmetry_space_group_name_H-M   'P 1'
_cell_length_a   4.76070821
_cell_length_b   8.05416810
_cell_length_c   5.92081436
_cell_angle_alpha   106.40013404
_cell_angle_beta   61.56045121
_cell_angle_gamma   92.50722350
_symmetry_Int_Tables_number   1
_chemical_formula_structural   MnBO3
_chemical_formula_sum   'Mn4 B4 O12'
_cell_volume   190.39484754
_cell_formula_units_Z   4
loop_
 _symmetry_equiv_pos_site_id
 _symmetry_equiv_pos_as_xyz
  1  'x, y, z'
loop_
 _atom_site_type_symbol
 _atom_site_label
 _atom_site_symmetry_multiplicity
 _atom_site_fract_x
 _atom_site_fract_y
 _atom_site_fract_z
 _atom_site_occupancy
  Mn  Mn0  1  0.49881800  0.50015600  0.99967300  1
  Mn  Mn1  1  0.74928800  0.75031600  0.49946100  1
  Mn  Mn2  1  0.99896500  0.00020600  0.99952500  1
  Mn  Mn3  1  0.24932300  0.25034100  0.49940200  1
  B  B4  1  0.13173400  0.63283400  0.75010500  1
  B  B5  1  0.63170200  0.13285100  0.74994300  1
  B  B6  1  0.36831300  0.86713200  0.25033600  1
  B  B7  1  0.86817600  0.36719400  0.25042100  1
  O  O8  1  0.98066200  0.78090600  0.76528100  1
  O  O9  1  0.48051900  0.28092500  0.76527400  1
  O  O10  1  0.07005400  0.86850700  0.26595400  1
  O  O11  1  0.56997700  0.36854400  0.26593500  1
  O  O12  1  0.02046700  0.51940400  0.25021700  1
  O  O13  1  0.52061000  0.01938300  0.24997400  1
  O  O14  1  0.47953600  0.98071400  0.75036700  1
  O  O15  1  0.97959900  0.48069700  0.75050100  1
  O  O16  1  0.43083700  0.63109800  0.73425100  1
  O  O17  1  0.93080600  0.13107100  0.73407000  1
  O  O18  1  0.52037600  0.71883900  0.23464700  1
  O  O19  1  0.02023800  0.21888200  0.23466300  1
