# generated using pymatgen
data_MgMnPO5
_symmetry_space_group_name_H-M   'P 1'
_cell_length_a   5.41929624
_cell_length_b   6.91200422
_cell_length_c   8.35286436
_cell_angle_alpha   90.03527133
_cell_angle_beta   140.46370051
_cell_angle_gamma   75.03787141
_symmetry_Int_Tables_number   1
_chemical_formula_structural   MgMnPO5
_chemical_formula_sum   'Mg2 Mn2 P2 O10'
_cell_volume   182.11984211
_cell_formula_units_Z   2
loop_
 _symmetry_equiv_pos_site_id
 _symmetry_equiv_pos_as_xyz
  1  'x, y, z'
loop_
 _atom_site_type_symbol
 _atom_site_label
 _atom_site_symmetry_multiplicity
 _atom_site_fract_x
 _atom_site_fract_y
 _atom_site_fract_z
 _atom_site_occupancy
  Mg  Mg0  1  0.35461500  0.29743300  0.10858600  1
  Mg  Mg1  1  0.35818500  0.79506000  0.74605800  1
  Mn  Mn2  1  0.49183400  0.49145800  0.48644000  1
  Mn  Mn3  1  0.49444000  0.99178100  0.50528100  1
  P  P4  1  0.53340900  0.23360700  0.87158300  1
  P  P5  1  0.52973500  0.73295700  0.15979400  1
  O  O6  1  0.42459300  0.06863800  0.72535200  1
  O  O7  1  0.71077700  0.34989600  0.84061500  1
  O  O8  1  0.71176100  0.84805600  0.36957000  1
  O  O9  1  0.40698200  0.57330600  0.19142900  1
  O  O10  1  0.84106600  0.62210100  0.17531100  1
  O  O11  1  0.14721000  0.89336700  0.87178000  1
  O  O12  1  0.14538300  0.39313800  0.77196700  1
  O  O13  1  0.84369500  0.12879200  0.16876700  1
  O  O14  1  0.50609100  0.73447800  0.59191300  1
  O  O15  1  0.51117200  0.23332500  0.41408700  1
