# generated using pymatgen
data_Mn3O4
_symmetry_space_group_name_H-M   'P 1'
_cell_length_a   3.06941303
_cell_length_b   9.74305300
_cell_length_c   9.99210734
_cell_angle_alpha   89.99937809
_cell_angle_beta   89.90629897
_cell_angle_gamma   89.99854842
_symmetry_Int_Tables_number   1
_chemical_formula_structural   Mn3O4
_chemical_formula_sum   'Mn12 O16'
_cell_volume   298.81810471
_cell_formula_units_Z   4
loop_
 _symmetry_equiv_pos_site_id
 _symmetry_equiv_pos_as_xyz
  1  'x, y, z'
loop_
 _atom_site_type_symbol
 _atom_site_label
 _atom_site_symmetry_multiplicity
 _atom_site_fract_x
 _atom_site_fract_y
 _atom_site_fract_z
 _atom_site_occupancy
  Mn  Mn0  1  0.29759200  0.75014900  0.14341200  1
  Mn  Mn1  1  0.70249300  0.75001000  0.64333400  1
  Mn  Mn2  1  0.68599800  0.24998300  0.85472200  1
  Mn  Mn3  1  0.31377500  0.24983600  0.35496200  1
  Mn  Mn4  1  0.20875900  0.43035900  0.61488800  1
  Mn  Mn5  1  0.21452800  0.92942500  0.88537900  1
  Mn  Mn6  1  0.79103000  0.43029800  0.11486400  1
  Mn  Mn7  1  0.21467000  0.57052400  0.88543500  1
  Mn  Mn8  1  0.78562000  0.57056200  0.38540400  1
  Mn  Mn9  1  0.79127400  0.06973200  0.11487500  1
  Mn  Mn10  1  0.78548300  0.92943200  0.38536400  1
  Mn  Mn11  1  0.20825600  0.06967500  0.61490300  1
  O  O12  1  0.37213100  0.49870700  0.25046600  1
  O  O13  1  0.37193900  0.00133000  0.25044600  1
  O  O14  1  0.62794200  0.00136500  0.75040300  1
  O  O15  1  0.62812400  0.49864000  0.75044800  1
  O  O16  1  0.20177500  0.74995800  0.79864900  1
  O  O17  1  0.79855000  0.75002700  0.29857000  1
  O  O18  1  0.18963500  0.24999800  0.70156100  1
  O  O19  1  0.81031100  0.24998500  0.20168000  1
  O  O20  1  0.78858000  0.11203700  0.47093400  1
  O  O21  1  0.79497500  0.61198300  0.02909800  1
  O  O22  1  0.78877300  0.38799600  0.47100500  1
  O  O23  1  0.20504500  0.88796100  0.52903700  1
  O  O24  1  0.20523600  0.61207700  0.52909600  1
  O  O25  1  0.21126900  0.11210100  0.97097000  1
  O  O26  1  0.21133100  0.38784500  0.97099400  1
  O  O27  1  0.79490200  0.88800400  0.02910000  1
