# generated using pymatgen
data_CaLaMn2O6
_symmetry_space_group_name_H-M   'P 1'
_cell_length_a   5.53734447
_cell_length_b   7.59511666
_cell_length_c   5.59716236
_cell_angle_alpha   89.61227231
_cell_angle_beta   86.48988665
_cell_angle_gamma   89.51189896
_symmetry_Int_Tables_number   1
_chemical_formula_structural   CaLaMn2O6
_chemical_formula_sum   'Ca2 La2 Mn4 O12'
_cell_volume   234.94387877
_cell_formula_units_Z   2
loop_
 _symmetry_equiv_pos_site_id
 _symmetry_equiv_pos_as_xyz
  1  'x, y, z'
loop_
 _atom_site_type_symbol
 _atom_site_label
 _atom_site_symmetry_multiplicity
 _atom_site_fract_x
 _atom_site_fract_y
 _atom_site_fract_z
 _atom_site_occupancy
  Ca  Ca0  1  0.01013800  0.49856300  0.79532500  1
  Ca  Ca1  1  0.51745900  0.00002800  0.20319100  1
  La  La2  1  0.03312000  0.00023900  0.71542600  1
  La  La3  1  0.52506600  0.50035400  0.28592900  1
  Mn  Mn4  1  0.52413500  0.74984900  0.75017700  1
  Mn  Mn5  1  0.02273300  0.24912100  0.24919200  1
  Mn  Mn6  1  0.52371200  0.25119300  0.75103700  1
  Mn  Mn7  1  0.02109700  0.75027900  0.24962300  1
  O  O8  1  0.09564600  0.49854900  0.22536000  1
  O  O9  1  0.59743100  0.99895100  0.77036900  1
  O  O10  1  0.94129200  0.00063000  0.27142700  1
  O  O11  1  0.43891800  0.50195000  0.73455500  1
  O  O12  1  0.23306600  0.21105200  0.96311200  1
  O  O13  1  0.24061400  0.79185500  0.96506400  1
  O  O14  1  0.75525200  0.28587500  0.05207200  1
  O  O15  1  0.72088300  0.71088600  0.01662700  1
  O  O16  1  0.81276200  0.70576000  0.54225400  1
  O  O17  1  0.81533100  0.29343900  0.53772900  1
  O  O18  1  0.33405300  0.79279900  0.47892800  1
  O  O19  1  0.29309500  0.20862900  0.44260200  1
