# generated using pymatgen
data_Ca3(CoO3)2
_symmetry_space_group_name_H-M   'P 1'
_cell_length_a   6.33959982
_cell_length_b   6.32688085
_cell_length_c   6.36734512
_cell_angle_alpha   92.02393238
_cell_angle_beta   91.98641778
_cell_angle_gamma   92.10431583
_symmetry_Int_Tables_number   1
_chemical_formula_structural   Ca3(CoO3)2
_chemical_formula_sum   'Ca6 Co4 O12'
_cell_volume   254.89669301
_cell_formula_units_Z   2
loop_
 _symmetry_equiv_pos_site_id
 _symmetry_equiv_pos_as_xyz
  1  'x, y, z'
loop_
 _atom_site_type_symbol
 _atom_site_label
 _atom_site_symmetry_multiplicity
 _atom_site_fract_x
 _atom_site_fract_y
 _atom_site_fract_z
 _atom_site_occupancy
  Ca  Ca0  1  0.61689600  0.88322400  0.25006000  1
  Ca  Ca1  1  0.24662400  0.61585600  0.88560300  1
  Ca  Ca2  1  0.88519800  0.25132700  0.61435800  1
  Ca  Ca3  1  0.38347800  0.11719500  0.74847800  1
  Ca  Ca4  1  0.11532900  0.74726700  0.38607300  1
  Ca  Ca5  1  0.75198300  0.38462100  0.11473700  1
  Co  Co6  1  0.50126800  0.50123000  0.50122800  1
  Co  Co7  1  0.74223400  0.75358600  0.75001100  1
  Co  Co8  1  0.00124500  0.00120200  0.00129000  1
  Co  Co9  1  0.25520300  0.24391000  0.24686700  1
  O  O10  1  0.78522300  0.58118700  0.45173000  1
  O  O11  1  0.58530900  0.45712600  0.78658100  1
  O  O12  1  0.45469700  0.78786600  0.58081100  1
  O  O13  1  0.04383200  0.91468600  0.71567600  1
  O  O14  1  0.91976300  0.71572900  0.04818700  1
  O  O15  1  0.71314800  0.04285900  0.91759000  1
  O  O16  1  0.21605900  0.41850800  0.54798400  1
  O  O17  1  0.41442400  0.54248800  0.21460500  1
  O  O18  1  0.54448000  0.21328700  0.41905400  1
  O  O19  1  0.95588800  0.08492400  0.28554300  1
  O  O20  1  0.28793900  0.95642700  0.08231400  1
  O  O21  1  0.07977900  0.28549700  0.95122100  1
