# generated using pymatgen
data_NaV2O4
_symmetry_space_group_name_H-M   'P 1'
_cell_length_a   5.15391826
_cell_length_b   5.99694438
_cell_length_c   11.48109315
_cell_angle_alpha   89.76330074
_cell_angle_beta   89.88832199
_cell_angle_gamma   90.14106862
_symmetry_Int_Tables_number   1
_chemical_formula_structural   NaV2O4
_chemical_formula_sum   'Na4 V8 O16'
_cell_volume   354.85010027
_cell_formula_units_Z   4
loop_
 _symmetry_equiv_pos_site_id
 _symmetry_equiv_pos_as_xyz
  1  'x, y, z'
loop_
 _atom_site_type_symbol
 _atom_site_label
 _atom_site_symmetry_multiplicity
 _atom_site_fract_x
 _atom_site_fract_y
 _atom_site_fract_z
 _atom_site_occupancy
  Na  Na0  1  0.02900700  0.74822700  0.25022800  1
  Na  Na1  1  0.96893200  0.24789000  0.74980800  1
  Na  Na2  1  0.35057000  0.75072800  0.75014000  1
  Na  Na3  1  0.64801200  0.25201300  0.25113000  1
  V  V4  1  0.00772200  0.25009400  0.49165100  1
  V  V5  1  0.99196900  0.74992600  0.50828500  1
  V  V6  1  0.50128600  0.49637300  0.00111200  1
  V  V7  1  0.49765900  0.00541900  0.99916300  1
  V  V8  1  0.00236000  0.24711900  0.00883700  1
  V  V9  1  0.99736300  0.74700100  0.99057100  1
  V  V10  1  0.49993600  0.99989100  0.49998300  1
  V  V11  1  0.49986100  0.50008300  0.50014400  1
  O  O12  1  0.33420100  0.25035400  0.09341500  1
  O  O13  1  0.32166400  0.25069900  0.40766800  1
  O  O14  1  0.67811600  0.74939200  0.59258900  1
  O  O15  1  0.67848300  0.75083800  0.91033300  1
  O  O16  1  0.30921500  0.75106800  0.08264800  1
  O  O17  1  0.31233100  0.75050500  0.41661000  1
  O  O18  1  0.68754800  0.24934100  0.58312100  1
  O  O19  1  0.67918300  0.25201200  0.91354600  1
  O  O20  1  0.15716800  0.00168100  0.59298900  1
  O  O21  1  0.15732700  0.00203600  0.90494600  1
  O  O22  1  0.15705500  0.49743100  0.59318000  1
  O  O23  1  0.15178700  0.48957300  0.90748700  1
  O  O24  1  0.84250700  0.99809200  0.40668900  1
  O  O25  1  0.84254000  0.50282300  0.40688600  1
  O  O26  1  0.84942400  0.00838600  0.09256400  1
  O  O27  1  0.84677200  0.50100300  0.09427900  1
