# generated using pymatgen
data_Na4FeO5
_symmetry_space_group_name_H-M   'P 1'
_cell_length_a   8.78320758
_cell_length_b   8.73686005
_cell_length_c   8.73466276
_cell_angle_alpha   65.14070366
_cell_angle_beta   106.60772311
_cell_angle_gamma   73.06869554
_symmetry_Int_Tables_number   1
_chemical_formula_structural   Na4FeO5
_chemical_formula_sum   'Na16 Fe4 O20'
_cell_volume   513.44446248
_cell_formula_units_Z   4
loop_
 _symmetry_equiv_pos_site_id
 _symmetry_equiv_pos_as_xyz
  1  'x, y, z'
loop_
 _atom_site_type_symbol
 _atom_site_label
 _atom_site_symmetry_multiplicity
 _atom_site_fract_x
 _atom_site_fract_y
 _atom_site_fract_z
 _atom_site_occupancy
  Na  Na0  1  0.29046500  0.65642900  0.44747300  1
  Na  Na1  1  0.79268000  0.90339700  0.69818800  1
  Na  Na2  1  0.29253900  0.15594200  0.94692200  1
  Na  Na3  1  0.79108500  0.40684600  0.19647100  1
  Na  Na4  1  0.39421500  0.19674200  0.59400800  1
  Na  Na5  1  0.89362400  0.45014400  0.84140400  1
  Na  Na6  1  0.39595400  0.69893100  0.09203000  1
  Na  Na7  1  0.89597400  0.94606000  0.34459100  1
  Na  Na8  1  0.60585100  0.80038100  0.40858400  1
  Na  Na9  1  0.10603200  0.05279700  0.65598400  1
  Na  Na10  1  0.60410400  0.30399300  0.90502000  1
  Na  Na11  1  0.10386600  0.55136100  0.15791300  1
  Na  Na12  1  0.70748800  0.34573600  0.55136100  1
  Na  Na13  1  0.20876800  0.59482600  0.80235700  1
  Na  Na14  1  0.70952600  0.84297000  0.05329600  1
  Na  Na15  1  0.20734600  0.09456000  0.30363500  1
  Fe  Fe16  1  0.00003700  0.49805000  0.50213800  1
  Fe  Fe17  1  0.50007400  0.75122000  0.74856900  1
  Fe  Fe18  1  0.00005300  0.00592600  0.99400400  1
  Fe  Fe19  1  0.50008300  0.24585700  0.25402600  1
  O  O20  1  0.00004000  0.69853000  0.30146300  1
  O  O21  1  0.49996500  0.95424500  0.54556100  1
  O  O22  1  0.99994900  0.29493300  0.70519100  1
  O  O23  1  0.50002900  0.55025800  0.94968400  1
  O  O24  1  0.23723100  0.91630300  0.15131500  1
  O  O25  1  0.73730600  0.16429000  0.40314300  1
  O  O26  1  0.24342800  0.41157800  0.65761200  1
  O  O27  1  0.74297100  0.66438500  0.90542400  1
  O  O28  1  0.43195800  0.40346400  0.33568800  1
  O  O29  1  0.93097000  0.65671900  0.58933200  1
  O  O30  1  0.43103000  0.90789200  0.83810100  1
  O  O31  1  0.93205600  0.15396300  0.08519700  1
  O  O32  1  0.56886600  0.59286100  0.66076900  1
  O  O33  1  0.06795200  0.84679000  0.91386300  1
  O  O34  1  0.56811300  0.09621900  0.16445700  1
  O  O35  1  0.06926400  0.34172600  0.41255600  1
  O  O36  1  0.76284600  0.08589300  0.84645300  1
  O  O37  1  0.26279800  0.33407100  0.09847200  1
  O  O38  1  0.75641800  0.58585900  0.34493300  1
  O  O39  1  0.25704900  0.83785200  0.59281100  1
