# generated using pymatgen
data_SrCo2(AsO4)2
_symmetry_space_group_name_H-M   'P 1'
_cell_length_a   5.74589571
_cell_length_b   7.21185258
_cell_length_c   9.57477719
_cell_angle_alpha   111.64982980
_cell_angle_beta   101.36074275
_cell_angle_gamma   98.80361424
_symmetry_Int_Tables_number   1
_chemical_formula_structural   SrCo2(AsO4)2
_chemical_formula_sum   'Sr2 Co4 As4 O16'
_cell_volume   350.28205899
_cell_formula_units_Z   2
loop_
 _symmetry_equiv_pos_site_id
 _symmetry_equiv_pos_as_xyz
  1  'x, y, z'
loop_
 _atom_site_type_symbol
 _atom_site_label
 _atom_site_symmetry_multiplicity
 _atom_site_fract_x
 _atom_site_fract_y
 _atom_site_fract_z
 _atom_site_occupancy
  Sr  Sr0  1  0.25457000  0.20328100  0.45099700  1
  Sr  Sr1  1  0.75274100  0.79754200  0.55135900  1
  Co  Co2  1  0.52029500  0.61865800  0.84745100  1
  Co  Co3  1  0.47867000  0.38708100  0.16074800  1
  Co  Co4  1  0.85578500  0.14011900  0.94251200  1
  Co  Co5  1  0.13919700  0.85920600  0.05603300  1
  As  As6  1  0.34306300  0.02235300  0.80114100  1
  As  As7  1  0.65675100  0.97979000  0.20132000  1
  As  As8  1  0.89550700  0.42059900  0.74064900  1
  As  As9  1  0.10404000  0.57762000  0.25509800  1
  O  O10  1  0.87018800  0.59932700  0.91649100  1
  O  O11  1  0.12575300  0.39678500  0.07932900  1
  O  O12  1  0.52619000  0.26066300  0.93974900  1
  O  O13  1  0.47521300  0.73817300  0.06623400  1
  O  O14  1  0.10002800  0.93975400  0.86501700  1
  O  O15  1  0.89598100  0.05846300  0.13315500  1
  O  O16  1  0.55938200  0.87376400  0.80128800  1
  O  O17  1  0.43678600  0.12451800  0.19831800  1
  O  O18  1  0.82820200  0.17867100  0.73560500  1
  O  O19  1  0.16142900  0.82025100  0.26103600  1
  O  O20  1  0.17674100  0.47134200  0.70470700  1
  O  O21  1  0.83003500  0.52497700  0.29799300  1
  O  O22  1  0.22959200  0.99077600  0.61449200  1
  O  O23  1  0.77156900  0.01455500  0.38842700  1
  O  O24  1  0.66553200  0.45738000  0.61508900  1
  O  O25  1  0.34676000  0.54435200  0.37576300  1
