# generated using pymatgen
data_AlV2O4
_symmetry_space_group_name_H-M   'P 1'
_cell_length_a   6.01230649
_cell_length_b   8.32410117
_cell_length_c   5.95522327
_cell_angle_alpha   90.17725229
_cell_angle_beta   89.16587994
_cell_angle_gamma   90.13028289
_symmetry_Int_Tables_number   1
_chemical_formula_structural   AlV2O4
_chemical_formula_sum   'Al4 V8 O16'
_cell_volume   298.00759245
_cell_formula_units_Z   4
loop_
 _symmetry_equiv_pos_site_id
 _symmetry_equiv_pos_as_xyz
  1  'x, y, z'
loop_
 _atom_site_type_symbol
 _atom_site_label
 _atom_site_symmetry_multiplicity
 _atom_site_fract_x
 _atom_site_fract_y
 _atom_site_fract_z
 _atom_site_occupancy
  Al  Al0  1  0.25190300  0.62954500  0.99745700  1
  Al  Al1  1  0.74990600  0.12722500  0.50264000  1
  Al  Al2  1  0.74806300  0.37046000  0.00236900  1
  Al  Al3  1  0.25014300  0.87278700  0.49745300  1
  V  V4  1  0.50011800  0.49973100  0.49992700  1
  V  V5  1  0.99993200  0.00006200  0.99986100  1
  V  V6  1  0.24848500  0.24722800  0.75613500  1
  V  V7  1  0.75134500  0.75283500  0.24397900  1
  V  V8  1  0.50023300  0.99990200  0.00034700  1
  V  V9  1  0.99992500  0.50008200  0.49994400  1
  V  V10  1  0.24776000  0.25642500  0.25884200  1
  V  V11  1  0.75224000  0.74362100  0.74114800  1
  O  O12  1  0.50117000  0.24560700  0.00499000  1
  O  O13  1  0.00368700  0.75018300  0.49233000  1
  O  O14  1  0.49885500  0.75434500  0.99492700  1
  O  O15  1  0.99624300  0.24994600  0.50768500  1
  O  O16  1  0.00431200  0.75142200  0.99196000  1
  O  O17  1  0.50570600  0.25415400  0.50357000  1
  O  O18  1  0.74528000  0.49613000  0.25206600  1
  O  O19  1  0.25283400  0.99274900  0.75497300  1
  O  O20  1  0.74644200  0.49058600  0.74903100  1
  O  O21  1  0.25093900  0.99933600  0.24993800  1
  O  O22  1  0.25470200  0.50386600  0.74775900  1
  O  O23  1  0.74730100  0.00726200  0.24517000  1
  O  O24  1  0.99562800  0.24859300  0.00802500  1
  O  O25  1  0.49426000  0.74578100  0.49648000  1
  O  O26  1  0.25349800  0.50945500  0.25083800  1
  O  O27  1  0.74909200  0.00067800  0.75015700  1
