# generated using pymatgen
data_Mn3Cr3O8
_symmetry_space_group_name_H-M   'P 1'
_cell_length_a   6.11443442
_cell_length_b   6.07290128
_cell_length_c   10.47722896
_cell_angle_alpha   73.21294546
_cell_angle_beta   88.82566258
_cell_angle_gamma   60.21751397
_symmetry_Int_Tables_number   1
_chemical_formula_structural   Mn3Cr3O8
_chemical_formula_sum   'Mn6 Cr6 O16'
_cell_volume   319.70966779
_cell_formula_units_Z   2
loop_
 _symmetry_equiv_pos_site_id
 _symmetry_equiv_pos_as_xyz
  1  'x, y, z'
loop_
 _atom_site_type_symbol
 _atom_site_label
 _atom_site_symmetry_multiplicity
 _atom_site_fract_x
 _atom_site_fract_y
 _atom_site_fract_z
 _atom_site_occupancy
  Mn  Mn0  1  0.81244700  0.37521500  0.43713600  1
  Mn  Mn1  1  0.31261600  0.37498100  0.93749500  1
  Mn  Mn2  1  0.50550000  0.99624700  0.50064100  1
  Mn  Mn3  1  0.11943000  0.75351700  0.37468800  1
  Mn  Mn4  1  0.61888300  0.75354600  0.87461200  1
  Mn  Mn5  1  0.00617800  0.99647200  0.00029500  1
  Cr  Cr6  1  0.06320900  0.37477000  0.18759500  1
  Cr  Cr7  1  0.56200500  0.37518300  0.68722000  1
  Cr  Cr8  1  0.56303000  0.87500600  0.18777300  1
  Cr  Cr9  1  0.06207100  0.87516800  0.68733900  1
  Cr  Cr10  1  0.56296000  0.37460700  0.18779600  1
  Cr  Cr11  1  0.06216600  0.37495700  0.68735500  1
  O  O12  1  0.42300600  0.14303800  0.29171600  1
  O  O13  1  0.92215200  0.14294800  0.79186900  1
  O  O14  1  0.70224200  0.60718000  0.08341600  1
  O  O15  1  0.20163800  0.60717300  0.58323800  1
  O  O16  1  0.67473600  0.12345300  0.07809100  1
  O  O17  1  0.17406300  0.12287700  0.57893800  1
  O  O18  1  0.21549900  0.57819400  0.06718800  1
  O  O19  1  0.71467600  0.57843000  0.56716900  1
  O  O20  1  0.21544400  0.13855000  0.06709700  1
  O  O21  1  0.71439300  0.13858200  0.56717100  1
  O  O22  1  0.45116500  0.62652200  0.29708600  1
  O  O23  1  0.95013500  0.62678400  0.79657800  1
  O  O24  1  0.91046900  0.17146100  0.30761900  1
  O  O25  1  0.40955900  0.17208500  0.80761300  1
  O  O26  1  0.91061000  0.61156800  0.30760800  1
  O  O27  1  0.40971600  0.61148500  0.80765800  1
