# generated using pymatgen
data_Co(HO)2
_symmetry_space_group_name_H-M   'P 1'
_cell_length_a   3.21962555
_cell_length_b   5.55468395
_cell_length_c   10.04680692
_cell_angle_alpha   106.20897939
_cell_angle_beta   80.16621912
_cell_angle_gamma   90.27651683
_symmetry_Int_Tables_number   1
_chemical_formula_structural   Co(HO)2
_chemical_formula_sum   'Co4 H8 O8'
_cell_volume   169.82553051
_cell_formula_units_Z   4
loop_
 _symmetry_equiv_pos_site_id
 _symmetry_equiv_pos_as_xyz
  1  'x, y, z'
loop_
 _atom_site_type_symbol
 _atom_site_label
 _atom_site_symmetry_multiplicity
 _atom_site_fract_x
 _atom_site_fract_y
 _atom_site_fract_z
 _atom_site_occupancy
  Co  Co0  1  0.18915900  0.75026200  0.49978100  1
  Co  Co1  1  0.93941800  0.00046100  0.00025500  1
  Co  Co2  1  0.68948700  0.25002600  0.50019200  1
  Co  Co3  1  0.43962400  0.49970900  0.99982400  1
  H  H4  1  0.29128800  0.31347400  0.28822200  1
  H  H5  1  0.03252700  0.56438500  0.78788400  1
  H  H6  1  0.79826200  0.81758600  0.28744100  1
  H  H7  1  0.53564200  0.06175400  0.78811500  1
  H  H8  1  0.83467000  0.43770700  0.21202800  1
  H  H9  1  0.56922400  0.68383400  0.71238900  1
  H  H10  1  0.33511400  0.93515900  0.21207800  1
  H  H11  1  0.07885600  0.18489100  0.71189300  1
  O  O12  1  0.24165000  0.36508000  0.39073500  1
  O  O13  1  0.99129200  0.61401900  0.89027600  1
  O  O14  1  0.75056300  0.86495200  0.38989100  1
  O  O15  1  0.48993100  0.11364600  0.89053500  1
  O  O16  1  0.88617000  0.38626600  0.10955900  1
  O  O17  1  0.62693400  0.63586400  0.60990000  1
  O  O18  1  0.38833000  0.88612300  0.10960200  1
  O  O19  1  0.13606700  0.13480000  0.60940000  1
