# generated using pymatgen
data_Rb2CoO3
_symmetry_space_group_name_H-M   'P 1'
_cell_length_a   6.40217537
_cell_length_b   6.40218700
_cell_length_c   5.43194402
_cell_angle_alpha   89.99411784
_cell_angle_beta   89.99510788
_cell_angle_gamma   109.36422914
_symmetry_Int_Tables_number   1
_chemical_formula_structural   Rb2CoO3
_chemical_formula_sum   'Rb4 Co2 O6'
_cell_volume   210.04909466
_cell_formula_units_Z   2
loop_
 _symmetry_equiv_pos_site_id
 _symmetry_equiv_pos_as_xyz
  1  'x, y, z'
loop_
 _atom_site_type_symbol
 _atom_site_label
 _atom_site_symmetry_multiplicity
 _atom_site_fract_x
 _atom_site_fract_y
 _atom_site_fract_z
 _atom_site_occupancy
  Rb  Rb0  1  0.18198100  0.50191100  0.74520500  1
  Rb  Rb1  1  0.49388400  0.81767300  0.24446500  1
  Rb  Rb2  1  0.50191100  0.18198100  0.74520500  1
  Rb  Rb3  1  0.81767300  0.49388400  0.24446500  1
  Co  Co4  1  0.07451500  0.07451500  0.23861500  1
  Co  Co5  1  0.92001400  0.92001400  0.73873100  1
  O  O6  1  0.11927400  0.88076200  0.99362900  1
  O  O7  1  0.12519900  0.88703300  0.48725000  1
  O  O8  1  0.31779400  0.31779500  0.23045000  1
  O  O9  1  0.67995900  0.67995900  0.73110500  1
  O  O10  1  0.88076200  0.11927400  0.99362800  1
  O  O11  1  0.88703300  0.12519800  0.48725000  1
