# generated using pymatgen
data_Ba2YMn3O7
_symmetry_space_group_name_H-M   'P 1'
_cell_length_a   5.66979790
_cell_length_b   5.66973791
_cell_length_c   11.86608100
_cell_angle_alpha   90.00024138
_cell_angle_beta   89.99971753
_cell_angle_gamma   87.77741030
_symmetry_Int_Tables_number   1
_chemical_formula_structural   Ba2YMn3O7
_chemical_formula_sum   'Ba4 Y2 Mn6 O14'
_cell_volume   381.16325772
_cell_formula_units_Z   2
loop_
 _symmetry_equiv_pos_site_id
 _symmetry_equiv_pos_as_xyz
  1  'x, y, z'
loop_
 _atom_site_type_symbol
 _atom_site_label
 _atom_site_symmetry_multiplicity
 _atom_site_fract_x
 _atom_site_fract_y
 _atom_site_fract_z
 _atom_site_occupancy
  Ba  Ba0  1  0.50002100  0.00000300  0.81937500  1
  Ba  Ba1  1  0.99997800  0.49999400  0.81937600  1
  Ba  Ba2  1  0.50001800  0.00000400  0.18062900  1
  Ba  Ba3  1  0.99997700  0.49999400  0.18062900  1
  Y  Y4  1  0.49998600  0.99999300  0.49999300  1
  Y  Y5  1  0.99999400  0.49999300  0.49999300  1
  Mn  Mn6  1  0.99996800  0.00004200  0.00001300  1
  Mn  Mn7  1  0.49989400  0.50011300  0.99997800  1
  Mn  Mn8  1  0.00003400  0.99994500  0.65473200  1
  Mn  Mn9  1  0.50000300  0.49999300  0.65295500  1
  Mn  Mn10  1  0.50001300  0.49997900  0.34703700  1
  Mn  Mn11  1  0.00000100  0.99999700  0.34527500  1
  O  O12  1  0.76595100  0.76590000  0.00002400  1
  O  O13  1  0.23418800  0.23413700  0.00002300  1
  O  O14  1  0.25015900  0.74982600  0.61870300  1
  O  O15  1  0.74983300  0.25015100  0.61870400  1
  O  O16  1  0.74984300  0.25013700  0.38123200  1
  O  O17  1  0.25015000  0.74983200  0.38123400  1
  O  O18  1  0.25001300  0.25001700  0.62041400  1
  O  O19  1  0.74997300  0.74997700  0.62041600  1
  O  O20  1  0.74998300  0.74998900  0.37953100  1
  O  O21  1  0.24999600  0.25000400  0.37953200  1
  O  O22  1  0.00003100  0.99999200  0.83588200  1
  O  O23  1  0.49998500  0.49999700  0.83003200  1
  O  O24  1  0.49998100  0.50000000  0.17009200  1
  O  O25  1  0.00002800  0.99999600  0.16419200  1
