# generated using pymatgen
data_Ba2YMn3O7
_symmetry_space_group_name_H-M   'P 1'
_cell_length_a   3.92245200
_cell_length_b   12.57480810
_cell_length_c   8.20504300
_cell_angle_alpha   70.96053596
_cell_angle_beta   89.99976443
_cell_angle_gamma   89.99983844
_symmetry_Int_Tables_number   1
_chemical_formula_structural   Ba2YMn3O7
_chemical_formula_sum   'Ba4 Y2 Mn6 O14'
_cell_volume   382.56639268
_cell_formula_units_Z   2
loop_
 _symmetry_equiv_pos_site_id
 _symmetry_equiv_pos_as_xyz
  1  'x, y, z'
loop_
 _atom_site_type_symbol
 _atom_site_label
 _atom_site_symmetry_multiplicity
 _atom_site_fract_x
 _atom_site_fract_y
 _atom_site_fract_z
 _atom_site_occupancy
  Ba  Ba0  1  0.49999600  0.81689200  0.84221300  1
  Ba  Ba1  1  0.49999200  0.81700800  0.34092000  1
  Ba  Ba2  1  0.49998800  0.18292600  0.15783800  1
  Ba  Ba3  1  0.49997900  0.18308400  0.65922200  1
  Y  Y4  1  0.50001300  0.49998400  0.99993900  1
  Y  Y5  1  0.50001900  0.50000100  0.49994100  1
  Mn  Mn6  1  0.99998200  0.00005200  0.50011200  1
  Mn  Mn7  1  0.99999800  0.65075900  0.17454800  1
  Mn  Mn8  1  0.00001500  0.34921200  0.82539300  1
  Mn  Mn9  1  0.99990500  0.99991700  0.99997600  1
  Mn  Mn10  1  0.00001000  0.65804500  0.67090500  1
  Mn  Mn11  1  0.00000600  0.34199800  0.32892800  1
  O  O12  1  0.99999100  0.00003500  0.26457100  1
  O  O13  1  0.99997000  0.00001000  0.73564900  1
  O  O14  1  0.50001300  0.62704000  0.18635900  1
  O  O15  1  0.50002100  0.60885700  0.69546500  1
  O  O16  1  0.50000900  0.37306800  0.81343800  1
  O  O17  1  0.50002000  0.39127900  0.30430500  1
  O  O18  1  0.00002200  0.62018600  0.95229500  1
  O  O19  1  0.00002600  0.62017800  0.42733700  1
  O  O20  1  0.00001000  0.37975400  0.04760400  1
  O  O21  1  0.00002300  0.37973600  0.57262800  1
  O  O22  1  0.99999600  0.83081000  0.08461300  1
  O  O23  1  0.00001300  0.83631500  0.58195500  1
  O  O24  1  0.99999900  0.16378200  0.41830600  1
  O  O25  1  0.99998100  0.16907000  0.91553700  1
