# generated using pymatgen
data_MgMnPO5
_symmetry_space_group_name_H-M   'P 1'
_cell_length_a   6.88566167
_cell_length_b   6.90696187
_cell_length_c   8.37519906
_cell_angle_alpha   90.07011282
_cell_angle_beta   90.03007472
_cell_angle_gamma   66.03830228
_symmetry_Int_Tables_number   1
_chemical_formula_structural   MgMnPO5
_chemical_formula_sum   'Mg4 Mn4 P4 O20'
_cell_volume   363.98782623
_cell_formula_units_Z   4
loop_
 _symmetry_equiv_pos_site_id
 _symmetry_equiv_pos_as_xyz
  1  'x, y, z'
loop_
 _atom_site_type_symbol
 _atom_site_label
 _atom_site_symmetry_multiplicity
 _atom_site_fract_x
 _atom_site_fract_y
 _atom_site_fract_z
 _atom_site_occupancy
  Mg  Mg0  1  0.17673500  0.29798900  0.93186800  1
  Mg  Mg1  1  0.67674100  0.29793600  0.43185700  1
  Mg  Mg2  1  0.18186400  0.79284500  0.56568500  1
  Mg  Mg3  1  0.68184800  0.79282200  0.06567800  1
  Mn  Mn4  1  0.74580700  0.49178900  0.74000700  1
  Mn  Mn5  1  0.74763600  0.99226100  0.75728700  1
  Mn  Mn6  1  0.24573900  0.49185800  0.24010800  1
  Mn  Mn7  1  0.24755800  0.99219400  0.25726200  1
  P  P8  1  0.26747900  0.23388300  0.60575500  1
  P  P9  1  0.76742800  0.23392200  0.10575700  1
  P  P10  1  0.26355900  0.73294800  0.89476800  1
  P  P11  1  0.76351200  0.73299300  0.39476300  1
  O  O12  1  0.21718900  0.06643400  0.51374400  1
  O  O13  1  0.71717200  0.06643200  0.01375900  1
  O  O14  1  0.35461700  0.35224000  0.48696700  1
  O  O15  1  0.85459600  0.35225100  0.98697400  1
  O  O16  1  0.35387800  0.84921300  0.01268400  1
  O  O17  1  0.85385200  0.84921900  0.51267900  1
  O  O18  1  0.19819600  0.57651200  0.98842200  1
  O  O19  1  0.69816700  0.57651400  0.48839800  1
  O  O20  1  0.42178100  0.61773500  0.75702100  1
  O  O21  1  0.92174400  0.61775800  0.25701000  1
  O  O22  1  0.07390900  0.89190700  0.79526300  1
  O  O23  1  0.57386200  0.89192400  0.29525800  1
  O  O24  1  0.07135800  0.39258000  0.69959600  1
  O  O25  1  0.57131800  0.39259800  0.19959700  1
  O  O26  1  0.42239200  0.13079800  0.74833500  1
  O  O27  1  0.92233800  0.13082200  0.24835200  1
  O  O28  1  0.25187000  0.73532600  0.33745700  1
  O  O29  1  0.75191600  0.73531900  0.83744600  1
  O  O30  1  0.25742000  0.23289000  0.15819100  1
  O  O31  1  0.75747400  0.23287500  0.65817200  1
