# generated using pymatgen
data_Sr2CoSbO6
_symmetry_space_group_name_H-M   'P 1'
_cell_length_a   5.62983988
_cell_length_b   8.10049600
_cell_length_c   11.23949560
_cell_angle_alpha   90.00004382
_cell_angle_beta   88.90528544
_cell_angle_gamma   89.99953014
_symmetry_Int_Tables_number   1
_chemical_formula_structural   Sr2CoSbO6
_chemical_formula_sum   'Sr8 Co4 Sb4 O24'
_cell_volume   512.47797034
_cell_formula_units_Z   4
loop_
 _symmetry_equiv_pos_site_id
 _symmetry_equiv_pos_as_xyz
  1  'x, y, z'
loop_
 _atom_site_type_symbol
 _atom_site_label
 _atom_site_symmetry_multiplicity
 _atom_site_fract_x
 _atom_site_fract_y
 _atom_site_fract_z
 _atom_site_occupancy
  Sr  Sr0  1  0.49321300  0.75054000  0.49999600  1
  Sr  Sr1  1  0.99839800  0.25069100  0.75032400  1
  Sr  Sr2  1  0.50689300  0.75036500  0.99957000  1
  Sr  Sr3  1  0.00215200  0.24981500  0.25022600  1
  Sr  Sr4  1  0.49320800  0.24946800  0.49999600  1
  Sr  Sr5  1  0.99839600  0.74931400  0.75032400  1
  Sr  Sr6  1  0.50689100  0.24962900  0.99957100  1
  Sr  Sr7  1  0.00214700  0.75018500  0.25022600  1
  Co  Co8  1  0.99588700  0.50000400  0.49959300  1
  Co  Co9  1  0.49901700  0.00000200  0.75014300  1
  Co  Co10  1  0.00434300  0.49999600  0.00021600  1
  Co  Co11  1  0.50108000  0.99999800  0.25017100  1
  Sb  Sb12  1  0.99202000  0.00000100  0.49995700  1
  Sb  Sb13  1  0.49748900  0.50000000  0.74978500  1
  Sb  Sb14  1  0.00781100  0.99999900  0.00022600  1
  Sb  Sb15  1  0.50281600  0.49999900  0.25009300  1
  O  O16  1  0.24721200  0.50002000  0.38052800  1
  O  O17  1  0.73040800  0.00002800  0.62508400  1
  O  O18  1  0.23874800  0.50003000  0.87690600  1
  O  O19  1  0.76436100  0.00003300  0.12838500  1
  O  O20  1  0.75144500  0.49997800  0.62079100  1
  O  O21  1  0.26949800  0.99996500  0.87500700  1
  O  O22  1  0.76212700  0.49997000  0.12174400  1
  O  O23  1  0.23621600  0.99997300  0.37158400  1
  O  O24  1  0.24742800  0.50001400  0.62789300  1
  O  O25  1  0.76523800  0.00000900  0.87387800  1
  O  O26  1  0.25870500  0.49999600  0.12682700  1
  O  O27  1  0.73166000  0.00000000  0.37688700  1
  O  O28  1  0.75268000  0.50000500  0.37077100  1
  O  O29  1  0.23373900  0.99998800  0.62603000  1
  O  O30  1  0.74302300  0.49998400  0.87417300  1
  O  O31  1  0.26808800  0.99999300  0.12337100  1
  O  O32  1  0.98645700  0.75480500  0.49881500  1
  O  O33  1  0.49722400  0.25491500  0.75079400  1
  O  O34  1  0.01324900  0.75502200  0.99924800  1
  O  O35  1  0.50176000  0.25456700  0.25104500  1
  O  O36  1  0.98652100  0.24520200  0.49879800  1
  O  O37  1  0.49731000  0.74509300  0.75078400  1
  O  O38  1  0.01333900  0.24497700  0.99922100  1
  O  O39  1  0.50180100  0.74543000  0.25101700  1
