# generated using pymatgen
data_La2MgFeO6
_symmetry_space_group_name_H-M   'P 1'
_cell_length_a   5.53035780
_cell_length_b   5.52137231
_cell_length_c   5.53130951
_cell_angle_alpha   61.41345487
_cell_angle_beta   61.38998748
_cell_angle_gamma   61.53461993
_symmetry_Int_Tables_number   1
_chemical_formula_structural   La2MgFeO6
_chemical_formula_sum   'La2 Mg1 Fe1 O6'
_cell_volume   123.30760465
_cell_formula_units_Z   1
loop_
 _symmetry_equiv_pos_site_id
 _symmetry_equiv_pos_as_xyz
  1  'x, y, z'
loop_
 _atom_site_type_symbol
 _atom_site_label
 _atom_site_symmetry_multiplicity
 _atom_site_fract_x
 _atom_site_fract_y
 _atom_site_fract_z
 _atom_site_occupancy
  La  La0  1  0.75093400  0.75140500  0.75144000  1
  La  La1  1  0.24906600  0.24859500  0.24856000  1
  Mg  Mg2  1  0.50000000  0.50000000  0.50000000  1
  Fe  Fe3  1  0.99999900  0.00000000  0.00000000  1
  O  O4  1  0.31782900  0.76070700  0.17099000  1
  O  O5  1  0.76111600  0.17083000  0.31743200  1
  O  O6  1  0.17024100  0.31659100  0.76176500  1
  O  O7  1  0.68217100  0.23929300  0.82901000  1
  O  O8  1  0.82976000  0.68340900  0.23823500  1
  O  O9  1  0.23888500  0.82917000  0.68256800  1
