# generated using pymatgen
data_Al2NiO4
_symmetry_space_group_name_H-M   'P 1'
_cell_length_a   5.74187501
_cell_length_b   5.74309923
_cell_length_c   10.10782595
_cell_angle_alpha   73.76978955
_cell_angle_beta   90.31246393
_cell_angle_gamma   59.95370279
_symmetry_Int_Tables_number   1
_chemical_formula_structural   Al2NiO4
_chemical_formula_sum   'Al8 Ni4 O16'
_cell_volume   272.75557350
_cell_formula_units_Z   4
loop_
 _symmetry_equiv_pos_site_id
 _symmetry_equiv_pos_as_xyz
  1  'x, y, z'
loop_
 _atom_site_type_symbol
 _atom_site_label
 _atom_site_symmetry_multiplicity
 _atom_site_fract_x
 _atom_site_fract_y
 _atom_site_fract_z
 _atom_site_occupancy
  Al  Al0  1  0.75030300  0.99980200  0.24993000  1
  Al  Al1  1  0.24983100  0.00008900  0.75000000  1
  Al  Al2  1  0.25011400  0.49972200  0.25013300  1
  Al  Al3  1  0.74967700  0.50016900  0.74997000  1
  Al  Al4  1  0.75041600  0.49968600  0.25000700  1
  Al  Al5  1  0.24986100  0.50009000  0.75001700  1
  Al  Al6  1  0.00033300  0.49981500  0.50011900  1
  Al  Al7  1  0.49981600  0.49992300  0.00012800  1
  Ni  Ni8  1  0.81505700  0.87244400  0.94147900  1
  Ni  Ni9  1  0.68564400  0.12705400  0.55815700  1
  Ni  Ni10  1  0.31613800  0.87189200  0.44163600  1
  Ni  Ni11  1  0.18570900  0.12675400  0.05820300  1
  O  O12  1  0.65879800  0.73804700  0.36675700  1
  O  O13  1  0.15825000  0.73817600  0.86732700  1
  O  O14  1  0.84149200  0.26225300  0.13256300  1
  O  O15  1  0.34151600  0.26231600  0.63251500  1
  O  O16  1  0.10554300  0.29058300  0.36802000  1
  O  O17  1  0.60525000  0.29120500  0.86765300  1
  O  O18  1  0.39483600  0.70866100  0.13277800  1
  O  O19  1  0.89422900  0.70895400  0.63265700  1
  O  O20  1  0.10509100  0.73630600  0.36868700  1
  O  O21  1  0.60469300  0.73648000  0.86832600  1
  O  O22  1  0.88262100  0.73302100  0.14970000  1
  O  O23  1  0.38084400  0.73398700  0.64961000  1
  O  O24  1  0.61727500  0.26723000  0.35024700  1
  O  O25  1  0.11737300  0.26752000  0.85025900  1
  O  O26  1  0.39483100  0.26364900  0.13148200  1
  O  O27  1  0.89445400  0.26417400  0.63164000  1
