# generated using pymatgen
data_Sr2La2MnZnO8
_symmetry_space_group_name_H-M   'P 1'
_cell_length_a   7.74305100
_cell_length_b   12.64364600
_cell_length_c   8.70892226
_cell_angle_alpha   89.99998744
_cell_angle_beta   63.60516316
_cell_angle_gamma   89.99993868
_symmetry_Int_Tables_number   1
_chemical_formula_structural   Sr2La2MnZnO8
_chemical_formula_sum   'Sr8 La8 Mn4 Zn4 O32'
_cell_volume   763.72421837
_cell_formula_units_Z   4
loop_
 _symmetry_equiv_pos_site_id
 _symmetry_equiv_pos_as_xyz
  1  'x, y, z'
loop_
 _atom_site_type_symbol
 _atom_site_label
 _atom_site_symmetry_multiplicity
 _atom_site_fract_x
 _atom_site_fract_y
 _atom_site_fract_z
 _atom_site_occupancy
  Sr  Sr0  1  0.74998700  0.63708600  0.50001100  1
  Sr  Sr1  1  0.49952000  0.63733500  0.99998300  1
  Sr  Sr2  1  0.25000000  0.63708900  0.50000700  1
  Sr  Sr3  1  0.00049500  0.63733500  0.99999100  1
  Sr  Sr4  1  0.74998700  0.36291300  0.50001100  1
  Sr  Sr5  1  0.49952300  0.36266400  0.99998200  1
  Sr  Sr6  1  0.25000100  0.36291100  0.50000800  1
  Sr  Sr7  1  0.00049500  0.36266500  0.99999000  1
  La  La8  1  0.37471700  0.14445400  0.75056700  1
  La  La9  1  0.12528600  0.14445600  0.24943300  1
  La  La10  1  0.87528300  0.14458200  0.74943600  1
  La  La11  1  0.62472200  0.14458100  0.25056400  1
  La  La12  1  0.37471200  0.85554800  0.75057700  1
  La  La13  1  0.12528300  0.85554800  0.24943400  1
  La  La14  1  0.87528400  0.85541500  0.74942900  1
  La  La15  1  0.62471400  0.85541600  0.25057100  1
  Mn  Mn16  1  0.37470600  0.50000000  0.75058300  1
  Mn  Mn17  1  0.12526800  0.50000000  0.24946600  1
  Mn  Mn18  1  0.87476100  0.50000200  0.75049500  1
  Mn  Mn19  1  0.62526900  0.49999900  0.24945300  1
  Zn  Zn20  1  0.74999800  0.00000100  0.50000100  1
  Zn  Zn21  1  0.50013300  0.99999900  0.00000400  1
  Zn  Zn22  1  0.25000100  0.00000000  0.50000000  1
  Zn  Zn23  1  0.99986200  0.99999700  0.00000400  1
  O  O24  1  0.37396700  0.33772300  0.75207200  1
  O  O25  1  0.12602400  0.33772200  0.24795100  1
  O  O26  1  0.87549600  0.33680300  0.74901200  1
  O  O27  1  0.62451700  0.33681100  0.25096200  1
  O  O28  1  0.37396400  0.66227700  0.75207100  1
  O  O29  1  0.12602400  0.66227800  0.24795400  1
  O  O30  1  0.87549600  0.66319700  0.74900900  1
  O  O31  1  0.62451500  0.66318800  0.25096200  1
  O  O32  1  0.74999400  0.82511100  0.50000100  1
  O  O33  1  0.49911900  0.82548100  0.00000700  1
  O  O34  1  0.25000500  0.82511400  0.49999600  1
  O  O35  1  0.00088300  0.82548100  0.99999600  1
  O  O36  1  0.74999700  0.17488900  0.49999200  1
  O  O37  1  0.49912300  0.17451900  0.00001000  1
  O  O38  1  0.25000700  0.17488700  0.49999800  1
  O  O39  1  0.00087100  0.17451900  0.99999800  1
  O  O40  1  0.49394100  0.49999900  0.51205800  1
  O  O41  1  0.24996800  0.50000000  0.00005600  1
  O  O42  1  0.00598900  0.49999900  0.48807600  1
  O  O43  1  0.75010400  0.50000000  0.99980200  1
  O  O44  1  0.62190100  0.50000200  0.75068200  1
  O  O45  1  0.37260600  0.49999900  0.24928200  1
  O  O46  1  0.12740800  0.50000100  0.75071500  1
  O  O47  1  0.87808300  0.50000000  0.24931900  1
  O  O48  1  0.62446800  0.00000200  0.75013000  1
  O  O49  1  0.37459000  0.00000100  0.24987200  1
  O  O50  1  0.12540000  0.99999900  0.75013300  1
  O  O51  1  0.87553800  0.00000000  0.24987400  1
  O  O52  1  0.50004100  0.99999900  0.49991900  1
  O  O53  1  0.25000900  0.00000200  0.99998200  1
  O  O54  1  0.99993300  0.00000000  0.50013000  1
  O  O55  1  0.75001200  0.99999800  0.99997600  1
