data_image0
_chemical_formula_structural       H2O4Y2
_chemical_formula_sum              "H2 O4 Y2"
_cell_length_a       5.94367
_cell_length_b       3.62256
_cell_length_c       4.30704
_cell_angle_alpha    90
_cell_angle_beta     108.994
_cell_angle_gamma    90

_space_group_name_H-M_alt    "P 1"
_space_group_IT_number       1

loop_
  _space_group_symop_operation_xyz
  'x, y, z'

loop_
  _atom_site_type_symbol
  _atom_site_label
  _atom_site_symmetry_multiplicity
  _atom_site_fract_x
  _atom_site_fract_y
  _atom_site_fract_z
  _atom_site_occupancy
  H   H1        1.0  0.42000  0.25000  0.01370  1.0000
  H   H2        1.0  0.58000  0.75000  0.98600  1.0000
  O   O1        1.0  0.94700  0.25000  0.23300  1.0000
  O   O2        1.0  0.43800  0.25000  0.24700  1.0000
  O   O3        1.0  0.56200  0.75000  0.75300  1.0000
  O   O4        1.0  0.05320  0.75000  0.76700  1.0000
  Y   Y1        1.0  0.19000  0.75000  0.33300  1.0000
  Y   Y2        1.0  0.81000  0.25000  0.66700  1.0000
