# generated using pymatgen
data_Sr2CoO4
_symmetry_space_group_name_H-M   'P 1'
_cell_length_a   5.51777107
_cell_length_b   6.79846381
_cell_length_c   10.34585301
_cell_angle_alpha   77.14449479
_cell_angle_beta   90.05695511
_cell_angle_gamma   89.99959996
_symmetry_Int_Tables_number   1
_chemical_formula_structural   Sr2CoO4
_chemical_formula_sum   'Sr8 Co4 O16'
_cell_volume   378.36929232
_cell_formula_units_Z   4
loop_
 _symmetry_equiv_pos_site_id
 _symmetry_equiv_pos_as_xyz
  1  'x, y, z'
loop_
 _atom_site_type_symbol
 _atom_site_label
 _atom_site_symmetry_multiplicity
 _atom_site_fract_x
 _atom_site_fract_y
 _atom_site_fract_z
 _atom_site_occupancy
  Sr  Sr0  1  0.99745000  0.46476100  0.81965000  1
  Sr  Sr1  1  0.50306200  0.21384100  0.06735800  1
  Sr  Sr2  1  0.00113200  0.95820900  0.32279700  1
  Sr  Sr3  1  0.49482700  0.71128300  0.57346400  1
  Sr  Sr4  1  0.50243300  0.79185100  0.92710100  1
  Sr  Sr5  1  0.00241000  0.53605000  0.18264900  1
  Sr  Sr6  1  0.49591300  0.28503600  0.43062500  1
  Sr  Sr7  1  0.99550500  0.03847400  0.67671600  1
  Co  Co8  1  0.49877600  0.24906700  0.75128400  1
  Co  Co9  1  0.99789500  0.50107800  0.49868100  1
  Co  Co10  1  0.99785800  0.99808900  0.00126600  1
  Co  Co11  1  0.49692200  0.75140800  0.24869200  1
  O  O12  1  0.00781600  0.76987900  0.92525600  1
  O  O13  1  0.50703100  0.52002400  0.17312000  1
  O  O14  1  0.99715500  0.25901700  0.41908400  1
  O  O15  1  0.49771200  0.01225400  0.66895900  1
  O  O16  1  0.49904300  0.49123400  0.83075400  1
  O  O17  1  0.00786300  0.23074600  0.07689500  1
  O  O18  1  0.50602800  0.97965400  0.32448300  1
  O  O19  1  0.99676100  0.73791100  0.58090800  1
  O  O20  1  0.26501300  0.13656200  0.86434100  1
  O  O21  1  0.75058700  0.87011600  0.13009600  1
  O  O22  1  0.26013300  0.62803700  0.36965300  1
  O  O23  1  0.72301100  0.36718800  0.63314500  1
  O  O24  1  0.22266900  0.38268200  0.61687600  1
  O  O25  1  0.76289800  0.12277900  0.88042700  1
  O  O26  1  0.25018200  0.87977500  0.11954800  1
  O  O27  1  0.76191600  0.61299400  0.38617200  1
