# generated using pymatgen
data_NaMn3V4O12
_symmetry_space_group_name_H-M   'P 1'
_cell_length_a   6.49868806
_cell_length_b   6.49815901
_cell_length_c   6.47999184
_cell_angle_alpha   70.59501386
_cell_angle_beta   70.59047377
_cell_angle_gamma   109.52949589
_symmetry_Int_Tables_number   1
_chemical_formula_structural   NaMn3V4O12
_chemical_formula_sum   'Na1 Mn3 V4 O12'
_cell_volume   210.83410564
_cell_formula_units_Z   1
loop_
 _symmetry_equiv_pos_site_id
 _symmetry_equiv_pos_as_xyz
  1  'x, y, z'
loop_
 _atom_site_type_symbol
 _atom_site_label
 _atom_site_symmetry_multiplicity
 _atom_site_fract_x
 _atom_site_fract_y
 _atom_site_fract_z
 _atom_site_occupancy
  Na  Na0  1  0.00007000  0.00000100  0.00005400  1
  Mn  Mn1  1  0.50001700  0.00097000  0.49888700  1
  Mn  Mn2  1  0.50041200  0.50032800  0.00005500  1
  Mn  Mn3  1  0.99855600  0.49857900  0.50018400  1
  V  V4  1  0.00024000  0.50011700  0.99981700  1
  V  V5  1  0.49978500  0.50002600  0.50020900  1
  V  V6  1  0.49986800  0.99984700  0.00011900  1
  V  V7  1  0.99993000  0.99981400  0.50007400  1
  O  O8  1  0.10641200  0.81151300  0.69448400  1
  O  O9  1  0.49790700  0.18977400  0.71041200  1
  O  O10  1  0.50244600  0.81025300  0.28937700  1
  O  O11  1  0.89365700  0.18859800  0.30564600  1
  O  O12  1  0.70516000  0.89352700  0.80077400  1
  O  O13  1  0.69202400  0.50204900  0.20833500  1
  O  O14  1  0.30822500  0.49782600  0.79199200  1
  O  O15  1  0.29526500  0.10685500  0.19920300  1
  O  O16  1  0.18821900  0.29485800  0.50628800  1
  O  O17  1  0.81045700  0.30769200  0.90029600  1
  O  O18  1  0.18951200  0.69218200  0.09999000  1
  O  O19  1  0.81183800  0.70519400  0.49380200  1
