# generated using pymatgen
data_CaMn2O4
_symmetry_space_group_name_H-M   'P 1'
_cell_length_a   6.24854740
_cell_length_b   6.19964830
_cell_length_c   11.10226002
_cell_angle_alpha   73.74562372
_cell_angle_beta   89.42574443
_cell_angle_gamma   60.26687161
_symmetry_Int_Tables_number   1
_chemical_formula_structural   CaMn2O4
_chemical_formula_sum   'Ca4 Mn8 O16'
_cell_volume   354.23180228
_cell_formula_units_Z   4
loop_
 _symmetry_equiv_pos_site_id
 _symmetry_equiv_pos_as_xyz
  1  'x, y, z'
loop_
 _atom_site_type_symbol
 _atom_site_label
 _atom_site_symmetry_multiplicity
 _atom_site_fract_x
 _atom_site_fract_y
 _atom_site_fract_z
 _atom_site_occupancy
  Ca  Ca0  1  0.48921700  0.02202100  0.48495200  1
  Ca  Ca1  1  0.98793400  0.00406400  0.98496900  1
  Ca  Ca2  1  0.68973000  0.61443900  0.06340200  1
  Ca  Ca3  1  0.19045800  0.63202900  0.56365100  1
  Mn  Mn4  1  0.43373700  0.63289500  0.31032200  1
  Mn  Mn5  1  0.93124100  0.62455300  0.80943200  1
  Mn  Mn6  1  0.94019100  0.12469100  0.31426100  1
  Mn  Mn7  1  0.43703500  0.11947300  0.81063300  1
  Mn  Mn8  1  0.93836200  0.63114000  0.31116900  1
  Mn  Mn9  1  0.43897100  0.62148900  0.81410500  1
  Mn  Mn10  1  0.88747100  0.23433300  0.64066400  1
  Mn  Mn11  1  0.38709600  0.23787500  0.14057100  1
  O  O12  1  0.83749900  0.32927900  0.43735800  1
  O  O13  1  0.33776100  0.39573900  0.93915700  1
  O  O14  1  0.03938400  0.92656500  0.19578300  1
  O  O15  1  0.53885300  0.83944900  0.69563400  1
  O  O16  1  0.58994200  0.36666500  0.22030300  1
  O  O17  1  0.09089700  0.36691700  0.71652100  1
  O  O18  1  0.59115500  0.82691700  0.21570200  1
  O  O19  1  0.09035800  0.82102700  0.72139500  1
  O  O20  1  0.04500700  0.37425100  0.21421000  1
  O  O21  1  0.54323000  0.36684100  0.71567300  1
  O  O22  1  0.84541800  0.87794200  0.40887000  1
  O  O23  1  0.34423300  0.86866800  0.90827400  1
  O  O24  1  0.27540100  0.44938400  0.40323300  1
  O  O25  1  0.77703400  0.43348600  0.90327800  1
  O  O26  1  0.27855300  0.88518300  0.40394700  1
  O  O27  1  0.77382900  0.87267800  0.90253800  1
