# generated using pymatgen
data_Mn2O3
_symmetry_space_group_name_H-M   'P 1'
_cell_length_a   5.21245549
_cell_length_b   5.20375080
_cell_length_c   5.39767560
_cell_angle_alpha   67.82722842
_cell_angle_beta   95.00273397
_cell_angle_gamma   58.81648668
_symmetry_Int_Tables_number   1
_chemical_formula_structural   Mn2O3
_chemical_formula_sum   'Mn4 O6'
_cell_volume   108.36055396
_cell_formula_units_Z   2
loop_
 _symmetry_equiv_pos_site_id
 _symmetry_equiv_pos_as_xyz
  1  'x, y, z'
loop_
 _atom_site_type_symbol
 _atom_site_label
 _atom_site_symmetry_multiplicity
 _atom_site_fract_x
 _atom_site_fract_y
 _atom_site_fract_z
 _atom_site_occupancy
  Mn  Mn0  1  0.65319900  0.69818000  0.95233100  1
  Mn  Mn1  1  0.34700300  0.30178600  0.04780400  1
  Mn  Mn2  1  0.15095000  0.70007000  0.45303700  1
  Mn  Mn3  1  0.84904700  0.29984900  0.54679500  1
  O  O4  1  0.56214200  0.51413700  0.72930300  1
  O  O5  1  0.74314700  0.83237900  0.22978000  1
  O  O6  1  0.02223500  0.22811000  0.24946600  1
  O  O7  1  0.97806500  0.77189600  0.75050000  1
  O  O8  1  0.25637800  0.16752200  0.77058100  1
  O  O9  1  0.43783400  0.48607100  0.27040200  1
