# generated using pymatgen
data_Mg2FeIrO6
_symmetry_space_group_name_H-M   'P 1'
_cell_length_a   5.14005668
_cell_length_b   5.32116002
_cell_length_c   7.58301165
_cell_angle_alpha   89.99063194
_cell_angle_beta   90.31382739
_cell_angle_gamma   89.99956878
_symmetry_Int_Tables_number   1
_chemical_formula_structural   Mg2FeIrO6
_chemical_formula_sum   'Mg4 Fe2 Ir2 O12'
_cell_volume   207.40032387
_cell_formula_units_Z   2
loop_
 _symmetry_equiv_pos_site_id
 _symmetry_equiv_pos_as_xyz
  1  'x, y, z'
loop_
 _atom_site_type_symbol
 _atom_site_label
 _atom_site_symmetry_multiplicity
 _atom_site_fract_x
 _atom_site_fract_y
 _atom_site_fract_z
 _atom_site_occupancy
  Mg  Mg0  1  0.01091400  0.94020600  0.24781400  1
  Mg  Mg1  1  0.48906600  0.44019400  0.25221300  1
  Mg  Mg2  1  0.51093300  0.55980500  0.74778700  1
  Mg  Mg3  1  0.98908600  0.05979300  0.75218600  1
  Fe  Fe4  1  0.00000200  0.50000600  0.99999300  1
  Fe  Fe5  1  0.50000300  0.00000200  0.50000500  1
  Ir  Ir6  1  0.99999900  0.49999900  0.50000000  1
  Ir  Ir7  1  0.50000000  0.00000000  0.00000000  1
  O  O8  1  0.13433800  0.43044600  0.74562000  1
  O  O9  1  0.18222600  0.18490800  0.06985500  1
  O  O10  1  0.17694400  0.18852100  0.42729100  1
  O  O11  1  0.32307700  0.68856700  0.07270200  1
  O  O12  1  0.31775600  0.68491900  0.43015700  1
  O  O13  1  0.36567800  0.93046200  0.75439400  1
  O  O14  1  0.63432200  0.06953700  0.24560600  1
  O  O15  1  0.68224300  0.31508100  0.56984300  1
  O  O16  1  0.67692200  0.31143300  0.92729800  1
  O  O17  1  0.81777400  0.81509000  0.93014500  1
  O  O18  1  0.82305600  0.81147800  0.57271000  1
  O  O19  1  0.86566100  0.56955300  0.25437900  1
