# generated using pymatgen
data_CoBi6(SO8)2
_symmetry_space_group_name_H-M   'P 1'
_cell_length_a   5.66734401
_cell_length_b   31.21206601
_cell_length_c   8.99577984
_cell_angle_alpha   88.32048259
_cell_angle_beta   108.36081317
_cell_angle_gamma   90.00594710
_symmetry_Int_Tables_number   1
_chemical_formula_structural   CoBi6(SO8)2
_chemical_formula_sum   'Co4 Bi24 S8 O64'
_cell_volume   1509.53210844
_cell_formula_units_Z   4
loop_
 _symmetry_equiv_pos_site_id
 _symmetry_equiv_pos_as_xyz
  1  'x, y, z'
loop_
 _atom_site_type_symbol
 _atom_site_label
 _atom_site_symmetry_multiplicity
 _atom_site_fract_x
 _atom_site_fract_y
 _atom_site_fract_z
 _atom_site_occupancy
  Co  Co0  1  0.10799300  0.49998000  0.00005500  1
  Co  Co1  1  0.60789300  0.24998800  0.99998300  1
  Co  Co2  1  0.65731300  0.75001000  0.00010300  1
  Co  Co3  1  0.10810300  0.00001400  0.99992600  1
  Bi  Bi4  1  0.45035500  0.66514600  0.64904700  1
  Bi  Bi5  1  0.94795400  0.91560200  0.64489300  1
  Bi  Bi6  1  0.45036200  0.16512800  0.64742600  1
  Bi  Bi7  1  0.95040700  0.41510200  0.64747600  1
  Bi  Bi8  1  0.30305500  0.58441500  0.35510300  1
  Bi  Bi9  1  0.80138200  0.83487000  0.35103800  1
  Bi  Bi10  1  0.30297400  0.08489100  0.35257700  1
  Bi  Bi11  1  0.80289300  0.33487100  0.35262100  1
  Bi  Bi12  1  0.97626000  0.58752200  0.69259000  1
  Bi  Bi13  1  0.47444600  0.83803000  0.69238500  1
  Bi  Bi14  1  0.97675700  0.08757200  0.69253300  1
  Bi  Bi15  1  0.47677100  0.33755000  0.69251800  1
  Bi  Bi16  1  0.78219000  0.66197400  0.30758900  1
  Bi  Bi17  1  0.28384400  0.91248600  0.30736800  1
  Bi  Bi18  1  0.78444600  0.16244100  0.30749800  1
  Bi  Bi19  1  0.28432700  0.41242600  0.30746400  1
  Bi  Bi20  1  0.05705700  0.66668400  0.01052400  1
  Bi  Bi21  1  0.55275000  0.91800800  0.00734800  1
  Bi  Bi22  1  0.05284300  0.16791100  0.00776100  1
  Bi  Bi23  1  0.55282200  0.41789300  0.00779600  1
  Bi  Bi24  1  0.54537000  0.58197300  0.99260400  1
  Bi  Bi25  1  0.04648400  0.83332600  0.98942500  1
  Bi  Bi26  1  0.54509100  0.08212100  0.99216200  1
  Bi  Bi27  1  0.04506200  0.33207700  0.99221700  1
  S  S28  1  0.03503500  0.74620400  0.72190900  1
  S  S29  1  0.53127400  0.99613200  0.71509700  1
  S  S30  1  0.03114400  0.24606500  0.71504700  1
  S  S31  1  0.53110900  0.49604400  0.71510100  1
  S  S32  1  0.81615800  0.50385500  0.28492100  1
  S  S33  1  0.31331500  0.75382100  0.27816600  1
  S  S34  1  0.81600300  0.00394900  0.28479500  1
  S  S35  1  0.31598700  0.25392300  0.28493000  1
  O  O36  1  0.12996100  0.62499200  0.50124900  1
  O  O37  1  0.62878500  0.87502300  0.49877900  1
  O  O38  1  0.12987300  0.12500900  0.49998200  1
  O  O39  1  0.62983400  0.37499500  0.50003200  1
  O  O40  1  0.60981400  0.62512800  0.50042400  1
  O  O41  1  0.10946400  0.87490000  0.49960000  1
  O  O42  1  0.61065900  0.12501400  0.49999400  1
  O  O43  1  0.11062900  0.37498700  0.50004000  1
  O  O44  1  0.30388700  0.73834900  0.81254400  1
  O  O45  1  0.80220900  0.98819300  0.80590000  1
  O  O46  1  0.30206100  0.23810800  0.80586000  1
  O  O47  1  0.80197100  0.48807500  0.80599200  1
  O  O48  1  0.99636900  0.51177600  0.19414400  1
  O  O49  1  0.49144600  0.76163700  0.18742800  1
  O  O50  1  0.99603000  0.01189600  0.19392400  1
  O  O51  1  0.49600700  0.26184600  0.19402300  1
  O  O52  1  0.87930400  0.73098900  0.82288500  1
  O  O53  1  0.37762300  0.98048200  0.81471200  1
  O  O54  1  0.87744300  0.23030700  0.81453200  1
  O  O55  1  0.37730100  0.48027200  0.81449100  1
  O  O56  1  0.56295200  0.51952900  0.18530300  1
  O  O57  1  0.05663300  0.76904900  0.17725300  1
  O  O58  1  0.56282400  0.01971500  0.18534400  1
  O  O59  1  0.06283700  0.26969600  0.18551900  1
  O  O60  1  0.96874300  0.72163300  0.57738900  1
  O  O61  1  0.47092400  0.97210300  0.56972300  1
  O  O62  1  0.97082700  0.22209600  0.56951100  1
  O  O63  1  0.47080100  0.47214900  0.56944600  1
  O  O64  1  0.90131600  0.52791400  0.43027400  1
  O  O65  1  0.39187000  0.77841400  0.42263100  1
  O  O66  1  0.90137900  0.02787900  0.43037600  1
  O  O67  1  0.40150500  0.27789400  0.43044300  1
  O  O68  1  0.48811400  0.54337400  0.68504400  1
  O  O69  1  0.98916600  0.79345000  0.68892400  1
  O  O70  1  0.48827700  0.04344600  0.68457600  1
  O  O71  1  0.98805700  0.29338000  0.68473600  1
  O  O72  1  0.30024000  0.70658500  0.31121900  1
  O  O73  1  0.80293900  0.95663000  0.31495900  1
  O  O74  1  0.30297900  0.20660900  0.31526900  1
  O  O75  1  0.80348300  0.45655900  0.31552500  1
  O  O76  1  0.17128800  0.55797200  0.94132900  1
  O  O77  1  0.66888400  0.80991400  0.94175000  1
  O  O78  1  0.17133000  0.05805500  0.94126500  1
  O  O79  1  0.67132000  0.30800500  0.94127800  1
  O  O80  1  0.72709800  0.69007900  0.05819400  1
  O  O81  1  0.22993300  0.94201300  0.05860800  1
  O  O82  1  0.73003000  0.19197400  0.05868400  1
  O  O83  1  0.22996600  0.44194700  0.05867500  1
  O  O84  1  0.30064300  0.62886600  0.81495900  1
  O  O85  1  0.79834100  0.87996200  0.81232700  1
  O  O86  1  0.30051900  0.12907700  0.81436300  1
  O  O87  1  0.80057400  0.37903700  0.81440900  1
  O  O88  1  0.98613900  0.62005300  0.18767400  1
  O  O89  1  0.48578500  0.87112800  0.18505600  1
  O  O90  1  0.98624900  0.12094900  0.18560100  1
  O  O91  1  0.48624800  0.37093500  0.18562900  1
  O  O92  1  0.79781700  0.63129300  0.81815500  1
  O  O93  1  0.29524700  0.88206600  0.81666200  1
  O  O94  1  0.79764600  0.13145100  0.81795600  1
  O  O95  1  0.29773300  0.38143700  0.81797600  1
  O  O96  1  0.47872400  0.61791900  0.18336300  1
  O  O97  1  0.97979100  0.86870900  0.18188600  1
  O  O98  1  0.47992400  0.11854500  0.18209500  1
  O  O99  1  0.97986200  0.36852300  0.18211100  1
