# generated using pymatgen
data_MgFeO3
_symmetry_space_group_name_H-M   'P 1'
_cell_length_a   5.08213865
_cell_length_b   5.47477982
_cell_length_c   7.49991851
_cell_angle_alpha   84.19248742
_cell_angle_beta   89.87475856
_cell_angle_gamma   89.80349116
_symmetry_Int_Tables_number   1
_chemical_formula_structural   MgFeO3
_chemical_formula_sum   'Mg4 Fe4 O12'
_cell_volume   207.60205017
_cell_formula_units_Z   4
loop_
 _symmetry_equiv_pos_site_id
 _symmetry_equiv_pos_as_xyz
  1  'x, y, z'
loop_
 _atom_site_type_symbol
 _atom_site_label
 _atom_site_symmetry_multiplicity
 _atom_site_fract_x
 _atom_site_fract_y
 _atom_site_fract_z
 _atom_site_occupancy
  Mg  Mg0  1  0.99895200  0.28298800  0.14105600  1
  Mg  Mg1  1  0.49908300  0.78288000  0.64097400  1
  Mg  Mg2  1  0.00105900  0.71575200  0.85893000  1
  Mg  Mg3  1  0.50098200  0.21585300  0.35903000  1
  Fe  Fe4  1  0.50018200  0.18957800  0.84570200  1
  Fe  Fe5  1  0.99944900  0.30155700  0.65057300  1
  Fe  Fe6  1  0.00025600  0.68942200  0.34584700  1
  Fe  Fe7  1  0.49920000  0.80160800  0.15058500  1
  O  O8  1  0.87236800  0.65798700  0.58423300  1
  O  O9  1  0.37217300  0.15802800  0.08421900  1
  O  O10  1  0.65427900  0.15507400  0.61058700  1
  O  O11  1  0.15411100  0.65521600  0.11051000  1
  O  O12  1  0.20525500  0.01327400  0.74973800  1
  O  O13  1  0.70507100  0.51337400  0.24972900  1
  O  O14  1  0.80824300  0.97729200  0.26320700  1
  O  O15  1  0.30848900  0.47699600  0.76322600  1
  O  O16  1  0.32167800  0.84876900  0.39292300  1
  O  O17  1  0.82177800  0.34866200  0.89304800  1
  O  O18  1  0.13860900  0.35793100  0.40289800  1
  O  O19  1  0.63878100  0.85776000  0.90298700  1
