# generated using pymatgen
data_SrLa2Mn2O7
_symmetry_space_group_name_H-M   'P 1'
_cell_length_a   5.57680340
_cell_length_b   5.57620377
_cell_length_c   10.65156177
_cell_angle_alpha   89.99994553
_cell_angle_beta   105.17924057
_cell_angle_gamma   89.99998547
_symmetry_Int_Tables_number   1
_chemical_formula_structural   SrLa2Mn2O7
_chemical_formula_sum   'Sr2 La4 Mn4 O14'
_cell_volume   319.67944947
_cell_formula_units_Z   2
loop_
 _symmetry_equiv_pos_site_id
 _symmetry_equiv_pos_as_xyz
  1  'x, y, z'
loop_
 _atom_site_type_symbol
 _atom_site_label
 _atom_site_symmetry_multiplicity
 _atom_site_fract_x
 _atom_site_fract_y
 _atom_site_fract_z
 _atom_site_occupancy
  Sr  Sr0  1  0.68412000  0.00001100  0.36805900  1
  Sr  Sr1  1  0.18422800  0.49999700  0.36826900  1
  La  La2  1  0.50709100  0.00000000  0.01392500  1
  La  La3  1  0.00700600  0.49999700  0.01378900  1
  La  La4  1  0.81846800  0.49999900  0.63677900  1
  La  La5  1  0.31816700  0.00000000  0.63609300  1
  Mn  Mn6  1  0.90231600  0.00000500  0.80450600  1
  Mn  Mn7  1  0.09774500  0.00000000  0.19538700  1
  Mn  Mn8  1  0.40323400  0.50000300  0.80634400  1
  Mn  Mn9  1  0.60128300  0.50000400  0.20244200  1
  O  O10  1  0.80298200  0.00000700  0.60643000  1
  O  O11  1  0.30397700  0.49993800  0.60842600  1
  O  O12  1  0.70691400  0.50000300  0.41426300  1
  O  O13  1  0.20796300  0.00000400  0.41645100  1
  O  O14  1  0.99331800  0.00000300  0.98680500  1
  O  O15  1  0.49622000  0.50000300  0.99231000  1
  O  O16  1  0.66040900  0.75867200  0.80199500  1
  O  O17  1  0.14172300  0.24129200  0.80210000  1
  O  O18  1  0.14171900  0.75871000  0.80209600  1
  O  O19  1  0.66040900  0.24133700  0.80199300  1
  O  O20  1  0.84935800  0.75968000  0.18038700  1
  O  O21  1  0.33097600  0.24095600  0.18040700  1
  O  O22  1  0.33097300  0.75905100  0.18038900  1
  O  O23  1  0.84940100  0.24032700  0.18035700  1
