# generated using pymatgen
data_SrSi
_symmetry_space_group_name_H-M   'P 1'
_cell_length_a   4.05866100
_cell_length_b   6.13872700
_cell_length_c   8.90659200
_cell_angle_alpha   90.00000000
_cell_angle_beta   90.00000000
_cell_angle_gamma   90.00000000
_symmetry_Int_Tables_number   1
_chemical_formula_structural   SrSi
_chemical_formula_sum   'Sr4 Si4'
_cell_volume   221.90784535
_cell_formula_units_Z   4
loop_
 _symmetry_equiv_pos_site_id
 _symmetry_equiv_pos_as_xyz
  1  'x, y, z'
loop_
 _atom_site_type_symbol
 _atom_site_label
 _atom_site_symmetry_multiplicity
 _atom_site_fract_x
 _atom_site_fract_y
 _atom_site_fract_z
 _atom_site_occupancy
  Sr  Sr0  1  0.25000000  0.39200600  0.68054600  1
  Sr  Sr1  1  0.75000000  0.60799400  0.31945400  1
  Sr  Sr2  1  0.75000000  0.89200600  0.81945400  1
  Sr  Sr3  1  0.25000000  0.10799400  0.18054600  1
  Si  Si4  1  0.25000000  0.89291600  0.53192900  1
  Si  Si5  1  0.75000000  0.10708400  0.46807100  1
  Si  Si6  1  0.75000000  0.39291600  0.96807100  1
  Si  Si7  1  0.25000000  0.60708400  0.03192900  1
