# generated using pymatgen
data_CaV2O4
_symmetry_space_group_name_H-M   'P 1'
_cell_length_a   6.23721338
_cell_length_b   6.38098114
_cell_length_c   8.89432075
_cell_angle_alpha   92.36614578
_cell_angle_beta   89.99505749
_cell_angle_gamma   89.97581909
_symmetry_Int_Tables_number   1
_chemical_formula_structural   CaV2O4
_chemical_formula_sum   'Ca4 V8 O16'
_cell_volume   353.68803711
_cell_formula_units_Z   4
loop_
 _symmetry_equiv_pos_site_id
 _symmetry_equiv_pos_as_xyz
  1  'x, y, z'
loop_
 _atom_site_type_symbol
 _atom_site_label
 _atom_site_symmetry_multiplicity
 _atom_site_fract_x
 _atom_site_fract_y
 _atom_site_fract_z
 _atom_site_occupancy
  Ca  Ca0  1  0.99991200  0.99671500  0.00323400  1
  Ca  Ca1  1  0.50002000  0.49621100  0.50383300  1
  Ca  Ca2  1  0.00003600  0.74951500  0.62573900  1
  Ca  Ca3  1  0.50008500  0.24869300  0.12488100  1
  V  V4  1  0.75582700  0.49908000  0.87319400  1
  V  V5  1  0.24404300  0.49890900  0.87325100  1
  V  V6  1  0.00005600  0.25289300  0.62673000  1
  V  V7  1  0.99995300  0.50986400  0.24570500  1
  V  V8  1  0.50009700  0.00922900  0.74584100  1
  V  V9  1  0.25613500  0.99880000  0.37351600  1
  V  V10  1  0.74387700  0.99876700  0.37356600  1
  V  V11  1  0.49991500  0.75266100  0.12690900  1
  O  O12  1  0.00009600  0.25527500  0.37202500  1
  O  O13  1  0.49992500  0.75489300  0.87138900  1
  O  O14  1  0.00009200  0.27592000  0.86165700  1
  O  O15  1  0.49990800  0.77566300  0.36174400  1
  O  O16  1  0.99988000  0.77936000  0.36750000  1
  O  O17  1  0.50011500  0.27882400  0.86719300  1
  O  O18  1  0.24476700  0.01980100  0.61207300  1
  O  O19  1  0.74435500  0.52043100  0.11191500  1
  O  O20  1  0.75555400  0.02017400  0.61223700  1
  O  O21  1  0.25545700  0.52038200  0.11183900  1
  O  O22  1  0.22142800  0.47330600  0.65124200  1
  O  O23  1  0.72167100  0.97318600  0.15110200  1
  O  O24  1  0.77861400  0.47355600  0.65121200  1
  O  O25  1  0.27832500  0.97346000  0.15099700  1
  O  O26  1  0.99986600  0.69718300  0.87482300  1
  O  O27  1  0.49999200  0.19725200  0.37464700  1
