# generated using pymatgen
data_Ba2YV3O8
_symmetry_space_group_name_H-M   'P 1'
_cell_length_a   5.62611828
_cell_length_b   5.66507644
_cell_length_c   12.67764944
_cell_angle_alpha   77.14719563
_cell_angle_beta   77.24105117
_cell_angle_gamma   90.26189736
_symmetry_Int_Tables_number   1
_chemical_formula_structural   Ba2YV3O8
_chemical_formula_sum   'Ba4 Y2 V6 O16'
_cell_volume   383.60253382
_cell_formula_units_Z   2
loop_
 _symmetry_equiv_pos_site_id
 _symmetry_equiv_pos_as_xyz
  1  'x, y, z'
loop_
 _atom_site_type_symbol
 _atom_site_label
 _atom_site_symmetry_multiplicity
 _atom_site_fract_x
 _atom_site_fract_y
 _atom_site_fract_z
 _atom_site_occupancy
  Ba  Ba0  1  0.41881900  0.91884800  0.16233000  1
  Ba  Ba1  1  0.91885200  0.41887500  0.16228800  1
  Ba  Ba2  1  0.08134300  0.58130900  0.83732900  1
  Ba  Ba3  1  0.58134200  0.08133500  0.83728200  1
  Y  Y4  1  0.25000800  0.74998400  0.50002200  1
  Y  Y5  1  0.74996700  0.24998500  0.50005100  1
  V  V6  1  0.50005100  0.50006200  0.99987900  1
  V  V7  1  0.00006800  0.00006100  0.99987300  1
  V  V8  1  0.82953600  0.82950600  0.34099200  1
  V  V9  1  0.32962700  0.32963100  0.34076200  1
  V  V10  1  0.67038400  0.67035100  0.65926200  1
  V  V11  1  0.17045800  0.17046500  0.65906900  1
  O  O12  1  0.25007300  0.24992600  0.99991700  1
  O  O13  1  0.75000100  0.75014000  0.99992000  1
  O  O14  1  0.25003100  0.75018800  0.99990100  1
  O  O15  1  0.75005100  0.24992300  0.99990200  1
  O  O16  1  0.40803700  0.40801100  0.18396200  1
  O  O17  1  0.90799500  0.90799500  0.18400400  1
  O  O18  1  0.59193500  0.59195300  0.81609500  1
  O  O19  1  0.09199000  0.09200300  0.81598700  1
  O  O20  1  0.55829600  0.05843400  0.38324900  1
  O  O21  1  0.05850500  0.55832100  0.38324800  1
  O  O22  1  0.05806400  0.05799000  0.38398000  1
  O  O23  1  0.55801900  0.55807500  0.38397700  1
  O  O24  1  0.94151800  0.44132700  0.61707400  1
  O  O25  1  0.44136400  0.94162300  0.61707400  1
  O  O26  1  0.44205000  0.44201000  0.61629100  1
  O  O27  1  0.94161800  0.94166800  0.61628600  1
