# generated using pymatgen
data_NaV5O8
_symmetry_space_group_name_H-M   'P 1'
_cell_length_a   3.07211702
_cell_length_b   12.09045493
_cell_length_c   9.08766473
_cell_angle_alpha   94.73065533
_cell_angle_beta   80.26803115
_cell_angle_gamma   97.31148317
_symmetry_Int_Tables_number   1
_chemical_formula_structural   NaV5O8
_chemical_formula_sum   'Na2 V10 O16'
_cell_volume   329.34100378
_cell_formula_units_Z   2
loop_
 _symmetry_equiv_pos_site_id
 _symmetry_equiv_pos_as_xyz
  1  'x, y, z'
loop_
 _atom_site_type_symbol
 _atom_site_label
 _atom_site_symmetry_multiplicity
 _atom_site_fract_x
 _atom_site_fract_y
 _atom_site_fract_z
 _atom_site_occupancy
  Na  Na0  1  0.99907700  0.99720100  0.00183100  1
  Na  Na1  1  0.00345600  0.50270400  0.49813800  1
  V  V2  1  0.49817300  0.75000900  0.75001500  1
  V  V3  1  0.84968700  0.55949200  0.86718300  1
  V  V4  1  0.84983200  0.06053700  0.36772000  1
  V  V5  1  0.15688800  0.43950800  0.13221100  1
  V  V6  1  0.15755300  0.94046200  0.63286900  1
  V  V7  1  0.50280100  0.24999500  0.25003400  1
  V  V8  1  0.79594500  0.71300600  0.11845900  1
  V  V9  1  0.80116800  0.21494100  0.61797800  1
  V  V10  1  0.20316300  0.28506500  0.88203800  1
  V  V11  1  0.20137100  0.78702300  0.38150000  1
  O  O12  1  0.91477200  0.72927800  0.89408700  1
  O  O13  1  0.92103800  0.23048900  0.39432200  1
  O  O14  1  0.08399000  0.26953900  0.10570200  1
  O  O15  1  0.07960300  0.77071100  0.60591000  1
  O  O16  1  0.42603000  0.57542900  0.72492100  1
  O  O17  1  0.42925000  0.07535300  0.22469400  1
  O  O18  1  0.57837300  0.42467500  0.27524800  1
  O  O19  1  0.57574300  0.92452900  0.77517000  1
  O  O20  1  0.30418900  0.81695000  0.16519800  1
  O  O21  1  0.32508400  0.31771900  0.66706800  1
  O  O22  1  0.67396200  0.18230200  0.83294800  1
  O  O23  1  0.65227200  0.68308000  0.33474300  1
  O  O24  1  0.27496700  0.59011700  0.05042200  1
  O  O25  1  0.27407100  0.09025600  0.54913600  1
  O  O26  1  0.73204400  0.40972000  0.95090200  1
  O  O27  1  0.73549800  0.90991000  0.44955400  1
