# generated using pymatgen
data_VZn2WO6
_symmetry_space_group_name_H-M   'P 1'
_cell_length_a   5.27105303
_cell_length_b   7.80652554
_cell_length_c   5.28616596
_cell_angle_alpha   89.99190409
_cell_angle_beta   89.99175537
_cell_angle_gamma   90.00816050
_symmetry_Int_Tables_number   1
_chemical_formula_structural   VZn2WO6
_chemical_formula_sum   'V2 Zn4 W2 O12'
_cell_volume   217.51837524
_cell_formula_units_Z   2
loop_
 _symmetry_equiv_pos_site_id
 _symmetry_equiv_pos_as_xyz
  1  'x, y, z'
loop_
 _atom_site_type_symbol
 _atom_site_label
 _atom_site_symmetry_multiplicity
 _atom_site_fract_x
 _atom_site_fract_y
 _atom_site_fract_z
 _atom_site_occupancy
  V  V0  1  0.49999300  0.50000300  0.00000900  1
  V  V1  1  0.00000000  0.99999700  0.50000200  1
  Zn  Zn2  1  0.02587000  0.25092100  0.01127600  1
  Zn  Zn3  1  0.52547900  0.24921100  0.48867800  1
  Zn  Zn4  1  0.97413100  0.74907900  0.98872400  1
  Zn  Zn5  1  0.47452100  0.75078900  0.51132100  1
  W  W6  1  0.00000100  0.50000100  0.49999900  1
  W  W7  1  0.50000000  0.00000000  0.99999900  1
  O  O8  1  0.31926000  0.43539900  0.66723200  1
  O  O9  1  0.81878500  0.06466700  0.83332900  1
  O  O10  1  0.68074100  0.56460000  0.33276800  1
  O  O11  1  0.18121600  0.93533400  0.16667000  1
  O  O12  1  0.17451200  0.56591900  0.17217700  1
  O  O13  1  0.67523500  0.93410700  0.32818400  1
  O  O14  1  0.82548900  0.43408100  0.82782300  1
  O  O15  1  0.32476600  0.06589400  0.67181500  1
  O  O16  1  0.41362100  0.24614900  0.11585900  1
  O  O17  1  0.91362400  0.25406400  0.38433200  1
  O  O18  1  0.08637700  0.74593600  0.61566700  1
  O  O19  1  0.58637900  0.75385000  0.88414000  1
