# generated using pymatgen
data_NaCo2H3(SeO5)2
_symmetry_space_group_name_H-M   'P 1'
_cell_length_a   5.55247959
_cell_length_b   10.06618639
_cell_length_c   7.76751951
_cell_angle_alpha   72.77926083
_cell_angle_beta   83.96240498
_cell_angle_gamma   96.53545956
_symmetry_Int_Tables_number   1
_chemical_formula_structural   NaCo2H3(SeO5)2
_chemical_formula_sum   'Na2 Co4 H6 Se4 O20'
_cell_volume   407.55187976
_cell_formula_units_Z   2
loop_
 _symmetry_equiv_pos_site_id
 _symmetry_equiv_pos_as_xyz
  1  'x, y, z'
loop_
 _atom_site_type_symbol
 _atom_site_label
 _atom_site_symmetry_multiplicity
 _atom_site_fract_x
 _atom_site_fract_y
 _atom_site_fract_z
 _atom_site_occupancy
  Na  Na0  1  0.99129200  0.49834900  0.00365500  1
  Na  Na1  1  0.49894100  0.00011700  0.50218400  1
  Co  Co2  1  0.74834600  0.74668900  0.25706500  1
  Co  Co3  1  0.99330000  0.50048100  0.50323100  1
  Co  Co4  1  0.24559800  0.25149800  0.75029900  1
  Co  Co5  1  0.49829300  0.99905400  0.00231100  1
  H  H6  1  0.57984800  0.27063900  0.95611200  1
  H  H7  1  0.07650100  0.76513500  0.45553400  1
  H  H8  1  0.41647600  0.72572400  0.04813600  1
  H  H9  1  0.91694600  0.23650100  0.54941600  1
  H  H10  1  0.26650600  0.74844600  0.23690900  1
  H  H11  1  0.73129800  0.25035500  0.76515100  1
  Se  Se12  1  0.50808900  0.60360400  0.69499100  1
  Se  Se13  1  0.00959600  0.10165000  0.19051500  1
  Se  Se14  1  0.47711800  0.39587700  0.31178300  1
  Se  Se15  1  0.98731600  0.89660900  0.81431400  1
  O  O16  1  0.29011000  0.48019800  0.66674700  1
  O  O17  1  0.78466600  0.97885800  0.16361600  1
  O  O18  1  0.69781000  0.51971700  0.33585900  1
  O  O19  1  0.20999800  0.01858100  0.84511200  1
  O  O20  1  0.56433400  0.21856100  0.86705300  1
  O  O21  1  0.05617300  0.71263200  0.36808700  1
  O  O22  1  0.43176900  0.77799600  0.13750200  1
  O  O23  1  0.93615100  0.28862700  0.63730700  1
  O  O24  1  0.39737900  0.63980300  0.87873400  1
  O  O25  1  0.90261000  0.13762900  0.37440600  1
  O  O26  1  0.58490000  0.35705700  0.12951300  1
  O  O27  1  0.09599300  0.86333900  0.62878300  1
  O  O28  1  0.76882900  0.53383400  0.72185400  1
  O  O29  1  0.26821400  0.02997700  0.21723000  1
  O  O30  1  0.05717400  0.24463000  0.00383100  1
  O  O31  1  0.55570800  0.74713000  0.50935000  1
  O  O32  1  0.21609900  0.46514100  0.28530400  1
  O  O33  1  0.72938700  0.96919200  0.78752800  1
  O  O34  1  0.93444300  0.75262100  0.99865700  1
  O  O35  1  0.43479300  0.25375600  0.49991400  1
