# generated using pymatgen
data_Mg2V3O8
_symmetry_space_group_name_H-M   'P 1'
_cell_length_a   4.88117340
_cell_length_b   5.99682505
_cell_length_c   9.84285819
_cell_angle_alpha   89.99442888
_cell_angle_beta   83.07832209
_cell_angle_gamma   90.02020173
_symmetry_Int_Tables_number   1
_chemical_formula_structural   Mg2V3O8
_chemical_formula_sum   'Mg4 V6 O16'
_cell_volume   286.01578561
_cell_formula_units_Z   2
loop_
 _symmetry_equiv_pos_site_id
 _symmetry_equiv_pos_as_xyz
  1  'x, y, z'
loop_
 _atom_site_type_symbol
 _atom_site_label
 _atom_site_symmetry_multiplicity
 _atom_site_fract_x
 _atom_site_fract_y
 _atom_site_fract_z
 _atom_site_occupancy
  Mg  Mg0  1  0.43622200  0.50002900  0.22280600  1
  Mg  Mg1  1  0.93200900  0.99998300  0.72301200  1
  Mg  Mg2  1  0.06803000  0.00005900  0.27698000  1
  Mg  Mg3  1  0.56374200  0.49987500  0.77720100  1
  V  V4  1  0.00005300  0.50007300  0.50002700  1
  V  V5  1  0.49997200  0.23239100  0.49999500  1
  V  V6  1  0.50002000  0.76771700  0.49999600  1
  V  V7  1  0.50000700  0.00004200  0.99995600  1
  V  V8  1  0.99991700  0.73510000  0.99991400  1
  V  V9  1  0.00012600  0.26494600  0.00011900  1
  O  O10  1  0.68897500  0.00016500  0.39604000  1
  O  O11  1  0.18236600  0.49983400  0.89376600  1
  O  O12  1  0.81761300  0.49993900  0.10624000  1
  O  O13  1  0.31102300  0.99994200  0.60394600  1
  O  O14  1  0.70549000  0.50002300  0.39378800  1
  O  O15  1  0.18977400  0.00018700  0.89185400  1
  O  O16  1  0.81019900  0.99974500  0.10815200  1
  O  O17  1  0.29451200  0.50005000  0.60620900  1
  O  O18  1  0.28760000  0.22336400  0.11445800  1
  O  O19  1  0.77621000  0.72428000  0.61790000  1
  O  O20  1  0.28807600  0.77665700  0.11416800  1
  O  O21  1  0.77608100  0.27583400  0.61802500  1
  O  O22  1  0.22390400  0.72428800  0.38200100  1
  O  O23  1  0.71197200  0.22317000  0.88575000  1
  O  O24  1  0.22379900  0.27585900  0.38208000  1
  O  O25  1  0.71230500  0.77644700  0.88561600  1
