# generated using pymatgen
data_LaO3
_symmetry_space_group_name_H-M   'P 1'
_cell_length_a   5.71152187
_cell_length_b   5.71152187
_cell_length_c   4.45674400
_cell_angle_alpha   90.00000000
_cell_angle_beta   90.00000000
_cell_angle_gamma   119.99999853
_symmetry_Int_Tables_number   1
_chemical_formula_structural   LaO3
_chemical_formula_sum   'La2 O6'
_cell_volume   125.90762018
_cell_formula_units_Z   2
loop_
 _symmetry_equiv_pos_site_id
 _symmetry_equiv_pos_as_xyz
  1  'x, y, z'
loop_
 _atom_site_type_symbol
 _atom_site_label
 _atom_site_symmetry_multiplicity
 _atom_site_fract_x
 _atom_site_fract_y
 _atom_site_fract_z
 _atom_site_occupancy
  La  La0  1  0.33333300  0.66666700  0.25000000  1
  La  La1  1  0.66666700  0.33333300  0.75000000  1
  O  O2  1  0.85451100  0.57499700  0.25000000  1
  O  O3  1  0.72048600  0.14548900  0.25000000  1
  O  O4  1  0.42500300  0.27951400  0.25000000  1
  O  O5  1  0.14548900  0.42500300  0.75000000  1
  O  O6  1  0.27951400  0.85451100  0.75000000  1
  O  O7  1  0.57499700  0.72048600  0.75000000  1
