# generated using pymatgen
data_Ba2TaMnO6
_symmetry_space_group_name_H-M   'P 1'
_cell_length_a   8.00608400
_cell_length_b   10.37832622
_cell_length_c   8.00400000
_cell_angle_alpha   67.31683065
_cell_angle_beta   90.00057258
_cell_angle_gamma   112.68977477
_symmetry_Int_Tables_number   1
_chemical_formula_structural   Ba2TaMnO6
_chemical_formula_sum   'Ba8 Ta4 Mn4 O24'
_cell_volume   557.41067883
_cell_formula_units_Z   4
loop_
 _symmetry_equiv_pos_site_id
 _symmetry_equiv_pos_as_xyz
  1  'x, y, z'
loop_
 _atom_site_type_symbol
 _atom_site_label
 _atom_site_symmetry_multiplicity
 _atom_site_fract_x
 _atom_site_fract_y
 _atom_site_fract_z
 _atom_site_occupancy
  Ba  Ba0  1  0.74994500  0.50000200  0.74991700  1
  Ba  Ba1  1  0.25002900  0.49999800  0.25008200  1
  Ba  Ba2  1  0.49994100  0.99996200  0.49985000  1
  Ba  Ba3  1  0.00004800  0.99997800  0.00023400  1
  Ba  Ba4  1  0.25004100  0.49997600  0.74993600  1
  Ba  Ba5  1  0.74997500  0.50002300  0.25008700  1
  Ba  Ba6  1  0.00002000  0.99996000  0.49983300  1
  Ba  Ba7  1  0.49992600  0.99998000  0.00021400  1
  Ta  Ta8  1  0.12500500  0.74999000  0.37501600  1
  Ta  Ta9  1  0.62511600  0.75016000  0.87491700  1
  Ta  Ta10  1  0.87491600  0.24991200  0.12509400  1
  Ta  Ta11  1  0.37501400  0.24990400  0.62500800  1
  Mn  Mn12  1  0.12489700  0.74973700  0.87504900  1
  Mn  Mn13  1  0.37539200  0.25071300  0.12453600  1
  Mn  Mn14  1  0.62500900  0.75001200  0.37486400  1
  Mn  Mn15  1  0.87463300  0.24939200  0.62529100  1
  O  O16  1  0.01048900  0.52107000  0.48951200  1
  O  O17  1  0.51062300  0.52131600  0.98939000  1
  O  O18  1  0.76050700  0.02116800  0.23943300  1
  O  O19  1  0.26066000  0.02129900  0.73935900  1
  O  O20  1  0.23934000  0.97868600  0.26067700  1
  O  O21  1  0.73951800  0.97892000  0.76053800  1
  O  O22  1  0.98937400  0.47877400  0.01059600  1
  O  O23  1  0.48945700  0.47885000  0.51053100  1
  O  O24  1  0.37791400  0.74979600  0.37510400  1
  O  O25  1  0.87813700  0.75011800  0.87494800  1
  O  O26  1  0.12808400  0.25010600  0.12494900  1
  O  O27  1  0.62805600  0.24994100  0.62502900  1
  O  O28  1  0.87190800  0.74981200  0.37509500  1
  O  O29  1  0.37203700  0.75014400  0.87496600  1
  O  O30  1  0.62193900  0.25012300  0.12495300  1
  O  O31  1  0.12191800  0.24993700  0.62505200  1
  O  O32  1  0.12507500  0.75001000  0.12194800  1
  O  O33  1  0.62509100  0.75017100  0.62168100  1
  O  O34  1  0.87467000  0.24937100  0.87216700  1
  O  O35  1  0.37523500  0.25056100  0.37160400  1
  O  O36  1  0.12503100  0.74998100  0.62810000  1
  O  O37  1  0.62511800  0.75020700  0.12810600  1
  O  O38  1  0.87467400  0.24937800  0.37850200  1
  O  O39  1  0.37523800  0.25056600  0.87783100  1
