# generated using pymatgen
data_La4FeSe6O
_symmetry_space_group_name_H-M   'P 1'
_cell_length_a   9.83320296
_cell_length_b   9.81455988
_cell_length_c   7.11742510
_cell_angle_alpha   90.44163484
_cell_angle_beta   89.77831094
_cell_angle_gamma   120.19994412
_symmetry_Int_Tables_number   1
_chemical_formula_structural   La4FeSe6O
_chemical_formula_sum   'La8 Fe2 Se12 O2'
_cell_volume   593.64653096
_cell_formula_units_Z   2
loop_
 _symmetry_equiv_pos_site_id
 _symmetry_equiv_pos_as_xyz
  1  'x, y, z'
loop_
 _atom_site_type_symbol
 _atom_site_label
 _atom_site_symmetry_multiplicity
 _atom_site_fract_x
 _atom_site_fract_y
 _atom_site_fract_z
 _atom_site_occupancy
  La  La0  1  0.80115000  0.60191900  0.16100200  1
  La  La1  1  0.33327500  0.66672800  0.20739200  1
  La  La2  1  0.39943300  0.19941200  0.15916800  1
  La  La3  1  0.19930000  0.79855300  0.66126000  1
  La  La4  1  0.59984100  0.79875500  0.66098800  1
  La  La5  1  0.19880500  0.39768800  0.65849800  1
  La  La6  1  0.66818000  0.33462400  0.70713300  1
  La  La7  1  0.79932500  0.20043900  0.15835900  1
  Fe  Fe8  1  0.00133400  0.99877900  0.99976200  1
  Fe  Fe9  1  0.00178200  0.00463400  0.49921900  1
  Se  Se10  1  0.12356800  0.24828500  0.26018600  1
  Se  Se11  1  0.12493100  0.87711400  0.26891200  1
  Se  Se12  1  0.53028800  0.46981300  0.44588000  1
  Se  Se13  1  0.94069200  0.47085100  0.44473700  1
  Se  Se14  1  0.87520900  0.12327500  0.76100100  1
  Se  Se15  1  0.75253700  0.87778000  0.26422100  1
  Se  Se16  1  0.52970600  0.06000700  0.44461000  1
  Se  Se17  1  0.24690500  0.12276900  0.76399900  1
  Se  Se18  1  0.05971400  0.52943000  0.94552800  1
  Se  Se19  1  0.46969500  0.93991800  0.94549900  1
  Se  Se20  1  0.46926700  0.52942300  0.94532100  1
  Se  Se21  1  0.87518700  0.75034900  0.76578500  1
  O  O22  1  0.66674100  0.33392400  0.04313400  1
  O  O23  1  0.33313400  0.66553000  0.54336100  1
