# generated using pymatgen
data_Cu2SnTe3
_symmetry_space_group_name_H-M   'P 1'
_cell_length_a   7.55422381
_cell_length_b   7.55422381
_cell_length_c   7.55422381
_cell_angle_alpha   146.05846857
_cell_angle_beta   132.26132004
_cell_angle_gamma   59.85958817
_symmetry_Int_Tables_number   1
_chemical_formula_structural   Cu2SnTe3
_chemical_formula_sum   'Cu2 Sn1 Te3'
_cell_volume   176.50575075
_cell_formula_units_Z   1
loop_
 _symmetry_equiv_pos_site_id
 _symmetry_equiv_pos_as_xyz
  1  'x, y, z'
loop_
 _atom_site_type_symbol
 _atom_site_label
 _atom_site_symmetry_multiplicity
 _atom_site_fract_x
 _atom_site_fract_y
 _atom_site_fract_z
 _atom_site_occupancy
  Cu  Cu0  1  0.09024200  0.82969300  0.26055000  1
  Cu  Cu1  1  0.43085700  0.17030700  0.26055000  1
  Sn  Sn2  1  0.73384700  0.50000000  0.23384700  1
  Te  Te3  1  0.66154000  0.68029000  0.98125000  1
  Te  Te4  1  0.30096000  0.31971000  0.98125000  1
  Te  Te5  1  0.04055200  0.00000000  0.04055200  1
