# generated using pymatgen
data_Na2CoO3
_symmetry_space_group_name_H-M   'P 1'
_cell_length_a   6.31403500
_cell_length_b   6.25130260
_cell_length_c   5.18793800
_cell_angle_alpha   90.00030945
_cell_angle_beta   90.00041855
_cell_angle_gamma   59.66681108
_symmetry_Int_Tables_number   1
_chemical_formula_structural   Na2CoO3
_chemical_formula_sum   'Na4 Co2 O6'
_cell_volume   176.74005606
_cell_formula_units_Z   2
loop_
 _symmetry_equiv_pos_site_id
 _symmetry_equiv_pos_as_xyz
  1  'x, y, z'
loop_
 _atom_site_type_symbol
 _atom_site_label
 _atom_site_symmetry_multiplicity
 _atom_site_fract_x
 _atom_site_fract_y
 _atom_site_fract_z
 _atom_site_occupancy
  Na  Na0  1  0.83032100  0.67462900  0.52038600  1
  Na  Na1  1  0.49505300  0.67462800  0.02038000  1
  Na  Na2  1  0.50494900  0.32537000  0.52038100  1
  Na  Na3  1  0.16968000  0.32537200  0.02037900  1
  Co  Co4  1  0.84124500  0.00000000  0.04851600  1
  Co  Co5  1  0.15875200  0.00000100  0.54851800  1
  O  O6  1  0.83458800  0.72678400  0.98116300  1
  O  O7  1  0.43863100  0.72678200  0.48116400  1
  O  O8  1  0.56136900  0.27321600  0.98115800  1
  O  O9  1  0.16541100  0.27321800  0.48116400  1
  O  O10  1  0.88860300  0.99999900  0.40639500  1
  O  O11  1  0.11139800  0.00000100  0.90639400  1
