# generated using pymatgen
data_CdO
_symmetry_space_group_name_H-M   'P 1'
_cell_length_a   3.68416793
_cell_length_b   3.68416793
_cell_length_c   5.82527500
_cell_angle_alpha   90.00000000
_cell_angle_beta   90.00000000
_cell_angle_gamma   119.99999876
_symmetry_Int_Tables_number   1
_chemical_formula_structural   CdO
_chemical_formula_sum   'Cd2 O2'
_cell_volume   68.47403260
_cell_formula_units_Z   2
loop_
 _symmetry_equiv_pos_site_id
 _symmetry_equiv_pos_as_xyz
  1  'x, y, z'
loop_
 _atom_site_type_symbol
 _atom_site_label
 _atom_site_symmetry_multiplicity
 _atom_site_fract_x
 _atom_site_fract_y
 _atom_site_fract_z
 _atom_site_occupancy
  Cd  Cd0  1  0.66666700  0.33333300  0.49964700  1
  Cd  Cd1  1  0.33333300  0.66666700  0.99964700  1
  O  O2  1  0.66666700  0.33333300  0.88525300  1
  O  O3  1  0.33333300  0.66666700  0.38525300  1
