# generated using pymatgen
data_Mn3(O2F)2
_symmetry_space_group_name_H-M   'P 1'
_cell_length_a   4.67195735
_cell_length_b   9.02625552
_cell_length_c   4.67178735
_cell_angle_alpha   90.84945694
_cell_angle_beta   88.83000027
_cell_angle_gamma   90.71929717
_symmetry_Int_Tables_number   1
_chemical_formula_structural   Mn3(O2F)2
_chemical_formula_sum   'Mn6 O8 F4'
_cell_volume   196.93307301
_cell_formula_units_Z   2
loop_
 _symmetry_equiv_pos_site_id
 _symmetry_equiv_pos_as_xyz
  1  'x, y, z'
loop_
 _atom_site_type_symbol
 _atom_site_label
 _atom_site_symmetry_multiplicity
 _atom_site_fract_x
 _atom_site_fract_y
 _atom_site_fract_z
 _atom_site_occupancy
  Mn  Mn0  1  0.00442300  0.65226700  0.00518100  1
  Mn  Mn1  1  0.50227700  0.14855800  0.50342100  1
  Mn  Mn2  1  0.50795500  0.51436700  0.50767400  1
  Mn  Mn3  1  0.00530200  0.33393600  0.00354600  1
  Mn  Mn4  1  0.49095900  0.83263200  0.49142400  1
  Mn  Mn5  1  0.99813600  0.01644300  0.99882300  1
  O  O6  1  0.80415300  0.16992800  0.20256000  1
  O  O7  1  0.80874500  0.49982000  0.19089400  1
  O  O8  1  0.31488800  0.00005700  0.31500500  1
  O  O9  1  0.28828500  0.66961800  0.28879100  1
  O  O10  1  0.67986600  0.99877100  0.68007600  1
  O  O11  1  0.69427300  0.66898900  0.69484300  1
  O  O12  1  0.20401600  0.17012800  0.80261400  1
  O  O13  1  0.19105200  0.49993600  0.80850700  1
  F  F14  1  0.81540400  0.83425500  0.17550600  1
  F  F15  1  0.32778800  0.33233000  0.32725100  1
  F  F16  1  0.68805400  0.32280700  0.68755100  1
  F  F17  1  0.17442200  0.83515900  0.81633600  1
