# generated using pymatgen
data_Sr3(CoO3)2
_symmetry_space_group_name_H-M   'P 1'
_cell_length_a   6.61056071
_cell_length_b   6.72829387
_cell_length_c   6.66289642
_cell_angle_alpha   92.25799409
_cell_angle_beta   93.53274938
_cell_angle_gamma   92.88910739
_symmetry_Int_Tables_number   1
_chemical_formula_structural   Sr3(CoO3)2
_chemical_formula_sum   'Sr6 Co4 O12'
_cell_volume   295.14316087
_cell_formula_units_Z   2
loop_
 _symmetry_equiv_pos_site_id
 _symmetry_equiv_pos_as_xyz
  1  'x, y, z'
loop_
 _atom_site_type_symbol
 _atom_site_label
 _atom_site_symmetry_multiplicity
 _atom_site_fract_x
 _atom_site_fract_y
 _atom_site_fract_z
 _atom_site_occupancy
  Sr  Sr0  1  0.88540100  0.24602700  0.61482000  1
  Sr  Sr1  1  0.24734100  0.61563900  0.88347300  1
  Sr  Sr2  1  0.61496500  0.88629300  0.25425900  1
  Sr  Sr3  1  0.75025700  0.38373600  0.11610300  1
  Sr  Sr4  1  0.38549800  0.11432500  0.74747900  1
  Sr  Sr5  1  0.11444000  0.75432900  0.38549700  1
  Co  Co6  1  0.24616500  0.25630300  0.25113300  1
  Co  Co7  1  0.74681700  0.74392100  0.75516200  1
  Co  Co8  1  0.00146500  0.99921100  0.99907400  1
  Co  Co9  1  0.50116400  0.50043200  0.49828300  1
  O  O10  1  0.22220200  0.41110600  0.53485200  1
  O  O11  1  0.41446900  0.54220500  0.22148700  1
  O  O12  1  0.54102600  0.21537400  0.40790900  1
  O  O13  1  0.90900800  0.71771600  0.03816800  1
  O  O14  1  0.72648200  0.03789300  0.91128500  1
  O  O15  1  0.04101900  0.91114300  0.71655800  1
  O  O16  1  0.77710600  0.58897300  0.46278300  1
  O  O17  1  0.58891000  0.45977900  0.77749900  1
  O  O18  1  0.45841000  0.78573500  0.59070300  1
  O  O19  1  0.09338900  0.28129800  0.96279900  1
  O  O20  1  0.27443800  0.96008900  0.08653000  1
  O  O21  1  0.96002900  0.08847300  0.28414400  1
