# generated using pymatgen
data_KMnSn3O8
_symmetry_space_group_name_H-M   'P 1'
_cell_length_a   3.23155411
_cell_length_b   10.56607258
_cell_length_c   10.51248350
_cell_angle_alpha   89.03488276
_cell_angle_beta   89.98858681
_cell_angle_gamma   89.97292077
_symmetry_Int_Tables_number   1
_chemical_formula_structural   KMnSn3O8
_chemical_formula_sum   'K2 Mn2 Sn6 O16'
_cell_volume   358.89604912
_cell_formula_units_Z   2
loop_
 _symmetry_equiv_pos_site_id
 _symmetry_equiv_pos_as_xyz
  1  'x, y, z'
loop_
 _atom_site_type_symbol
 _atom_site_label
 _atom_site_symmetry_multiplicity
 _atom_site_fract_x
 _atom_site_fract_y
 _atom_site_fract_z
 _atom_site_occupancy
  K  K0  1  0.50977000  0.98920900  0.00271000  1
  K  K1  1  0.99051900  0.48921300  0.50287300  1
  Mn  Mn2  1  0.00352800  0.16539000  0.65183400  1
  Mn  Mn3  1  0.49653600  0.66527500  0.15178800  1
  Sn  Sn4  1  0.48027700  0.32844200  0.84213600  1
  Sn  Sn5  1  0.01968400  0.82840200  0.34211000  1
  Sn  Sn6  1  0.00361100  0.65186000  0.84152100  1
  Sn  Sn7  1  0.49634800  0.15183000  0.34159400  1
  Sn  Sn8  1  0.98172000  0.35769400  0.16389600  1
  Sn  Sn9  1  0.51830800  0.85774800  0.66383800  1
  O  O10  1  0.50203900  0.66549100  0.96236900  1
  O  O11  1  0.99788000  0.16552800  0.46245700  1
  O  O12  1  0.47993600  0.33243000  0.03954400  1
  O  O13  1  0.02004100  0.83245000  0.53952400  1
  O  O14  1  0.98175100  0.45730900  0.83440200  1
  O  O15  1  0.51788100  0.95729500  0.33445100  1
  O  O16  1  0.96094000  0.54708100  0.16270700  1
  O  O17  1  0.53908300  0.04714300  0.66271500  1
  O  O18  1  0.97769900  0.19829400  0.84464600  1
  O  O19  1  0.52249700  0.69826500  0.34467100  1
  O  O20  1  0.06942300  0.79912200  0.14924500  1
  O  O21  1  0.43046600  0.29923400  0.64924200  1
  O  O22  1  0.48424200  0.34987200  0.29982700  1
  O  O23  1  0.01576000  0.84990300  0.79978900  1
  O  O24  1  0.50752500  0.65778200  0.70502900  1
  O  O25  1  0.99253600  0.15773800  0.20508100  1
