data_image0
_chemical_formula_structural       Ag2BaGeSe4
_chemical_formula_sum              "Ag2 Ba1 Ge1 Se4"
_cell_length_a       6.6576
_cell_length_b       6.6576
_cell_length_c       6.6576
_cell_angle_alpha    100.753
_cell_angle_beta     112.601
_cell_angle_gamma    115.411

_space_group_name_H-M_alt    "P 1"
_space_group_IT_number       1

loop_
  _space_group_symop_operation_xyz
  'x, y, z'

loop_
  _atom_site_type_symbol
  _atom_site_label
  _atom_site_symmetry_multiplicity
  _atom_site_fract_x
  _atom_site_fract_y
  _atom_site_fract_z
  _atom_site_occupancy
  Ag  Ag1       1.0  0.50000  0.79500  0.29500  1.0000
  Ag  Ag2       1.0  0.50000  0.20500  0.70500  1.0000
  Ba  Ba1       1.0  0.00000  0.00000  0.00000  1.0000
  Ge  Ge1       1.0  0.00000  0.50000  0.50000  1.0000
  Se  Se1       1.0  0.61700  0.14500  0.14800  1.0000
  Se  Se2       1.0  0.00273  0.85500  0.47200  1.0000
  Se  Se3       1.0  0.38300  0.53000  0.52800  1.0000
  Se  Se4       1.0  0.99700  0.47000  0.85200  1.0000
