# generated using pymatgen
data_In6ReO12
_symmetry_space_group_name_H-M   'P 1'
_cell_length_a   6.34523261
_cell_length_b   6.34523261
_cell_length_c   6.34523237
_cell_angle_alpha   99.20831468
_cell_angle_beta   99.20831468
_cell_angle_gamma   99.20831233
_symmetry_Int_Tables_number   1
_chemical_formula_structural   In6ReO12
_chemical_formula_sum   'In6 Re1 O12'
_cell_volume   244.37040901
_cell_formula_units_Z   1
loop_
 _symmetry_equiv_pos_site_id
 _symmetry_equiv_pos_as_xyz
  1  'x, y, z'
loop_
 _atom_site_type_symbol
 _atom_site_label
 _atom_site_symmetry_multiplicity
 _atom_site_fract_x
 _atom_site_fract_y
 _atom_site_fract_z
 _atom_site_occupancy
  In  In0  1  0.67722600  0.86023100  0.39689500  1
  In  In1  1  0.39689500  0.67722600  0.86023100  1
  In  In2  1  0.86023100  0.39689500  0.67722600  1
  In  In3  1  0.32277400  0.13976900  0.60310500  1
  In  In4  1  0.60310500  0.32277400  0.13976900  1
  In  In5  1  0.13976900  0.60310500  0.32277400  1
  Re  Re6  1  0.00000000  0.00000000  0.00000000  1
  O  O7  1  0.41408100  0.59403200  0.17598200  1
  O  O8  1  0.17598200  0.41408100  0.59403200  1
  O  O9  1  0.59403200  0.17598200  0.41408100  1
  O  O10  1  0.58591900  0.40596800  0.82401800  1
  O  O11  1  0.82401800  0.58591900  0.40596800  1
  O  O12  1  0.40596800  0.82401800  0.58591900  1
  O  O13  1  0.89680800  0.04507500  0.70827600  1
  O  O14  1  0.95492500  0.29172400  0.10319200  1
  O  O15  1  0.29172400  0.10319200  0.95492500  1
  O  O16  1  0.10319200  0.95492500  0.29172400  1
  O  O17  1  0.04507500  0.70827600  0.89680800  1
  O  O18  1  0.70827600  0.89680800  0.04507500  1
