# generated using pymatgen
data_CaYMn2O6
_symmetry_space_group_name_H-M   'P 1'
_cell_length_a   5.23800580
_cell_length_b   5.42460600
_cell_length_c   7.93438812
_cell_angle_alpha   89.99973348
_cell_angle_beta   90.42929377
_cell_angle_gamma   90.00017269
_symmetry_Int_Tables_number   1
_chemical_formula_structural   CaYMn2O6
_chemical_formula_sum   'Ca2 Y2 Mn4 O12'
_cell_volume   225.44230967
_cell_formula_units_Z   2
loop_
 _symmetry_equiv_pos_site_id
 _symmetry_equiv_pos_as_xyz
  1  'x, y, z'
loop_
 _atom_site_type_symbol
 _atom_site_label
 _atom_site_symmetry_multiplicity
 _atom_site_fract_x
 _atom_site_fract_y
 _atom_site_fract_z
 _atom_site_occupancy
  Ca  Ca0  1  0.51407400  0.55146000  0.24875300  1
  Ca  Ca1  1  0.01409200  0.94853900  0.74872100  1
  Y  Y2  1  0.98161300  0.05938500  0.25200300  1
  Y  Y3  1  0.48158800  0.44061800  0.75203500  1
  Mn  Mn4  1  0.50013900  0.99901400  0.50016000  1
  Mn  Mn5  1  0.50114600  0.99610500  0.99979400  1
  Mn  Mn6  1  0.00010700  0.50098300  0.00022700  1
  Mn  Mn7  1  0.00105000  0.50384600  0.49996500  1
  O  O8  1  0.40035700  0.97596700  0.26343700  1
  O  O9  1  0.90030900  0.52406200  0.76344700  1
  O  O10  1  0.08283700  0.47028500  0.23649400  1
  O  O11  1  0.58287300  0.02972800  0.73648500  1
  O  O12  1  0.80524300  0.79837200  0.05297500  1
  O  O13  1  0.30145200  0.69754100  0.95073300  1
  O  O14  1  0.30531000  0.70161700  0.55298100  1
  O  O15  1  0.80151200  0.80248500  0.45074900  1
  O  O16  1  0.70576000  0.28964300  0.44868500  1
  O  O17  1  0.20745100  0.20880500  0.54683600  1
  O  O18  1  0.20569400  0.21033900  0.94870000  1
  O  O19  1  0.70739100  0.29120500  0.04682100  1
