# generated using pymatgen
data_V4ZnO10
_symmetry_space_group_name_H-M   'P 1'
_cell_length_a   3.64465200
_cell_length_b   5.45937700
_cell_length_c   11.47766522
_cell_angle_alpha   89.97886154
_cell_angle_beta   90.00000499
_cell_angle_gamma   70.50049730
_symmetry_Int_Tables_number   1
_chemical_formula_structural   V4ZnO10
_chemical_formula_sum   'V4 Zn1 O10'
_cell_volume   215.27845092
_cell_formula_units_Z   1
loop_
 _symmetry_equiv_pos_site_id
 _symmetry_equiv_pos_as_xyz
  1  'x, y, z'
loop_
 _atom_site_type_symbol
 _atom_site_label
 _atom_site_symmetry_multiplicity
 _atom_site_fract_x
 _atom_site_fract_y
 _atom_site_fract_z
 _atom_site_occupancy
  V  V0  1  0.79888700  0.40228100  0.90136000  1
  V  V1  1  0.20921400  0.58153300  0.10280700  1
  V  V2  1  0.79886200  0.40231900  0.59866700  1
  V  V3  1  0.20921800  0.58152800  0.39722600  1
  Zn  Zn4  1  0.10063200  0.79861500  0.75000500  1
  O  O5  1  0.27384500  0.45242500  0.25001600  1
  O  O6  1  0.69859600  0.60282000  0.75001500  1
  O  O7  1  0.75800300  0.48395500  0.07049700  1
  O  O8  1  0.75795500  0.48405100  0.42952300  1
  O  O9  1  0.23695900  0.52612700  0.92722000  1
  O  O10  1  0.23698200  0.52607500  0.57278400  1
  O  O11  1  0.95755500  0.08493600  0.62969800  1
  O  O12  1  0.95749700  0.08504500  0.87023200  1
  O  O13  1  0.05454900  0.89084500  0.38079000  1
  O  O14  1  0.05461700  0.89071600  0.11916100  1
