# generated using pymatgen
data_TiZnO3
_symmetry_space_group_name_H-M   'P 1'
_cell_length_a   5.51732349
_cell_length_b   5.51732349
_cell_length_c   5.51732338
_cell_angle_alpha   55.54717601
_cell_angle_beta   55.54717601
_cell_angle_gamma   55.54717864
_symmetry_Int_Tables_number   1
_chemical_formula_structural   TiZnO3
_chemical_formula_sum   'Ti2 Zn2 O6'
_cell_volume   106.48434782
_cell_formula_units_Z   2
loop_
 _symmetry_equiv_pos_site_id
 _symmetry_equiv_pos_as_xyz
  1  'x, y, z'
loop_
 _atom_site_type_symbol
 _atom_site_label
 _atom_site_symmetry_multiplicity
 _atom_site_fract_x
 _atom_site_fract_y
 _atom_site_fract_z
 _atom_site_occupancy
  Ti  Ti0  1  0.49898600  0.49898600  0.49898600  1
  Ti  Ti1  1  0.99898600  0.99898600  0.99898600  1
  Zn  Zn2  1  0.22030300  0.22030300  0.22030300  1
  Zn  Zn3  1  0.72030300  0.72030300  0.72030300  1
  O  O4  1  0.77861800  0.13769600  0.39392800  1
  O  O5  1  0.13769600  0.39392800  0.77861800  1
  O  O6  1  0.39392800  0.77861800  0.13769600  1
  O  O7  1  0.89392800  0.63769600  0.27861800  1
  O  O8  1  0.63769600  0.27861800  0.89392800  1
  O  O9  1  0.27861800  0.89392800  0.63769600  1
