# generated using pymatgen
data_BaLa3Mn4O12
_symmetry_space_group_name_H-M   'P 1'
_cell_length_a   5.58986556
_cell_length_b   7.89478486
_cell_length_c   5.66523760
_cell_angle_alpha   90.14667249
_cell_angle_beta   89.70063302
_cell_angle_gamma   90.59709472
_symmetry_Int_Tables_number   1
_chemical_formula_structural   BaLa3Mn4O12
_chemical_formula_sum   'Ba1 La3 Mn4 O12'
_cell_volume   249.99361502
_cell_formula_units_Z   1
loop_
 _symmetry_equiv_pos_site_id
 _symmetry_equiv_pos_as_xyz
  1  'x, y, z'
loop_
 _atom_site_type_symbol
 _atom_site_label
 _atom_site_symmetry_multiplicity
 _atom_site_fract_x
 _atom_site_fract_y
 _atom_site_fract_z
 _atom_site_occupancy
  Ba  Ba0  1  0.49762100  0.25072500  0.00091900  1
  La  La1  1  0.00456600  0.74876600  0.49578200  1
  La  La2  1  0.50182000  0.75168100  0.00208800  1
  La  La3  1  0.99776000  0.24845900  0.49851000  1
  Mn  Mn4  1  0.99933600  0.99670900  0.99982800  1
  Mn  Mn5  1  0.50079900  0.50051100  0.50208900  1
  Mn  Mn6  1  0.99954500  0.50245400  0.00013800  1
  Mn  Mn7  1  0.49992200  0.99921500  0.49670200  1
  O  O8  1  0.00294500  0.75930400  0.06645500  1
  O  O9  1  0.49828000  0.23936700  0.53265900  1
  O  O10  1  0.00060800  0.23866100  0.92586500  1
  O  O11  1  0.49779800  0.76059600  0.43633400  1
  O  O12  1  0.23384500  0.53106200  0.70998800  1
  O  O13  1  0.78792600  0.95981200  0.73488200  1
  O  O14  1  0.74071500  0.01641600  0.22077300  1
  O  O15  1  0.25323500  0.49029100  0.21964200  1
  O  O16  1  0.73682400  0.54226900  0.79094900  1
  O  O17  1  0.26745800  0.95545300  0.78457900  1
  O  O18  1  0.20099200  0.02820200  0.27585900  1
  O  O19  1  0.77800500  0.48004600  0.30596000  1
