# generated using pymatgen
data_Na2FeO3
_symmetry_space_group_name_H-M   'P 1'
_cell_length_a   5.37108988
_cell_length_b   5.75567935
_cell_length_c   9.31296401
_cell_angle_alpha   90.00259570
_cell_angle_beta   89.99826530
_cell_angle_gamma   70.85717682
_symmetry_Int_Tables_number   1
_chemical_formula_structural   Na2FeO3
_chemical_formula_sum   'Na8 Fe4 O12'
_cell_volume   271.98360599
_cell_formula_units_Z   4
loop_
 _symmetry_equiv_pos_site_id
 _symmetry_equiv_pos_as_xyz
  1  'x, y, z'
loop_
 _atom_site_type_symbol
 _atom_site_label
 _atom_site_symmetry_multiplicity
 _atom_site_fract_x
 _atom_site_fract_y
 _atom_site_fract_z
 _atom_site_occupancy
  Na  Na0  1  0.00000200  0.49997900  0.50110300  1
  Na  Na1  1  0.50000900  0.50000700  0.99932900  1
  Na  Na2  1  0.99998700  0.00002400  0.00043600  1
  Na  Na3  1  0.49999900  0.99998000  0.49929900  1
  Na  Na4  1  0.00002600  0.50002000  0.15571600  1
  Na  Na5  1  0.50002900  0.49999300  0.66098700  1
  Na  Na6  1  0.00001600  0.50000000  0.83808600  1
  Na  Na7  1  0.49998700  0.50000400  0.34389000  1
  Fe  Fe8  1  0.49999400  0.00001900  0.16750000  1
  Fe  Fe9  1  0.99999600  0.00000900  0.33325200  1
  Fe  Fe10  1  0.00000500  0.99996200  0.66761300  1
  Fe  Fe11  1  0.49998300  0.00000200  0.83315200  1
  O  O12  1  0.19071100  0.79551600  0.50835900  1
  O  O13  1  0.69063700  0.79561000  0.99160800  1
  O  O14  1  0.80928600  0.20444000  0.50833800  1
  O  O15  1  0.30935400  0.20442200  0.99162300  1
  O  O16  1  0.23049600  0.20523900  0.31253500  1
  O  O17  1  0.75673400  0.20239300  0.80845400  1
  O  O18  1  0.25550500  0.19973800  0.69131400  1
  O  O19  1  0.73000200  0.20412400  0.18755000  1
  O  O20  1  0.74452400  0.80023300  0.69129800  1
  O  O21  1  0.26994300  0.79594500  0.18756600  1
  O  O22  1  0.76948000  0.79476600  0.31251400  1
  O  O23  1  0.24329600  0.79757600  0.80847600  1
