# generated using pymatgen
data_SrLa2(CoO3)3
_symmetry_space_group_name_H-M   'P 1'
_cell_length_a   5.43526440
_cell_length_b   5.47858015
_cell_length_c   13.46719649
_cell_angle_alpha   90.95527150
_cell_angle_beta   89.96405176
_cell_angle_gamma   60.28863177
_symmetry_Int_Tables_number   1
_chemical_formula_structural   SrLa2(CoO3)3
_chemical_formula_sum   'Sr2 La4 Co6 O18'
_cell_volume   348.23240890
_cell_formula_units_Z   2
loop_
 _symmetry_equiv_pos_site_id
 _symmetry_equiv_pos_as_xyz
  1  'x, y, z'
loop_
 _atom_site_type_symbol
 _atom_site_label
 _atom_site_symmetry_multiplicity
 _atom_site_fract_x
 _atom_site_fract_y
 _atom_site_fract_z
 _atom_site_occupancy
  Sr  Sr0  1  0.33082600  0.33302300  0.41686200  1
  Sr  Sr1  1  0.33483000  0.33395400  0.91648700  1
  La  La2  1  0.66858200  0.66470300  0.08584300  1
  La  La3  1  0.66785300  0.66268100  0.58568600  1
  La  La4  1  0.99961100  0.00313200  0.24867100  1
  La  La5  1  0.99970100  0.00142800  0.74809300  1
  Co  Co6  1  0.33409400  0.33209400  0.66666300  1
  Co  Co7  1  0.66826100  0.66717000  0.83637300  1
  Co  Co8  1  0.99724700  0.99947300  0.49746800  1
  Co  Co9  1  0.33457800  0.33359000  0.16653400  1
  Co  Co10  1  0.66366600  0.66704000  0.33615100  1
  Co  Co11  1  0.00205500  0.00095000  0.99742200  1
  O  O12  1  0.82377700  0.82929300  0.41390800  1
  O  O13  1  0.83822200  0.83962900  0.92004700  1
  O  O14  1  0.82615300  0.33302800  0.41659400  1
  O  O15  1  0.83581100  0.33746400  0.91834900  1
  O  O16  1  0.31907500  0.83611700  0.41898200  1
  O  O17  1  0.33882100  0.83368700  0.91084700  1
  O  O18  1  0.18010100  0.15156200  0.08502600  1
  O  O19  1  0.16104900  0.16772900  0.59210900  1
  O  O20  1  0.49068700  0.51453800  0.24748000  1
  O  O21  1  0.50879600  0.49516400  0.74082800  1
  O  O22  1  0.49154200  0.00890000  0.24523900  1
  O  O23  1  0.50037700  0.00598200  0.74419200  1
  O  O24  1  0.17788400  0.65884600  0.08794700  1
  O  O25  1  0.16853900  0.65797900  0.58871100  1
  O  O26  1  0.99409600  0.49933500  0.24004600  1
  O  O27  1  0.99569400  0.51149400  0.74775000  1
  O  O28  1  0.67566500  0.16723600  0.09370900  1
  O  O29  1  0.67241000  0.15277900  0.58598300  1
