# generated using pymatgen
data_BaLa3Mn4O12
_symmetry_space_group_name_H-M   'P 1'
_cell_length_a   6.85664410
_cell_length_b   6.85563547
_cell_length_c   6.82955631
_cell_angle_alpha   69.94358442
_cell_angle_beta   110.05060672
_cell_angle_gamma   71.51118601
_symmetry_Int_Tables_number   1
_chemical_formula_structural   BaLa3Mn4O12
_chemical_formula_sum   'Ba1 La3 Mn4 O12'
_cell_volume   246.52960540
_cell_formula_units_Z   1
loop_
 _symmetry_equiv_pos_site_id
 _symmetry_equiv_pos_as_xyz
  1  'x, y, z'
loop_
 _atom_site_type_symbol
 _atom_site_label
 _atom_site_symmetry_multiplicity
 _atom_site_fract_x
 _atom_site_fract_y
 _atom_site_fract_z
 _atom_site_occupancy
  Ba  Ba0  1  0.00001300  0.99999300  0.00001300  1
  La  La1  1  0.50000700  0.99999100  0.50001600  1
  La  La2  1  0.50000400  0.50000200  0.00001300  1
  La  La3  1  0.00000300  0.49999400  0.50002000  1
  Mn  Mn4  1  0.99993700  0.50006900  0.99987000  1
  Mn  Mn5  1  0.49998100  0.99989900  0.99999600  1
  Mn  Mn6  1  0.99993400  0.00010400  0.49992900  1
  Mn  Mn7  1  0.50004000  0.50000800  0.50001600  1
  O  O8  1  0.99703600  0.25620700  0.25749900  1
  O  O9  1  0.51508100  0.75349900  0.24816900  1
  O  O10  1  0.00298100  0.74377100  0.74253300  1
  O  O11  1  0.48492900  0.24651800  0.75182500  1
  O  O12  1  0.74354400  0.00295100  0.25721200  1
  O  O13  1  0.24649200  0.48485100  0.24814500  1
  O  O14  1  0.75352500  0.51513000  0.75189000  1
  O  O15  1  0.25647800  0.99703900  0.74281500  1
  O  O16  1  0.73173200  0.26821900  0.48434600  1
  O  O17  1  0.26827500  0.73175800  0.51567800  1
  O  O18  1  0.74400400  0.74438300  0.00004500  1
  O  O19  1  0.25600400  0.25561600  0.99997300  1
