# generated using pymatgen
data_Dy5Si3B
_symmetry_space_group_name_H-M   'P 1'
_cell_length_a   8.55250920
_cell_length_b   8.55250920
_cell_length_c   6.33655100
_cell_angle_alpha   90.00000000
_cell_angle_beta   90.00000000
_cell_angle_gamma   119.99999380
_symmetry_Int_Tables_number   1
_chemical_formula_structural   Dy5Si3B
_chemical_formula_sum   'Dy10 Si6 B2'
_cell_volume   401.39383082
_cell_formula_units_Z   2
loop_
 _symmetry_equiv_pos_site_id
 _symmetry_equiv_pos_as_xyz
  1  'x, y, z'
loop_
 _atom_site_type_symbol
 _atom_site_label
 _atom_site_symmetry_multiplicity
 _atom_site_fract_x
 _atom_site_fract_y
 _atom_site_fract_z
 _atom_site_occupancy
  Dy  Dy0  1  0.76019800  0.76019800  0.25000000  1
  Dy  Dy1  1  0.76019800  0.00000000  0.75000000  1
  Dy  Dy2  1  0.00000000  0.23980200  0.25000000  1
  Dy  Dy3  1  0.00000000  0.76019800  0.75000000  1
  Dy  Dy4  1  0.23980200  0.23980200  0.75000000  1
  Dy  Dy5  1  0.23980200  0.00000000  0.25000000  1
  Dy  Dy6  1  0.66666700  0.33333300  0.00000000  1
  Dy  Dy7  1  0.33333300  0.66666700  0.50000000  1
  Dy  Dy8  1  0.33333300  0.66666700  0.00000000  1
  Dy  Dy9  1  0.66666700  0.33333300  0.50000000  1
  Si  Si10  1  0.39898500  0.00000000  0.75000000  1
  Si  Si11  1  0.39898500  0.39898500  0.25000000  1
  Si  Si12  1  0.00000000  0.60101500  0.25000000  1
  Si  Si13  1  0.00000000  0.39898500  0.75000000  1
  Si  Si14  1  0.60101500  0.60101500  0.75000000  1
  Si  Si15  1  0.60101500  0.00000000  0.25000000  1
  B  B16  1  0.00000000  0.00000000  0.50000000  1
  B  B17  1  0.00000000  0.00000000  0.00000000  1
