# generated using pymatgen
data_RbFeS2
_symmetry_space_group_name_H-M   'P 1'
_cell_length_a   7.25900084
_cell_length_b   7.25900084
_cell_length_c   7.25900084
_cell_angle_alpha   136.64502082
_cell_angle_beta   123.30572076
_cell_angle_gamma   73.96523279
_symmetry_Int_Tables_number   1
_chemical_formula_structural   RbFeS2
_chemical_formula_sum   'Rb2 Fe2 S4'
_cell_volume   214.35611355
_cell_formula_units_Z   2
loop_
 _symmetry_equiv_pos_site_id
 _symmetry_equiv_pos_as_xyz
  1  'x, y, z'
loop_
 _atom_site_type_symbol
 _atom_site_label
 _atom_site_symmetry_multiplicity
 _atom_site_fract_x
 _atom_site_fract_y
 _atom_site_fract_z
 _atom_site_occupancy
  Rb  Rb0  1  0.32522200  0.32522200  0.00000000  1
  Rb  Rb1  1  0.67477800  0.67477800  0.00000000  1
  Fe  Fe2  1  0.00000000  0.24607300  0.24607300  1
  Fe  Fe3  1  0.00000000  0.75392700  0.75392700  1
  S  S4  1  0.14740800  0.64740800  0.50000000  1
  S  S5  1  0.85259200  0.35259200  0.50000000  1
  S  S6  1  0.74805100  0.00000000  0.74805100  1
  S  S7  1  0.25194900  0.00000000  0.25194900  1
