# generated using pymatgen
data_Sc2Cd3(GeO4)3
_symmetry_space_group_name_H-M   'P 1'
_cell_length_a   10.95318447
_cell_length_b   10.95318447
_cell_length_c   10.95318447
_cell_angle_alpha   109.47122063
_cell_angle_beta   109.47122063
_cell_angle_gamma   109.47122063
_symmetry_Int_Tables_number   1
_chemical_formula_structural   Sc2Cd3(GeO4)3
_chemical_formula_sum   'Sc8 Cd12 Ge12 O48'
_cell_volume   1011.57785808
_cell_formula_units_Z   4
loop_
 _symmetry_equiv_pos_site_id
 _symmetry_equiv_pos_as_xyz
  1  'x, y, z'
loop_
 _atom_site_type_symbol
 _atom_site_label
 _atom_site_symmetry_multiplicity
 _atom_site_fract_x
 _atom_site_fract_y
 _atom_site_fract_z
 _atom_site_occupancy
  Sc  Sc0  1  0.00000000  0.00000000  0.50000000  1
  Sc  Sc1  1  0.00000000  0.00000000  0.00000000  1
  Sc  Sc2  1  0.50000000  0.00000000  0.00000000  1
  Sc  Sc3  1  0.00000000  0.50000000  0.00000000  1
  Sc  Sc4  1  0.50000000  0.50000000  0.00000000  1
  Sc  Sc5  1  0.00000000  0.50000000  0.50000000  1
  Sc  Sc6  1  0.50000000  0.00000000  0.50000000  1
  Sc  Sc7  1  0.50000000  0.50000000  0.50000000  1
  Cd  Cd8  1  0.87500000  0.62500000  0.25000000  1
  Cd  Cd9  1  0.62500000  0.25000000  0.87500000  1
  Cd  Cd10  1  0.87500000  0.75000000  0.62500000  1
  Cd  Cd11  1  0.75000000  0.62500000  0.87500000  1
  Cd  Cd12  1  0.25000000  0.87500000  0.62500000  1
  Cd  Cd13  1  0.62500000  0.87500000  0.75000000  1
  Cd  Cd14  1  0.12500000  0.37500000  0.75000000  1
  Cd  Cd15  1  0.37500000  0.75000000  0.12500000  1
  Cd  Cd16  1  0.12500000  0.25000000  0.37500000  1
  Cd  Cd17  1  0.25000000  0.37500000  0.12500000  1
  Cd  Cd18  1  0.75000000  0.12500000  0.37500000  1
  Cd  Cd19  1  0.37500000  0.12500000  0.25000000  1
  Ge  Ge20  1  0.12500000  0.87500000  0.25000000  1
  Ge  Ge21  1  0.25000000  0.12500000  0.87500000  1
  Ge  Ge22  1  0.75000000  0.37500000  0.62500000  1
  Ge  Ge23  1  0.62500000  0.37500000  0.25000000  1
  Ge  Ge24  1  0.62500000  0.75000000  0.37500000  1
  Ge  Ge25  1  0.37500000  0.62500000  0.75000000  1
  Ge  Ge26  1  0.12500000  0.75000000  0.87500000  1
  Ge  Ge27  1  0.75000000  0.87500000  0.12500000  1
  Ge  Ge28  1  0.87500000  0.25000000  0.12500000  1
  Ge  Ge29  1  0.37500000  0.25000000  0.62500000  1
  Ge  Ge30  1  0.25000000  0.62500000  0.37500000  1
  Ge  Ge31  1  0.87500000  0.12500000  0.75000000  1
  O  O32  1  0.41490800  0.81080900  0.79336400  1
  O  O33  1  0.87845600  0.39590100  0.08509200  1
  O  O34  1  0.10409900  0.98255500  0.68919100  1
  O  O35  1  0.51744500  0.62154400  0.70663600  1
  O  O36  1  0.68919100  0.08509200  0.70663600  1
  O  O37  1  0.62154400  0.70663600  0.51744500  1
  O  O38  1  0.62154400  0.41490800  0.10409900  1
  O  O39  1  0.70663600  0.51744500  0.62154400  1
  O  O40  1  0.81080900  0.51744500  0.39590100  1
  O  O41  1  0.98255500  0.79336400  0.87845600  1
  O  O42  1  0.79336400  0.87845600  0.98255500  1
  O  O43  1  0.70663600  0.68919100  0.08509200  1
  O  O44  1  0.41490800  0.10409900  0.62154400  1
  O  O45  1  0.39590100  0.81080900  0.51744500  1
  O  O46  1  0.08509200  0.70663600  0.68919100  1
  O  O47  1  0.10409900  0.62154400  0.41490800  1
  O  O48  1  0.51744500  0.39590100  0.81080900  1
  O  O49  1  0.08509200  0.87845600  0.39590100  1
  O  O50  1  0.98255500  0.68919100  0.10409900  1
  O  O51  1  0.18919100  0.48255500  0.60409900  1
  O  O52  1  0.68919100  0.10409900  0.98255500  1
  O  O53  1  0.79336400  0.41490800  0.81080900  1
  O  O54  1  0.39590100  0.08509200  0.87845600  1
  O  O55  1  0.87845600  0.98255500  0.79336400  1
  O  O56  1  0.58509200  0.18919100  0.20663600  1
  O  O57  1  0.12154400  0.60409900  0.91490800  1
  O  O58  1  0.89590100  0.01744500  0.31080900  1
  O  O59  1  0.48255500  0.37845600  0.29336400  1
  O  O60  1  0.31080900  0.91490800  0.29336400  1
  O  O61  1  0.37845600  0.29336400  0.48255500  1
  O  O62  1  0.37845600  0.58509200  0.89590100  1
  O  O63  1  0.29336400  0.48255500  0.37845600  1
  O  O64  1  0.12154400  0.01744500  0.20663600  1
  O  O65  1  0.60409900  0.91490800  0.12154400  1
  O  O66  1  0.20663600  0.58509200  0.18919100  1
  O  O67  1  0.18919100  0.20663600  0.58509200  1
  O  O68  1  0.31080900  0.89590100  0.01744500  1
  O  O69  1  0.01744500  0.31080900  0.89590100  1
  O  O70  1  0.91490800  0.12154400  0.60409900  1
  O  O71  1  0.48255500  0.60409900  0.18919100  1
  O  O72  1  0.89590100  0.37845600  0.58509200  1
  O  O73  1  0.91490800  0.29336400  0.31080900  1
  O  O74  1  0.60409900  0.18919100  0.48255500  1
  O  O75  1  0.58509200  0.89590100  0.37845600  1
  O  O76  1  0.29336400  0.31080900  0.91490800  1
  O  O77  1  0.20663600  0.12154400  0.01744500  1
  O  O78  1  0.01744500  0.20663600  0.12154400  1
  O  O79  1  0.81080900  0.79336400  0.41490800  1
