# generated using pymatgen
data_Cs2AgF4
_symmetry_space_group_name_H-M   'P 1'
_cell_length_a   8.03854559
_cell_length_b   8.03854559
_cell_length_c   8.03854559
_cell_angle_alpha   146.94849995
_cell_angle_beta   146.94849995
_cell_angle_gamma   47.44004249
_symmetry_Int_Tables_number   1
_chemical_formula_structural   Cs2AgF4
_chemical_formula_sum   'Cs2 Ag1 F4'
_cell_volume   153.90815135
_cell_formula_units_Z   1
loop_
 _symmetry_equiv_pos_site_id
 _symmetry_equiv_pos_as_xyz
  1  'x, y, z'
loop_
 _atom_site_type_symbol
 _atom_site_label
 _atom_site_symmetry_multiplicity
 _atom_site_fract_x
 _atom_site_fract_y
 _atom_site_fract_z
 _atom_site_occupancy
  Cs  Cs0  1  0.35626200  0.35626200  0.00000000  1
  Cs  Cs1  1  0.64373800  0.64373800  0.00000000  1
  Ag  Ag2  1  0.00000000  0.00000000  0.00000000  1
  F  F3  1  0.50000000  0.00000000  0.50000000  1
  F  F4  1  0.00000000  0.50000000  0.50000000  1
  F  F5  1  0.85009900  0.85009900  0.00000000  1
  F  F6  1  0.14990100  0.14990100  0.00000000  1
