# generated using pymatgen
data_Sr3Al2(SiO4)3
_symmetry_space_group_name_H-M   'P 1'
_cell_length_a   10.63113560
_cell_length_b   10.63113560
_cell_length_c   10.63113560
_cell_angle_alpha   109.47122063
_cell_angle_beta   109.47122063
_cell_angle_gamma   109.47122063
_symmetry_Int_Tables_number   1
_chemical_formula_structural   Sr3Al2(SiO4)3
_chemical_formula_sum   'Sr12 Al8 Si12 O48'
_cell_volume   924.94749804
_cell_formula_units_Z   4
loop_
 _symmetry_equiv_pos_site_id
 _symmetry_equiv_pos_as_xyz
  1  'x, y, z'
loop_
 _atom_site_type_symbol
 _atom_site_label
 _atom_site_symmetry_multiplicity
 _atom_site_fract_x
 _atom_site_fract_y
 _atom_site_fract_z
 _atom_site_occupancy
  Sr  Sr0  1  0.87500000  0.75000000  0.62500000  1
  Sr  Sr1  1  0.87500000  0.62500000  0.25000000  1
  Sr  Sr2  1  0.62500000  0.87500000  0.75000000  1
  Sr  Sr3  1  0.25000000  0.87500000  0.62500000  1
  Sr  Sr4  1  0.75000000  0.62500000  0.87500000  1
  Sr  Sr5  1  0.62500000  0.25000000  0.87500000  1
  Sr  Sr6  1  0.12500000  0.25000000  0.37500000  1
  Sr  Sr7  1  0.12500000  0.37500000  0.75000000  1
  Sr  Sr8  1  0.37500000  0.12500000  0.25000000  1
  Sr  Sr9  1  0.75000000  0.12500000  0.37500000  1
  Sr  Sr10  1  0.25000000  0.37500000  0.12500000  1
  Sr  Sr11  1  0.37500000  0.75000000  0.12500000  1
  Al  Al12  1  0.00000000  0.00000000  0.50000000  1
  Al  Al13  1  0.50000000  0.50000000  0.50000000  1
  Al  Al14  1  0.50000000  0.00000000  0.50000000  1
  Al  Al15  1  0.00000000  0.00000000  0.00000000  1
  Al  Al16  1  0.00000000  0.50000000  0.50000000  1
  Al  Al17  1  0.50000000  0.50000000  0.00000000  1
  Al  Al18  1  0.50000000  0.00000000  0.00000000  1
  Al  Al19  1  0.00000000  0.50000000  0.00000000  1
  Si  Si20  1  0.62500000  0.37500000  0.25000000  1
  Si  Si21  1  0.87500000  0.12500000  0.75000000  1
  Si  Si22  1  0.25000000  0.62500000  0.37500000  1
  Si  Si23  1  0.62500000  0.75000000  0.37500000  1
  Si  Si24  1  0.37500000  0.25000000  0.62500000  1
  Si  Si25  1  0.37500000  0.62500000  0.75000000  1
  Si  Si26  1  0.25000000  0.12500000  0.87500000  1
  Si  Si27  1  0.12500000  0.87500000  0.25000000  1
  Si  Si28  1  0.75000000  0.37500000  0.62500000  1
  Si  Si29  1  0.87500000  0.25000000  0.12500000  1
  Si  Si30  1  0.75000000  0.87500000  0.12500000  1
  Si  Si31  1  0.12500000  0.75000000  0.87500000  1
  O  O32  1  0.89165100  0.39067700  0.08251100  1
  O  O33  1  0.80914000  0.89165100  0.00097400  1
  O  O34  1  0.39067700  0.80816600  0.49902600  1
  O  O35  1  0.69183400  0.08251100  0.69086000  1
  O  O36  1  0.80816600  0.49902600  0.39067700  1
  O  O37  1  0.00097400  0.80914000  0.89165100  1
  O  O38  1  0.08251100  0.69086000  0.69183400  1
  O  O39  1  0.00097400  0.69183400  0.10932300  1
  O  O40  1  0.80914000  0.41748900  0.80816600  1
  O  O41  1  0.41748900  0.80816600  0.80914000  1
  O  O42  1  0.69086000  0.49902600  0.60834900  1
  O  O43  1  0.08251100  0.89165100  0.39067700  1
  O  O44  1  0.39067700  0.08251100  0.89165100  1
  O  O45  1  0.10932300  0.00097400  0.69183400  1
  O  O46  1  0.49902600  0.60834900  0.69086000  1
  O  O47  1  0.80816600  0.80914000  0.41748900  1
  O  O48  1  0.10932300  0.60834900  0.41748900  1
  O  O49  1  0.60834900  0.69086000  0.49902600  1
  O  O50  1  0.89165100  0.00097400  0.80914000  1
  O  O51  1  0.69183400  0.10932300  0.00097400  1
  O  O52  1  0.49902600  0.39067700  0.80816600  1
  O  O53  1  0.69086000  0.69183400  0.08251100  1
  O  O54  1  0.60834900  0.41748900  0.10932300  1
  O  O55  1  0.41748900  0.10932300  0.60834900  1
  O  O56  1  0.10834900  0.60932300  0.91748900  1
  O  O57  1  0.19086000  0.10834900  0.99902600  1
  O  O58  1  0.60932300  0.19183400  0.50097400  1
  O  O59  1  0.30816600  0.91748900  0.30914000  1
  O  O60  1  0.19183400  0.50097400  0.60932300  1
  O  O61  1  0.99902600  0.19086000  0.10834900  1
  O  O62  1  0.91748900  0.30914000  0.30816600  1
  O  O63  1  0.99902600  0.30816600  0.89067700  1
  O  O64  1  0.19086000  0.58251100  0.19183400  1
  O  O65  1  0.58251100  0.19183400  0.19086000  1
  O  O66  1  0.30914000  0.50097400  0.39165100  1
  O  O67  1  0.91748900  0.10834900  0.60932300  1
  O  O68  1  0.60932300  0.91748900  0.10834900  1
  O  O69  1  0.89067700  0.99902600  0.30816600  1
  O  O70  1  0.50097400  0.39165100  0.30914000  1
  O  O71  1  0.19183400  0.19086000  0.58251100  1
  O  O72  1  0.89067700  0.39165100  0.58251100  1
  O  O73  1  0.39165100  0.30914000  0.50097400  1
  O  O74  1  0.10834900  0.99902600  0.19086000  1
  O  O75  1  0.30816600  0.89067700  0.99902600  1
  O  O76  1  0.50097400  0.60932300  0.19183400  1
  O  O77  1  0.30914000  0.30816600  0.91748900  1
  O  O78  1  0.39165100  0.58251100  0.89067700  1
  O  O79  1  0.58251100  0.89067700  0.39165100  1
