# generated using pymatgen
data_Ce2Mn2Se2O3
_symmetry_space_group_name_H-M   'P 1'
_cell_length_a   9.90095385
_cell_length_b   9.90095385
_cell_length_c   9.90095385
_cell_angle_alpha   155.79627990
_cell_angle_beta   155.79627990
_cell_angle_gamma   34.49384829
_symmetry_Int_Tables_number   1
_chemical_formula_structural   Ce2Mn2Se2O3
_chemical_formula_sum   'Ce2 Mn2 Se2 O3'
_cell_volume   162.96779123
_cell_formula_units_Z   1
loop_
 _symmetry_equiv_pos_site_id
 _symmetry_equiv_pos_as_xyz
  1  'x, y, z'
loop_
 _atom_site_type_symbol
 _atom_site_label
 _atom_site_symmetry_multiplicity
 _atom_site_fract_x
 _atom_site_fract_y
 _atom_site_fract_z
 _atom_site_occupancy
  Ce  Ce0  1  0.31132400  0.31132400  0.00000000  1
  Ce  Ce1  1  0.68867600  0.68867600  0.00000000  1
  Mn  Mn2  1  0.50000000  0.00000000  0.50000000  1
  Mn  Mn3  1  0.00000000  0.50000000  0.50000000  1
  Se  Se4  1  0.89791600  0.89791600  0.00000000  1
  Se  Se5  1  0.10208400  0.10208400  0.00000000  1
  O  O6  1  0.25000000  0.75000000  0.50000000  1
  O  O7  1  0.75000000  0.25000000  0.50000000  1
  O  O8  1  0.50000000  0.50000000  0.00000000  1
