# generated using pymatgen
data_Ca4Al6SO16
_symmetry_space_group_name_H-M   'P 1'
_cell_length_a   7.94646724
_cell_length_b   7.94646724
_cell_length_c   7.94646724
_cell_angle_alpha   109.47122063
_cell_angle_beta   109.47122063
_cell_angle_gamma   109.47122063
_symmetry_Int_Tables_number   1
_chemical_formula_structural   Ca4Al6SO16
_chemical_formula_sum   'Ca4 Al6 S1 O16'
_cell_volume   386.27837982
_cell_formula_units_Z   1
loop_
 _symmetry_equiv_pos_site_id
 _symmetry_equiv_pos_as_xyz
  1  'x, y, z'
loop_
 _atom_site_type_symbol
 _atom_site_label
 _atom_site_symmetry_multiplicity
 _atom_site_fract_x
 _atom_site_fract_y
 _atom_site_fract_z
 _atom_site_occupancy
  Ca  Ca0  1  0.00000000  0.62355600  0.00000000  1
  Ca  Ca1  1  0.00000000  0.00000000  0.62355600  1
  Ca  Ca2  1  0.62355600  0.00000000  0.00000000  1
  Ca  Ca3  1  0.37644400  0.37644400  0.37644400  1
  Al  Al4  1  0.25000000  0.50000000  0.75000000  1
  Al  Al5  1  0.75000000  0.25000000  0.50000000  1
  Al  Al6  1  0.50000000  0.25000000  0.75000000  1
  Al  Al7  1  0.75000000  0.50000000  0.25000000  1
  Al  Al8  1  0.50000000  0.75000000  0.25000000  1
  Al  Al9  1  0.25000000  0.75000000  0.50000000  1
  S  S10  1  0.00000000  0.00000000  0.00000000  1
  O  O11  1  0.00000000  0.71734300  0.42472600  1
  O  O12  1  0.70738300  0.28265700  0.28265700  1
  O  O13  1  0.00000000  0.42472600  0.71734300  1
  O  O14  1  0.57527400  0.57527400  0.29261700  1
  O  O15  1  0.57527400  0.29261700  0.57527400  1
  O  O16  1  0.42472600  0.00000000  0.71734300  1
  O  O17  1  0.28265700  0.28265700  0.70738300  1
  O  O18  1  0.71734300  0.00000000  0.42472600  1
  O  O19  1  0.71734300  0.42472600  0.00000000  1
  O  O20  1  0.28265700  0.70738300  0.28265700  1
  O  O21  1  0.42472600  0.71734300  0.00000000  1
  O  O22  1  0.81207900  0.81207900  0.81207900  1
  O  O23  1  0.18792100  0.00000000  0.00000000  1
  O  O24  1  0.00000000  0.18792100  0.00000000  1
  O  O25  1  0.00000000  0.00000000  0.18792100  1
  O  O26  1  0.29261700  0.57527400  0.57527400  1
