# generated using pymatgen
data_CaU2(PO2)2
_symmetry_space_group_name_H-M   'P 1'
_cell_length_a   8.78081846
_cell_length_b   8.78081846
_cell_length_c   8.78081846
_cell_angle_alpha   142.15279453
_cell_angle_beta   142.15279453
_cell_angle_gamma   54.59870812
_symmetry_Int_Tables_number   1
_chemical_formula_structural   CaU2(PO2)2
_chemical_formula_sum   'Ca1 U2 P2 O4'
_cell_volume   253.10179659
_cell_formula_units_Z   1
loop_
 _symmetry_equiv_pos_site_id
 _symmetry_equiv_pos_as_xyz
  1  'x, y, z'
loop_
 _atom_site_type_symbol
 _atom_site_label
 _atom_site_symmetry_multiplicity
 _atom_site_fract_x
 _atom_site_fract_y
 _atom_site_fract_z
 _atom_site_occupancy
  Ca  Ca0  1  0.00000000  0.00000000  0.00000000  1
  U  U1  1  0.74192500  0.74192500  0.00000000  1
  U  U2  1  0.25807500  0.25807500  0.00000000  1
  P  P3  1  0.75000000  0.25000000  0.50000000  1
  P  P4  1  0.25000000  0.75000000  0.50000000  1
  O  O5  1  0.62481200  0.62481200  0.00000000  1
  O  O6  1  0.37518800  0.37518800  0.00000000  1
  O  O7  1  0.86431400  0.86431400  0.00000000  1
  O  O8  1  0.13568600  0.13568600  0.00000000  1
