# generated using pymatgen
data_Mg3Mn2(SiO4)3
_symmetry_space_group_name_H-M   'P 1'
_cell_length_a   10.23155148
_cell_length_b   10.23155148
_cell_length_c   10.23155148
_cell_angle_alpha   109.47122063
_cell_angle_beta   109.47122063
_cell_angle_gamma   109.47122063
_symmetry_Int_Tables_number   1
_chemical_formula_structural   Mg3Mn2(SiO4)3
_chemical_formula_sum   'Mg12 Mn8 Si12 O48'
_cell_volume   824.52264963
_cell_formula_units_Z   4
loop_
 _symmetry_equiv_pos_site_id
 _symmetry_equiv_pos_as_xyz
  1  'x, y, z'
loop_
 _atom_site_type_symbol
 _atom_site_label
 _atom_site_symmetry_multiplicity
 _atom_site_fract_x
 _atom_site_fract_y
 _atom_site_fract_z
 _atom_site_occupancy
  Mg  Mg0  1  0.25000000  0.37500000  0.12500000  1
  Mg  Mg1  1  0.75000000  0.12500000  0.37500000  1
  Mg  Mg2  1  0.37500000  0.12500000  0.25000000  1
  Mg  Mg3  1  0.12500000  0.37500000  0.75000000  1
  Mg  Mg4  1  0.25000000  0.87500000  0.62500000  1
  Mg  Mg5  1  0.12500000  0.25000000  0.37500000  1
  Mg  Mg6  1  0.62500000  0.25000000  0.87500000  1
  Mg  Mg7  1  0.75000000  0.62500000  0.87500000  1
  Mg  Mg8  1  0.87500000  0.75000000  0.62500000  1
  Mg  Mg9  1  0.87500000  0.62500000  0.25000000  1
  Mg  Mg10  1  0.62500000  0.87500000  0.75000000  1
  Mg  Mg11  1  0.37500000  0.75000000  0.12500000  1
  Mn  Mn12  1  0.50000000  0.00000000  0.00000000  1
  Mn  Mn13  1  0.50000000  0.50000000  0.00000000  1
  Mn  Mn14  1  0.00000000  0.50000000  0.50000000  1
  Mn  Mn15  1  0.00000000  0.00000000  0.50000000  1
  Mn  Mn16  1  0.50000000  0.50000000  0.50000000  1
  Mn  Mn17  1  0.00000000  0.50000000  0.00000000  1
  Mn  Mn18  1  0.50000000  0.00000000  0.50000000  1
  Mn  Mn19  1  0.00000000  0.00000000  0.00000000  1
  Si  Si20  1  0.12500000  0.75000000  0.87500000  1
  Si  Si21  1  0.87500000  0.25000000  0.12500000  1
  Si  Si22  1  0.75000000  0.37500000  0.62500000  1
  Si  Si23  1  0.12500000  0.87500000  0.25000000  1
  Si  Si24  1  0.25000000  0.12500000  0.87500000  1
  Si  Si25  1  0.37500000  0.62500000  0.75000000  1
  Si  Si26  1  0.37500000  0.25000000  0.62500000  1
  Si  Si27  1  0.87500000  0.12500000  0.75000000  1
  Si  Si28  1  0.62500000  0.37500000  0.25000000  1
  Si  Si29  1  0.75000000  0.87500000  0.12500000  1
  Si  Si30  1  0.25000000  0.62500000  0.37500000  1
  Si  Si31  1  0.62500000  0.75000000  0.37500000  1
  O  O32  1  0.58931000  0.89664800  0.37477500  1
  O  O33  1  0.37477500  0.58931000  0.89664800  1
  O  O34  1  0.28546500  0.30733800  0.91069000  1
  O  O35  1  0.47812700  0.60335200  0.19266200  1
  O  O36  1  0.30733800  0.89664800  0.02187300  1
  O  O37  1  0.12522500  0.02187300  0.21453500  1
  O  O38  1  0.37477500  0.28546500  0.47812700  1
  O  O39  1  0.89664800  0.37477500  0.58931000  1
  O  O40  1  0.19266200  0.21453500  0.58931000  1
  O  O41  1  0.47812700  0.37477500  0.28546500  1
  O  O42  1  0.89664800  0.02187300  0.30733800  1
  O  O43  1  0.60335200  0.91069000  0.12522500  1
  O  O44  1  0.91069000  0.12522500  0.60335200  1
  O  O45  1  0.28546500  0.47812700  0.37477500  1
  O  O46  1  0.58931000  0.19266200  0.21453500  1
  O  O47  1  0.21453500  0.58931000  0.19266200  1
  O  O48  1  0.02187300  0.30733800  0.89664800  1
  O  O49  1  0.91069000  0.28546500  0.30733800  1
  O  O50  1  0.02187300  0.21453500  0.12522500  1
  O  O51  1  0.80733800  0.78546500  0.41069000  1
  O  O52  1  0.19266200  0.47812700  0.60335200  1
  O  O53  1  0.60335200  0.19266200  0.47812700  1
  O  O54  1  0.21453500  0.12522500  0.02187300  1
  O  O55  1  0.12522500  0.60335200  0.91069000  1
  O  O56  1  0.41069000  0.10335200  0.62522500  1
  O  O57  1  0.62522500  0.41069000  0.10335200  1
  O  O58  1  0.71453500  0.69266200  0.08931000  1
  O  O59  1  0.52187300  0.39664800  0.80733800  1
  O  O60  1  0.69266200  0.10335200  0.97812700  1
  O  O61  1  0.87477500  0.97812700  0.78546500  1
  O  O62  1  0.62522500  0.71453500  0.52187300  1
  O  O63  1  0.10335200  0.62522500  0.41069000  1
  O  O64  1  0.87477500  0.39664800  0.08931000  1
  O  O65  1  0.78546500  0.87477500  0.97812700  1
  O  O66  1  0.39664800  0.80733800  0.52187300  1
  O  O67  1  0.69266200  0.08931000  0.71453500  1
  O  O68  1  0.80733800  0.52187300  0.39664800  1
  O  O69  1  0.97812700  0.78546500  0.87477500  1
  O  O70  1  0.08931000  0.71453500  0.69266200  1
  O  O71  1  0.97812700  0.69266200  0.10335200  1
  O  O72  1  0.78546500  0.41069000  0.80733800  1
  O  O73  1  0.41069000  0.80733800  0.78546500  1
  O  O74  1  0.71453500  0.52187300  0.62522500  1
  O  O75  1  0.08931000  0.87477500  0.39664800  1
  O  O76  1  0.39664800  0.08931000  0.87477500  1
  O  O77  1  0.10335200  0.97812700  0.69266200  1
  O  O78  1  0.52187300  0.62522500  0.71453500  1
  O  O79  1  0.30733800  0.91069000  0.28546500  1
