# generated using pymatgen
data_La2ReNiO6
_symmetry_space_group_name_H-M   'P 1'
_cell_length_a   5.63384499
_cell_length_b   5.63384499
_cell_length_c   5.63384499
_cell_angle_alpha   60.00000000
_cell_angle_beta   60.00000000
_cell_angle_gamma   60.00000000
_symmetry_Int_Tables_number   1
_chemical_formula_structural   La2ReNiO6
_chemical_formula_sum   'La2 Re1 Ni1 O6'
_cell_volume   126.44442450
_cell_formula_units_Z   1
loop_
 _symmetry_equiv_pos_site_id
 _symmetry_equiv_pos_as_xyz
  1  'x, y, z'
loop_
 _atom_site_type_symbol
 _atom_site_label
 _atom_site_symmetry_multiplicity
 _atom_site_fract_x
 _atom_site_fract_y
 _atom_site_fract_z
 _atom_site_occupancy
  La  La0  1  0.25000000  0.25000000  0.25000000  1
  La  La1  1  0.75000000  0.75000000  0.75000000  1
  Re  Re2  1  0.50000000  0.50000000  0.50000000  1
  Ni  Ni3  1  0.00000000  0.00000000  0.00000000  1
  O  O4  1  0.75001300  0.75001300  0.24998700  1
  O  O5  1  0.24998700  0.75001300  0.24998700  1
  O  O6  1  0.75001300  0.24998700  0.24998700  1
  O  O7  1  0.24998700  0.24998700  0.75001300  1
  O  O8  1  0.75001300  0.24998700  0.75001300  1
  O  O9  1  0.24998700  0.75001300  0.75001300  1
