# generated using pymatgen
data_SiRh
_symmetry_space_group_name_H-M   'P 1'
_cell_length_a   4.72949600
_cell_length_b   4.72949600
_cell_length_c   4.72949600
_cell_angle_alpha   90.00000000
_cell_angle_beta   90.00000000
_cell_angle_gamma   90.00000000
_symmetry_Int_Tables_number   1
_chemical_formula_structural   SiRh
_chemical_formula_sum   'Si4 Rh4'
_cell_volume   105.78999278
_cell_formula_units_Z   4
loop_
 _symmetry_equiv_pos_site_id
 _symmetry_equiv_pos_as_xyz
  1  'x, y, z'
loop_
 _atom_site_type_symbol
 _atom_site_label
 _atom_site_symmetry_multiplicity
 _atom_site_fract_x
 _atom_site_fract_y
 _atom_site_fract_z
 _atom_site_occupancy
  Si  Si0  1  0.15809900  0.34190100  0.65809900  1
  Si  Si1  1  0.34190100  0.65809900  0.15809900  1
  Si  Si2  1  0.65809900  0.15809900  0.34190100  1
  Si  Si3  1  0.84190100  0.84190100  0.84190100  1
  Rh  Rh4  1  0.84768900  0.65231100  0.34768900  1
  Rh  Rh5  1  0.65231100  0.34768900  0.84768900  1
  Rh  Rh6  1  0.34768900  0.84768900  0.65231100  1
  Rh  Rh7  1  0.15231100  0.15231100  0.15231100  1
