# generated using pymatgen
data_BaSrSmSeO6
_symmetry_space_group_name_H-M   'P 1'
_cell_length_a   5.95839043
_cell_length_b   5.96536948
_cell_length_c   8.41401600
_cell_angle_alpha   90.38862105
_cell_angle_beta   89.64159285
_cell_angle_gamma   89.74810624
_symmetry_Int_Tables_number   1
_chemical_formula_structural   BaSrSmSeO6
_chemical_formula_sum   'Ba2 Sr2 Sm2 Se2 O12'
_cell_volume   299.05211128
_cell_formula_units_Z   2
loop_
 _symmetry_equiv_pos_site_id
 _symmetry_equiv_pos_as_xyz
  1  'x, y, z'
loop_
 _atom_site_type_symbol
 _atom_site_label
 _atom_site_symmetry_multiplicity
 _atom_site_fract_x
 _atom_site_fract_y
 _atom_site_fract_z
 _atom_site_occupancy
  Ba  Ba0  1  0.99549137  0.01627927  0.24774865  1
  Ba  Ba1  1  0.00450863  0.98372073  0.75225135  1
  Sr  Sr2  1  0.50410838  0.52724515  0.24846057  1
  Sr  Sr3  1  0.49589162  0.47275485  0.75153943  1
  Sm  Sm4  1  0.50000000  -0.00000000  -0.00000000  1
  Sm  Sm5  1  0.00000000  0.50000000  0.50000000  1
  Se  Se6  1  0.00000000  0.50000000  -0.00000000  1
  Se  Se7  1  0.50000000  -0.00000000  0.50000000  1
  O  O8  1  0.21150795  0.24477768  0.97330847  1
  O  O9  1  0.30047460  0.74351305  0.53043337  1
  O  O10  1  0.78849205  0.75522232  0.02669153  1
  O  O11  1  0.69952540  0.25648695  0.46956663  1
  O  O12  1  0.26084342  0.70620028  0.96558176  1
  O  O13  1  0.24994250  0.20651506  0.52074557  1
  O  O14  1  0.73915658  0.29379972  0.03441824  1
  O  O15  1  0.75005750  0.79348494  0.47925443  1
  O  O16  1  0.45682900  0.97788545  0.27294453  1
  O  O17  1  0.06295217  0.50362602  0.23377794  1
  O  O18  1  0.54317100  0.02211455  0.72705547  1
  O  O19  1  0.93704783  0.49637398  0.76622206  1
