# generated using pymatgen
data_Ge(Te2As)2
_symmetry_space_group_name_H-M   'P 1'
_cell_length_a   13.99396795
_cell_length_b   13.99396795
_cell_length_c   13.99396888
_cell_angle_alpha   16.95947293
_cell_angle_beta   16.95947293
_cell_angle_gamma   16.95947116
_symmetry_Int_Tables_number   1
_chemical_formula_structural   Ge(Te2As)2
_chemical_formula_sum   'Ge1 Te4 As2'
_cell_volume   203.40928727
_cell_formula_units_Z   1
loop_
 _symmetry_equiv_pos_site_id
 _symmetry_equiv_pos_as_xyz
  1  'x, y, z'
loop_
 _atom_site_type_symbol
 _atom_site_label
 _atom_site_symmetry_multiplicity
 _atom_site_fract_x
 _atom_site_fract_y
 _atom_site_fract_z
 _atom_site_occupancy
  Ge  Ge0  1  0.00000000  0.00000000  0.00000000  1
  Te  Te1  1  0.87432400  0.87432400  0.87432400  1
  Te  Te2  1  0.70940700  0.70940700  0.70940700  1
  Te  Te3  1  0.12567600  0.12567600  0.12567600  1
  Te  Te4  1  0.29059300  0.29059300  0.29059300  1
  As  As5  1  0.42119000  0.42119000  0.42119000  1
  As  As6  1  0.57881000  0.57881000  0.57881000  1
