# generated using pymatgen
data_BaNaBiWO6
_symmetry_space_group_name_H-M   'P 1'
_cell_length_a   8.50176920
_cell_length_b   8.50165783
_cell_length_c   8.43238702
_cell_angle_alpha   90.00000000
_cell_angle_beta   90.00000000
_cell_angle_gamma   90.00000000
_symmetry_Int_Tables_number   1
_chemical_formula_structural   BaNaBiWO6
_chemical_formula_sum   'Ba4 Na4 Bi4 W4 O24'
_cell_volume   609.48562030
_cell_formula_units_Z   4
loop_
 _symmetry_equiv_pos_site_id
 _symmetry_equiv_pos_as_xyz
  1  'x, y, z'
loop_
 _atom_site_type_symbol
 _atom_site_label
 _atom_site_symmetry_multiplicity
 _atom_site_fract_x
 _atom_site_fract_y
 _atom_site_fract_z
 _atom_site_occupancy
  Ba  Ba0  1  -0.00000000  -0.00000000  0.00000000  1
  Ba  Ba1  1  0.50000000  0.50000000  0.50000000  1
  Ba  Ba2  1  -0.00000000  0.50000000  0.50000000  1
  Ba  Ba3  1  0.50000000  -0.00000000  0.00000000  1
  Na  Na4  1  0.50000000  -0.00000000  0.50000000  1
  Na  Na5  1  0.50000000  0.50000000  0.00000000  1
  Na  Na6  1  -0.00000000  0.50000000  0.00000000  1
  Na  Na7  1  -0.00000000  -0.00000000  0.50000000  1
  Bi  Bi8  1  0.75000000  0.75000000  0.75000000  1
  Bi  Bi9  1  0.25000000  0.25000000  0.75000000  1
  Bi  Bi10  1  0.25000000  0.75000000  0.25000000  1
  Bi  Bi11  1  0.75000000  0.25000000  0.25000000  1
  W  W12  1  0.25000000  0.25000000  0.25000000  1
  W  W13  1  0.75000000  0.75000000  0.25000000  1
  W  W14  1  0.75000000  0.25000000  0.75000000  1
  W  W15  1  0.25000000  0.75000000  0.75000000  1
  O  O16  1  0.02497536  0.22189620  0.29932867  1
  O  O17  1  0.97502464  0.77810380  0.29932867  1
  O  O18  1  0.97502464  0.22189620  0.70067133  1
  O  O19  1  0.02497536  0.77810380  0.70067133  1
  O  O20  1  0.26844316  0.02304558  0.21479776  1
  O  O21  1  0.26844316  0.97695442  0.78520224  1
  O  O22  1  0.73155684  0.97695442  0.21479776  1
  O  O23  1  0.73155684  0.02304558  0.78520224  1
  O  O24  1  0.19699832  0.27374346  0.02542186  1
  O  O25  1  0.80300168  0.27374346  0.97457814  1
  O  O26  1  0.19699832  0.72625654  0.97457814  1
  O  O27  1  0.80300168  0.72625654  0.02542186  1
  O  O28  1  0.47502464  0.27810380  0.20067133  1
  O  O29  1  0.52497536  0.72189620  0.20067133  1
  O  O30  1  0.52497536  0.27810380  0.79932867  1
  O  O31  1  0.47502464  0.72189620  0.79932867  1
  O  O32  1  0.23155684  0.47695442  0.28520224  1
  O  O33  1  0.23155684  0.52304558  0.71479776  1
  O  O34  1  0.76844316  0.52304558  0.28520224  1
  O  O35  1  0.76844316  0.47695442  0.71479776  1
  O  O36  1  0.30300168  0.22625654  0.47457814  1
  O  O37  1  0.69699832  0.22625654  0.52542186  1
  O  O38  1  0.30300168  0.77374346  0.52542186  1
  O  O39  1  0.69699832  0.77374346  0.47457814  1
