# generated using pymatgen
data_NaBS2
_symmetry_space_group_name_H-M   'P 1'
_cell_length_a   9.14413248
_cell_length_b   9.14413248
_cell_length_c   9.14413267
_cell_angle_alpha   112.56690432
_cell_angle_beta   112.56690432
_cell_angle_gamma   112.56690270
_symmetry_Int_Tables_number   1
_chemical_formula_structural   NaBS2
_chemical_formula_sum   'Na6 B6 S12'
_cell_volume   510.12667642
_cell_formula_units_Z   6
loop_
 _symmetry_equiv_pos_site_id
 _symmetry_equiv_pos_as_xyz
  1  'x, y, z'
loop_
 _atom_site_type_symbol
 _atom_site_label
 _atom_site_symmetry_multiplicity
 _atom_site_fract_x
 _atom_site_fract_y
 _atom_site_fract_z
 _atom_site_occupancy
  Na  Na0  1  0.78532700  0.25000000  0.71467300  1
  Na  Na1  1  0.71467300  0.78532700  0.25000000  1
  Na  Na2  1  0.75000000  0.28532700  0.21467300  1
  Na  Na3  1  0.21467300  0.75000000  0.28532700  1
  Na  Na4  1  0.25000000  0.71467300  0.78532700  1
  Na  Na5  1  0.28532700  0.21467300  0.75000000  1
  B  B6  1  0.25000000  0.36744100  0.13255900  1
  B  B7  1  0.86744100  0.75000000  0.63255900  1
  B  B8  1  0.75000000  0.63255900  0.86744100  1
  B  B9  1  0.36744100  0.13255900  0.25000000  1
  B  B10  1  0.13255900  0.25000000  0.36744100  1
  B  B11  1  0.63255900  0.86744100  0.75000000  1
  S  S12  1  0.25000000  0.12707700  0.37292300  1
  S  S13  1  0.98414500  0.75000000  0.51585500  1
  S  S14  1  0.75000000  0.51585500  0.98414500  1
  S  S15  1  0.48414500  0.01585500  0.25000000  1
  S  S16  1  0.01585500  0.25000000  0.48414500  1
  S  S17  1  0.25000000  0.48414500  0.01585500  1
  S  S18  1  0.37292300  0.25000000  0.12707700  1
  S  S19  1  0.12707700  0.37292300  0.25000000  1
  S  S20  1  0.75000000  0.87292300  0.62707700  1
  S  S21  1  0.62707700  0.75000000  0.87292300  1
  S  S22  1  0.87292300  0.62707700  0.75000000  1
  S  S23  1  0.51585500  0.98414500  0.75000000  1
