data_image0
_chemical_formula_structural       As2Eu4O
_chemical_formula_sum              "As2 Eu4 O1"
_cell_length_a       4.69318
_cell_length_b       4.69318
_cell_length_c       8.58655
_cell_angle_alpha    105.86
_cell_angle_beta     105.86
_cell_angle_gamma    90

_space_group_name_H-M_alt    "P 1"
_space_group_IT_number       1

loop_
  _space_group_symop_operation_xyz
  'x, y, z'

loop_
  _atom_site_type_symbol
  _atom_site_label
  _atom_site_symmetry_multiplicity
  _atom_site_fract_x
  _atom_site_fract_y
  _atom_site_fract_z
  _atom_site_occupancy
  As  As1       1.0  0.13700  0.13700  0.27300  1.0000
  As  As2       1.0  0.86300  0.86300  0.72700  1.0000
  Eu  Eu1       1.0  0.50000  0.00000  0.00000  1.0000
  Eu  Eu2       1.0  0.00000  0.50000  0.00000  1.0000
  Eu  Eu3       1.0  0.67000  0.67000  0.34100  1.0000
  Eu  Eu4       1.0  0.33000  0.33000  0.65900  1.0000
  O   O1        1.0  0.50000  0.50000  0.00000  1.0000
