# generated using pymatgen
data_Nd4Si2Se3O7
_symmetry_space_group_name_H-M   'P 1'
_cell_length_a   11.27998012
_cell_length_b   11.27998012
_cell_length_c   11.27998012
_cell_angle_alpha   114.55158504
_cell_angle_beta   114.55158504
_cell_angle_gamma   99.72824749
_symmetry_Int_Tables_number   1
_chemical_formula_structural   Nd4Si2Se3O7
_chemical_formula_sum   'Nd16 Si8 Se12 O28'
_cell_volume   1081.48950323
_cell_formula_units_Z   4
loop_
 _symmetry_equiv_pos_site_id
 _symmetry_equiv_pos_as_xyz
  1  'x, y, z'
loop_
 _atom_site_type_symbol
 _atom_site_label
 _atom_site_symmetry_multiplicity
 _atom_site_fract_x
 _atom_site_fract_y
 _atom_site_fract_z
 _atom_site_occupancy
  Nd  Nd0  1  0.32751700  0.67248300  0.00000000  1
  Nd  Nd1  1  0.67248300  0.32751700  0.00000000  1
  Nd  Nd2  1  0.42248300  0.92248300  0.84496700  1
  Nd  Nd3  1  0.07751700  0.57751700  0.15503300  1
  Nd  Nd4  1  0.32751700  0.32751700  0.65503300  1
  Nd  Nd5  1  0.07751700  0.92248300  0.50000000  1
  Nd  Nd6  1  0.42248300  0.57751700  0.50000000  1
  Nd  Nd7  1  0.67248300  0.67248300  0.34496700  1
  Nd  Nd8  1  0.04124000  0.80170300  0.76046300  1
  Nd  Nd9  1  0.04124000  0.28077700  0.23953700  1
  Nd  Nd10  1  0.19829700  0.95876000  0.23953700  1
  Nd  Nd11  1  0.03077700  0.29124000  0.73953700  1
  Nd  Nd12  1  0.55170300  0.29124000  0.26046300  1
  Nd  Nd13  1  0.70876000  0.96922300  0.26046300  1
  Nd  Nd14  1  0.70876000  0.44829700  0.73953700  1
  Nd  Nd15  1  0.71922300  0.95876000  0.76046300  1
  Si  Si16  1  0.28140700  0.40536400  0.12395700  1
  Si  Si17  1  0.28140700  0.15744900  0.87604300  1
  Si  Si18  1  0.59463600  0.71859300  0.87604300  1
  Si  Si19  1  0.90744900  0.53140700  0.37604300  1
  Si  Si20  1  0.15536400  0.53140700  0.62395700  1
  Si  Si21  1  0.46859300  0.09255100  0.62395700  1
  Si  Si22  1  0.46859300  0.84463600  0.37604300  1
  Si  Si23  1  0.84255100  0.71859300  0.12395700  1
  Se  Se24  1  0.50000000  0.50000000  0.00000000  1
  Se  Se25  1  0.25000000  0.75000000  0.50000000  1
  Se  Se26  1  0.75000000  0.25000000  0.50000000  1
  Se  Se27  1  0.00000000  0.00000000  0.00000000  1
  Se  Se28  1  0.87500000  0.97900900  0.60400900  1
  Se  Se29  1  0.72900900  0.62500000  0.60400900  1
  Se  Se30  1  0.02099100  0.12500000  0.39599100  1
  Se  Se31  1  0.37500000  0.27099100  0.39599100  1
  Se  Se32  1  0.87500000  0.27099100  0.89599100  1
  Se  Se33  1  0.02099100  0.62500000  0.89599100  1
  Se  Se34  1  0.72900900  0.12500000  0.10400900  1
  Se  Se35  1  0.37500000  0.97900900  0.10400900  1
  O  O36  1  0.76528200  0.76528200  0.00000000  1
  O  O37  1  0.51528200  0.01528200  0.50000000  1
  O  O38  1  0.98471800  0.48471800  0.50000000  1
  O  O39  1  0.23471800  0.23471800  0.00000000  1
  O  O40  1  0.20556700  0.97933800  0.77377100  1
  O  O41  1  0.20556700  0.43179600  0.22622900  1
  O  O42  1  0.02066200  0.79443300  0.22622900  1
  O  O43  1  0.18179600  0.45556700  0.72622900  1
  O  O44  1  0.72933800  0.45556700  0.27377100  1
  O  O45  1  0.54443300  0.81820400  0.27377100  1
  O  O46  1  0.54443300  0.27066200  0.72622900  1
  O  O47  1  0.56820400  0.79443300  0.77377100  1
  O  O48  1  0.29766700  0.05672300  0.52212700  1
  O  O49  1  0.53459600  0.77554000  0.47787300  1
  O  O50  1  0.94327700  0.70233300  0.47787300  1
  O  O51  1  0.52554000  0.54766700  0.74094400  1
  O  O52  1  0.52554000  0.78459600  0.97787300  1
  O  O53  1  0.22446000  0.46540400  0.52212700  1
  O  O54  1  0.29766700  0.77554000  0.24094400  1
  O  O55  1  0.94327700  0.46540400  0.24094400  1
  O  O56  1  0.22446000  0.70233300  0.75905600  1
  O  O57  1  0.80672300  0.54766700  0.02212700  1
  O  O58  1  0.21540400  0.47446000  0.02212700  1
  O  O59  1  0.45233300  0.19327700  0.97787300  1
  O  O60  1  0.80672300  0.78459600  0.25905600  1
  O  O61  1  0.45233300  0.47446000  0.25905600  1
  O  O62  1  0.21540400  0.19327700  0.74094400  1
  O  O63  1  0.53459600  0.05672300  0.75905600  1
