# generated using pymatgen
data_TlInS2
_symmetry_space_group_name_H-M   'P 1'
_cell_length_a   6.59704077
_cell_length_b   6.59704077
_cell_length_c   6.59704077
_cell_angle_alpha   105.25583762
_cell_angle_beta   105.25583762
_cell_angle_gamma   118.27740683
_symmetry_Int_Tables_number   1
_chemical_formula_structural   TlInS2
_chemical_formula_sum   'Tl2 In2 S4'
_cell_volume   217.04682830
_cell_formula_units_Z   2
loop_
 _symmetry_equiv_pos_site_id
 _symmetry_equiv_pos_as_xyz
  1  'x, y, z'
loop_
 _atom_site_type_symbol
 _atom_site_label
 _atom_site_symmetry_multiplicity
 _atom_site_fract_x
 _atom_site_fract_y
 _atom_site_fract_z
 _atom_site_occupancy
  Tl  Tl0  1  0.75000000  0.75000000  0.00000000  1
  Tl  Tl1  1  0.25000000  0.25000000  0.00000000  1
  In  In2  1  0.25000000  0.75000000  0.50000000  1
  In  In3  1  0.75000000  0.25000000  0.50000000  1
  S  S4  1  0.66480700  0.16480700  0.82961500  1
  S  S5  1  0.33519300  0.83519300  0.17038500  1
  S  S6  1  0.83519300  0.66480700  0.50000000  1
  S  S7  1  0.16480700  0.33519300  0.50000000  1
