# generated using pymatgen
data_CsAlF4
_symmetry_space_group_name_H-M   'P 1'
_cell_length_a   10.87159943
_cell_length_b   10.87159943
_cell_length_c   10.87159943
_cell_angle_alpha   112.97590385
_cell_angle_beta   112.97590385
_cell_angle_gamma   102.66863031
_symmetry_Int_Tables_number   1
_chemical_formula_structural   CsAlF4
_chemical_formula_sum   'Cs10 Al10 F40'
_cell_volume   978.85628510
_cell_formula_units_Z   10
loop_
 _symmetry_equiv_pos_site_id
 _symmetry_equiv_pos_as_xyz
  1  'x, y, z'
loop_
 _atom_site_type_symbol
 _atom_site_label
 _atom_site_symmetry_multiplicity
 _atom_site_fract_x
 _atom_site_fract_y
 _atom_site_fract_z
 _atom_site_occupancy
  Cs  Cs0  1  0.02403200  0.84338500  0.50000000  1
  Cs  Cs1  1  0.34338500  0.52403200  0.50000000  1
  Cs  Cs2  1  0.15661500  0.65661500  0.18064700  1
  Cs  Cs3  1  0.47596800  0.97596800  0.81935300  1
  Cs  Cs4  1  0.84338500  0.34338500  0.81935300  1
  Cs  Cs5  1  0.65661500  0.47596800  0.50000000  1
  Cs  Cs6  1  0.97596800  0.15661500  0.50000000  1
  Cs  Cs7  1  0.52403200  0.02403200  0.18064700  1
  Cs  Cs8  1  0.75000000  0.75000000  0.00000000  1
  Cs  Cs9  1  0.25000000  0.25000000  0.00000000  1
  Al  Al10  1  0.57550600  0.70802900  0.28353500  1
  Al  Al11  1  0.42449400  0.29197100  0.71646500  1
  Al  Al12  1  0.29197100  0.57550600  0.86747700  1
  Al  Al13  1  0.70802900  0.42449400  0.13252300  1
  Al  Al14  1  0.92449400  0.20802900  0.13252300  1
  Al  Al15  1  0.79197100  0.92449400  0.71646500  1
  Al  Al16  1  0.20802900  0.07550600  0.28353500  1
  Al  Al17  1  0.07550600  0.79197100  0.86747700  1
  Al  Al18  1  0.50000000  0.00000000  0.50000000  1
  Al  Al19  1  0.00000000  0.50000000  0.50000000  1
  F  F20  1  0.13058500  0.63058500  0.50000000  1
  F  F21  1  0.36941500  0.86941500  0.50000000  1
  F  F22  1  0.86941500  0.36941500  0.50000000  1
  F  F23  1  0.63058500  0.13058500  0.50000000  1
  F  F24  1  0.78416000  0.28416000  0.06832000  1
  F  F25  1  0.71584000  0.78416000  0.50000000  1
  F  F26  1  0.28416000  0.21584000  0.50000000  1
  F  F27  1  0.21584000  0.71584000  0.93168000  1
  F  F28  1  0.16022100  0.44654700  0.86828600  1
  F  F29  1  0.57826100  0.29193500  0.13171400  1
  F  F30  1  0.55345300  0.42173900  0.71367400  1
  F  F31  1  0.70806500  0.83977900  0.28632600  1
  F  F32  1  0.07826100  0.94654700  0.28632600  1
  F  F33  1  0.05345300  0.33977900  0.13171400  1
  F  F34  1  0.92173900  0.05345300  0.71367400  1
  F  F35  1  0.20806500  0.92173900  0.86828600  1
  F  F36  1  0.83977900  0.55345300  0.13171400  1
  F  F37  1  0.42173900  0.70806500  0.86828600  1
  F  F38  1  0.44654700  0.57826100  0.28632600  1
  F  F39  1  0.29193500  0.16022100  0.71367400  1
  F  F40  1  0.00048600  0.34522700  0.34571300  1
  F  F41  1  0.65477300  0.00048600  0.65525900  1
  F  F42  1  0.34522700  0.99951400  0.34474100  1
  F  F43  1  0.99951400  0.65477300  0.65428700  1
  F  F44  1  0.15477300  0.49951400  0.65428700  1
  F  F45  1  0.84522700  0.50048600  0.34571300  1
  F  F46  1  0.49951400  0.84522700  0.34474100  1
  F  F47  1  0.50048600  0.15477300  0.65525900  1
  F  F48  1  0.06817100  0.14295700  0.21112900  1
  F  F49  1  0.85704300  0.06817100  0.92521400  1
  F  F50  1  0.14295700  0.93182900  0.07478600  1
  F  F51  1  0.93182900  0.85704300  0.78887100  1
  F  F52  1  0.35704300  0.43182900  0.78887100  1
  F  F53  1  0.64295700  0.56817100  0.21112900  1
  F  F54  1  0.43182900  0.64295700  0.07478600  1
  F  F55  1  0.56817100  0.35704300  0.92521400  1
  F  F56  1  0.33977900  0.20806500  0.28632600  1
  F  F57  1  0.79193500  0.07826100  0.13171400  1
  F  F58  1  0.94654700  0.66022100  0.86828600  1
  F  F59  1  0.66022100  0.79193500  0.71367400  1
