# generated using pymatgen
data_CdTe
_symmetry_space_group_name_H-M   'P 1'
_cell_length_a   4.62466889
_cell_length_b   4.62466889
_cell_length_c   10.49997600
_cell_angle_alpha   90.00000000
_cell_angle_beta   90.00000000
_cell_angle_gamma   120.00001274
_symmetry_Int_Tables_number   1
_chemical_formula_structural   CdTe
_chemical_formula_sum   'Cd3 Te3'
_cell_volume   194.48233982
_cell_formula_units_Z   3
loop_
 _symmetry_equiv_pos_site_id
 _symmetry_equiv_pos_as_xyz
  1  'x, y, z'
loop_
 _atom_site_type_symbol
 _atom_site_label
 _atom_site_symmetry_multiplicity
 _atom_site_fract_x
 _atom_site_fract_y
 _atom_site_fract_z
 _atom_site_occupancy
  Cd  Cd0  1  0.50637300  0.00000000  0.33333300  1
  Cd  Cd1  1  0.00000000  0.50637300  0.66666700  1
  Cd  Cd2  1  0.49362700  0.49362700  0.00000000  1
  Te  Te3  1  0.50287700  0.00000000  0.83333300  1
  Te  Te4  1  0.00000000  0.50287700  0.16666700  1
  Te  Te5  1  0.49712300  0.49712300  0.50000000  1
