# generated using pymatgen
data_CaEu(SnO3)4
_symmetry_space_group_name_H-M   'P 1'
_cell_length_a   5.70944091
_cell_length_b   5.70944091
_cell_length_c   8.07196522
_cell_angle_alpha   90.00000000
_cell_angle_beta   90.00000000
_cell_angle_gamma   89.61005747
_symmetry_Int_Tables_number   1
_chemical_formula_structural   CaEu(SnO3)4
_chemical_formula_sum   'Ca1 Eu1 Sn4 O12'
_cell_volume   263.12153202
_cell_formula_units_Z   1
loop_
 _symmetry_equiv_pos_site_id
 _symmetry_equiv_pos_as_xyz
  1  'x, y, z'
loop_
 _atom_site_type_symbol
 _atom_site_label
 _atom_site_symmetry_multiplicity
 _atom_site_fract_x
 _atom_site_fract_y
 _atom_site_fract_z
 _atom_site_occupancy
  Ca  Ca0  1  0.47394677  0.52605323  0.00000000  1
  Eu  Eu1  1  0.02251770  0.97748230  0.50000000  1
  Sn  Sn2  1  0.51110162  0.01119772  0.24474656  1
  Sn  Sn3  1  0.51110162  0.01119772  0.75525344  1
  Sn  Sn4  1  0.98880228  0.48889838  0.75525344  1
  Sn  Sn5  1  0.98880228  0.48889838  0.24474656  1
  O  O6  1  0.19593414  0.19081059  0.27456574  1
  O  O7  1  0.80918941  0.80406586  0.27456574  1
  O  O8  1  0.80918941  0.80406586  0.72543426  1
  O  O9  1  0.19593414  0.19081059  0.72543426  1
  O  O10  1  0.27575528  0.72424472  0.30096551  1
  O  O11  1  0.68309832  0.31690168  0.19427765  1
  O  O12  1  0.68309832  0.31690168  0.80572235  1
  O  O13  1  0.27575528  0.72424472  0.69903449  1
  O  O14  1  0.47590157  0.92357242  -0.00000000  1
  O  O15  1  0.57765127  0.04540698  0.50000000  1
  O  O16  1  0.07642758  0.52409843  -0.00000000  1
  O  O17  1  0.95459302  0.42234873  0.50000000  1
