# generated using pymatgen
data_SrMo5O8
_symmetry_space_group_name_H-M   'P 1'
_cell_length_a   9.54827700
_cell_length_b   8.40940300
_cell_length_c   10.81020448
_cell_angle_alpha   70.24552757
_cell_angle_beta   90.00000000
_cell_angle_gamma   90.00000000
_symmetry_Int_Tables_number   1
_chemical_formula_structural   SrMo5O8
_chemical_formula_sum   'Sr4 Mo20 O32'
_cell_volume   816.92608220
_cell_formula_units_Z   4
loop_
 _symmetry_equiv_pos_site_id
 _symmetry_equiv_pos_as_xyz
  1  'x, y, z'
loop_
 _atom_site_type_symbol
 _atom_site_label
 _atom_site_symmetry_multiplicity
 _atom_site_fract_x
 _atom_site_fract_y
 _atom_site_fract_z
 _atom_site_occupancy
  Sr  Sr0  1  0.47801100  0.71608500  0.53209600  1
  Sr  Sr1  1  0.97801100  0.28391500  0.96790400  1
  Sr  Sr2  1  0.52198900  0.28391500  0.46790400  1
  Sr  Sr3  1  0.02198900  0.71608500  0.03209600  1
  Mo  Mo4  1  0.36668500  0.58971600  0.19082300  1
  Mo  Mo5  1  0.86073700  0.79252700  0.72747400  1
  Mo  Mo6  1  0.63926300  0.79252700  0.22747400  1
  Mo  Mo7  1  0.13926300  0.20747300  0.27252600  1
  Mo  Mo8  1  0.37014300  0.80560400  0.86493200  1
  Mo  Mo9  1  0.87014300  0.19439600  0.63506800  1
  Mo  Mo10  1  0.62985700  0.19439600  0.13506800  1
  Mo  Mo11  1  0.12985700  0.80560400  0.36493200  1
  Mo  Mo12  1  0.36073700  0.20747300  0.77252600  1
  Mo  Mo13  1  0.86668500  0.41028400  0.30917700  1
  Mo  Mo14  1  0.63331500  0.41028400  0.80917700  1
  Mo  Mo15  1  0.13331500  0.58971600  0.69082300  1
  Mo  Mo16  1  0.35703300  0.39560200  0.98134400  1
  Mo  Mo17  1  0.85703300  0.60439800  0.51865600  1
  Mo  Mo18  1  0.64296700  0.60439800  0.01865600  1
  Mo  Mo19  1  0.14296700  0.39560200  0.48134400  1
  Mo  Mo20  1  0.14456900  0.99246200  0.58686400  1
  Mo  Mo21  1  0.64456900  0.00753800  0.91313600  1
  Mo  Mo22  1  0.85543100  0.00753800  0.41313600  1
  Mo  Mo23  1  0.35543100  0.99246200  0.08686400  1
  O  O24  1  0.50090800  0.58955900  0.86422000  1
  O  O25  1  0.00090800  0.41044100  0.63578000  1
  O  O26  1  0.49909200  0.41044100  0.13578000  1
  O  O27  1  0.99909200  0.58955900  0.36422000  1
  O  O28  1  0.26674600  0.37441000  0.32271300  1
  O  O29  1  0.76674600  0.62559000  0.17728700  1
  O  O30  1  0.73325400  0.62559000  0.67728700  1
  O  O31  1  0.23325400  0.37441000  0.82271300  1
  O  O32  1  0.27063600  0.78870300  0.69543100  1
  O  O33  1  0.77063600  0.21129700  0.80456900  1
  O  O34  1  0.72936400  0.21129700  0.30456900  1
  O  O35  1  0.22936400  0.78870300  0.19543100  1
  O  O36  1  0.26952000  0.19413300  0.60020500  1
  O  O37  1  0.76952000  0.80586700  0.89979500  1
  O  O38  1  0.73048000  0.80586700  0.39979500  1
  O  O39  1  0.23048000  0.19413300  0.10020500  1
  O  O40  1  0.24173500  0.60352800  0.50992000  1
  O  O41  1  0.74173500  0.39647200  0.99008000  1
  O  O42  1  0.75826500  0.39647200  0.49008000  1
  O  O43  1  0.25826500  0.60352800  0.00992000  1
  O  O44  1  0.49632000  0.02336000  0.75945400  1
  O  O45  1  0.99632000  0.97664000  0.74054600  1
  O  O46  1  0.50368000  0.97664000  0.24054600  1
  O  O47  1  0.00368000  0.02336000  0.25945400  1
  O  O48  1  0.98975600  0.60915000  0.83673600  1
  O  O49  1  0.48975600  0.39085000  0.66326400  1
  O  O50  1  0.01024400  0.39085000  0.16326400  1
  O  O51  1  0.51024400  0.60915000  0.33673600  1
  O  O52  1  0.24413700  0.00216200  0.40642200  1
  O  O53  1  0.75586300  0.99783800  0.59357800  1
  O  O54  1  0.74413700  0.99783800  0.09357800  1
  O  O55  1  0.25586300  0.00216200  0.90642200  1
