# generated using pymatgen
data_BaCaCeNbO6
_symmetry_space_group_name_H-M   'P 1'
_cell_length_a   5.95693912
_cell_length_b   6.02976587
_cell_length_c   8.50228445
_cell_angle_alpha   90.50093619
_cell_angle_beta   90.42137245
_cell_angle_gamma   90.24957460
_symmetry_Int_Tables_number   1
_chemical_formula_structural   BaCaCeNbO6
_chemical_formula_sum   'Ba2 Ca2 Ce2 Nb2 O12'
_cell_volume   305.37020094
_cell_formula_units_Z   2
loop_
 _symmetry_equiv_pos_site_id
 _symmetry_equiv_pos_as_xyz
  1  'x, y, z'
loop_
 _atom_site_type_symbol
 _atom_site_label
 _atom_site_symmetry_multiplicity
 _atom_site_fract_x
 _atom_site_fract_y
 _atom_site_fract_z
 _atom_site_occupancy
  Ba  Ba0  1  0.50510656  0.53376212  0.25068086  1
  Ba  Ba1  1  0.49489344  0.46623788  0.74931914  1
  Ca  Ca2  1  0.98955827  0.04450281  0.25364165  1
  Ca  Ca3  1  0.01044173  0.95549719  0.74635835  1
  Ce  Ce4  1  0.00000000  0.50000000  -0.00000000  1
  Ce  Ce5  1  0.50000000  -0.00000000  0.50000000  1
  Nb  Nb6  1  0.50000000  -0.00000000  -0.00000000  1
  Nb  Nb7  1  0.00000000  0.50000000  0.50000000  1
  O  O8  1  0.22293818  0.18799581  0.94048269  1
  O  O9  1  0.27347503  0.69908488  0.53276388  1
  O  O10  1  0.77706182  0.81200419  0.05951731  1
  O  O11  1  0.72652497  0.30091512  0.46723612  1
  O  O12  1  0.30481009  0.72921676  0.95885984  1
  O  O13  1  0.18175329  0.21774190  0.55541754  1
  O  O14  1  0.69518991  0.27078324  0.04114016  1
  O  O15  1  0.81824671  0.78225810  0.44458246  1
  O  O16  1  0.39215872  0.99831597  0.23172751  1
  O  O17  1  0.06625972  0.44309736  0.26639959  1
  O  O18  1  0.60784128  0.00168403  0.76827249  1
  O  O19  1  0.93374028  0.55690264  0.73360041  1
