# generated using pymatgen
data_BaCaCeNbO6
_symmetry_space_group_name_H-M   'P 1'
_cell_length_a   8.45241302
_cell_length_b   8.50880458
_cell_length_c   8.46291356
_cell_angle_alpha   90.00000000
_cell_angle_beta   90.00000000
_cell_angle_gamma   90.00000000
_symmetry_Int_Tables_number   1
_chemical_formula_structural   BaCaCeNbO6
_chemical_formula_sum   'Ba4 Ca4 Ce4 Nb4 O24'
_cell_volume   608.65215605
_cell_formula_units_Z   4
loop_
 _symmetry_equiv_pos_site_id
 _symmetry_equiv_pos_as_xyz
  1  'x, y, z'
loop_
 _atom_site_type_symbol
 _atom_site_label
 _atom_site_symmetry_multiplicity
 _atom_site_fract_x
 _atom_site_fract_y
 _atom_site_fract_z
 _atom_site_occupancy
  Ba  Ba0  1  -0.00000000  -0.00000000  0.00000000  1
  Ba  Ba1  1  0.50000000  0.50000000  0.50000000  1
  Ba  Ba2  1  0.50000000  -0.00000000  0.50000000  1
  Ba  Ba3  1  -0.00000000  -0.00000000  0.50000000  1
  Ca  Ca4  1  -0.00000000  0.50000000  0.50000000  1
  Ca  Ca5  1  0.50000000  0.50000000  0.00000000  1
  Ca  Ca6  1  0.50000000  -0.00000000  0.00000000  1
  Ca  Ca7  1  -0.00000000  0.50000000  0.00000000  1
  Ce  Ce8  1  0.74895974  0.74534138  0.75523209  1
  Ce  Ce9  1  0.25104026  0.25465862  0.75523209  1
  Ce  Ce10  1  0.25104026  0.74534138  0.24476791  1
  Ce  Ce11  1  0.74895974  0.25465862  0.24476791  1
  Nb  Nb12  1  0.24796051  0.25699222  0.24552229  1
  Nb  Nb13  1  0.75203949  0.74300778  0.24552229  1
  Nb  Nb14  1  0.75203949  0.25699222  0.75447771  1
  Nb  Nb15  1  0.24796051  0.74300778  0.75447771  1
  O  O16  1  0.01481698  0.21237608  0.27199155  1
  O  O17  1  0.98518302  0.78762392  0.27199155  1
  O  O18  1  0.98518302  0.21237608  0.72800845  1
  O  O19  1  0.01481698  0.78762392  0.72800845  1
  O  O20  1  0.29383383  0.02048437  0.19984436  1
  O  O21  1  0.29383383  0.97951563  0.80015564  1
  O  O22  1  0.70616617  0.97951563  0.19984436  1
  O  O23  1  0.70616617  0.02048437  0.80015564  1
  O  O24  1  0.20031766  0.30368577  0.01450413  1
  O  O25  1  0.79968234  0.30368577  0.98549587  1
  O  O26  1  0.20031766  0.69631423  0.98549587  1
  O  O27  1  0.79968234  0.69631423  0.01450413  1
  O  O28  1  0.48214726  0.30528733  0.20296708  1
  O  O29  1  0.51785274  0.69471267  0.20296708  1
  O  O30  1  0.51785274  0.30528733  0.79703292  1
  O  O31  1  0.48214726  0.69471267  0.79703292  1
  O  O32  1  0.20423521  0.48683445  0.30023163  1
  O  O33  1  0.20423521  0.51316555  0.69976837  1
  O  O34  1  0.79576479  0.51316555  0.30023163  1
  O  O35  1  0.79576479  0.48683445  0.69976837  1
  O  O36  1  0.28221528  0.22331142  0.48147135  1
  O  O37  1  0.71778472  0.22331142  0.51852865  1
  O  O38  1  0.28221528  0.77668858  0.51852865  1
  O  O39  1  0.71778472  0.77668858  0.48147135  1
