# generated using pymatgen
data_SrZn(SeO3)2
_symmetry_space_group_name_H-M   'P 1'
_cell_length_a   6.36587809
_cell_length_b   6.47640287
_cell_length_c   7.81687383
_cell_angle_alpha   90.00000000
_cell_angle_beta   90.00000000
_cell_angle_gamma   90.00000000
_symmetry_Int_Tables_number   1
_chemical_formula_structural   SrZn(SeO3)2
_chemical_formula_sum   'Sr2 Zn2 Se4 O12'
_cell_volume   322.27400494
_cell_formula_units_Z   2
loop_
 _symmetry_equiv_pos_site_id
 _symmetry_equiv_pos_as_xyz
  1  'x, y, z'
loop_
 _atom_site_type_symbol
 _atom_site_label
 _atom_site_symmetry_multiplicity
 _atom_site_fract_x
 _atom_site_fract_y
 _atom_site_fract_z
 _atom_site_occupancy
  Sr  Sr0  1  0.26718559  0.53220272  -0.00000000  1
  Sr  Sr1  1  0.73281441  0.03220272  -0.00000000  1
  Zn  Zn2  1  0.84204886  0.12000306  0.50000000  1
  Zn  Zn3  1  0.15795114  0.62000306  0.50000000  1
  Se  Se4  1  0.78104377  0.43936768  0.75684787  1
  Se  Se5  1  0.21895623  0.93936768  0.75684787  1
  Se  Se6  1  0.78104377  0.43936768  0.24315213  1
  Se  Se7  1  0.21895623  0.93936768  0.24315213  1
  O  O8  1  0.35104182  0.92903645  -0.00000000  1
  O  O9  1  0.91639993  0.44328164  0.50000000  1
  O  O10  1  0.08360007  0.94328164  0.50000000  1
  O  O11  1  0.64895818  0.42903645  -0.00000000  1
  O  O12  1  0.65539622  0.20829187  0.69975988  1
  O  O13  1  0.01416093  0.34007851  0.81985288  1
  O  O14  1  0.98583907  0.84007851  0.18014712  1
  O  O15  1  0.34460378  0.70829187  0.30024012  1
  O  O16  1  0.98583907  0.84007851  0.81985288  1
  O  O17  1  0.34460378  0.70829187  0.69975988  1
  O  O18  1  0.65539622  0.20829187  0.30024012  1
  O  O19  1  0.01416093  0.34007851  0.18014712  1
