# generated using pymatgen
data_KBaPrBiO6
_symmetry_space_group_name_H-M   'P 1'
_cell_length_a   8.88194740
_cell_length_b   8.91823360
_cell_length_c   8.88779000
_cell_angle_alpha   90.00000000
_cell_angle_beta   90.00000000
_cell_angle_gamma   90.00000000
_symmetry_Int_Tables_number   1
_chemical_formula_structural   KBaPrBiO6
_chemical_formula_sum   'K4 Ba4 Pr4 Bi4 O24'
_cell_volume   704.01323770
_cell_formula_units_Z   4
loop_
 _symmetry_equiv_pos_site_id
 _symmetry_equiv_pos_as_xyz
  1  'x, y, z'
loop_
 _atom_site_type_symbol
 _atom_site_label
 _atom_site_symmetry_multiplicity
 _atom_site_fract_x
 _atom_site_fract_y
 _atom_site_fract_z
 _atom_site_occupancy
  K  K0  1  0.00000000  0.50000000  0.50000000  1
  K  K1  1  0.50000000  -0.00000000  0.50000000  1
  K  K2  1  0.50000000  -0.00000000  0.00000000  1
  K  K3  1  0.00000000  0.50000000  0.00000000  1
  Ba  Ba4  1  0.50000000  0.50000000  0.00000000  1
  Ba  Ba5  1  -0.00000000  0.00000000  0.50000000  1
  Ba  Ba6  1  0.00000000  0.00000000  0.00000000  1
  Ba  Ba7  1  0.50000000  0.50000000  0.50000000  1
  Pr  Pr8  1  0.25000000  0.25000000  0.25000000  1
  Pr  Pr9  1  0.75000000  0.75000000  0.25000000  1
  Pr  Pr10  1  0.75000000  0.25000000  0.75000000  1
  Pr  Pr11  1  0.25000000  0.75000000  0.75000000  1
  Bi  Bi12  1  0.75000000  0.75000000  0.75000000  1
  Bi  Bi13  1  0.25000000  0.25000000  0.75000000  1
  Bi  Bi14  1  0.25000000  0.75000000  0.25000000  1
  Bi  Bi15  1  0.75000000  0.25000000  0.25000000  1
  O  O16  1  0.98749653  0.21439495  0.27014285  1
  O  O17  1  0.01250347  0.78560505  0.27014285  1
  O  O18  1  0.01250347  0.21439495  0.72985715  1
  O  O19  1  0.98749653  0.78560505  0.72985715  1
  O  O20  1  0.26157417  0.98715501  0.22357201  1
  O  O21  1  0.26157417  0.01284499  0.77642799  1
  O  O22  1  0.73842583  0.01284499  0.22357201  1
  O  O23  1  0.73842583  0.98715501  0.77642799  1
  O  O24  1  0.22697112  0.27163669  0.98693269  1
  O  O25  1  0.77302888  0.27163669  0.01306731  1
  O  O26  1  0.22697112  0.72836331  0.01306731  1
  O  O27  1  0.77302888  0.72836331  0.98693269  1
  O  O28  1  0.51250347  0.28560505  0.22985715  1
  O  O29  1  0.48749653  0.71439495  0.22985715  1
  O  O30  1  0.48749653  0.28560505  0.77014285  1
  O  O31  1  0.51250347  0.71439495  0.77014285  1
  O  O32  1  0.23842583  0.51284499  0.27642799  1
  O  O33  1  0.23842583  0.48715501  0.72357201  1
  O  O34  1  0.76157417  0.48715501  0.27642799  1
  O  O35  1  0.76157417  0.51284499  0.72357201  1
  O  O36  1  0.27302888  0.22836331  0.51306731  1
  O  O37  1  0.72697112  0.22836331  0.48693269  1
  O  O38  1  0.27302888  0.77163669  0.48693269  1
  O  O39  1  0.72697112  0.77163669  0.51306731  1
