# generated using pymatgen
data_KBaSrMnO6
_symmetry_space_group_name_H-M   'P 1'
_cell_length_a   8.58701413
_cell_length_b   8.65606910
_cell_length_c   8.66547308
_cell_angle_alpha   90.00000000
_cell_angle_beta   90.00000000
_cell_angle_gamma   90.00000000
_symmetry_Int_Tables_number   1
_chemical_formula_structural   KBaSrMnO6
_chemical_formula_sum   'K4 Ba4 Sr4 Mn4 O24'
_cell_volume   644.10277411
_cell_formula_units_Z   4
loop_
 _symmetry_equiv_pos_site_id
 _symmetry_equiv_pos_as_xyz
  1  'x, y, z'
loop_
 _atom_site_type_symbol
 _atom_site_label
 _atom_site_symmetry_multiplicity
 _atom_site_fract_x
 _atom_site_fract_y
 _atom_site_fract_z
 _atom_site_occupancy
  K  K0  1  0.00000000  0.50000000  0.50000000  1
  K  K1  1  0.50000000  -0.00000000  0.50000000  1
  K  K2  1  0.50000000  -0.00000000  -0.00000000  1
  K  K3  1  0.00000000  0.50000000  -0.00000000  1
  Ba  Ba4  1  0.50000000  0.50000000  -0.00000000  1
  Ba  Ba5  1  0.00000000  -0.00000000  0.50000000  1
  Ba  Ba6  1  0.00000000  -0.00000000  -0.00000000  1
  Ba  Ba7  1  0.50000000  0.50000000  0.50000000  1
  Sr  Sr8  1  0.25000000  0.25000000  0.25000000  1
  Sr  Sr9  1  0.75000000  0.75000000  0.25000000  1
  Sr  Sr10  1  0.75000000  0.25000000  0.75000000  1
  Sr  Sr11  1  0.25000000  0.75000000  0.75000000  1
  Mn  Mn12  1  0.75000000  0.75000000  0.75000000  1
  Mn  Mn13  1  0.25000000  0.25000000  0.75000000  1
  Mn  Mn14  1  0.25000000  0.75000000  0.25000000  1
  Mn  Mn15  1  0.75000000  0.25000000  0.25000000  1
  O  O16  1  0.96800829  0.21940441  0.26428732  1
  O  O17  1  0.03199171  0.78059559  0.26428732  1
  O  O18  1  0.03199171  0.21940441  0.73571268  1
  O  O19  1  0.96800829  0.78059559  0.73571268  1
  O  O20  1  0.25405747  0.96828866  0.22974054  1
  O  O21  1  0.25405747  0.03171134  0.77025946  1
  O  O22  1  0.74594253  0.03171134  0.22974054  1
  O  O23  1  0.74594253  0.96828866  0.77025946  1
  O  O24  1  0.23314841  0.26563214  0.96785838  1
  O  O25  1  0.76685159  0.26563214  0.03214162  1
  O  O26  1  0.23314841  0.73436786  0.03214162  1
  O  O27  1  0.76685159  0.73436786  0.96785838  1
  O  O28  1  0.53199171  0.28059559  0.23571268  1
  O  O29  1  0.46800829  0.71940441  0.23571268  1
  O  O30  1  0.46800829  0.28059559  0.76428732  1
  O  O31  1  0.53199171  0.71940441  0.76428732  1
  O  O32  1  0.24594253  0.53171134  0.27025946  1
  O  O33  1  0.24594253  0.46828866  0.72974054  1
  O  O34  1  0.75405747  0.46828866  0.27025946  1
  O  O35  1  0.75405747  0.53171134  0.72974054  1
  O  O36  1  0.26685159  0.23436786  0.53214162  1
  O  O37  1  0.73314841  0.23436786  0.46785838  1
  O  O38  1  0.26685159  0.76563214  0.46785838  1
  O  O39  1  0.73314841  0.76563214  0.53214162  1
