# generated using pymatgen
data_KSrPrBiO6
_symmetry_space_group_name_H-M   'P 1'
_cell_length_a   8.79746829
_cell_length_b   8.76655586
_cell_length_c   8.85890714
_cell_angle_alpha   90.00000000
_cell_angle_beta   90.00000000
_cell_angle_gamma   90.00000000
_symmetry_Int_Tables_number   1
_chemical_formula_structural   KSrPrBiO6
_chemical_formula_sum   'K4 Sr4 Pr4 Bi4 O24'
_cell_volume   683.22989993
_cell_formula_units_Z   4
loop_
 _symmetry_equiv_pos_site_id
 _symmetry_equiv_pos_as_xyz
  1  'x, y, z'
loop_
 _atom_site_type_symbol
 _atom_site_label
 _atom_site_symmetry_multiplicity
 _atom_site_fract_x
 _atom_site_fract_y
 _atom_site_fract_z
 _atom_site_occupancy
  K  K0  1  0.50000000  -0.00000000  0.50000000  1
  K  K1  1  0.50000000  0.50000000  -0.00000000  1
  K  K2  1  -0.00000000  0.50000000  0.00000000  1
  K  K3  1  -0.00000000  -0.00000000  0.50000000  1
  Sr  Sr4  1  -0.00000000  0.50000000  0.50000000  1
  Sr  Sr5  1  0.50000000  -0.00000000  0.00000000  1
  Sr  Sr6  1  -0.00000000  -0.00000000  -0.00000000  1
  Sr  Sr7  1  0.50000000  0.50000000  0.50000000  1
  Pr  Pr8  1  0.25000000  0.25000000  0.25000000  1
  Pr  Pr9  1  0.75000000  0.75000000  0.25000000  1
  Pr  Pr10  1  0.75000000  0.25000000  0.75000000  1
  Pr  Pr11  1  0.25000000  0.75000000  0.75000000  1
  Bi  Bi12  1  0.75000000  0.75000000  0.75000000  1
  Bi  Bi13  1  0.25000000  0.25000000  0.75000000  1
  Bi  Bi14  1  0.25000000  0.75000000  0.25000000  1
  Bi  Bi15  1  0.75000000  0.25000000  0.25000000  1
  O  O16  1  0.98731265  0.21709127  0.27616990  1
  O  O17  1  0.01268735  0.78290873  0.27616990  1
  O  O18  1  0.01268735  0.21709127  0.72383010  1
  O  O19  1  0.98731265  0.78290873  0.72383010  1
  O  O20  1  0.28020252  0.98746835  0.19895083  1
  O  O21  1  0.28020252  0.01253165  0.80104917  1
  O  O22  1  0.71979748  0.01253165  0.19895083  1
  O  O23  1  0.71979748  0.98746835  0.80104917  1
  O  O24  1  0.21305366  0.26760804  0.98723654  1
  O  O25  1  0.78694634  0.26760804  0.01276346  1
  O  O26  1  0.21305366  0.73239196  0.01276346  1
  O  O27  1  0.78694634  0.73239196  0.98723654  1
  O  O28  1  0.51268735  0.28290873  0.22383010  1
  O  O29  1  0.48731265  0.71709127  0.22383010  1
  O  O30  1  0.48731265  0.28290873  0.77616990  1
  O  O31  1  0.51268735  0.71709127  0.77616990  1
  O  O32  1  0.21979748  0.51253165  0.30104917  1
  O  O33  1  0.21979748  0.48746835  0.69895083  1
  O  O34  1  0.78020252  0.48746835  0.30104917  1
  O  O35  1  0.78020252  0.51253165  0.69895083  1
  O  O36  1  0.28694634  0.23239196  0.51276346  1
  O  O37  1  0.71305366  0.23239196  0.48723654  1
  O  O38  1  0.28694634  0.76760804  0.48723654  1
  O  O39  1  0.71305366  0.76760804  0.51276346  1
