# generated using pymatgen
data_SrEuBiSbO6
_symmetry_space_group_name_H-M   'P 1'
_cell_length_a   8.52789241
_cell_length_b   8.52839639
_cell_length_c   8.52842324
_cell_angle_alpha   90.00000000
_cell_angle_beta   90.00000000
_cell_angle_gamma   90.00000000
_symmetry_Int_Tables_number   1
_chemical_formula_structural   SrEuBiSbO6
_chemical_formula_sum   'Sr4 Eu4 Bi4 Sb4 O24'
_cell_volume   620.26579901
_cell_formula_units_Z   4
loop_
 _symmetry_equiv_pos_site_id
 _symmetry_equiv_pos_as_xyz
  1  'x, y, z'
loop_
 _atom_site_type_symbol
 _atom_site_label
 _atom_site_symmetry_multiplicity
 _atom_site_fract_x
 _atom_site_fract_y
 _atom_site_fract_z
 _atom_site_occupancy
  Sr  Sr0  1  0.00000000  0.50000000  0.50000000  1
  Sr  Sr1  1  0.50000000  -0.00000000  0.50000000  1
  Sr  Sr2  1  0.50000000  0.50000000  -0.00000000  1
  Sr  Sr3  1  0.00000000  0.50000000  -0.00000000  1
  Eu  Eu4  1  0.50000000  -0.00000000  -0.00000000  1
  Eu  Eu5  1  0.00000000  -0.00000000  0.50000000  1
  Eu  Eu6  1  0.00000000  -0.00000000  -0.00000000  1
  Eu  Eu7  1  0.50000000  0.50000000  0.50000000  1
  Bi  Bi8  1  0.75004971  0.75034817  0.75009089  1
  Bi  Bi9  1  0.24995029  0.24965183  0.75009089  1
  Bi  Bi10  1  0.24995029  0.75034817  0.24990911  1
  Bi  Bi11  1  0.75004971  0.24965183  0.24990911  1
  Sb  Sb12  1  0.24964947  0.24908811  0.24994195  1
  Sb  Sb13  1  0.75035053  0.75091189  0.24994195  1
  Sb  Sb14  1  0.75035053  0.24908811  0.75005805  1
  Sb  Sb15  1  0.24964947  0.75091189  0.75005805  1
  O  O16  1  0.02053403  0.19947790  0.28966405  1
  O  O17  1  0.97946597  0.80052210  0.28966405  1
  O  O18  1  0.97946597  0.19947790  0.71033595  1
  O  O19  1  0.02053403  0.80052210  0.71033595  1
  O  O20  1  0.28974165  0.02014570  0.20023367  1
  O  O21  1  0.28974165  0.97985430  0.79976633  1
  O  O22  1  0.71025835  0.97985430  0.20023367  1
  O  O23  1  0.71025835  0.02014570  0.79976633  1
  O  O24  1  0.20243749  0.28652408  0.02058311  1
  O  O25  1  0.79756251  0.28652408  0.97941689  1
  O  O26  1  0.20243749  0.71347592  0.97941689  1
  O  O27  1  0.79756251  0.71347592  0.02058311  1
  O  O28  1  0.47995083  0.29593522  0.21275868  1
  O  O29  1  0.52004917  0.70406478  0.21275868  1
  O  O30  1  0.52004917  0.29593522  0.78724132  1
  O  O31  1  0.47995083  0.70406478  0.78724132  1
  O  O32  1  0.21339948  0.47945211  0.29664589  1
  O  O33  1  0.21339948  0.52054789  0.70335411  1
  O  O34  1  0.78660052  0.52054789  0.29664589  1
  O  O35  1  0.78660052  0.47945211  0.70335411  1
  O  O36  1  0.29580888  0.21188010  0.47970158  1
  O  O37  1  0.70419112  0.21188010  0.52029842  1
  O  O38  1  0.29580888  0.78811990  0.52029842  1
  O  O39  1  0.70419112  0.78811990  0.47970158  1
