# generated using pymatgen
data_Ba2CePrO6
_symmetry_space_group_name_H-M   'P 1'
_cell_length_a   9.01591610
_cell_length_b   9.01591610
_cell_length_c   9.01591610
_cell_angle_alpha   90.00000000
_cell_angle_beta   90.00000000
_cell_angle_gamma   90.00000000
_symmetry_Int_Tables_number   1
_chemical_formula_structural   Ba2CePrO6
_chemical_formula_sum   'Ba8 Ce4 Pr4 O24'
_cell_volume   732.87445603
_cell_formula_units_Z   4
loop_
 _symmetry_equiv_pos_site_id
 _symmetry_equiv_pos_as_xyz
  1  'x, y, z'
loop_
 _atom_site_type_symbol
 _atom_site_label
 _atom_site_symmetry_multiplicity
 _atom_site_fract_x
 _atom_site_fract_y
 _atom_site_fract_z
 _atom_site_occupancy
  Ba  Ba0  1  0.50000000  0.50000000  0.50000000  1
  Ba  Ba1  1  -0.00000000  0.00000000  -0.00000000  1
  Ba  Ba2  1  -0.00000000  0.00000000  0.50000000  1
  Ba  Ba3  1  -0.00000000  0.50000000  -0.00000000  1
  Ba  Ba4  1  0.50000000  0.00000000  -0.00000000  1
  Ba  Ba5  1  0.50000000  0.50000000  -0.00000000  1
  Ba  Ba6  1  0.50000000  0.00000000  0.50000000  1
  Ba  Ba7  1  -0.00000000  0.50000000  0.50000000  1
  Ce  Ce8  1  0.75000000  0.75000000  0.75000000  1
  Ce  Ce9  1  0.75000000  0.25000000  0.25000000  1
  Ce  Ce10  1  0.25000000  0.75000000  0.25000000  1
  Ce  Ce11  1  0.25000000  0.25000000  0.75000000  1
  Pr  Pr12  1  0.25000000  0.25000000  0.25000000  1
  Pr  Pr13  1  0.25000000  0.75000000  0.75000000  1
  Pr  Pr14  1  0.75000000  0.25000000  0.75000000  1
  Pr  Pr15  1  0.75000000  0.75000000  0.25000000  1
  O  O16  1  0.21942633  0.28570600  0.50744476  1
  O  O17  1  0.21942633  0.71429400  0.49255524  1
  O  O18  1  0.78057367  0.28570600  0.49255524  1
  O  O19  1  0.78057367  0.71429400  0.50744476  1
  O  O20  1  0.28570600  0.50744476  0.21942633  1
  O  O21  1  0.71429400  0.49255524  0.21942633  1
  O  O22  1  0.28570600  0.49255524  0.78057367  1
  O  O23  1  0.71429400  0.50744476  0.78057367  1
  O  O24  1  0.50744476  0.21942633  0.28570600  1
  O  O25  1  0.49255524  0.21942633  0.71429400  1
  O  O26  1  0.49255524  0.78057367  0.28570600  1
  O  O27  1  0.50744476  0.78057367  0.71429400  1
  O  O28  1  0.28057367  0.21429400  0.99255524  1
  O  O29  1  0.28057367  0.78570600  0.00744476  1
  O  O30  1  0.71942633  0.21429400  0.00744476  1
  O  O31  1  0.71942633  0.78570600  0.99255524  1
  O  O32  1  0.21429400  0.99255524  0.28057367  1
  O  O33  1  0.78570600  0.00744476  0.28057367  1
  O  O34  1  0.21429400  0.00744476  0.71942633  1
  O  O35  1  0.78570600  0.99255524  0.71942633  1
  O  O36  1  0.99255524  0.28057367  0.21429400  1
  O  O37  1  0.00744476  0.28057367  0.78570600  1
  O  O38  1  0.00744476  0.71942633  0.21429400  1
  O  O39  1  0.99255524  0.71942633  0.78570600  1
