# generated using pymatgen
data_SrCaBiSbO6
_symmetry_space_group_name_H-M   'P 1'
_cell_length_a   8.44013375
_cell_length_b   8.43283857
_cell_length_c   8.44251081
_cell_angle_alpha   90.00000000
_cell_angle_beta   90.00000000
_cell_angle_gamma   90.00000000
_symmetry_Int_Tables_number   1
_chemical_formula_structural   SrCaBiSbO6
_chemical_formula_sum   'Sr4 Ca4 Bi4 Sb4 O24'
_cell_volume   600.88967408
_cell_formula_units_Z   4
loop_
 _symmetry_equiv_pos_site_id
 _symmetry_equiv_pos_as_xyz
  1  'x, y, z'
loop_
 _atom_site_type_symbol
 _atom_site_label
 _atom_site_symmetry_multiplicity
 _atom_site_fract_x
 _atom_site_fract_y
 _atom_site_fract_z
 _atom_site_occupancy
  Sr  Sr0  1  0.00000000  0.50000000  0.50000000  1
  Sr  Sr1  1  0.50000000  0.00000000  0.50000000  1
  Sr  Sr2  1  0.50000000  0.50000000  0.00000000  1
  Sr  Sr3  1  0.50000000  0.00000000  0.00000000  1
  Ca  Ca4  1  0.00000000  0.50000000  0.00000000  1
  Ca  Ca5  1  0.00000000  -0.00000000  0.50000000  1
  Ca  Ca6  1  0.00000000  0.00000000  0.00000000  1
  Ca  Ca7  1  0.50000000  0.50000000  0.50000000  1
  Bi  Bi8  1  0.75326751  0.75048502  0.74968492  1
  Bi  Bi9  1  0.24673249  0.24951498  0.74968492  1
  Bi  Bi10  1  0.24673249  0.75048502  0.25031508  1
  Bi  Bi11  1  0.75326751  0.24951498  0.25031508  1
  Sb  Sb12  1  0.24730335  0.25004564  0.25052590  1
  Sb  Sb13  1  0.75269665  0.74995436  0.25052590  1
  Sb  Sb14  1  0.75269665  0.25004564  0.74947410  1
  Sb  Sb15  1  0.24730335  0.74995436  0.74947410  1
  O  O16  1  0.01839004  0.19446099  0.29664996  1
  O  O17  1  0.98160996  0.80553901  0.29664996  1
  O  O18  1  0.98160996  0.19446099  0.70335004  1
  O  O19  1  0.01839004  0.80553901  0.70335004  1
  O  O20  1  0.28413942  0.01950486  0.20079719  1
  O  O21  1  0.28413942  0.98049514  0.79920281  1
  O  O22  1  0.71586058  0.98049514  0.20079719  1
  O  O23  1  0.71586058  0.01950486  0.79920281  1
  O  O24  1  0.19146831  0.29301808  0.02158762  1
  O  O25  1  0.80853169  0.29301808  0.97841238  1
  O  O26  1  0.19146831  0.70698192  0.97841238  1
  O  O27  1  0.80853169  0.70698192  0.02158762  1
  O  O28  1  0.47985678  0.29404793  0.21426019  1
  O  O29  1  0.52014322  0.70595207  0.21426019  1
  O  O30  1  0.52014322  0.29404793  0.78573981  1
  O  O31  1  0.47985678  0.70595207  0.78573981  1
  O  O32  1  0.21347726  0.48178374  0.29728692  1
  O  O33  1  0.21347726  0.51821626  0.70271308  1
  O  O34  1  0.78652274  0.51821626  0.29728692  1
  O  O35  1  0.78652274  0.48178374  0.70271308  1
  O  O36  1  0.29682658  0.21644443  0.48286531  1
  O  O37  1  0.70317342  0.21644443  0.51713469  1
  O  O38  1  0.29682658  0.78355557  0.51713469  1
  O  O39  1  0.70317342  0.78355557  0.48286531  1
