# generated using pymatgen
data_BaCaGdNbO6
_symmetry_space_group_name_H-M   'P 1'
_cell_length_a   8.40905738
_cell_length_b   8.39257789
_cell_length_c   8.44034433
_cell_angle_alpha   90.00000000
_cell_angle_beta   90.00000000
_cell_angle_gamma   90.00000000
_symmetry_Int_Tables_number   1
_chemical_formula_structural   BaCaGdNbO6
_chemical_formula_sum   'Ba4 Ca4 Gd4 Nb4 O24'
_cell_volume   595.66606736
_cell_formula_units_Z   4
loop_
 _symmetry_equiv_pos_site_id
 _symmetry_equiv_pos_as_xyz
  1  'x, y, z'
loop_
 _atom_site_type_symbol
 _atom_site_label
 _atom_site_symmetry_multiplicity
 _atom_site_fract_x
 _atom_site_fract_y
 _atom_site_fract_z
 _atom_site_occupancy
  Ba  Ba0  1  -0.00000000  -0.00000000  -0.00000000  1
  Ba  Ba1  1  0.50000000  0.50000000  0.50000000  1
  Ba  Ba2  1  0.50000000  -0.00000000  -0.00000000  1
  Ba  Ba3  1  -0.00000000  -0.00000000  0.50000000  1
  Ca  Ca4  1  -0.00000000  0.50000000  0.50000000  1
  Ca  Ca5  1  0.50000000  -0.00000000  0.50000000  1
  Ca  Ca6  1  0.50000000  0.50000000  -0.00000000  1
  Ca  Ca7  1  -0.00000000  0.50000000  -0.00000000  1
  Gd  Gd8  1  0.74754958  0.74404837  0.74952531  1
  Gd  Gd9  1  0.25245042  0.25595163  0.74952531  1
  Gd  Gd10  1  0.25245042  0.74404837  0.25047469  1
  Gd  Gd11  1  0.74754958  0.25595163  0.25047469  1
  Nb  Nb12  1  0.24859933  0.25675174  0.25177725  1
  Nb  Nb13  1  0.75140067  0.74324826  0.25177725  1
  Nb  Nb14  1  0.75140067  0.25675174  0.74822275  1
  Nb  Nb15  1  0.24859933  0.74324826  0.74822275  1
  O  O16  1  0.01371151  0.22489081  0.27844536  1
  O  O17  1  0.98628849  0.77510919  0.27844536  1
  O  O18  1  0.98628849  0.22489081  0.72155464  1
  O  O19  1  0.01371151  0.77510919  0.72155464  1
  O  O20  1  0.27229278  0.01722677  0.21957366  1
  O  O21  1  0.27229278  0.98277323  0.78042634  1
  O  O22  1  0.72770722  0.98277323  0.21957366  1
  O  O23  1  0.72770722  0.01722677  0.78042634  1
  O  O24  1  0.20719070  0.29695148  0.01535138  1
  O  O25  1  0.79280930  0.29695148  0.98464862  1
  O  O26  1  0.20719070  0.70304852  0.98464862  1
  O  O27  1  0.79280930  0.70304852  0.01535138  1
  O  O28  1  0.48126826  0.30287784  0.20197111  1
  O  O29  1  0.51873174  0.69712216  0.20197111  1
  O  O30  1  0.51873174  0.30287784  0.79802889  1
  O  O31  1  0.48126826  0.69712216  0.79802889  1
  O  O32  1  0.20783512  0.48484985  0.31025865  1
  O  O33  1  0.20783512  0.51515015  0.68974135  1
  O  O34  1  0.79216488  0.51515015  0.31025865  1
  O  O35  1  0.79216488  0.48484985  0.68974135  1
  O  O36  1  0.30404369  0.21052088  0.48287505  1
  O  O37  1  0.69595631  0.21052088  0.51712495  1
  O  O38  1  0.30404369  0.78947912  0.51712495  1
  O  O39  1  0.69595631  0.78947912  0.48287505  1
