# generated using pymatgen
data_Sr2DyNbO6
_symmetry_space_group_name_H-M   'P 1'
_cell_length_a   8.37933984
_cell_length_b   8.37933984
_cell_length_c   8.37933984
_cell_angle_alpha   90.00000000
_cell_angle_beta   90.00000000
_cell_angle_gamma   90.00000000
_symmetry_Int_Tables_number   1
_chemical_formula_structural   Sr2DyNbO6
_chemical_formula_sum   'Sr8 Dy4 Nb4 O24'
_cell_volume   588.34140494
_cell_formula_units_Z   4
loop_
 _symmetry_equiv_pos_site_id
 _symmetry_equiv_pos_as_xyz
  1  'x, y, z'
loop_
 _atom_site_type_symbol
 _atom_site_label
 _atom_site_symmetry_multiplicity
 _atom_site_fract_x
 _atom_site_fract_y
 _atom_site_fract_z
 _atom_site_occupancy
  Sr  Sr0  1  0.50000000  0.50000000  0.50000000  1
  Sr  Sr1  1  0.00000000  -0.00000000  0.00000000  1
  Sr  Sr2  1  0.00000000  -0.00000000  0.50000000  1
  Sr  Sr3  1  0.00000000  0.50000000  -0.00000000  1
  Sr  Sr4  1  0.50000000  -0.00000000  -0.00000000  1
  Sr  Sr5  1  0.50000000  0.50000000  -0.00000000  1
  Sr  Sr6  1  0.50000000  -0.00000000  0.50000000  1
  Sr  Sr7  1  0.00000000  0.50000000  0.50000000  1
  Dy  Dy8  1  0.75000000  0.75000000  0.75000000  1
  Dy  Dy9  1  0.75000000  0.25000000  0.25000000  1
  Dy  Dy10  1  0.25000000  0.75000000  0.25000000  1
  Dy  Dy11  1  0.25000000  0.25000000  0.75000000  1
  Nb  Nb12  1  0.25000000  0.25000000  0.25000000  1
  Nb  Nb13  1  0.25000000  0.75000000  0.75000000  1
  Nb  Nb14  1  0.75000000  0.25000000  0.75000000  1
  Nb  Nb15  1  0.75000000  0.75000000  0.25000000  1
  O  O16  1  0.21752508  0.28956536  0.48645070  1
  O  O17  1  0.21752508  0.71043464  0.51354930  1
  O  O18  1  0.78247492  0.28956536  0.51354930  1
  O  O19  1  0.78247492  0.71043464  0.48645070  1
  O  O20  1  0.28956536  0.48645070  0.21752508  1
  O  O21  1  0.71043464  0.51354930  0.21752508  1
  O  O22  1  0.28956536  0.51354930  0.78247492  1
  O  O23  1  0.71043464  0.48645070  0.78247492  1
  O  O24  1  0.48645070  0.21752508  0.28956536  1
  O  O25  1  0.51354930  0.21752508  0.71043464  1
  O  O26  1  0.51354930  0.78247492  0.28956536  1
  O  O27  1  0.48645070  0.78247492  0.71043464  1
  O  O28  1  0.28247492  0.21043464  0.01354930  1
  O  O29  1  0.28247492  0.78956536  0.98645070  1
  O  O30  1  0.71752508  0.21043464  0.98645070  1
  O  O31  1  0.71752508  0.78956536  0.01354930  1
  O  O32  1  0.21043464  0.01354930  0.28247492  1
  O  O33  1  0.78956536  0.98645070  0.28247492  1
  O  O34  1  0.21043464  0.98645070  0.71752508  1
  O  O35  1  0.78956536  0.01354930  0.71752508  1
  O  O36  1  0.01354930  0.28247492  0.21043464  1
  O  O37  1  0.98645070  0.28247492  0.78956536  1
  O  O38  1  0.98645070  0.71752508  0.21043464  1
  O  O39  1  0.01354930  0.71752508  0.78956536  1
