# generated using pymatgen
data_BaSrSmMnO6
_symmetry_space_group_name_H-M   'P 1'
_cell_length_a   5.93312163
_cell_length_b   5.93678450
_cell_length_c   8.39399077
_cell_angle_alpha   90.60793505
_cell_angle_beta   89.59787674
_cell_angle_gamma   89.92095639
_symmetry_Int_Tables_number   1
_chemical_formula_structural   BaSrSmMnO6
_chemical_formula_sum   'Ba2 Sr2 Sm2 Mn2 O12'
_cell_volume   295.64287736
_cell_formula_units_Z   2
loop_
 _symmetry_equiv_pos_site_id
 _symmetry_equiv_pos_as_xyz
  1  'x, y, z'
loop_
 _atom_site_type_symbol
 _atom_site_label
 _atom_site_symmetry_multiplicity
 _atom_site_fract_x
 _atom_site_fract_y
 _atom_site_fract_z
 _atom_site_occupancy
  Ba  Ba0  1  0.99781174  0.01084470  0.25048707  1
  Ba  Ba1  1  0.00218826  0.98915530  0.74951293  1
  Sr  Sr2  1  0.50463244  0.52544343  0.25296472  1
  Sr  Sr3  1  0.49536756  0.47455657  0.74703528  1
  Sm  Sm4  1  0.50000000  -0.00000000  0.00000000  1
  Sm  Sm5  1  0.00000000  0.50000000  0.50000000  1
  Mn  Mn6  1  0.00000000  0.50000000  0.00000000  1
  Mn  Mn7  1  0.50000000  -0.00000000  0.50000000  1
  O  O8  1  0.21443696  0.25704731  0.97701796  1
  O  O9  1  0.29566458  0.74555042  0.52549215  1
  O  O10  1  0.78556304  0.74295269  0.02298204  1
  O  O11  1  0.70433542  0.25444958  0.47450785  1
  O  O12  1  0.24907427  0.70887239  0.97126852  1
  O  O13  1  0.25358052  0.21226332  0.51642683  1
  O  O14  1  0.75092573  0.29112761  0.02873148  1
  O  O15  1  0.74641948  0.78773668  0.48357317  1
  O  O16  1  0.46517535  0.97809154  0.27113607  1
  O  O17  1  0.05355027  0.50480694  0.22810915  1
  O  O18  1  0.53482465  0.02190846  0.72886393  1
  O  O19  1  0.94644973  0.49519306  0.77189085  1
