# generated using pymatgen
data_BaEu(GeO3)4
_symmetry_space_group_name_H-M   'P 1'
_cell_length_a   6.26090060
_cell_length_b   6.26090060
_cell_length_c   8.82354508
_cell_angle_alpha   90.00000000
_cell_angle_beta   90.00000000
_cell_angle_gamma   90.00000000
_symmetry_Int_Tables_number   1
_chemical_formula_structural   BaEu(GeO3)4
_chemical_formula_sum   'Ba1 Eu1 Ge4 O12'
_cell_volume   345.87305232
_cell_formula_units_Z   1
loop_
 _symmetry_equiv_pos_site_id
 _symmetry_equiv_pos_as_xyz
  1  'x, y, z'
loop_
 _atom_site_type_symbol
 _atom_site_label
 _atom_site_symmetry_multiplicity
 _atom_site_fract_x
 _atom_site_fract_y
 _atom_site_fract_z
 _atom_site_occupancy
  Ba  Ba0  1  0.50000000  0.50000000  0.00000000  1
  Eu  Eu1  1  -0.00000000  -0.00000000  0.50000000  1
  Ge  Ge2  1  0.00000000  0.50000000  0.74992920  1
  Ge  Ge3  1  -0.00000000  0.50000000  0.25007080  1
  Ge  Ge4  1  0.50000000  0.00000000  0.74992920  1
  Ge  Ge5  1  0.50000000  -0.00000000  0.25007080  1
  O  O6  1  0.23849910  0.23849910  0.73532847  1
  O  O7  1  0.23849910  0.23849910  0.26467153  1
  O  O8  1  0.76150090  0.76150090  0.26467153  1
  O  O9  1  0.76150090  0.76150090  0.73532847  1
  O  O10  1  0.76150090  0.23849910  0.73532847  1
  O  O11  1  0.76150090  0.23849910  0.26467153  1
  O  O12  1  0.23849910  0.76150090  0.26467153  1
  O  O13  1  0.23849910  0.76150090  0.73532847  1
  O  O14  1  -0.00000000  0.50000000  0.50000000  1
  O  O15  1  0.00000000  0.50000000  0.00000000  1
  O  O16  1  0.50000000  -0.00000000  0.50000000  1
  O  O17  1  0.50000000  -0.00000000  0.00000000  1
