# generated using pymatgen
data_Ba2LaVO6
_symmetry_space_group_name_H-M   'P 1'
_cell_length_a   8.55637602
_cell_length_b   8.55637602
_cell_length_c   8.55637602
_cell_angle_alpha   90.00000000
_cell_angle_beta   90.00000000
_cell_angle_gamma   90.00000000
_symmetry_Int_Tables_number   1
_chemical_formula_structural   Ba2LaVO6
_chemical_formula_sum   'Ba8 La4 V4 O24'
_cell_volume   626.42572703
_cell_formula_units_Z   4
loop_
 _symmetry_equiv_pos_site_id
 _symmetry_equiv_pos_as_xyz
  1  'x, y, z'
loop_
 _atom_site_type_symbol
 _atom_site_label
 _atom_site_symmetry_multiplicity
 _atom_site_fract_x
 _atom_site_fract_y
 _atom_site_fract_z
 _atom_site_occupancy
  Ba  Ba0  1  0.50000000  0.50000000  0.50000000  1
  Ba  Ba1  1  0.00000000  0.00000000  0.00000000  1
  Ba  Ba2  1  0.00000000  0.00000000  0.50000000  1
  Ba  Ba3  1  0.00000000  0.50000000  0.00000000  1
  Ba  Ba4  1  0.50000000  0.00000000  0.00000000  1
  Ba  Ba5  1  0.50000000  0.50000000  0.00000000  1
  Ba  Ba6  1  0.50000000  0.00000000  0.50000000  1
  Ba  Ba7  1  0.00000000  0.50000000  0.50000000  1
  La  La8  1  0.75000000  0.75000000  0.75000000  1
  La  La9  1  0.75000000  0.25000000  0.25000000  1
  La  La10  1  0.25000000  0.75000000  0.25000000  1
  La  La11  1  0.25000000  0.25000000  0.75000000  1
  V  V12  1  0.25000000  0.25000000  0.25000000  1
  V  V13  1  0.25000000  0.75000000  0.75000000  1
  V  V14  1  0.75000000  0.25000000  0.75000000  1
  V  V15  1  0.75000000  0.75000000  0.25000000  1
  O  O16  1  0.23344630  0.26825883  0.47341565  1
  O  O17  1  0.23344630  0.73174117  0.52658435  1
  O  O18  1  0.76655370  0.26825883  0.52658435  1
  O  O19  1  0.76655370  0.73174117  0.47341565  1
  O  O20  1  0.26825883  0.47341565  0.23344630  1
  O  O21  1  0.73174117  0.52658435  0.23344630  1
  O  O22  1  0.26825883  0.52658435  0.76655370  1
  O  O23  1  0.73174117  0.47341565  0.76655370  1
  O  O24  1  0.47341565  0.23344630  0.26825883  1
  O  O25  1  0.52658435  0.23344630  0.73174117  1
  O  O26  1  0.52658435  0.76655370  0.26825883  1
  O  O27  1  0.47341565  0.76655370  0.73174117  1
  O  O28  1  0.26655370  0.23174117  0.02658435  1
  O  O29  1  0.26655370  0.76825883  0.97341565  1
  O  O30  1  0.73344630  0.23174117  0.97341565  1
  O  O31  1  0.73344630  0.76825883  0.02658435  1
  O  O32  1  0.23174117  0.02658435  0.26655370  1
  O  O33  1  0.76825883  0.97341565  0.26655370  1
  O  O34  1  0.23174117  0.97341565  0.73344630  1
  O  O35  1  0.76825883  0.02658435  0.73344630  1
  O  O36  1  0.02658435  0.26655370  0.23174117  1
  O  O37  1  0.97341565  0.26655370  0.76825883  1
  O  O38  1  0.97341565  0.73344630  0.23174117  1
  O  O39  1  0.02658435  0.73344630  0.76825883  1
