# generated using pymatgen
data_NaLaCr4O12
_symmetry_space_group_name_H-M   'P 1'
_cell_length_a   5.28196246
_cell_length_b   5.28196246
_cell_length_c   7.53445834
_cell_angle_alpha   90.00000000
_cell_angle_beta   90.00000000
_cell_angle_gamma   92.45448426
_symmetry_Int_Tables_number   1
_chemical_formula_structural   NaLaCr4O12
_chemical_formula_sum   'Na1 La1 Cr4 O12'
_cell_volume   210.01196268
_cell_formula_units_Z   1
loop_
 _symmetry_equiv_pos_site_id
 _symmetry_equiv_pos_as_xyz
  1  'x, y, z'
loop_
 _atom_site_type_symbol
 _atom_site_label
 _atom_site_symmetry_multiplicity
 _atom_site_fract_x
 _atom_site_fract_y
 _atom_site_fract_z
 _atom_site_occupancy
  Na  Na0  1  0.00838013  0.99161987  0.50000000  1
  La  La1  1  0.48068560  0.51931440  -0.00000000  1
  Cr  Cr2  1  0.48835316  0.01895986  0.25984304  1
  Cr  Cr3  1  0.48835316  0.01895986  0.74015696  1
  Cr  Cr4  1  0.98104014  0.51164684  0.74015696  1
  Cr  Cr5  1  0.98104014  0.51164684  0.25984304  1
  O  O6  1  0.29258584  0.28203768  0.25296280  1
  O  O7  1  0.71796232  0.70741416  0.25296280  1
  O  O8  1  0.71796232  0.70741416  0.74703720  1
  O  O9  1  0.29258584  0.28203768  0.74703720  1
  O  O10  1  0.22758569  0.77241431  0.21006310  1
  O  O11  1  0.78902290  0.21097710  0.28940902  1
  O  O12  1  0.78902290  0.21097710  0.71059098  1
  O  O13  1  0.22758569  0.77241431  0.78993690  1
  O  O14  1  0.54008870  0.02817670  -0.00000000  1
  O  O15  1  0.45532357  0.95930140  0.50000000  1
  O  O16  1  0.97182330  0.45991130  0.00000000  1
  O  O17  1  0.04069860  0.54467643  0.50000000  1
