# generated using pymatgen
data_SrEuGdGeO6
_symmetry_space_group_name_H-M   'P 1'
_cell_length_a   8.23683433
_cell_length_b   8.18047151
_cell_length_c   8.16736310
_cell_angle_alpha   90.00000000
_cell_angle_beta   90.00000000
_cell_angle_gamma   90.00000000
_symmetry_Int_Tables_number   1
_chemical_formula_structural   SrEuGdGeO6
_chemical_formula_sum   'Sr4 Eu4 Gd4 Ge4 O24'
_cell_volume   550.32663315
_cell_formula_units_Z   4
loop_
 _symmetry_equiv_pos_site_id
 _symmetry_equiv_pos_as_xyz
  1  'x, y, z'
loop_
 _atom_site_type_symbol
 _atom_site_label
 _atom_site_symmetry_multiplicity
 _atom_site_fract_x
 _atom_site_fract_y
 _atom_site_fract_z
 _atom_site_occupancy
  Sr  Sr0  1  -0.00000000  0.50000000  0.50000000  1
  Sr  Sr1  1  0.50000000  -0.00000000  0.50000000  1
  Sr  Sr2  1  0.50000000  -0.00000000  0.00000000  1
  Sr  Sr3  1  -0.00000000  0.50000000  0.00000000  1
  Eu  Eu4  1  0.50000000  0.50000000  0.00000000  1
  Eu  Eu5  1  -0.00000000  -0.00000000  0.50000000  1
  Eu  Eu6  1  -0.00000000  -0.00000000  0.00000000  1
  Eu  Eu7  1  0.50000000  0.50000000  0.50000000  1
  Gd  Gd8  1  0.75000000  0.75000000  0.75000000  1
  Gd  Gd9  1  0.25000000  0.25000000  0.75000000  1
  Gd  Gd10  1  0.25000000  0.75000000  0.25000000  1
  Gd  Gd11  1  0.75000000  0.25000000  0.25000000  1
  Ge  Ge12  1  0.25000000  0.25000000  0.25000000  1
  Ge  Ge13  1  0.75000000  0.75000000  0.25000000  1
  Ge  Ge14  1  0.75000000  0.25000000  0.75000000  1
  Ge  Ge15  1  0.25000000  0.75000000  0.75000000  1
  O  O16  1  0.01882317  0.20429286  0.28451881  1
  O  O17  1  0.98117683  0.79570714  0.28451881  1
  O  O18  1  0.98117683  0.20429286  0.71548119  1
  O  O19  1  0.01882317  0.79570714  0.71548119  1
  O  O20  1  0.27872428  0.01995311  0.21776011  1
  O  O21  1  0.27872428  0.98004689  0.78223989  1
  O  O22  1  0.72127572  0.98004689  0.21776011  1
  O  O23  1  0.72127572  0.01995311  0.78223989  1
  O  O24  1  0.21162361  0.27448294  0.02012457  1
  O  O25  1  0.78837639  0.27448294  0.97987543  1
  O  O26  1  0.21162361  0.72551706  0.97987543  1
  O  O27  1  0.78837639  0.72551706  0.02012457  1
  O  O28  1  0.48117683  0.29570714  0.21548119  1
  O  O29  1  0.51882317  0.70429286  0.21548119  1
  O  O30  1  0.51882317  0.29570714  0.78451881  1
  O  O31  1  0.48117683  0.70429286  0.78451881  1
  O  O32  1  0.22127572  0.48004689  0.28223989  1
  O  O33  1  0.22127572  0.51995311  0.71776011  1
  O  O34  1  0.77872428  0.51995311  0.28223989  1
  O  O35  1  0.77872428  0.48004689  0.71776011  1
  O  O36  1  0.28837639  0.22551706  0.47987543  1
  O  O37  1  0.71162361  0.22551706  0.52012457  1
  O  O38  1  0.28837639  0.77448294  0.52012457  1
  O  O39  1  0.71162361  0.77448294  0.47987543  1
