# generated using pymatgen
data_BaSrTbZrO6
_symmetry_space_group_name_H-M   'P 1'
_cell_length_a   8.59544914
_cell_length_b   8.59974623
_cell_length_c   8.63812244
_cell_angle_alpha   90.00000000
_cell_angle_beta   90.00000000
_cell_angle_gamma   90.00000000
_symmetry_Int_Tables_number   1
_chemical_formula_structural   BaSrTbZrO6
_chemical_formula_sum   'Ba4 Sr4 Tb4 Zr4 O24'
_cell_volume   638.51861999
_cell_formula_units_Z   4
loop_
 _symmetry_equiv_pos_site_id
 _symmetry_equiv_pos_as_xyz
  1  'x, y, z'
loop_
 _atom_site_type_symbol
 _atom_site_label
 _atom_site_symmetry_multiplicity
 _atom_site_fract_x
 _atom_site_fract_y
 _atom_site_fract_z
 _atom_site_occupancy
  Ba  Ba0  1  -0.00000000  -0.00000000  -0.00000000  1
  Ba  Ba1  1  0.50000000  0.50000000  0.50000000  1
  Ba  Ba2  1  0.50000000  -0.00000000  0.50000000  1
  Ba  Ba3  1  0.50000000  -0.00000000  -0.00000000  1
  Sr  Sr4  1  -0.00000000  0.50000000  0.50000000  1
  Sr  Sr5  1  0.50000000  0.50000000  -0.00000000  1
  Sr  Sr6  1  -0.00000000  0.50000000  -0.00000000  1
  Sr  Sr7  1  -0.00000000  -0.00000000  0.50000000  1
  Tb  Tb8  1  0.75234138  0.74698166  0.75126335  1
  Tb  Tb9  1  0.24765862  0.25301834  0.75126335  1
  Tb  Tb10  1  0.24765862  0.74698166  0.24873665  1
  Tb  Tb11  1  0.75234138  0.25301834  0.24873665  1
  Zr  Zr12  1  0.24694467  0.25534619  0.24762465  1
  Zr  Zr13  1  0.75305533  0.74465381  0.24762465  1
  Zr  Zr14  1  0.75305533  0.25534619  0.75237535  1
  Zr  Zr15  1  0.24694467  0.74465381  0.75237535  1
  O  O16  1  0.00850002  0.20877058  0.28709028  1
  O  O17  1  0.99149998  0.79122942  0.28709028  1
  O  O18  1  0.99149998  0.20877058  0.71290972  1
  O  O19  1  0.00850002  0.79122942  0.71290972  1
  O  O20  1  0.27444755  0.00959400  0.21935332  1
  O  O21  1  0.27444755  0.99040600  0.78064668  1
  O  O22  1  0.72555245  0.99040600  0.21935332  1
  O  O23  1  0.72555245  0.00959400  0.78064668  1
  O  O24  1  0.20867803  0.28842871  0.00901588  1
  O  O25  1  0.79132197  0.28842871  0.99098412  1
  O  O26  1  0.20867803  0.71157129  0.99098412  1
  O  O27  1  0.79132197  0.71157129  0.00901588  1
  O  O28  1  0.49076650  0.28937511  0.21643861  1
  O  O29  1  0.50923350  0.71062489  0.21643861  1
  O  O30  1  0.50923350  0.28937511  0.78356139  1
  O  O31  1  0.49076650  0.71062489  0.78356139  1
  O  O32  1  0.20724257  0.49178167  0.29127967  1
  O  O33  1  0.20724257  0.50821833  0.70872033  1
  O  O34  1  0.79275743  0.50821833  0.29127967  1
  O  O35  1  0.79275743  0.49178167  0.70872033  1
  O  O36  1  0.28197732  0.22562035  0.49105057  1
  O  O37  1  0.71802268  0.22562035  0.50894943  1
  O  O38  1  0.28197732  0.77437965  0.50894943  1
  O  O39  1  0.71802268  0.77437965  0.49105057  1
