# generated using pymatgen
data_Eu2NbBiO6
_symmetry_space_group_name_H-M   'P 1'
_cell_length_a   8.52339371
_cell_length_b   8.52339371
_cell_length_c   8.52339371
_cell_angle_alpha   90.00000000
_cell_angle_beta   90.00000000
_cell_angle_gamma   90.00000000
_symmetry_Int_Tables_number   1
_chemical_formula_structural   Eu2NbBiO6
_chemical_formula_sum   'Eu8 Nb4 Bi4 O24'
_cell_volume   619.20955472
_cell_formula_units_Z   4
loop_
 _symmetry_equiv_pos_site_id
 _symmetry_equiv_pos_as_xyz
  1  'x, y, z'
loop_
 _atom_site_type_symbol
 _atom_site_label
 _atom_site_symmetry_multiplicity
 _atom_site_fract_x
 _atom_site_fract_y
 _atom_site_fract_z
 _atom_site_occupancy
  Eu  Eu0  1  0.50000000  0.50000000  0.50000000  1
  Eu  Eu1  1  -0.00000000  0.00000000  -0.00000000  1
  Eu  Eu2  1  -0.00000000  0.00000000  0.50000000  1
  Eu  Eu3  1  -0.00000000  0.50000000  -0.00000000  1
  Eu  Eu4  1  0.50000000  0.00000000  -0.00000000  1
  Eu  Eu5  1  0.50000000  0.50000000  -0.00000000  1
  Eu  Eu6  1  0.50000000  0.00000000  0.50000000  1
  Eu  Eu7  1  -0.00000000  0.50000000  0.50000000  1
  Nb  Nb8  1  0.25000000  0.25000000  0.25000000  1
  Nb  Nb9  1  0.25000000  0.75000000  0.75000000  1
  Nb  Nb10  1  0.75000000  0.25000000  0.75000000  1
  Nb  Nb11  1  0.75000000  0.75000000  0.25000000  1
  Bi  Bi12  1  0.75000000  0.75000000  0.75000000  1
  Bi  Bi13  1  0.75000000  0.25000000  0.25000000  1
  Bi  Bi14  1  0.25000000  0.75000000  0.25000000  1
  Bi  Bi15  1  0.25000000  0.25000000  0.75000000  1
  O  O16  1  0.20990095  0.29845441  0.48046827  1
  O  O17  1  0.20990095  0.70154559  0.51953173  1
  O  O18  1  0.79009905  0.29845441  0.51953173  1
  O  O19  1  0.79009905  0.70154559  0.48046827  1
  O  O20  1  0.29845441  0.48046827  0.20990095  1
  O  O21  1  0.70154559  0.51953173  0.20990095  1
  O  O22  1  0.29845441  0.51953173  0.79009905  1
  O  O23  1  0.70154559  0.48046827  0.79009905  1
  O  O24  1  0.48046827  0.20990095  0.29845441  1
  O  O25  1  0.51953173  0.20990095  0.70154559  1
  O  O26  1  0.51953173  0.79009905  0.29845441  1
  O  O27  1  0.48046827  0.79009905  0.70154559  1
  O  O28  1  0.29009905  0.20154559  0.01953173  1
  O  O29  1  0.29009905  0.79845441  0.98046827  1
  O  O30  1  0.70990095  0.20154559  0.98046827  1
  O  O31  1  0.70990095  0.79845441  0.01953173  1
  O  O32  1  0.20154559  0.01953173  0.29009905  1
  O  O33  1  0.79845441  0.98046827  0.29009905  1
  O  O34  1  0.20154559  0.98046827  0.70990095  1
  O  O35  1  0.79845441  0.01953173  0.70990095  1
  O  O36  1  0.01953173  0.29009905  0.20154559  1
  O  O37  1  0.98046827  0.29009905  0.79845441  1
  O  O38  1  0.98046827  0.70990095  0.20154559  1
  O  O39  1  0.01953173  0.70990095  0.79845441  1
