# generated using pymatgen
data_BaCaCeZrO6
_symmetry_space_group_name_H-M   'P 1'
_cell_length_a   8.51626562
_cell_length_b   8.55468822
_cell_length_c   8.53205127
_cell_angle_alpha   90.00000000
_cell_angle_beta   90.00000000
_cell_angle_gamma   90.00000000
_symmetry_Int_Tables_number   1
_chemical_formula_structural   BaCaCeZrO6
_chemical_formula_sum   'Ba4 Ca4 Ce4 Zr4 O24'
_cell_volume   621.59403915
_cell_formula_units_Z   4
loop_
 _symmetry_equiv_pos_site_id
 _symmetry_equiv_pos_as_xyz
  1  'x, y, z'
loop_
 _atom_site_type_symbol
 _atom_site_label
 _atom_site_symmetry_multiplicity
 _atom_site_fract_x
 _atom_site_fract_y
 _atom_site_fract_z
 _atom_site_occupancy
  Ba  Ba0  1  0.00000000  0.00000000  0.00000000  1
  Ba  Ba1  1  0.50000000  0.50000000  0.50000000  1
  Ba  Ba2  1  0.00000000  0.50000000  0.00000000  1
  Ba  Ba3  1  0.00000000  0.00000000  0.50000000  1
  Ca  Ca4  1  0.00000000  0.50000000  0.50000000  1
  Ca  Ca5  1  0.50000000  0.00000000  0.50000000  1
  Ca  Ca6  1  0.50000000  0.50000000  0.00000000  1
  Ca  Ca7  1  0.50000000  0.00000000  0.00000000  1
  Ce  Ce8  1  0.74405261  0.74874649  0.74877647  1
  Ce  Ce9  1  0.25594739  0.25125351  0.74877647  1
  Ce  Ce10  1  0.25594739  0.74874649  0.25122353  1
  Ce  Ce11  1  0.74405261  0.25125351  0.25122353  1
  Zr  Zr12  1  0.25633965  0.25113138  0.25029351  1
  Zr  Zr13  1  0.74366035  0.74886862  0.25029351  1
  Zr  Zr14  1  0.74366035  0.25113138  0.74970649  1
  Zr  Zr15  1  0.25633965  0.74886862  0.74970649  1
  O  O16  1  0.00833160  0.21496602  0.27387040  1
  O  O17  1  0.99166840  0.78503398  0.27387040  1
  O  O18  1  0.99166840  0.21496602  0.72612960  1
  O  O19  1  0.00833160  0.78503398  0.72612960  1
  O  O20  1  0.30035736  0.00726256  0.20366000  1
  O  O21  1  0.30035736  0.99273744  0.79634000  1
  O  O22  1  0.69964264  0.99273744  0.20366000  1
  O  O23  1  0.69964264  0.00726256  0.79634000  1
  O  O24  1  0.22271382  0.28281655  0.00561411  1
  O  O25  1  0.77728618  0.28281655  0.99438589  1
  O  O26  1  0.22271382  0.71718345  0.99438589  1
  O  O27  1  0.77728618  0.71718345  0.00561411  1
  O  O28  1  0.49351849  0.31296345  0.20819817  1
  O  O29  1  0.50648151  0.68703655  0.20819817  1
  O  O30  1  0.50648151  0.31296345  0.79180183  1
  O  O31  1  0.49351849  0.68703655  0.79180183  1
  O  O32  1  0.20854424  0.49209640  0.30707430  1
  O  O33  1  0.20854424  0.50790360  0.69292570  1
  O  O34  1  0.79145576  0.50790360  0.30707430  1
  O  O35  1  0.79145576  0.49209640  0.69292570  1
  O  O36  1  0.30415803  0.20076880  0.49138026  1
  O  O37  1  0.69584197  0.20076880  0.50861974  1
  O  O38  1  0.30415803  0.79923120  0.50861974  1
  O  O39  1  0.69584197  0.79923120  0.49138026  1
