# generated using pymatgen
data_BaCaInBiO6
_symmetry_space_group_name_H-M   'P 1'
_cell_length_a   8.43323021
_cell_length_b   8.44969084
_cell_length_c   8.42115740
_cell_angle_alpha   90.00000000
_cell_angle_beta   90.00000000
_cell_angle_gamma   90.00000000
_symmetry_Int_Tables_number   1
_chemical_formula_structural   BaCaInBiO6
_chemical_formula_sum   'Ba4 Ca4 In4 Bi4 O24'
_cell_volume   600.07641767
_cell_formula_units_Z   4
loop_
 _symmetry_equiv_pos_site_id
 _symmetry_equiv_pos_as_xyz
  1  'x, y, z'
loop_
 _atom_site_type_symbol
 _atom_site_label
 _atom_site_symmetry_multiplicity
 _atom_site_fract_x
 _atom_site_fract_y
 _atom_site_fract_z
 _atom_site_occupancy
  Ba  Ba0  1  -0.00000000  0.00000000  0.00000000  1
  Ba  Ba1  1  0.50000000  0.50000000  0.50000000  1
  Ba  Ba2  1  0.50000000  0.50000000  -0.00000000  1
  Ba  Ba3  1  -0.00000000  -0.00000000  0.50000000  1
  Ca  Ca4  1  -0.00000000  0.50000000  0.50000000  1
  Ca  Ca5  1  0.50000000  0.00000000  0.50000000  1
  Ca  Ca6  1  0.50000000  0.00000000  0.00000000  1
  Ca  Ca7  1  -0.00000000  0.50000000  0.00000000  1
  In  In8  1  0.25000000  0.25000000  0.25000000  1
  In  In9  1  0.75000000  0.75000000  0.25000000  1
  In  In10  1  0.75000000  0.25000000  0.75000000  1
  In  In11  1  0.25000000  0.75000000  0.75000000  1
  Bi  Bi12  1  0.75000000  0.75000000  0.75000000  1
  Bi  Bi13  1  0.25000000  0.25000000  0.75000000  1
  Bi  Bi14  1  0.25000000  0.75000000  0.25000000  1
  Bi  Bi15  1  0.75000000  0.25000000  0.25000000  1
  O  O16  1  0.99845271  0.21958774  0.28079614  1
  O  O17  1  0.00154729  0.78041226  0.28079614  1
  O  O18  1  0.00154729  0.21958774  0.71920386  1
  O  O19  1  0.99845271  0.78041226  0.71920386  1
  O  O20  1  0.28703832  0.99657387  0.19290569  1
  O  O21  1  0.28703832  0.00342613  0.80709431  1
  O  O22  1  0.71296168  0.00342613  0.19290569  1
  O  O23  1  0.71296168  0.99657387  0.80709431  1
  O  O24  1  0.20488373  0.30319742  0.99683019  1
  O  O25  1  0.79511627  0.30319742  0.00316981  1
  O  O26  1  0.20488373  0.69680258  0.00316981  1
  O  O27  1  0.79511627  0.69680258  0.99683019  1
  O  O28  1  0.50154729  0.28041226  0.21920386  1
  O  O29  1  0.49845271  0.71958774  0.21920386  1
  O  O30  1  0.49845271  0.28041226  0.78079614  1
  O  O31  1  0.50154729  0.71958774  0.78079614  1
  O  O32  1  0.21296168  0.50342613  0.30709431  1
  O  O33  1  0.21296168  0.49657387  0.69290569  1
  O  O34  1  0.78703832  0.49657387  0.30709431  1
  O  O35  1  0.78703832  0.50342613  0.69290569  1
  O  O36  1  0.29511627  0.19680258  0.50316981  1
  O  O37  1  0.70488373  0.19680258  0.49683019  1
  O  O38  1  0.29511627  0.80319742  0.49683019  1
  O  O39  1  0.70488373  0.80319742  0.50316981  1
