# generated using pymatgen
data_BaSrCeWO6
_symmetry_space_group_name_H-M   'P 1'
_cell_length_a   6.03952001
_cell_length_b   6.06884434
_cell_length_c   8.51196633
_cell_angle_alpha   90.05478749
_cell_angle_beta   90.24352553
_cell_angle_gamma   90.04359540
_symmetry_Int_Tables_number   1
_chemical_formula_structural   BaSrCeWO6
_chemical_formula_sum   'Ba2 Sr2 Ce2 W2 O12'
_cell_volume   311.98525677
_cell_formula_units_Z   2
loop_
 _symmetry_equiv_pos_site_id
 _symmetry_equiv_pos_as_xyz
  1  'x, y, z'
loop_
 _atom_site_type_symbol
 _atom_site_label
 _atom_site_symmetry_multiplicity
 _atom_site_fract_x
 _atom_site_fract_y
 _atom_site_fract_z
 _atom_site_occupancy
  Ba  Ba0  1  0.50736959  0.52590789  0.24969665  1
  Ba  Ba1  1  0.49263041  0.47409211  0.75030335  1
  Sr  Sr2  1  0.99246456  0.03513750  0.25091357  1
  Sr  Sr3  1  0.00753544  0.96486250  0.74908643  1
  Ce  Ce4  1  -0.00000000  0.50000000  -0.00000000  1
  Ce  Ce5  1  0.50000000  0.00000000  0.50000000  1
  W  W6  1  0.50000000  0.00000000  -0.00000000  1
  W  W7  1  -0.00000000  0.50000000  0.50000000  1
  O  O8  1  0.21834107  0.20870390  0.96052892  1
  O  O9  1  0.27307745  0.71902710  0.53229454  1
  O  O10  1  0.78165893  0.79129610  0.03947108  1
  O  O11  1  0.72692255  0.28097290  0.46770546  1
  O  O12  1  0.29068708  0.73471305  0.96516635  1
  O  O13  1  0.19837348  0.22558597  0.53869713  1
  O  O14  1  0.70931292  0.26528695  0.03483365  1
  O  O15  1  0.80162652  0.77441403  0.46130287  1
  O  O16  1  0.42047856  0.99722306  0.23708014  1
  O  O17  1  0.05857893  0.47253120  0.26225453  1
  O  O18  1  0.57952144  0.00277694  0.76291986  1
  O  O19  1  0.94142107  0.52746880  0.73774547  1
