# generated using pymatgen
data_BaCaEuNbO6
_symmetry_space_group_name_H-M   'P 1'
_cell_length_a   5.94591308
_cell_length_b   6.03366340
_cell_length_c   8.47359780
_cell_angle_alpha   90.70629713
_cell_angle_beta   90.58030477
_cell_angle_gamma   90.38149261
_symmetry_Int_Tables_number   1
_chemical_formula_structural   BaCaEuNbO6
_chemical_formula_sum   'Ba2 Ca2 Eu2 Nb2 O12'
_cell_volume   303.95004548
_cell_formula_units_Z   2
loop_
 _symmetry_equiv_pos_site_id
 _symmetry_equiv_pos_as_xyz
  1  'x, y, z'
loop_
 _atom_site_type_symbol
 _atom_site_label
 _atom_site_symmetry_multiplicity
 _atom_site_fract_x
 _atom_site_fract_y
 _atom_site_fract_z
 _atom_site_occupancy
  Ba  Ba0  1  0.50572916  0.53432452  0.25098416  1
  Ba  Ba1  1  0.49427084  0.46567548  0.74901584  1
  Ca  Ca2  1  0.99030517  0.04507428  0.25433599  1
  Ca  Ca3  1  0.00969483  0.95492572  0.74566401  1
  Eu  Eu4  1  0.00000000  0.50000000  0.00000000  1
  Eu  Eu5  1  0.50000000  0.00000000  0.50000000  1
  Nb  Nb6  1  0.50000000  0.00000000  0.00000000  1
  Nb  Nb7  1  0.00000000  0.50000000  0.50000000  1
  O  O8  1  0.22654590  0.18660186  0.93997681  1
  O  O9  1  0.27330203  0.69464786  0.53211981  1
  O  O10  1  0.77345410  0.81339814  0.06002319  1
  O  O11  1  0.72669797  0.30535214  0.46788019  1
  O  O12  1  0.30689806  0.72935778  0.95763890  1
  O  O13  1  0.18060614  0.21993971  0.55347875  1
  O  O14  1  0.69310194  0.27064222  0.04236110  1
  O  O15  1  0.81939386  0.78006029  0.44652125  1
  O  O16  1  0.39169827  0.99686242  0.23062498  1
  O  O17  1  0.06675576  0.44532400  0.26791337  1
  O  O18  1  0.60830173  0.00313758  0.76937502  1
  O  O19  1  0.93324424  0.55467600  0.73208663  1
