# generated using pymatgen
data_Na2EuMnO6
_symmetry_space_group_name_H-M   'P 1'
_cell_length_a   8.94348013
_cell_length_b   8.94348013
_cell_length_c   8.94348013
_cell_angle_alpha   90.00000000
_cell_angle_beta   90.00000000
_cell_angle_gamma   90.00000000
_symmetry_Int_Tables_number   1
_chemical_formula_structural   Na2EuMnO6
_chemical_formula_sum   'Na8 Eu4 Mn4 O24'
_cell_volume   715.35174242
_cell_formula_units_Z   4
loop_
 _symmetry_equiv_pos_site_id
 _symmetry_equiv_pos_as_xyz
  1  'x, y, z'
loop_
 _atom_site_type_symbol
 _atom_site_label
 _atom_site_symmetry_multiplicity
 _atom_site_fract_x
 _atom_site_fract_y
 _atom_site_fract_z
 _atom_site_occupancy
  Na  Na0  1  0.50000000  0.50000000  0.50000000  1
  Na  Na1  1  -0.00000000  -0.00000000  0.00000000  1
  Na  Na2  1  -0.00000000  -0.00000000  0.50000000  1
  Na  Na3  1  -0.00000000  0.50000000  0.00000000  1
  Na  Na4  1  0.50000000  -0.00000000  0.00000000  1
  Na  Na5  1  0.50000000  0.50000000  0.00000000  1
  Na  Na6  1  0.50000000  -0.00000000  0.50000000  1
  Na  Na7  1  -0.00000000  0.50000000  0.50000000  1
  Eu  Eu8  1  0.75000000  0.75000000  0.75000000  1
  Eu  Eu9  1  0.75000000  0.25000000  0.25000000  1
  Eu  Eu10  1  0.25000000  0.75000000  0.25000000  1
  Eu  Eu11  1  0.25000000  0.25000000  0.75000000  1
  Mn  Mn12  1  0.25000000  0.25000000  0.25000000  1
  Mn  Mn13  1  0.25000000  0.75000000  0.75000000  1
  Mn  Mn14  1  0.75000000  0.25000000  0.75000000  1
  Mn  Mn15  1  0.75000000  0.75000000  0.25000000  1
  O  O16  1  0.21274023  0.29635939  0.47383022  1
  O  O17  1  0.21274023  0.70364061  0.52616978  1
  O  O18  1  0.78725977  0.29635939  0.52616978  1
  O  O19  1  0.78725977  0.70364061  0.47383022  1
  O  O20  1  0.29635939  0.47383022  0.21274023  1
  O  O21  1  0.70364061  0.52616978  0.21274023  1
  O  O22  1  0.29635939  0.52616978  0.78725977  1
  O  O23  1  0.70364061  0.47383022  0.78725977  1
  O  O24  1  0.47383022  0.21274023  0.29635939  1
  O  O25  1  0.52616978  0.21274023  0.70364061  1
  O  O26  1  0.52616978  0.78725977  0.29635939  1
  O  O27  1  0.47383022  0.78725977  0.70364061  1
  O  O28  1  0.28725977  0.20364061  0.02616978  1
  O  O29  1  0.28725977  0.79635939  0.97383022  1
  O  O30  1  0.71274023  0.20364061  0.97383022  1
  O  O31  1  0.71274023  0.79635939  0.02616978  1
  O  O32  1  0.20364061  0.02616978  0.28725977  1
  O  O33  1  0.79635939  0.97383022  0.28725977  1
  O  O34  1  0.20364061  0.97383022  0.71274023  1
  O  O35  1  0.79635939  0.02616978  0.71274023  1
  O  O36  1  0.02616978  0.28725977  0.20364061  1
  O  O37  1  0.97383022  0.28725977  0.79635939  1
  O  O38  1  0.97383022  0.71274023  0.20364061  1
  O  O39  1  0.02616978  0.71274023  0.79635939  1
