# generated using pymatgen
data_BaEu(FeO3)4
_symmetry_space_group_name_H-M   'P 1'
_cell_length_a   5.45806431
_cell_length_b   5.45806431
_cell_length_c   7.70602424
_cell_angle_alpha   90.00000000
_cell_angle_beta   90.00000000
_cell_angle_gamma   90.00000000
_symmetry_Int_Tables_number   1
_chemical_formula_structural   BaEu(FeO3)4
_chemical_formula_sum   'Ba1 Eu1 Fe4 O12'
_cell_volume   229.56605321
_cell_formula_units_Z   1
loop_
 _symmetry_equiv_pos_site_id
 _symmetry_equiv_pos_as_xyz
  1  'x, y, z'
loop_
 _atom_site_type_symbol
 _atom_site_label
 _atom_site_symmetry_multiplicity
 _atom_site_fract_x
 _atom_site_fract_y
 _atom_site_fract_z
 _atom_site_occupancy
  Ba  Ba0  1  0.50000000  0.50000000  -0.00000000  1
  Eu  Eu1  1  0.00000000  -0.00000000  0.50000000  1
  Fe  Fe2  1  -0.00000000  0.50000000  0.74953561  1
  Fe  Fe3  1  0.00000000  0.50000000  0.25046439  1
  Fe  Fe4  1  0.50000000  -0.00000000  0.25046439  1
  Fe  Fe5  1  0.50000000  -0.00000000  0.74953561  1
  O  O6  1  0.24144610  0.24144610  0.26190533  1
  O  O7  1  0.24144610  0.24144610  0.73809467  1
  O  O8  1  0.75855390  0.75855390  0.73809467  1
  O  O9  1  0.75855390  0.75855390  0.26190533  1
  O  O10  1  0.75855390  0.24144610  0.73809467  1
  O  O11  1  0.75855390  0.24144610  0.26190533  1
  O  O12  1  0.24144610  0.75855390  0.73809467  1
  O  O13  1  0.24144610  0.75855390  0.26190533  1
  O  O14  1  0.00000000  0.50000000  0.50000000  1
  O  O15  1  -0.00000000  0.50000000  -0.00000000  1
  O  O16  1  0.50000000  -0.00000000  0.50000000  1
  O  O17  1  0.50000000  -0.00000000  -0.00000000  1
