# generated using pymatgen
data_BaSrCeSnO6
_symmetry_space_group_name_H-M   'P 1'
_cell_length_a   8.56160890
_cell_length_b   8.57300445
_cell_length_c   8.57493277
_cell_angle_alpha   90.00000000
_cell_angle_beta   90.00000000
_cell_angle_gamma   90.00000000
_symmetry_Int_Tables_number   1
_chemical_formula_structural   BaSrCeSnO6
_chemical_formula_sum   'Ba4 Sr4 Ce4 Sn4 O24'
_cell_volume   629.38901393
_cell_formula_units_Z   4
loop_
 _symmetry_equiv_pos_site_id
 _symmetry_equiv_pos_as_xyz
  1  'x, y, z'
loop_
 _atom_site_type_symbol
 _atom_site_label
 _atom_site_symmetry_multiplicity
 _atom_site_fract_x
 _atom_site_fract_y
 _atom_site_fract_z
 _atom_site_occupancy
  Ba  Ba0  1  0.00000000  0.00000000  0.00000000  1
  Ba  Ba1  1  0.50000000  0.50000000  0.50000000  1
  Ba  Ba2  1  0.50000000  0.00000000  0.00000000  1
  Ba  Ba3  1  -0.00000000  0.00000000  0.50000000  1
  Sr  Sr4  1  0.00000000  0.50000000  0.50000000  1
  Sr  Sr5  1  0.50000000  0.00000000  0.50000000  1
  Sr  Sr6  1  0.50000000  0.50000000  0.00000000  1
  Sr  Sr7  1  0.00000000  0.50000000  0.00000000  1
  Ce  Ce8  1  0.74996543  0.74735717  0.74952048  1
  Ce  Ce9  1  0.25003457  0.25264283  0.74952048  1
  Ce  Ce10  1  0.25003457  0.74735717  0.25047952  1
  Ce  Ce11  1  0.74996543  0.25264283  0.25047952  1
  Sn  Sn12  1  0.25024590  0.25254402  0.25047350  1
  Sn  Sn13  1  0.74975410  0.74745598  0.25047350  1
  Sn  Sn14  1  0.74975410  0.25254402  0.74952650  1
  Sn  Sn15  1  0.25024590  0.74745598  0.74952650  1
  O  O16  1  0.00728682  0.22859622  0.27457123  1
  O  O17  1  0.99271318  0.77140378  0.27457123  1
  O  O18  1  0.99271318  0.22859622  0.72542877  1
  O  O19  1  0.00728682  0.77140378  0.72542877  1
  O  O20  1  0.27203270  0.00849417  0.22655310  1
  O  O21  1  0.27203270  0.99150583  0.77344690  1
  O  O22  1  0.72796730  0.99150583  0.22655310  1
  O  O23  1  0.72796730  0.00849417  0.77344690  1
  O  O24  1  0.21899834  0.28281385  0.00819396  1
  O  O25  1  0.78100166  0.28281385  0.99180604  1
  O  O26  1  0.21899834  0.71718615  0.99180604  1
  O  O27  1  0.78100166  0.71718615  0.00819396  1
  O  O28  1  0.49144818  0.28607095  0.21719844  1
  O  O29  1  0.50855182  0.71392905  0.21719844  1
  O  O30  1  0.50855182  0.28607095  0.78280156  1
  O  O31  1  0.49144818  0.71392905  0.78280156  1
  O  O32  1  0.21758124  0.49248271  0.28614242  1
  O  O33  1  0.21758124  0.50751729  0.71385758  1
  O  O34  1  0.78241876  0.50751729  0.28614242  1
  O  O35  1  0.78241876  0.49248271  0.71385758  1
  O  O36  1  0.28602973  0.22087373  0.49178845  1
  O  O37  1  0.71397027  0.22087373  0.50821155  1
  O  O38  1  0.28602973  0.77912627  0.50821155  1
  O  O39  1  0.71397027  0.77912627  0.49178845  1
