# generated using pymatgen
data_SrEuInBiO6
_symmetry_space_group_name_H-M   'P 1'
_cell_length_a   5.87406402
_cell_length_b   6.03268316
_cell_length_c   8.38943395
_cell_angle_alpha   90.13175778
_cell_angle_beta   90.08562249
_cell_angle_gamma   90.06140762
_symmetry_Int_Tables_number   1
_chemical_formula_structural   SrEuInBiO6
_chemical_formula_sum   'Sr2 Eu2 In2 Bi2 O12'
_cell_volume   297.28977086
_cell_formula_units_Z   2
loop_
 _symmetry_equiv_pos_site_id
 _symmetry_equiv_pos_as_xyz
  1  'x, y, z'
loop_
 _atom_site_type_symbol
 _atom_site_label
 _atom_site_symmetry_multiplicity
 _atom_site_fract_x
 _atom_site_fract_y
 _atom_site_fract_z
 _atom_site_occupancy
  Sr  Sr0  1  0.51171898  0.54839054  0.24935823  1
  Sr  Sr1  1  0.48828102  0.45160946  0.75064177  1
  Eu  Eu2  1  0.98569891  0.05418939  0.24999019  1
  Eu  Eu3  1  0.01430109  0.94581061  0.75000981  1
  In  In4  1  0.50000000  0.00000000  0.00000000  1
  In  In5  1  0.00000000  0.50000000  0.50000000  1
  Bi  Bi6  1  0.00000000  0.50000000  0.00000000  1
  Bi  Bi7  1  0.50000000  0.00000000  0.50000000  1
  O  O8  1  0.19304343  0.19475608  0.94441949  1
  O  O9  1  0.29682184  0.70799125  0.55660306  1
  O  O10  1  0.80695657  0.80524392  0.05558051  1
  O  O11  1  0.70317816  0.29200875  0.44339694  1
  O  O12  1  0.29629540  0.70798812  0.94427100  1
  O  O13  1  0.19621540  0.19476678  0.55576466  1
  O  O14  1  0.70370460  0.29201188  0.05572900  1
  O  O15  1  0.80378460  0.80523322  0.44423534  1
  O  O16  1  0.38754386  0.96858340  0.25218195  1
  O  O17  1  0.09724372  0.45361209  0.25165045  1
  O  O18  1  0.61245614  0.03141660  0.74781805  1
  O  O19  1  0.90275628  0.54638791  0.74834955  1
