# generated using pymatgen
data_BaHf4SnO12
_symmetry_space_group_name_H-M   'P 1'
_cell_length_a   5.70689885
_cell_length_b   5.70689885
_cell_length_c   8.23984896
_cell_angle_alpha   90.00000000
_cell_angle_beta   90.00000000
_cell_angle_gamma   89.69337038
_symmetry_Int_Tables_number   1
_chemical_formula_structural   BaHf4SnO12
_chemical_formula_sum   'Ba1 Hf4 Sn1 O12'
_cell_volume   268.35728045
_cell_formula_units_Z   1
loop_
 _symmetry_equiv_pos_site_id
 _symmetry_equiv_pos_as_xyz
  1  'x, y, z'
loop_
 _atom_site_type_symbol
 _atom_site_label
 _atom_site_symmetry_multiplicity
 _atom_site_fract_x
 _atom_site_fract_y
 _atom_site_fract_z
 _atom_site_occupancy
  Ba  Ba0  1  0.47792643  0.52207357  0.00000000  1
  Hf  Hf1  1  0.50433166  0.00262618  0.25158029  1
  Hf  Hf2  1  0.50433166  0.00262618  0.74841971  1
  Hf  Hf3  1  0.99737382  0.49566834  0.74841971  1
  Hf  Hf4  1  0.99737382  0.49566834  0.25158029  1
  Sn  Sn5  1  0.02545775  0.97454225  0.50000000  1
  O  O6  1  0.29520127  0.29424892  0.24749431  1
  O  O7  1  0.70575108  0.70479873  0.24749431  1
  O  O8  1  0.70575108  0.70479873  0.75250569  1
  O  O9  1  0.29520127  0.29424892  0.75250569  1
  O  O10  1  0.21817332  0.78182668  0.23004288  1
  O  O11  1  0.83409703  0.16590297  0.32966486  1
  O  O12  1  0.83409703  0.16590297  0.67033514  1
  O  O13  1  0.21817332  0.78182668  0.76995712  1
  O  O14  1  0.53708954  0.03293626  -0.00000000  1
  O  O15  1  0.38110173  0.00159558  0.50000000  1
  O  O16  1  0.96706374  0.46291046  -0.00000000  1
  O  O17  1  0.99840442  0.61889827  0.50000000  1
