# generated using pymatgen
data_BaNdEuNbO6
_symmetry_space_group_name_H-M   'P 1'
_cell_length_a   6.05163305
_cell_length_b   6.11131204
_cell_length_c   8.60092678
_cell_angle_alpha   90.50378083
_cell_angle_beta   89.62740244
_cell_angle_gamma   89.70776208
_symmetry_Int_Tables_number   1
_chemical_formula_structural   BaNdEuNbO6
_chemical_formula_sum   'Ba2 Nd2 Eu2 Nb2 O12'
_cell_volume   318.06841671
_cell_formula_units_Z   2
loop_
 _symmetry_equiv_pos_site_id
 _symmetry_equiv_pos_as_xyz
  1  'x, y, z'
loop_
 _atom_site_type_symbol
 _atom_site_label
 _atom_site_symmetry_multiplicity
 _atom_site_fract_x
 _atom_site_fract_y
 _atom_site_fract_z
 _atom_site_occupancy
  Ba  Ba0  1  0.99217958  0.03161630  0.24998634  1
  Ba  Ba1  1  0.00782042  0.96838370  0.75001366  1
  Nd  Nd2  1  0.50000000  -0.00000000  -0.00000000  1
  Nd  Nd3  1  0.00000000  0.50000000  0.50000000  1
  Eu  Eu4  1  0.50814528  0.53957483  0.25158553  1
  Eu  Eu5  1  0.49185472  0.46042517  0.74841447  1
  Nb  Nb6  1  0.00000000  0.50000000  -0.00000000  1
  Nb  Nb7  1  0.50000000  -0.00000000  0.50000000  1
  O  O8  1  0.19517625  0.23328058  0.95812287  1
  O  O9  1  0.31431739  0.72363410  0.54435800  1
  O  O10  1  0.80482375  0.76671942  0.04187713  1
  O  O11  1  0.68568261  0.27636590  0.45564200  1
  O  O12  1  0.27250585  0.68938072  0.95419642  1
  O  O13  1  0.23445681  0.19834846  0.53929095  1
  O  O14  1  0.72749415  0.31061928  0.04580358  1
  O  O15  1  0.76554319  0.80165154  0.46070905  1
  O  O16  1  0.43006778  0.97083927  0.26892994  1
  O  O17  1  0.09098267  0.48875215  0.23033088  1
  O  O18  1  0.56993222  0.02916073  0.73107006  1
  O  O19  1  0.90901733  0.51124785  0.76966912  1
