# generated using pymatgen
data_SrCaNdMnO6
_symmetry_space_group_name_H-M   'P 1'
_cell_length_a   5.62817067
_cell_length_b   5.62817067
_cell_length_c   8.42359307
_cell_angle_alpha   90.00000000
_cell_angle_beta   90.00000000
_cell_angle_gamma   90.00000000
_symmetry_Int_Tables_number   1
_chemical_formula_structural   SrCaNdMnO6
_chemical_formula_sum   'Sr2 Ca2 Nd2 Mn2 O12'
_cell_volume   266.82830404
_cell_formula_units_Z   2
loop_
 _symmetry_equiv_pos_site_id
 _symmetry_equiv_pos_as_xyz
  1  'x, y, z'
loop_
 _atom_site_type_symbol
 _atom_site_label
 _atom_site_symmetry_multiplicity
 _atom_site_fract_x
 _atom_site_fract_y
 _atom_site_fract_z
 _atom_site_occupancy
  Sr  Sr0  1  0.50000000  0.00000000  0.25000000  1
  Sr  Sr1  1  -0.00000000  0.50000000  0.75000000  1
  Ca  Ca2  1  0.00000000  0.00000000  -0.00000000  1
  Ca  Ca3  1  0.50000000  0.50000000  0.50000000  1
  Nd  Nd4  1  0.00000000  0.50000000  0.25000000  1
  Nd  Nd5  1  0.50000000  0.00000000  0.75000000  1
  Mn  Mn6  1  -0.00000000  0.00000000  0.50000000  1
  Mn  Mn7  1  0.50000000  0.50000000  -0.00000000  1
  O  O8  1  0.00000000  0.00000000  0.26746868  1
  O  O9  1  0.50000000  0.50000000  0.23253132  1
  O  O10  1  0.00000000  0.00000000  0.73253132  1
  O  O11  1  0.50000000  0.50000000  0.76746868  1
  O  O12  1  0.35453805  0.19467544  0.98955223  1
  O  O13  1  0.64546195  0.80532456  0.98955223  1
  O  O14  1  0.80532456  0.35453805  0.01044777  1
  O  O15  1  0.19467544  0.64546195  0.01044777  1
  O  O16  1  0.85453805  0.30532456  0.48955223  1
  O  O17  1  0.14546195  0.69467544  0.48955223  1
  O  O18  1  0.30532456  0.14546195  0.51044777  1
  O  O19  1  0.69467544  0.85453805  0.51044777  1
