# generated using pymatgen
data_BaNdEuSbO6
_symmetry_space_group_name_H-M   'P 1'
_cell_length_a   8.58645402
_cell_length_b   8.60376067
_cell_length_c   8.58001868
_cell_angle_alpha   90.00000000
_cell_angle_beta   90.00000000
_cell_angle_gamma   90.00000000
_symmetry_Int_Tables_number   1
_chemical_formula_structural   BaNdEuSbO6
_chemical_formula_sum   'Ba4 Nd4 Eu4 Sb4 O24'
_cell_volume   633.85570446
_cell_formula_units_Z   4
loop_
 _symmetry_equiv_pos_site_id
 _symmetry_equiv_pos_as_xyz
  1  'x, y, z'
loop_
 _atom_site_type_symbol
 _atom_site_label
 _atom_site_symmetry_multiplicity
 _atom_site_fract_x
 _atom_site_fract_y
 _atom_site_fract_z
 _atom_site_occupancy
  Ba  Ba0  1  -0.00000000  -0.00000000  -0.00000000  1
  Ba  Ba1  1  0.50000000  0.50000000  0.50000000  1
  Ba  Ba2  1  0.50000000  0.50000000  -0.00000000  1
  Ba  Ba3  1  -0.00000000  -0.00000000  0.50000000  1
  Nd  Nd4  1  0.75000000  0.75000000  0.75000000  1
  Nd  Nd5  1  0.25000000  0.25000000  0.75000000  1
  Nd  Nd6  1  0.25000000  0.75000000  0.25000000  1
  Nd  Nd7  1  0.75000000  0.25000000  0.25000000  1
  Eu  Eu8  1  -0.00000000  0.50000000  0.50000000  1
  Eu  Eu9  1  0.50000000  0.00000000  0.50000000  1
  Eu  Eu10  1  0.50000000  0.00000000  -0.00000000  1
  Eu  Eu11  1  -0.00000000  0.50000000  -0.00000000  1
  Sb  Sb12  1  0.25000000  0.25000000  0.25000000  1
  Sb  Sb13  1  0.75000000  0.75000000  0.25000000  1
  Sb  Sb14  1  0.75000000  0.25000000  0.75000000  1
  Sb  Sb15  1  0.25000000  0.75000000  0.75000000  1
  O  O16  1  0.01862693  0.22264374  0.27696359  1
  O  O17  1  0.98137307  0.77735626  0.27696359  1
  O  O18  1  0.98137307  0.22264374  0.72303641  1
  O  O19  1  0.01862693  0.77735626  0.72303641  1
  O  O20  1  0.28026623  0.01895769  0.20942548  1
  O  O21  1  0.28026623  0.98104231  0.79057452  1
  O  O22  1  0.71973377  0.98104231  0.20942548  1
  O  O23  1  0.71973377  0.01895769  0.79057452  1
  O  O24  1  0.21452045  0.28761856  0.01904340  1
  O  O25  1  0.78547955  0.28761856  0.98095660  1
  O  O26  1  0.21452045  0.71238144  0.98095660  1
  O  O27  1  0.78547955  0.71238144  0.01904340  1
  O  O28  1  0.48137307  0.27735626  0.22303641  1
  O  O29  1  0.51862693  0.72264374  0.22303641  1
  O  O30  1  0.51862693  0.27735626  0.77696359  1
  O  O31  1  0.48137307  0.72264374  0.77696359  1
  O  O32  1  0.21973377  0.48104231  0.29057452  1
  O  O33  1  0.21973377  0.51895769  0.70942548  1
  O  O34  1  0.78026623  0.51895769  0.29057452  1
  O  O35  1  0.78026623  0.48104231  0.70942548  1
  O  O36  1  0.28547955  0.21238144  0.48095660  1
  O  O37  1  0.71452045  0.21238144  0.51904340  1
  O  O38  1  0.28547955  0.78761856  0.51904340  1
  O  O39  1  0.71452045  0.78761856  0.48095660  1
