# generated using pymatgen
data_KBaCeWO6
_symmetry_space_group_name_H-M   'P 1'
_cell_length_a   8.53236485
_cell_length_b   8.56702913
_cell_length_c   8.55517102
_cell_angle_alpha   90.00000000
_cell_angle_beta   90.00000000
_cell_angle_gamma   90.00000000
_symmetry_Int_Tables_number   1
_chemical_formula_structural   KBaCeWO6
_chemical_formula_sum   'K4 Ba4 Ce4 W4 O24'
_cell_volume   625.35749190
_cell_formula_units_Z   4
loop_
 _symmetry_equiv_pos_site_id
 _symmetry_equiv_pos_as_xyz
  1  'x, y, z'
loop_
 _atom_site_type_symbol
 _atom_site_label
 _atom_site_symmetry_multiplicity
 _atom_site_fract_x
 _atom_site_fract_y
 _atom_site_fract_z
 _atom_site_occupancy
  K  K0  1  -0.00000000  0.50000000  0.50000000  1
  K  K1  1  0.50000000  0.50000000  -0.00000000  1
  K  K2  1  0.50000000  -0.00000000  0.00000000  1
  K  K3  1  -0.00000000  -0.00000000  0.50000000  1
  Ba  Ba4  1  0.50000000  -0.00000000  0.50000000  1
  Ba  Ba5  1  -0.00000000  0.50000000  -0.00000000  1
  Ba  Ba6  1  -0.00000000  -0.00000000  -0.00000000  1
  Ba  Ba7  1  0.50000000  0.50000000  0.50000000  1
  Ce  Ce8  1  0.75000000  0.75000000  0.75000000  1
  Ce  Ce9  1  0.25000000  0.25000000  0.75000000  1
  Ce  Ce10  1  0.25000000  0.75000000  0.25000000  1
  Ce  Ce11  1  0.75000000  0.25000000  0.25000000  1
  W  W12  1  0.25000000  0.25000000  0.25000000  1
  W  W13  1  0.75000000  0.75000000  0.25000000  1
  W  W14  1  0.75000000  0.25000000  0.75000000  1
  W  W15  1  0.25000000  0.75000000  0.75000000  1
  O  O16  1  0.02106816  0.23893126  0.25497434  1
  O  O17  1  0.97893184  0.76106874  0.25497434  1
  O  O18  1  0.97893184  0.23893126  0.74502566  1
  O  O19  1  0.02106816  0.76106874  0.74502566  1
  O  O20  1  0.26000799  0.01018384  0.24680561  1
  O  O21  1  0.26000799  0.98981616  0.75319439  1
  O  O22  1  0.73999201  0.98981616  0.24680561  1
  O  O23  1  0.73999201  0.01018384  0.75319439  1
  O  O24  1  0.23012433  0.25305715  0.01055408  1
  O  O25  1  0.76987567  0.25305715  0.98944592  1
  O  O26  1  0.23012433  0.74694285  0.98944592  1
  O  O27  1  0.76987567  0.74694285  0.01055408  1
  O  O28  1  0.47893184  0.26106874  0.24502566  1
  O  O29  1  0.52106816  0.73893126  0.24502566  1
  O  O30  1  0.52106816  0.26106874  0.75497434  1
  O  O31  1  0.47893184  0.73893126  0.75497434  1
  O  O32  1  0.23999201  0.48981616  0.25319439  1
  O  O33  1  0.23999201  0.51018384  0.74680561  1
  O  O34  1  0.76000799  0.51018384  0.25319439  1
  O  O35  1  0.76000799  0.48981616  0.74680561  1
  O  O36  1  0.26987567  0.24694285  0.48944592  1
  O  O37  1  0.73012433  0.24694285  0.51055408  1
  O  O38  1  0.26987567  0.75305715  0.51055408  1
  O  O39  1  0.73012433  0.75305715  0.48944592  1
