# generated using pymatgen
data_BaEuNbSbO6
_symmetry_space_group_name_H-M   'P 1'
_cell_length_a   8.60651023
_cell_length_b   8.68942703
_cell_length_c   8.58839292
_cell_angle_alpha   90.00000000
_cell_angle_beta   90.00000000
_cell_angle_gamma   90.00000000
_symmetry_Int_Tables_number   1
_chemical_formula_structural   BaEuNbSbO6
_chemical_formula_sum   'Ba4 Eu4 Nb4 Sb4 O24'
_cell_volume   642.28848365
_cell_formula_units_Z   4
loop_
 _symmetry_equiv_pos_site_id
 _symmetry_equiv_pos_as_xyz
  1  'x, y, z'
loop_
 _atom_site_type_symbol
 _atom_site_label
 _atom_site_symmetry_multiplicity
 _atom_site_fract_x
 _atom_site_fract_y
 _atom_site_fract_z
 _atom_site_occupancy
  Ba  Ba0  1  -0.00000000  0.00000000  0.00000000  1
  Ba  Ba1  1  0.50000000  0.50000000  0.50000000  1
  Ba  Ba2  1  0.50000000  0.00000000  0.50000000  1
  Ba  Ba3  1  0.50000000  0.50000000  -0.00000000  1
  Eu  Eu4  1  -0.00000000  0.50000000  0.50000000  1
  Eu  Eu5  1  0.50000000  0.00000000  -0.00000000  1
  Eu  Eu6  1  -0.00000000  0.50000000  0.00000000  1
  Eu  Eu7  1  -0.00000000  0.00000000  0.50000000  1
  Nb  Nb8  1  0.75009307  0.75162136  0.74967972  1
  Nb  Nb9  1  0.24990693  0.24837864  0.74967972  1
  Nb  Nb10  1  0.24990693  0.75162136  0.25032028  1
  Nb  Nb11  1  0.75009307  0.24837864  0.25032028  1
  Sb  Sb12  1  0.24782645  0.24982021  0.25008298  1
  Sb  Sb13  1  0.75217355  0.75017979  0.25008298  1
  Sb  Sb14  1  0.75217355  0.24982021  0.74991702  1
  Sb  Sb15  1  0.24782645  0.75017979  0.74991702  1
  O  O16  1  0.98509965  0.21829145  0.28131286  1
  O  O17  1  0.01490035  0.78170855  0.28131286  1
  O  O18  1  0.01490035  0.21829145  0.71868714  1
  O  O19  1  0.98509965  0.78170855  0.71868714  1
  O  O20  1  0.27891609  0.98294484  0.21706977  1
  O  O21  1  0.27891609  0.01705516  0.78293023  1
  O  O22  1  0.72108391  0.01705516  0.21706977  1
  O  O23  1  0.72108391  0.98294484  0.78293023  1
  O  O24  1  0.21687454  0.27977688  0.98294982  1
  O  O25  1  0.78312546  0.27977688  0.01705018  1
  O  O26  1  0.21687454  0.72022312  0.01705018  1
  O  O27  1  0.78312546  0.72022312  0.98294982  1
  O  O28  1  0.51880089  0.27652814  0.22508341  1
  O  O29  1  0.48119911  0.72347186  0.22508341  1
  O  O30  1  0.48119911  0.27652814  0.77491659  1
  O  O31  1  0.51880089  0.72347186  0.77491659  1
  O  O32  1  0.21790449  0.51526113  0.28311024  1
  O  O33  1  0.21790449  0.48473887  0.71688976  1
  O  O34  1  0.78209551  0.48473887  0.28311024  1
  O  O35  1  0.78209551  0.51526113  0.71688976  1
  O  O36  1  0.27543929  0.22498099  0.51723942  1
  O  O37  1  0.72456071  0.22498099  0.48276058  1
  O  O38  1  0.27543929  0.77501901  0.48276058  1
  O  O39  1  0.72456071  0.77501901  0.51723942  1
