# generated using pymatgen
data_Ca2YBiO6
_symmetry_space_group_name_H-M   'P 1'
_cell_length_a   5.87673546
_cell_length_b   5.87673546
_cell_length_c   8.54542368
_cell_angle_alpha   90.00000000
_cell_angle_beta   90.00000000
_cell_angle_gamma   90.00000000
_symmetry_Int_Tables_number   1
_chemical_formula_structural   Ca2YBiO6
_chemical_formula_sum   'Ca4 Y2 Bi2 O12'
_cell_volume   295.12492027
_cell_formula_units_Z   2
loop_
 _symmetry_equiv_pos_site_id
 _symmetry_equiv_pos_as_xyz
  1  'x, y, z'
loop_
 _atom_site_type_symbol
 _atom_site_label
 _atom_site_symmetry_multiplicity
 _atom_site_fract_x
 _atom_site_fract_y
 _atom_site_fract_z
 _atom_site_occupancy
  Ca  Ca0  1  0.50000000  0.00000000  0.75000000  1
  Ca  Ca1  1  -0.00000000  0.50000000  0.75000000  1
  Ca  Ca2  1  0.50000000  -0.00000000  0.25000000  1
  Ca  Ca3  1  0.00000000  0.50000000  0.25000000  1
  Y  Y4  1  0.50000000  0.50000000  0.00000000  1
  Y  Y5  1  -0.00000000  0.00000000  0.50000000  1
  Bi  Bi6  1  0.50000000  0.50000000  0.50000000  1
  Bi  Bi7  1  0.00000000  0.00000000  0.00000000  1
  O  O8  1  0.50000000  0.50000000  0.74539351  1
  O  O9  1  0.00000000  0.00000000  0.75460649  1
  O  O10  1  0.50000000  0.50000000  0.25460649  1
  O  O11  1  -0.00000000  -0.00000000  0.24539351  1
  O  O12  1  0.65696520  0.17340550  0.50000000  1
  O  O13  1  0.34303480  0.82659450  0.50000000  1
  O  O14  1  0.82659450  0.65696520  0.50000000  1
  O  O15  1  0.17340550  0.34303480  0.50000000  1
  O  O16  1  0.84303480  0.67340550  0.00000000  1
  O  O17  1  0.15696520  0.32659450  -0.00000000  1
  O  O18  1  0.67340550  0.15696520  -0.00000000  1
  O  O19  1  0.32659450  0.84303480  0.00000000  1
