# generated using pymatgen
data_KBaTbBiO6
_symmetry_space_group_name_H-M   'P 1'
_cell_length_a   8.74178874
_cell_length_b   8.70938544
_cell_length_c   8.75197493
_cell_angle_alpha   90.00000000
_cell_angle_beta   90.00000000
_cell_angle_gamma   90.00000000
_symmetry_Int_Tables_number   1
_chemical_formula_structural   KBaTbBiO6
_chemical_formula_sum   'K4 Ba4 Tb4 Bi4 O24'
_cell_volume   666.33692875
_cell_formula_units_Z   4
loop_
 _symmetry_equiv_pos_site_id
 _symmetry_equiv_pos_as_xyz
  1  'x, y, z'
loop_
 _atom_site_type_symbol
 _atom_site_label
 _atom_site_symmetry_multiplicity
 _atom_site_fract_x
 _atom_site_fract_y
 _atom_site_fract_z
 _atom_site_occupancy
  K  K0  1  0.50000000  -0.00000000  0.50000000  1
  K  K1  1  0.50000000  0.50000000  -0.00000000  1
  K  K2  1  0.00000000  0.50000000  -0.00000000  1
  K  K3  1  0.00000000  -0.00000000  0.50000000  1
  Ba  Ba4  1  0.00000000  0.50000000  0.50000000  1
  Ba  Ba5  1  0.50000000  -0.00000000  -0.00000000  1
  Ba  Ba6  1  0.00000000  -0.00000000  -0.00000000  1
  Ba  Ba7  1  0.50000000  0.50000000  0.50000000  1
  Tb  Tb8  1  0.25000000  0.25000000  0.25000000  1
  Tb  Tb9  1  0.75000000  0.75000000  0.25000000  1
  Tb  Tb10  1  0.75000000  0.25000000  0.75000000  1
  Tb  Tb11  1  0.25000000  0.75000000  0.75000000  1
  Bi  Bi12  1  0.75000000  0.75000000  0.75000000  1
  Bi  Bi13  1  0.25000000  0.25000000  0.75000000  1
  Bi  Bi14  1  0.25000000  0.75000000  0.25000000  1
  Bi  Bi15  1  0.75000000  0.25000000  0.25000000  1
  O  O16  1  0.99285409  0.23567185  0.26366422  1
  O  O17  1  0.00714591  0.76432815  0.26366422  1
  O  O18  1  0.00714591  0.23567185  0.73633578  1
  O  O19  1  0.99285409  0.76432815  0.73633578  1
  O  O20  1  0.26327334  0.99303839  0.22482368  1
  O  O21  1  0.26327334  0.00696161  0.77517632  1
  O  O22  1  0.73672666  0.00696161  0.22482368  1
  O  O23  1  0.73672666  0.99303839  0.77517632  1
  O  O24  1  0.23413985  0.25381817  0.99301135  1
  O  O25  1  0.76586015  0.25381817  0.00698865  1
  O  O26  1  0.23413985  0.74618183  0.00698865  1
  O  O27  1  0.76586015  0.74618183  0.99301135  1
  O  O28  1  0.50714591  0.26432815  0.23633578  1
  O  O29  1  0.49285409  0.73567185  0.23633578  1
  O  O30  1  0.49285409  0.26432815  0.76366422  1
  O  O31  1  0.50714591  0.73567185  0.76366422  1
  O  O32  1  0.23672666  0.50696161  0.27517632  1
  O  O33  1  0.23672666  0.49303839  0.72482368  1
  O  O34  1  0.76327334  0.49303839  0.27517632  1
  O  O35  1  0.76327334  0.50696161  0.72482368  1
  O  O36  1  0.26586015  0.24618183  0.50698865  1
  O  O37  1  0.73413985  0.24618183  0.49301135  1
  O  O38  1  0.26586015  0.75381817  0.49301135  1
  O  O39  1  0.73413985  0.75381817  0.50698865  1
