# generated using pymatgen
data_EuTi4SnO12
_symmetry_space_group_name_H-M   'P 1'
_cell_length_a   5.38224342
_cell_length_b   5.38224342
_cell_length_c   7.78826002
_cell_angle_alpha   90.00000000
_cell_angle_beta   90.00000000
_cell_angle_gamma   90.02325707
_symmetry_Int_Tables_number   1
_chemical_formula_structural   EuTi4SnO12
_chemical_formula_sum   'Eu1 Ti4 Sn1 O12'
_cell_volume   225.61453666
_cell_formula_units_Z   1
loop_
 _symmetry_equiv_pos_site_id
 _symmetry_equiv_pos_as_xyz
  1  'x, y, z'
loop_
 _atom_site_type_symbol
 _atom_site_label
 _atom_site_symmetry_multiplicity
 _atom_site_fract_x
 _atom_site_fract_y
 _atom_site_fract_z
 _atom_site_occupancy
  Eu  Eu0  1  0.48750219  0.48750219  0.50000000  1
  Ti  Ti1  1  0.50011828  0.00018763  0.74670384  1
  Ti  Ti2  1  0.50011828  0.00018763  0.25329616  1
  Ti  Ti3  1  0.00018763  0.50011828  0.25329616  1
  Ti  Ti4  1  0.00018763  0.50011828  0.74670384  1
  Sn  Sn5  1  0.01778645  0.01778645  0.00000000  1
  O  O6  1  0.70478062  0.29833347  0.73382147  1
  O  O7  1  0.29833347  0.70478062  0.73382147  1
  O  O8  1  0.29833347  0.70478062  0.26617853  1
  O  O9  1  0.70478062  0.29833347  0.26617853  1
  O  O10  1  0.82222721  0.82222721  0.81947407  1
  O  O11  1  0.22635874  0.22635874  0.71476740  1
  O  O12  1  0.22635874  0.22635874  0.28523260  1
  O  O13  1  0.82222721  0.82222721  0.18052593  1
  O  O14  1  0.39429639  -0.00084705  0.00000000  1
  O  O15  1  0.54083778  0.95421234  0.50000000  1
  O  O16  1  -0.00084705  0.39429639  0.00000000  1
  O  O17  1  0.95421234  0.54083778  0.50000000  1
