# generated using pymatgen
data_BaSrEuWO6
_symmetry_space_group_name_H-M   'P 1'
_cell_length_a   8.55104233
_cell_length_b   8.58487755
_cell_length_c   8.55564091
_cell_angle_alpha   90.00000000
_cell_angle_beta   90.00000000
_cell_angle_gamma   90.00000000
_symmetry_Int_Tables_number   1
_chemical_formula_structural   BaSrEuWO6
_chemical_formula_sum   'Ba4 Sr4 Eu4 W4 O24'
_cell_volume   628.06661609
_cell_formula_units_Z   4
loop_
 _symmetry_equiv_pos_site_id
 _symmetry_equiv_pos_as_xyz
  1  'x, y, z'
loop_
 _atom_site_type_symbol
 _atom_site_label
 _atom_site_symmetry_multiplicity
 _atom_site_fract_x
 _atom_site_fract_y
 _atom_site_fract_z
 _atom_site_occupancy
  Ba  Ba0  1  -0.00000000  -0.00000000  -0.00000000  1
  Ba  Ba1  1  0.50000000  0.50000000  0.50000000  1
  Ba  Ba2  1  0.50000000  -0.00000000  0.50000000  1
  Ba  Ba3  1  0.50000000  0.50000000  -0.00000000  1
  Sr  Sr4  1  -0.00000000  0.50000000  0.50000000  1
  Sr  Sr5  1  0.50000000  -0.00000000  -0.00000000  1
  Sr  Sr6  1  -0.00000000  0.50000000  -0.00000000  1
  Sr  Sr7  1  -0.00000000  -0.00000000  0.50000000  1
  Eu  Eu8  1  0.75288762  0.75013569  0.75129272  1
  Eu  Eu9  1  0.24711238  0.24986431  0.75129272  1
  Eu  Eu10  1  0.24711238  0.75013569  0.24870728  1
  Eu  Eu11  1  0.75288762  0.24986431  0.24870728  1
  W  W12  1  0.24550126  0.24951838  0.25105044  1
  W  W13  1  0.75449874  0.75048162  0.25105044  1
  W  W14  1  0.75449874  0.24951838  0.74894956  1
  W  W15  1  0.24550126  0.75048162  0.74894956  1
  O  O16  1  0.02290015  0.20494756  0.28461077  1
  O  O17  1  0.97709985  0.79505244  0.28461077  1
  O  O18  1  0.97709985  0.20494756  0.71538923  1
  O  O19  1  0.02290015  0.79505244  0.71538923  1
  O  O20  1  0.28205923  0.02641132  0.20805952  1
  O  O21  1  0.28205923  0.97358868  0.79194048  1
  O  O22  1  0.71794077  0.97358868  0.20805952  1
  O  O23  1  0.71794077  0.02641132  0.79194048  1
  O  O24  1  0.20753426  0.28717374  0.02638118  1
  O  O25  1  0.79246574  0.28717374  0.97361882  1
  O  O26  1  0.20753426  0.71282626  0.97361882  1
  O  O27  1  0.79246574  0.71282626  0.02638118  1
  O  O28  1  0.47406210  0.27820679  0.22834979  1
  O  O29  1  0.52593790  0.72179321  0.22834979  1
  O  O30  1  0.52593790  0.27820679  0.77165021  1
  O  O31  1  0.47406210  0.72179321  0.77165021  1
  O  O32  1  0.21348918  0.47521845  0.28560659  1
  O  O33  1  0.21348918  0.52478155  0.71439341  1
  O  O34  1  0.78651082  0.52478155  0.28560659  1
  O  O35  1  0.78651082  0.47521845  0.71439341  1
  O  O36  1  0.27453808  0.22519256  0.47743535  1
  O  O37  1  0.72546192  0.22519256  0.52256465  1
  O  O38  1  0.27453808  0.77480744  0.52256465  1
  O  O39  1  0.72546192  0.77480744  0.47743535  1
