# generated using pymatgen
data_BaSrDySbO6
_symmetry_space_group_name_H-M   'P 1'
_cell_length_a   8.43697470
_cell_length_b   8.41925144
_cell_length_c   8.42789582
_cell_angle_alpha   90.00000000
_cell_angle_beta   90.00000000
_cell_angle_gamma   90.00000000
_symmetry_Int_Tables_number   1
_chemical_formula_structural   BaSrDySbO6
_chemical_formula_sum   'Ba4 Sr4 Dy4 Sb4 O24'
_cell_volume   598.65881979
_cell_formula_units_Z   4
loop_
 _symmetry_equiv_pos_site_id
 _symmetry_equiv_pos_as_xyz
  1  'x, y, z'
loop_
 _atom_site_type_symbol
 _atom_site_label
 _atom_site_symmetry_multiplicity
 _atom_site_fract_x
 _atom_site_fract_y
 _atom_site_fract_z
 _atom_site_occupancy
  Ba  Ba0  1  0.00000000  0.00000000  0.00000000  1
  Ba  Ba1  1  0.50000000  0.50000000  0.50000000  1
  Ba  Ba2  1  0.50000000  0.00000000  0.50000000  1
  Ba  Ba3  1  0.50000000  0.00000000  0.00000000  1
  Sr  Sr4  1  0.00000000  0.50000000  0.50000000  1
  Sr  Sr5  1  0.50000000  0.50000000  0.00000000  1
  Sr  Sr6  1  0.00000000  0.50000000  0.00000000  1
  Sr  Sr7  1  0.00000000  0.00000000  0.50000000  1
  Dy  Dy8  1  0.75262367  0.74814371  0.74938498  1
  Dy  Dy9  1  0.24737633  0.25185629  0.74938498  1
  Dy  Dy10  1  0.24737633  0.74814371  0.25061502  1
  Dy  Dy11  1  0.75262367  0.25185629  0.25061502  1
  Sb  Sb12  1  0.24624585  0.25264883  0.25100811  1
  Sb  Sb13  1  0.75375415  0.74735117  0.25100811  1
  Sb  Sb14  1  0.75375415  0.25264883  0.74899189  1
  Sb  Sb15  1  0.24624585  0.74735117  0.74899189  1
  O  O16  1  0.01174583  0.22228606  0.27809759  1
  O  O17  1  0.98825417  0.77771394  0.27809759  1
  O  O18  1  0.98825417  0.22228606  0.72190241  1
  O  O19  1  0.01174583  0.77771394  0.72190241  1
  O  O20  1  0.26859610  0.01462039  0.22911570  1
  O  O21  1  0.26859610  0.98537961  0.77088430  1
  O  O22  1  0.73140390  0.98537961  0.22911570  1
  O  O23  1  0.73140390  0.01462039  0.77088430  1
  O  O24  1  0.22024906  0.27951394  0.01394757  1
  O  O25  1  0.77975094  0.27951394  0.98605243  1
  O  O26  1  0.22024906  0.72048606  0.98605243  1
  O  O27  1  0.77975094  0.72048606  0.01394757  1
  O  O28  1  0.48439236  0.28025824  0.22377923  1
  O  O29  1  0.51560764  0.71974176  0.22377923  1
  O  O30  1  0.51560764  0.28025824  0.77622077  1
  O  O31  1  0.48439236  0.71974176  0.77622077  1
  O  O32  1  0.21781321  0.48788118  0.27749155  1
  O  O33  1  0.21781321  0.51211882  0.72250845  1
  O  O34  1  0.78218679  0.51211882  0.27749155  1
  O  O35  1  0.78218679  0.48788118  0.72250845  1
  O  O36  1  0.27065555  0.23185693  0.48730689  1
  O  O37  1  0.72934445  0.23185693  0.51269311  1
  O  O38  1  0.27065555  0.76814307  0.51269311  1
  O  O39  1  0.72934445  0.76814307  0.48730689  1
