# generated using pymatgen
data_NaNdNb4O12
_symmetry_space_group_name_H-M   'P 1'
_cell_length_a   5.63323317
_cell_length_b   5.63323317
_cell_length_c   7.99119136
_cell_angle_alpha   90.00000000
_cell_angle_beta   90.00000000
_cell_angle_gamma   90.04114229
_symmetry_Int_Tables_number   1
_chemical_formula_structural   NaNdNb4O12
_chemical_formula_sum   'Na1 Nd1 Nb4 O12'
_cell_volume   253.58693513
_cell_formula_units_Z   1
loop_
 _symmetry_equiv_pos_site_id
 _symmetry_equiv_pos_as_xyz
  1  'x, y, z'
loop_
 _atom_site_type_symbol
 _atom_site_label
 _atom_site_symmetry_multiplicity
 _atom_site_fract_x
 _atom_site_fract_y
 _atom_site_fract_z
 _atom_site_occupancy
  Na  Na0  1  0.50000000  0.50000000  -0.00000000  1
  Nd  Nd1  1  -0.00000000  -0.00000000  0.50000000  1
  Nb  Nb2  1  -0.00000000  0.50000000  0.24731320  1
  Nb  Nb3  1  -0.00000000  0.50000000  0.75268680  1
  Nb  Nb4  1  0.50000000  -0.00000000  0.75268680  1
  Nb  Nb5  1  0.50000000  -0.00000000  0.24731320  1
  O  O6  1  0.22520799  0.22520799  0.26664695  1
  O  O7  1  0.22520799  0.22520799  0.73335305  1
  O  O8  1  0.77479201  0.77479201  0.26664695  1
  O  O9  1  0.77479201  0.77479201  0.73335305  1
  O  O10  1  0.74047806  0.25952194  0.25973829  1
  O  O11  1  0.74047806  0.25952194  0.74026171  1
  O  O12  1  0.25952194  0.74047806  0.25973829  1
  O  O13  1  0.25952194  0.74047806  0.74026171  1
  O  O14  1  -0.00000000  0.50000000  0.00000000  1
  O  O15  1  -0.00000000  0.50000000  0.50000000  1
  O  O16  1  0.50000000  -0.00000000  -0.00000000  1
  O  O17  1  0.50000000  -0.00000000  0.50000000  1
