# generated using pymatgen
data_KSmEuWO6
_symmetry_space_group_name_H-M   'P 1'
_cell_length_a   8.47531611
_cell_length_b   8.43506728
_cell_length_c   8.43612692
_cell_angle_alpha   90.00000000
_cell_angle_beta   90.00000000
_cell_angle_gamma   90.00000000
_symmetry_Int_Tables_number   1
_chemical_formula_structural   KSmEuWO6
_chemical_formula_sum   'K4 Sm4 Eu4 W4 O24'
_cell_volume   603.09754601
_cell_formula_units_Z   4
loop_
 _symmetry_equiv_pos_site_id
 _symmetry_equiv_pos_as_xyz
  1  'x, y, z'
loop_
 _atom_site_type_symbol
 _atom_site_label
 _atom_site_symmetry_multiplicity
 _atom_site_fract_x
 _atom_site_fract_y
 _atom_site_fract_z
 _atom_site_occupancy
  K  K0  1  -0.00000000  0.50000000  0.50000000  1
  K  K1  1  0.50000000  -0.00000000  0.50000000  1
  K  K2  1  0.50000000  -0.00000000  0.00000000  1
  K  K3  1  -0.00000000  0.50000000  -0.00000000  1
  Sm  Sm4  1  0.75000000  0.75000000  0.75000000  1
  Sm  Sm5  1  0.25000000  0.25000000  0.75000000  1
  Sm  Sm6  1  0.25000000  0.75000000  0.25000000  1
  Sm  Sm7  1  0.75000000  0.25000000  0.25000000  1
  Eu  Eu8  1  0.50000000  0.50000000  0.00000000  1
  Eu  Eu9  1  -0.00000000  -0.00000000  0.50000000  1
  Eu  Eu10  1  0.00000000  -0.00000000  0.00000000  1
  Eu  Eu11  1  0.50000000  0.50000000  0.50000000  1
  W  W12  1  0.25000000  0.25000000  0.25000000  1
  W  W13  1  0.75000000  0.75000000  0.25000000  1
  W  W14  1  0.75000000  0.25000000  0.75000000  1
  W  W15  1  0.25000000  0.75000000  0.75000000  1
  O  O16  1  0.01989020  0.21347774  0.27449951  1
  O  O17  1  0.98010980  0.78652226  0.27449951  1
  O  O18  1  0.98010980  0.21347774  0.72550049  1
  O  O19  1  0.01989020  0.78652226  0.72550049  1
  O  O20  1  0.26612315  0.02109137  0.22294012  1
  O  O21  1  0.26612315  0.97890863  0.77705988  1
  O  O22  1  0.73387685  0.97890863  0.22294012  1
  O  O23  1  0.73387685  0.02109137  0.77705988  1
  O  O24  1  0.22455046  0.27195589  0.02088510  1
  O  O25  1  0.77544954  0.27195589  0.97911490  1
  O  O26  1  0.22455046  0.72804411  0.97911490  1
  O  O27  1  0.77544954  0.72804411  0.02088510  1
  O  O28  1  0.48010980  0.28652226  0.22550049  1
  O  O29  1  0.51989020  0.71347774  0.22550049  1
  O  O30  1  0.51989020  0.28652226  0.77449951  1
  O  O31  1  0.48010980  0.71347774  0.77449951  1
  O  O32  1  0.23387685  0.47890863  0.27705988  1
  O  O33  1  0.23387685  0.52109137  0.72294012  1
  O  O34  1  0.76612315  0.52109137  0.27705988  1
  O  O35  1  0.76612315  0.47890863  0.72294012  1
  O  O36  1  0.27544954  0.22804411  0.47911490  1
  O  O37  1  0.72455046  0.22804411  0.52088510  1
  O  O38  1  0.27544954  0.77195589  0.52088510  1
  O  O39  1  0.72455046  0.77195589  0.47911490  1
