# generated using pymatgen
data_KNdEuWO6
_symmetry_space_group_name_H-M   'P 1'
_cell_length_a   8.48994097
_cell_length_b   8.48380834
_cell_length_c   8.51352539
_cell_angle_alpha   90.00000000
_cell_angle_beta   90.00000000
_cell_angle_gamma   90.00000000
_symmetry_Int_Tables_number   1
_chemical_formula_structural   KNdEuWO6
_chemical_formula_sum   'K4 Nd4 Eu4 W4 O24'
_cell_volume   613.20396576
_cell_formula_units_Z   4
loop_
 _symmetry_equiv_pos_site_id
 _symmetry_equiv_pos_as_xyz
  1  'x, y, z'
loop_
 _atom_site_type_symbol
 _atom_site_label
 _atom_site_symmetry_multiplicity
 _atom_site_fract_x
 _atom_site_fract_y
 _atom_site_fract_z
 _atom_site_occupancy
  K  K0  1  -0.00000000  0.50000000  0.50000000  1
  K  K1  1  0.50000000  0.50000000  -0.00000000  1
  K  K2  1  0.50000000  0.00000000  0.00000000  1
  K  K3  1  -0.00000000  -0.00000000  0.50000000  1
  Nd  Nd4  1  0.75000000  0.75000000  0.75000000  1
  Nd  Nd5  1  0.25000000  0.25000000  0.75000000  1
  Nd  Nd6  1  0.25000000  0.75000000  0.25000000  1
  Nd  Nd7  1  0.75000000  0.25000000  0.25000000  1
  Eu  Eu8  1  0.50000000  0.00000000  0.50000000  1
  Eu  Eu9  1  -0.00000000  0.50000000  -0.00000000  1
  Eu  Eu10  1  -0.00000000  -0.00000000  0.00000000  1
  Eu  Eu11  1  0.50000000  0.50000000  0.50000000  1
  W  W12  1  0.25000000  0.25000000  0.25000000  1
  W  W13  1  0.75000000  0.75000000  0.25000000  1
  W  W14  1  0.75000000  0.25000000  0.75000000  1
  W  W15  1  0.25000000  0.75000000  0.75000000  1
  O  O16  1  0.02289717  0.22073984  0.26782590  1
  O  O17  1  0.97710283  0.77926016  0.26782590  1
  O  O18  1  0.97710283  0.22073984  0.73217410  1
  O  O19  1  0.02289717  0.77926016  0.73217410  1
  O  O20  1  0.27342047  0.02272202  0.22240248  1
  O  O21  1  0.27342047  0.97727798  0.77759752  1
  O  O22  1  0.72657953  0.97727798  0.22240248  1
  O  O23  1  0.72657953  0.02272202  0.77759752  1
  O  O24  1  0.21108863  0.27618692  0.02193385  1
  O  O25  1  0.78891137  0.27618692  0.97806615  1
  O  O26  1  0.21108863  0.72381308  0.97806615  1
  O  O27  1  0.78891137  0.72381308  0.02193385  1
  O  O28  1  0.47710283  0.27926016  0.23217410  1
  O  O29  1  0.52289717  0.72073984  0.23217410  1
  O  O30  1  0.52289717  0.27926016  0.76782590  1
  O  O31  1  0.47710283  0.72073984  0.76782590  1
  O  O32  1  0.22657953  0.47727798  0.27759752  1
  O  O33  1  0.22657953  0.52272202  0.72240248  1
  O  O34  1  0.77342047  0.52272202  0.27759752  1
  O  O35  1  0.77342047  0.47727798  0.72240248  1
  O  O36  1  0.28891137  0.22381308  0.47806615  1
  O  O37  1  0.71108863  0.22381308  0.52193385  1
  O  O38  1  0.28891137  0.77618692  0.52193385  1
  O  O39  1  0.71108863  0.77618692  0.47806615  1
