# generated using pymatgen
data_KPrZr4O12
_symmetry_space_group_name_H-M   'P 1'
_cell_length_a   5.86509468
_cell_length_b   5.86509468
_cell_length_c   8.39805301
_cell_angle_alpha   90.00000000
_cell_angle_beta   90.00000000
_cell_angle_gamma   89.89776844
_symmetry_Int_Tables_number   1
_chemical_formula_structural   KPrZr4O12
_chemical_formula_sum   'K1 Pr1 Zr4 O12'
_cell_volume   288.88698405
_cell_formula_units_Z   1
loop_
 _symmetry_equiv_pos_site_id
 _symmetry_equiv_pos_as_xyz
  1  'x, y, z'
loop_
 _atom_site_type_symbol
 _atom_site_label
 _atom_site_symmetry_multiplicity
 _atom_site_fract_x
 _atom_site_fract_y
 _atom_site_fract_z
 _atom_site_occupancy
  K  K0  1  0.00045039  -0.00045039  0.00000000  1
  Pr  Pr1  1  0.50375702  0.49624298  0.50000000  1
  Zr  Zr2  1  0.49989534  0.99703036  0.24432053  1
  Zr  Zr3  1  0.49989534  0.99703036  0.75567947  1
  Zr  Zr4  1  0.00296964  0.50010466  0.75567947  1
  Zr  Zr5  1  0.00296964  0.50010466  0.24432053  1
  O  O6  1  0.28173024  0.27831218  0.28433548  1
  O  O7  1  0.72168782  0.71826976  0.28433548  1
  O  O8  1  0.72168782  0.71826976  0.71566452  1
  O  O9  1  0.28173024  0.27831218  0.71566452  1
  O  O10  1  0.22185795  0.77814205  0.23380247  1
  O  O11  1  0.74348558  0.25651442  0.30194537  1
  O  O12  1  0.74348558  0.25651442  0.69805463  1
  O  O13  1  0.22185795  0.77814205  0.76619753  1
  O  O14  1  0.52846512  0.00649263  0.00000000  1
  O  O15  1  0.46763806  0.92447111  0.50000000  1
  O  O16  1  0.99350737  0.47153488  0.00000000  1
  O  O17  1  0.07552889  0.53236194  0.50000000  1
