# generated using pymatgen
data_NaCaH3
_symmetry_space_group_name_H-M   'P 1'
_cell_length_a   3.63055100
_cell_length_b   6.81440325
_cell_length_c   6.86598105
_cell_angle_alpha   117.01000056
_cell_angle_beta   99.71238681
_cell_angle_gamma   95.21055401
_symmetry_Int_Tables_number   1
_chemical_formula_structural   NaCaH3
_chemical_formula_sum   'Na2 Ca2 H6'
_cell_volume   146.43154147
_cell_formula_units_Z   2
loop_
 _symmetry_equiv_pos_site_id
 _symmetry_equiv_pos_as_xyz
  1  'x, y, z'
loop_
 _atom_site_type_symbol
 _atom_site_label
 _atom_site_symmetry_multiplicity
 _atom_site_fract_x
 _atom_site_fract_y
 _atom_site_fract_z
 _atom_site_occupancy
  Na  Na0  1  0.98690000  0.72630000  0.26120000  1
  Na  Na1  1  0.01310000  0.27370000  0.73880000  1
  Ca  Ca2  1  0.37090000  0.24830000  0.21000000  1
  Ca  Ca3  1  0.62910000  0.75170000  0.79000000  1
  H  H4  1  0.48280000  0.34970000  0.58240000  1
  H  H5  1  0.51720000  0.65030000  0.41760000  1
  H  H6  1  0.17760000  0.98450000  0.81490000  1
  H  H7  1  0.82240000  0.01550000  0.18510000  1
  H  H8  1  0.15960000  0.65340000  0.92660000  1
  H  H9  1  0.84040000  0.34660000  0.07340000  1
