# generated using pymatgen
data_SrCaNdSbO6
_symmetry_space_group_name_H-M   'P 1'
_cell_length_a   5.90087140
_cell_length_b   5.90087140
_cell_length_c   8.57154374
_cell_angle_alpha   90.00000000
_cell_angle_beta   90.00000000
_cell_angle_gamma   90.00000000
_symmetry_Int_Tables_number   1
_chemical_formula_structural   SrCaNdSbO6
_chemical_formula_sum   'Sr2 Ca2 Nd2 Sb2 O12'
_cell_volume   298.46358117
_cell_formula_units_Z   2
loop_
 _symmetry_equiv_pos_site_id
 _symmetry_equiv_pos_as_xyz
  1  'x, y, z'
loop_
 _atom_site_type_symbol
 _atom_site_label
 _atom_site_symmetry_multiplicity
 _atom_site_fract_x
 _atom_site_fract_y
 _atom_site_fract_z
 _atom_site_occupancy
  Sr  Sr0  1  0.50000000  -0.00000000  0.25000000  1
  Sr  Sr1  1  0.00000000  0.50000000  0.75000000  1
  Ca  Ca2  1  0.00000000  0.50000000  0.25000000  1
  Ca  Ca3  1  0.50000000  0.00000000  0.75000000  1
  Nd  Nd4  1  -0.00000000  -0.00000000  0.00000000  1
  Nd  Nd5  1  0.50000000  0.50000000  0.50000000  1
  Sb  Sb6  1  0.00000000  -0.00000000  0.50000000  1
  Sb  Sb7  1  0.50000000  0.50000000  -0.00000000  1
  O  O8  1  -0.00000000  0.00000000  0.26626122  1
  O  O9  1  0.50000000  0.50000000  0.23373878  1
  O  O10  1  -0.00000000  0.00000000  0.73373878  1
  O  O11  1  0.50000000  0.50000000  0.76626122  1
  O  O12  1  0.34510412  0.19586987  0.99001449  1
  O  O13  1  0.65489588  0.80413013  0.99001449  1
  O  O14  1  0.80413013  0.34510412  0.00998551  1
  O  O15  1  0.19586987  0.65489588  0.00998551  1
  O  O16  1  0.84510412  0.30413013  0.49001449  1
  O  O17  1  0.15489588  0.69586987  0.49001449  1
  O  O18  1  0.30413013  0.15489588  0.50998551  1
  O  O19  1  0.69586987  0.84510412  0.50998551  1
