# generated using pymatgen
data_KLaNb4O12
_symmetry_space_group_name_H-M   'P 1'
_cell_length_a   5.68547267
_cell_length_b   5.68547267
_cell_length_c   7.98294613
_cell_angle_alpha   90.00000000
_cell_angle_beta   90.00000000
_cell_angle_gamma   91.66630848
_symmetry_Int_Tables_number   1
_chemical_formula_structural   KLaNb4O12
_chemical_formula_sum   'K1 La1 Nb4 O12'
_cell_volume   257.93641719
_cell_formula_units_Z   1
loop_
 _symmetry_equiv_pos_site_id
 _symmetry_equiv_pos_as_xyz
  1  'x, y, z'
loop_
 _atom_site_type_symbol
 _atom_site_label
 _atom_site_symmetry_multiplicity
 _atom_site_fract_x
 _atom_site_fract_y
 _atom_site_fract_z
 _atom_site_occupancy
  K  K0  1  0.99555573  0.00444427  0.50000000  1
  La  La1  1  0.48652876  0.51347124  0.00000000  1
  Nb  Nb2  1  0.48886407  0.01631471  0.25228375  1
  Nb  Nb3  1  0.48886407  0.01631471  0.74771625  1
  Nb  Nb4  1  0.98368529  0.51113593  0.74771625  1
  Nb  Nb5  1  0.98368529  0.51113593  0.25228375  1
  O  O6  1  0.27857312  0.26866834  0.23624780  1
  O  O7  1  0.73133166  0.72142688  0.23624780  1
  O  O8  1  0.73133166  0.72142688  0.76375220  1
  O  O9  1  0.27857312  0.26866834  0.76375220  1
  O  O10  1  0.25219475  0.74780525  0.21399234  1
  O  O11  1  0.76923719  0.23076281  0.26293873  1
  O  O12  1  0.76923719  0.23076281  0.73706127  1
  O  O13  1  0.25219475  0.74780525  0.78600766  1
  O  O14  1  0.52801903  0.02569125  0.00000000  1
  O  O15  1  0.47995470  0.98013910  0.50000000  1
  O  O16  1  0.97430875  0.47198097  -0.00000000  1
  O  O17  1  0.01986090  0.52004530  0.50000000  1
