# generated using pymatgen
data_SrDyV4O12
_symmetry_space_group_name_H-M   'P 1'
_cell_length_a   5.48711896
_cell_length_b   5.48711896
_cell_length_c   7.38496626
_cell_angle_alpha   90.00000000
_cell_angle_beta   90.00000000
_cell_angle_gamma   85.72094039
_symmetry_Int_Tables_number   1
_chemical_formula_structural   SrDyV4O12
_chemical_formula_sum   'Sr1 Dy1 V4 O12'
_cell_volume   221.73026087
_cell_formula_units_Z   1
loop_
 _symmetry_equiv_pos_site_id
 _symmetry_equiv_pos_as_xyz
  1  'x, y, z'
loop_
 _atom_site_type_symbol
 _atom_site_label
 _atom_site_symmetry_multiplicity
 _atom_site_fract_x
 _atom_site_fract_y
 _atom_site_fract_z
 _atom_site_occupancy
  Sr  Sr0  1  0.00473660  0.00473660  0.50000000  1
  Dy  Dy1  1  0.53448082  0.53448082  -0.00000000  1
  V  V2  1  0.52398582  0.02449191  0.75155589  1
  V  V3  1  0.52398582  0.02449191  0.24844411  1
  V  V4  1  0.02449191  0.52398582  0.24844411  1
  V  V5  1  0.02449191  0.52398582  0.75155589  1
  O  O6  1  0.75841706  0.21137899  0.76110966  1
  O  O7  1  0.21137899  0.75841706  0.76110966  1
  O  O8  1  0.21137899  0.75841706  0.23889034  1
  O  O9  1  0.75841706  0.21137899  0.23889034  1
  O  O10  1  0.71468525  0.71468525  0.72951804  1
  O  O11  1  0.27678584  0.27678584  0.79195925  1
  O  O12  1  0.27678584  0.27678584  0.20804075  1
  O  O13  1  0.71468525  0.71468525  0.27048196  1
  O  O14  1  0.50874968  0.93944834  0.00000000  1
  O  O15  1  0.46812386  0.02427096  0.50000000  1
  O  O16  1  0.93944834  0.50874968  0.00000000  1
  O  O17  1  0.02427096  0.46812386  0.50000000  1
