# generated using pymatgen
data_SrDyMn4O12
_symmetry_space_group_name_H-M   'P 1'
_cell_length_a   5.34568549
_cell_length_b   5.34568549
_cell_length_c   7.56364530
_cell_angle_alpha   90.00000000
_cell_angle_beta   90.00000000
_cell_angle_gamma   90.00000000
_symmetry_Int_Tables_number   1
_chemical_formula_structural   SrDyMn4O12
_chemical_formula_sum   'Sr1 Dy1 Mn4 O12'
_cell_volume   216.14140077
_cell_formula_units_Z   1
loop_
 _symmetry_equiv_pos_site_id
 _symmetry_equiv_pos_as_xyz
  1  'x, y, z'
loop_
 _atom_site_type_symbol
 _atom_site_label
 _atom_site_symmetry_multiplicity
 _atom_site_fract_x
 _atom_site_fract_y
 _atom_site_fract_z
 _atom_site_occupancy
  Sr  Sr0  1  0.00000000  0.00000000  0.50000000  1
  Dy  Dy1  1  0.50000000  0.50000000  -0.00000000  1
  Mn  Mn2  1  0.00000000  0.50000000  0.74869193  1
  Mn  Mn3  1  0.00000000  0.50000000  0.25130807  1
  Mn  Mn4  1  0.50000000  -0.00000000  0.74869193  1
  Mn  Mn5  1  0.50000000  0.00000000  0.25130807  1
  O  O6  1  0.25940185  0.25940185  0.76880562  1
  O  O7  1  0.25940185  0.25940185  0.23119438  1
  O  O8  1  0.74059815  0.74059815  0.76880562  1
  O  O9  1  0.74059815  0.74059815  0.23119438  1
  O  O10  1  0.74059815  0.25940185  0.76880562  1
  O  O11  1  0.74059815  0.25940185  0.23119438  1
  O  O12  1  0.25940185  0.74059815  0.76880562  1
  O  O13  1  0.25940185  0.74059815  0.23119438  1
  O  O14  1  0.00000000  0.50000000  0.50000000  1
  O  O15  1  0.00000000  0.50000000  -0.00000000  1
  O  O16  1  0.50000000  0.00000000  0.50000000  1
  O  O17  1  0.50000000  -0.00000000  -0.00000000  1
