# generated using pymatgen
data_BaSrYWO6
_symmetry_space_group_name_H-M   'P 1'
_cell_length_a   8.42068990
_cell_length_b   8.44445002
_cell_length_c   8.46256905
_cell_angle_alpha   90.00000000
_cell_angle_beta   90.00000000
_cell_angle_gamma   90.00000000
_symmetry_Int_Tables_number   1
_chemical_formula_structural   BaSrYWO6
_chemical_formula_sum   'Ba4 Sr4 Y4 W4 O24'
_cell_volume   601.75716390
_cell_formula_units_Z   4
loop_
 _symmetry_equiv_pos_site_id
 _symmetry_equiv_pos_as_xyz
  1  'x, y, z'
loop_
 _atom_site_type_symbol
 _atom_site_label
 _atom_site_symmetry_multiplicity
 _atom_site_fract_x
 _atom_site_fract_y
 _atom_site_fract_z
 _atom_site_occupancy
  Ba  Ba0  1  -0.00000000  -0.00000000  -0.00000000  1
  Ba  Ba1  1  0.50000000  0.50000000  0.50000000  1
  Ba  Ba2  1  -0.00000000  0.50000000  -0.00000000  1
  Ba  Ba3  1  -0.00000000  -0.00000000  0.50000000  1
  Sr  Sr4  1  -0.00000000  0.50000000  0.50000000  1
  Sr  Sr5  1  0.50000000  -0.00000000  0.50000000  1
  Sr  Sr6  1  0.50000000  0.50000000  -0.00000000  1
  Sr  Sr7  1  0.50000000  -0.00000000  -0.00000000  1
  Y  Y8  1  0.25210725  0.25039784  0.25009626  1
  Y  Y9  1  0.74789275  0.74960216  0.25009626  1
  Y  Y10  1  0.74789275  0.25039784  0.74990374  1
  Y  Y11  1  0.25210725  0.74960216  0.74990374  1
  W  W12  1  0.74753321  0.74959883  0.75025295  1
  W  W13  1  0.25246679  0.25040117  0.75025295  1
  W  W14  1  0.25246679  0.74959883  0.24974705  1
  W  W15  1  0.74753321  0.25040117  0.24974705  1
  O  O16  1  0.98358349  0.22917364  0.27441131  1
  O  O17  1  0.01641651  0.77082636  0.27441131  1
  O  O18  1  0.01641651  0.22917364  0.72558869  1
  O  O19  1  0.98358349  0.77082636  0.72558869  1
  O  O20  1  0.28299550  0.98566126  0.22211734  1
  O  O21  1  0.28299550  0.01433874  0.77788266  1
  O  O22  1  0.71700450  0.01433874  0.22211734  1
  O  O23  1  0.71700450  0.98566126  0.77788266  1
  O  O24  1  0.22994849  0.27516813  0.98751025  1
  O  O25  1  0.77005151  0.27516813  0.01248975  1
  O  O26  1  0.22994849  0.72483187  0.01248975  1
  O  O27  1  0.77005151  0.72483187  0.98751025  1
  O  O28  1  0.51471882  0.28064625  0.21760523  1
  O  O29  1  0.48528118  0.71935375  0.21760523  1
  O  O30  1  0.48528118  0.28064625  0.78239477  1
  O  O31  1  0.51471882  0.71935375  0.78239477  1
  O  O32  1  0.21953509  0.51442621  0.28169377  1
  O  O33  1  0.21953509  0.48557379  0.71830623  1
  O  O34  1  0.78046491  0.48557379  0.28169377  1
  O  O35  1  0.78046491  0.51442621  0.71830623  1
  O  O36  1  0.28192961  0.21824309  0.51319959  1
  O  O37  1  0.71807039  0.21824309  0.48680041  1
  O  O38  1  0.28192961  0.78175691  0.48680041  1
  O  O39  1  0.71807039  0.78175691  0.51319959  1
