# generated using pymatgen
data_BaSrEuSbO6
_symmetry_space_group_name_H-M   'P 1'
_cell_length_a   6.01597845
_cell_length_b   6.06831331
_cell_length_c   8.56119355
_cell_angle_alpha   90.34894633
_cell_angle_beta   90.26323582
_cell_angle_gamma   90.67448141
_symmetry_Int_Tables_number   1
_chemical_formula_structural   BaSrEuSbO6
_chemical_formula_sum   'Ba2 Sr2 Eu2 Sb2 O12'
_cell_volume   312.51128682
_cell_formula_units_Z   2
loop_
 _symmetry_equiv_pos_site_id
 _symmetry_equiv_pos_as_xyz
  1  'x, y, z'
loop_
 _atom_site_type_symbol
 _atom_site_label
 _atom_site_symmetry_multiplicity
 _atom_site_fract_x
 _atom_site_fract_y
 _atom_site_fract_z
 _atom_site_occupancy
  Ba  Ba0  1  0.50640420  0.52896658  0.24938993  1
  Ba  Ba1  1  0.49359580  0.47103342  0.75061007  1
  Sr  Sr2  1  0.99209784  0.03852296  0.25115540  1
  Sr  Sr3  1  0.00790216  0.96147704  0.74884460  1
  Eu  Eu4  1  -0.00000000  0.50000000  -0.00000000  1
  Eu  Eu5  1  0.50000000  0.00000000  0.50000000  1
  Sb  Sb6  1  0.50000000  0.00000000  -0.00000000  1
  Sb  Sb7  1  -0.00000000  0.50000000  0.50000000  1
  O  O8  1  0.23101824  0.19652323  0.95929518  1
  O  O9  1  0.26326221  0.70390192  0.53253630  1
  O  O10  1  0.76898176  0.80347677  0.04070482  1
  O  O11  1  0.73673779  0.29609808  0.46746370  1
  O  O12  1  0.29882760  0.73693749  0.96313239  1
  O  O13  1  0.19391220  0.22744619  0.53868422  1
  O  O14  1  0.70117240  0.26306251  0.03686761  1
  O  O15  1  0.80608780  0.77255381  0.46131578  1
  O  O16  1  0.42082376  0.99322734  0.23303278  1
  O  O17  1  0.06064614  0.47300680  0.26700857  1
  O  O18  1  0.57917624  0.00677266  0.76696722  1
  O  O19  1  0.93935386  0.52699320  0.73299143  1
