# generated using pymatgen
data_KCeZr4O12
_symmetry_space_group_name_H-M   'P 1'
_cell_length_a   5.80679752
_cell_length_b   5.80679752
_cell_length_c   8.28456444
_cell_angle_alpha   90.00000000
_cell_angle_beta   90.00000000
_cell_angle_gamma   91.07226284
_symmetry_Int_Tables_number   1
_chemical_formula_structural   KCeZr4O12
_chemical_formula_sum   'K1 Ce1 Zr4 O12'
_cell_volume   279.29746173
_cell_formula_units_Z   1
loop_
 _symmetry_equiv_pos_site_id
 _symmetry_equiv_pos_as_xyz
  1  'x, y, z'
loop_
 _atom_site_type_symbol
 _atom_site_label
 _atom_site_symmetry_multiplicity
 _atom_site_fract_x
 _atom_site_fract_y
 _atom_site_fract_z
 _atom_site_occupancy
  K  K0  1  0.00451580  0.99548420  0.50000000  1
  Ce  Ce1  1  0.48897879  0.51102121  0.00000000  1
  Zr  Zr2  1  0.50176022  0.00721699  0.25494445  1
  Zr  Zr3  1  0.50176022  0.00721699  0.74505555  1
  Zr  Zr4  1  0.99278301  0.49823978  0.74505555  1
  Zr  Zr5  1  0.99278301  0.49823978  0.25494445  1
  O  O6  1  0.29111783  0.29632787  0.20759738  1
  O  O7  1  0.70367213  0.70888217  0.20759738  1
  O  O8  1  0.70367213  0.70888217  0.79240262  1
  O  O9  1  0.29111783  0.29632787  0.79240262  1
  O  O10  1  0.25282936  0.74717064  0.17904782  1
  O  O11  1  0.79558258  0.20441742  0.27451601  1
  O  O12  1  0.79558258  0.20441742  0.72548399  1
  O  O13  1  0.25282936  0.74717064  0.82095218  1
  O  O14  1  0.55002038  0.10565144  0.00000000  1
  O  O15  1  0.46114085  0.98679465  0.50000000  1
  O  O16  1  0.89434856  0.44997962  -0.00000000  1
  O  O17  1  0.01320535  0.53885915  0.50000000  1
