# generated using pymatgen
data_InBiS3
_symmetry_space_group_name_H-M   'P 1'
_cell_length_a   3.93575700
_cell_length_b   6.67033000
_cell_length_c   9.94385815
_cell_angle_alpha   88.66672546
_cell_angle_beta   90.00000000
_cell_angle_gamma   90.00000000
_symmetry_Int_Tables_number   1
_chemical_formula_structural   InBiS3
_chemical_formula_sum   'In2 Bi2 S6'
_cell_volume   260.98342278
_cell_formula_units_Z   2
loop_
 _symmetry_equiv_pos_site_id
 _symmetry_equiv_pos_as_xyz
  1  'x, y, z'
loop_
 _atom_site_type_symbol
 _atom_site_label
 _atom_site_symmetry_multiplicity
 _atom_site_fract_x
 _atom_site_fract_y
 _atom_site_fract_z
 _atom_site_occupancy
  In  In0  1  0.25000000  0.75442400  0.99709400  1
  In  In1  1  0.75000000  0.24557600  0.00290600  1
  Bi  Bi2  1  0.25000000  0.39582700  0.34910200  1
  Bi  Bi3  1  0.75000000  0.60417300  0.65089800  1
  S  S4  1  0.75000000  0.25124100  0.51113600  1
  S  S5  1  0.25000000  0.74875900  0.48886400  1
  S  S6  1  0.25000000  0.42781400  0.85087200  1
  S  S7  1  0.75000000  0.57218600  0.14912800  1
  S  S8  1  0.25000000  0.08207900  0.14341200  1
  S  S9  1  0.75000000  0.91792100  0.85658800  1
