# generated using pymatgen
data_KSrNdWO6
_symmetry_space_group_name_H-M   'P 1'
_cell_length_a   8.51217813
_cell_length_b   8.49592874
_cell_length_c   8.51154882
_cell_angle_alpha   90.00000000
_cell_angle_beta   90.00000000
_cell_angle_gamma   90.00000000
_symmetry_Int_Tables_number   1
_chemical_formula_structural   KSrNdWO6
_chemical_formula_sum   'K4 Sr4 Nd4 W4 O24'
_cell_volume   615.54549741
_cell_formula_units_Z   4
loop_
 _symmetry_equiv_pos_site_id
 _symmetry_equiv_pos_as_xyz
  1  'x, y, z'
loop_
 _atom_site_type_symbol
 _atom_site_label
 _atom_site_symmetry_multiplicity
 _atom_site_fract_x
 _atom_site_fract_y
 _atom_site_fract_z
 _atom_site_occupancy
  K  K0  1  0.00000000  0.50000000  0.50000000  1
  K  K1  1  0.50000000  0.00000000  0.50000000  1
  K  K2  1  0.50000000  -0.00000000  0.00000000  1
  K  K3  1  0.00000000  0.50000000  0.00000000  1
  Sr  Sr4  1  0.50000000  0.50000000  -0.00000000  1
  Sr  Sr5  1  0.00000000  -0.00000000  0.50000000  1
  Sr  Sr6  1  0.00000000  -0.00000000  -0.00000000  1
  Sr  Sr7  1  0.50000000  0.50000000  0.50000000  1
  Nd  Nd8  1  0.75000000  0.75000000  0.75000000  1
  Nd  Nd9  1  0.25000000  0.25000000  0.75000000  1
  Nd  Nd10  1  0.25000000  0.75000000  0.25000000  1
  Nd  Nd11  1  0.75000000  0.25000000  0.25000000  1
  W  W12  1  0.25000000  0.25000000  0.25000000  1
  W  W13  1  0.75000000  0.75000000  0.25000000  1
  W  W14  1  0.75000000  0.25000000  0.75000000  1
  W  W15  1  0.25000000  0.75000000  0.75000000  1
  O  O16  1  0.02197452  0.21237049  0.27465502  1
  O  O17  1  0.97802548  0.78762951  0.27465502  1
  O  O18  1  0.97802548  0.21237049  0.72534498  1
  O  O19  1  0.02197452  0.78762951  0.72534498  1
  O  O20  1  0.26839450  0.02332184  0.22142528  1
  O  O21  1  0.26839450  0.97667816  0.77857472  1
  O  O22  1  0.73160550  0.97667816  0.22142528  1
  O  O23  1  0.73160550  0.02332184  0.77857472  1
  O  O24  1  0.22262142  0.27286874  0.02263257  1
  O  O25  1  0.77737858  0.27286874  0.97736743  1
  O  O26  1  0.22262142  0.72713126  0.97736743  1
  O  O27  1  0.77737858  0.72713126  0.02263257  1
  O  O28  1  0.47802548  0.28762951  0.22534498  1
  O  O29  1  0.52197452  0.71237049  0.22534498  1
  O  O30  1  0.52197452  0.28762951  0.77465502  1
  O  O31  1  0.47802548  0.71237049  0.77465502  1
  O  O32  1  0.23160550  0.47667816  0.27857472  1
  O  O33  1  0.23160550  0.52332184  0.72142528  1
  O  O34  1  0.76839450  0.52332184  0.27857472  1
  O  O35  1  0.76839450  0.47667816  0.72142528  1
  O  O36  1  0.27737858  0.22713126  0.47736743  1
  O  O37  1  0.72262142  0.22713126  0.52263257  1
  O  O38  1  0.27737858  0.77286874  0.52263257  1
  O  O39  1  0.72262142  0.77286874  0.47736743  1
