# generated using pymatgen
data_CaNdV4O12
_symmetry_space_group_name_H-M   'P 1'
_cell_length_a   5.31693282
_cell_length_b   5.31693282
_cell_length_c   7.53114192
_cell_angle_alpha   90.00000000
_cell_angle_beta   90.00000000
_cell_angle_gamma   90.45380170
_symmetry_Int_Tables_number   1
_chemical_formula_structural   CaNdV4O12
_chemical_formula_sum   'Ca1 Nd1 V4 O12'
_cell_volume   212.89700666
_cell_formula_units_Z   1
loop_
 _symmetry_equiv_pos_site_id
 _symmetry_equiv_pos_as_xyz
  1  'x, y, z'
loop_
 _atom_site_type_symbol
 _atom_site_label
 _atom_site_symmetry_multiplicity
 _atom_site_fract_x
 _atom_site_fract_y
 _atom_site_fract_z
 _atom_site_occupancy
  Ca  Ca0  1  0.49024865  0.50975135  -0.00000000  1
  Nd  Nd1  1  0.01330944  0.98669056  0.50000000  1
  V  V2  1  0.50518052  0.99872158  0.24596912  1
  V  V3  1  0.50518052  0.99872158  0.75403088  1
  V  V4  1  0.00127842  0.49481948  0.75403088  1
  V  V5  1  0.00127842  0.49481948  0.24596912  1
  O  O6  1  0.27356942  0.27844104  0.24914959  1
  O  O7  1  0.72155896  0.72643058  0.24914959  1
  O  O8  1  0.72155896  0.72643058  0.75085041  1
  O  O9  1  0.27356942  0.27844104  0.75085041  1
  O  O10  1  0.22345564  0.77654436  0.22416786  1
  O  O11  1  0.78062338  0.21937662  0.28062106  1
  O  O12  1  0.78062338  0.21937662  0.71937894  1
  O  O13  1  0.22345564  0.77654436  0.77583214  1
  O  O14  1  0.52791821  0.03365188  -0.00000000  1
  O  O15  1  0.46614593  0.98000300  0.50000000  1
  O  O16  1  0.96634812  0.47208179  -0.00000000  1
  O  O17  1  0.01999700  0.53385407  0.50000000  1
