# generated using pymatgen
data_YCoSi2
_symmetry_space_group_name_H-M   'P 1'
_cell_length_a   8.26973520
_cell_length_b   8.26973520
_cell_length_c   4.01806500
_cell_angle_alpha   90.00000000
_cell_angle_beta   90.00000000
_cell_angle_gamma   151.70251724
_symmetry_Int_Tables_number   1
_chemical_formula_structural   YCoSi2
_chemical_formula_sum   'Y2 Co2 Si4'
_cell_volume   130.26384144
_cell_formula_units_Z   2
loop_
 _symmetry_equiv_pos_site_id
 _symmetry_equiv_pos_as_xyz
  1  'x, y, z'
loop_
 _atom_site_type_symbol
 _atom_site_label
 _atom_site_symmetry_multiplicity
 _atom_site_fract_x
 _atom_site_fract_y
 _atom_site_fract_z
 _atom_site_occupancy
  Y  Y0  1  0.89403600  0.10596400  0.75000000  1
  Y  Y1  1  0.10596400  0.89403600  0.25000000  1
  Co  Co2  1  0.68092700  0.31907300  0.75000000  1
  Co  Co3  1  0.31907300  0.68092700  0.25000000  1
  Si  Si4  1  0.54253400  0.45746600  0.75000000  1
  Si  Si5  1  0.45746600  0.54253400  0.25000000  1
  Si  Si6  1  0.25076300  0.74923700  0.75000000  1
  Si  Si7  1  0.74923700  0.25076300  0.25000000  1
