data_image0
_chemical_formula_structural       CrF6Sr
_chemical_formula_sum              "Cr1 F6 Sr1"
_cell_length_a       4.5839
_cell_length_b       4.5839
_cell_length_c       4.58389
_cell_angle_alpha    98.3785
_cell_angle_beta     98.3785
_cell_angle_gamma    98.3788

_space_group_name_H-M_alt    "P 1"
_space_group_IT_number       1

loop_
  _space_group_symop_operation_xyz
  'x, y, z'

loop_
  _atom_site_type_symbol
  _atom_site_label
  _atom_site_symmetry_multiplicity
  _atom_site_fract_x
  _atom_site_fract_y
  _atom_site_fract_z
  _atom_site_occupancy
  Cr  Cr1       1.0  0.00000  0.00000  0.00000  1.0000
  F   F1        1.0  0.71400  0.71400  0.07730  1.0000
  F   F2        1.0  0.28600  0.92300  0.28600  1.0000
  F   F3        1.0  0.92300  0.28600  0.28600  1.0000
  F   F4        1.0  0.07730  0.71400  0.71400  1.0000
  F   F5        1.0  0.71400  0.07730  0.71400  1.0000
  F   F6        1.0  0.28600  0.28600  0.92300  1.0000
  Sr  Sr1       1.0  0.50000  0.50000  0.50000  1.0000
