# generated using pymatgen
data_Sc3RhC4
_symmetry_space_group_name_H-M   'P 1'
_cell_length_a   6.76032815
_cell_length_b   6.76032815
_cell_length_c   6.76032815
_cell_angle_alpha   150.80775221
_cell_angle_beta   141.18846693
_cell_angle_gamma   49.29232920
_symmetry_Int_Tables_number   1
_chemical_formula_structural   Sc3RhC4
_chemical_formula_sum   'Sc3 Rh1 C4'
_cell_volume   94.05021210
_cell_formula_units_Z   1
loop_
 _symmetry_equiv_pos_site_id
 _symmetry_equiv_pos_as_xyz
  1  'x, y, z'
loop_
 _atom_site_type_symbol
 _atom_site_label
 _atom_site_symmetry_multiplicity
 _atom_site_fract_x
 _atom_site_fract_y
 _atom_site_fract_z
 _atom_site_occupancy
  Sc  Sc0  1  0.50000000  0.50000000  0.00000000  1
  Sc  Sc1  1  0.81096500  0.31096500  0.50000000  1
  Sc  Sc2  1  0.18903500  0.68903500  0.50000000  1
  Rh  Rh3  1  0.00000000  0.00000000  0.00000000  1
  C  C4  1  0.21074900  0.87120300  0.33954600  1
  C  C5  1  0.78925100  0.12879700  0.66045400  1
  C  C6  1  0.46834200  0.12879700  0.33954600  1
  C  C7  1  0.53165800  0.87120300  0.66045400  1
