# generated using pymatgen
data_BaNaLaWO6
_symmetry_space_group_name_H-M   'P 1'
_cell_length_a   8.52798113
_cell_length_b   8.56786670
_cell_length_c   8.53899399
_cell_angle_alpha   90.00000000
_cell_angle_beta   90.00000000
_cell_angle_gamma   90.00000000
_symmetry_Int_Tables_number   1
_chemical_formula_structural   BaNaLaWO6
_chemical_formula_sum   'Ba4 Na4 La4 W4 O24'
_cell_volume   623.91530559
_cell_formula_units_Z   4
loop_
 _symmetry_equiv_pos_site_id
 _symmetry_equiv_pos_as_xyz
  1  'x, y, z'
loop_
 _atom_site_type_symbol
 _atom_site_label
 _atom_site_symmetry_multiplicity
 _atom_site_fract_x
 _atom_site_fract_y
 _atom_site_fract_z
 _atom_site_occupancy
  Ba  Ba0  1  0.00000000  0.00000000  -0.00000000  1
  Ba  Ba1  1  0.50000000  0.50000000  0.50000000  1
  Ba  Ba2  1  0.50000000  0.00000000  0.50000000  1
  Ba  Ba3  1  0.00000000  0.50000000  -0.00000000  1
  Na  Na4  1  0.00000000  0.50000000  0.50000000  1
  Na  Na5  1  0.50000000  0.50000000  -0.00000000  1
  Na  Na6  1  0.50000000  0.00000000  -0.00000000  1
  Na  Na7  1  0.00000000  0.00000000  0.50000000  1
  La  La8  1  0.75000000  0.75000000  0.75000000  1
  La  La9  1  0.25000000  0.25000000  0.75000000  1
  La  La10  1  0.25000000  0.75000000  0.25000000  1
  La  La11  1  0.75000000  0.25000000  0.25000000  1
  W  W12  1  0.25000000  0.25000000  0.25000000  1
  W  W13  1  0.75000000  0.75000000  0.25000000  1
  W  W14  1  0.75000000  0.25000000  0.75000000  1
  W  W15  1  0.25000000  0.75000000  0.75000000  1
  O  O16  1  0.02648665  0.20494851  0.27521096  1
  O  O17  1  0.97351335  0.79505149  0.27521096  1
  O  O18  1  0.97351335  0.20494851  0.72478904  1
  O  O19  1  0.02648665  0.79505149  0.72478904  1
  O  O20  1  0.29041266  0.02666023  0.21925704  1
  O  O21  1  0.29041266  0.97333977  0.78074296  1
  O  O22  1  0.70958734  0.97333977  0.21925704  1
  O  O23  1  0.70958734  0.02666023  0.78074296  1
  O  O24  1  0.21335327  0.27233350  0.02446587  1
  O  O25  1  0.78664673  0.27233350  0.97553413  1
  O  O26  1  0.21335327  0.72766650  0.97553413  1
  O  O27  1  0.78664673  0.72766650  0.02446587  1
  O  O28  1  0.47351335  0.29505149  0.22478904  1
  O  O29  1  0.52648665  0.70494851  0.22478904  1
  O  O30  1  0.52648665  0.29505149  0.77521096  1
  O  O31  1  0.47351335  0.70494851  0.77521096  1
  O  O32  1  0.20958734  0.47333977  0.28074296  1
  O  O33  1  0.20958734  0.52666023  0.71925704  1
  O  O34  1  0.79041266  0.52666023  0.28074296  1
  O  O35  1  0.79041266  0.47333977  0.71925704  1
  O  O36  1  0.28664673  0.22766650  0.47553413  1
  O  O37  1  0.71335327  0.22766650  0.52446587  1
  O  O38  1  0.28664673  0.77233350  0.52446587  1
  O  O39  1  0.71335327  0.77233350  0.47553413  1
