# generated using pymatgen
data_KIn(GeO3)4
_symmetry_space_group_name_H-M   'P 1'
_cell_length_a   5.30636427
_cell_length_b   5.30636427
_cell_length_c   7.51045763
_cell_angle_alpha   90.00000000
_cell_angle_beta   90.00000000
_cell_angle_gamma   88.83898129
_symmetry_Int_Tables_number   1
_chemical_formula_structural   KIn(GeO3)4
_chemical_formula_sum   'K1 In1 Ge4 O12'
_cell_volume   211.43230817
_cell_formula_units_Z   1
loop_
 _symmetry_equiv_pos_site_id
 _symmetry_equiv_pos_as_xyz
  1  'x, y, z'
loop_
 _atom_site_type_symbol
 _atom_site_label
 _atom_site_symmetry_multiplicity
 _atom_site_fract_x
 _atom_site_fract_y
 _atom_site_fract_z
 _atom_site_occupancy
  K  K0  1  0.98437107  0.01562893  0.00000000  1
  In  In1  1  0.51847272  0.48152728  0.50000000  1
  Ge  Ge2  1  0.49443810  0.99045623  0.24517745  1
  Ge  Ge3  1  0.49443810  0.99045623  0.75482255  1
  Ge  Ge4  1  0.00954377  0.50556190  0.75482255  1
  Ge  Ge5  1  0.00954377  0.50556190  0.24517745  1
  O  O6  1  0.22106656  0.22028859  0.26523258  1
  O  O7  1  0.77971141  0.77893344  0.26523258  1
  O  O8  1  0.77971141  0.77893344  0.73476742  1
  O  O9  1  0.22106656  0.22028859  0.73476742  1
  O  O10  1  0.29604529  0.70395471  0.30576398  1
  O  O11  1  0.71082553  0.28917447  0.23709025  1
  O  O12  1  0.71082553  0.28917447  0.76290975  1
  O  O13  1  0.29604529  0.70395471  0.69423602  1
  O  O14  1  0.47458730  0.95794779  -0.00000000  1
  O  O15  1  0.52123773  0.06818234  0.50000000  1
  O  O16  1  0.04205221  0.52541270  0.00000000  1
  O  O17  1  0.93181766  0.47876227  0.50000000  1
