# generated using pymatgen
data_BaDySnSbO6
_symmetry_space_group_name_H-M   'P 1'
_cell_length_a   8.45649419
_cell_length_b   8.46003611
_cell_length_c   8.40080495
_cell_angle_alpha   90.00000000
_cell_angle_beta   90.00000000
_cell_angle_gamma   90.00000000
_symmetry_Int_Tables_number   1
_chemical_formula_structural   BaDySnSbO6
_chemical_formula_sum   'Ba4 Dy4 Sn4 Sb4 O24'
_cell_volume   601.01245611
_cell_formula_units_Z   4
loop_
 _symmetry_equiv_pos_site_id
 _symmetry_equiv_pos_as_xyz
  1  'x, y, z'
loop_
 _atom_site_type_symbol
 _atom_site_label
 _atom_site_symmetry_multiplicity
 _atom_site_fract_x
 _atom_site_fract_y
 _atom_site_fract_z
 _atom_site_occupancy
  Ba  Ba0  1  0.00000000  -0.00000000  -0.00000000  1
  Ba  Ba1  1  0.50000000  0.50000000  0.50000000  1
  Ba  Ba2  1  0.50000000  -0.00000000  0.50000000  1
  Ba  Ba3  1  0.00000000  0.50000000  -0.00000000  1
  Dy  Dy4  1  0.75000000  0.75000000  0.75000000  1
  Dy  Dy5  1  0.25000000  0.25000000  0.75000000  1
  Dy  Dy6  1  0.25000000  0.75000000  0.25000000  1
  Dy  Dy7  1  0.75000000  0.25000000  0.25000000  1
  Sn  Sn8  1  0.00000000  0.50000000  0.50000000  1
  Sn  Sn9  1  0.50000000  0.50000000  -0.00000000  1
  Sn  Sn10  1  0.50000000  -0.00000000  0.00000000  1
  Sn  Sn11  1  0.00000000  -0.00000000  0.50000000  1
  Sb  Sb12  1  0.25000000  0.25000000  0.25000000  1
  Sb  Sb13  1  0.75000000  0.75000000  0.25000000  1
  Sb  Sb14  1  0.75000000  0.25000000  0.75000000  1
  Sb  Sb15  1  0.25000000  0.75000000  0.75000000  1
  O  O16  1  0.01443785  0.20972183  0.27558850  1
  O  O17  1  0.98556215  0.79027817  0.27558850  1
  O  O18  1  0.98556215  0.20972183  0.72441150  1
  O  O19  1  0.01443785  0.79027817  0.72441150  1
  O  O20  1  0.28846071  0.01435712  0.22331605  1
  O  O21  1  0.28846071  0.98564288  0.77668395  1
  O  O22  1  0.71153929  0.98564288  0.22331605  1
  O  O23  1  0.71153929  0.01435712  0.77668395  1
  O  O24  1  0.22227984  0.26828661  0.01363360  1
  O  O25  1  0.77772016  0.26828661  0.98636640  1
  O  O26  1  0.22227984  0.73171339  0.98636640  1
  O  O27  1  0.77772016  0.73171339  0.01363360  1
  O  O28  1  0.48556215  0.29027817  0.22441150  1
  O  O29  1  0.51443785  0.70972183  0.22441150  1
  O  O30  1  0.51443785  0.29027817  0.77558850  1
  O  O31  1  0.48556215  0.70972183  0.77558850  1
  O  O32  1  0.21153929  0.48564288  0.27668395  1
  O  O33  1  0.21153929  0.51435712  0.72331605  1
  O  O34  1  0.78846071  0.51435712  0.27668395  1
  O  O35  1  0.78846071  0.48564288  0.72331605  1
  O  O36  1  0.27772016  0.23171339  0.48636640  1
  O  O37  1  0.72227984  0.23171339  0.51363360  1
  O  O38  1  0.27772016  0.76828661  0.51363360  1
  O  O39  1  0.72227984  0.76828661  0.48636640  1
