# generated using pymatgen
data_SrLaEuNbO6
_symmetry_space_group_name_H-M   'P 1'
_cell_length_a   8.59667537
_cell_length_b   8.60078222
_cell_length_c   8.58256977
_cell_angle_alpha   90.00000000
_cell_angle_beta   90.00000000
_cell_angle_gamma   90.00000000
_symmetry_Int_Tables_number   1
_chemical_formula_structural   SrLaEuNbO6
_chemical_formula_sum   'Sr4 La4 Eu4 Nb4 O24'
_cell_volume   634.57918233
_cell_formula_units_Z   4
loop_
 _symmetry_equiv_pos_site_id
 _symmetry_equiv_pos_as_xyz
  1  'x, y, z'
loop_
 _atom_site_type_symbol
 _atom_site_label
 _atom_site_symmetry_multiplicity
 _atom_site_fract_x
 _atom_site_fract_y
 _atom_site_fract_z
 _atom_site_occupancy
  Sr  Sr0  1  0.00000000  0.50000000  0.50000000  1
  Sr  Sr1  1  0.50000000  0.00000000  0.50000000  1
  Sr  Sr2  1  0.50000000  0.50000000  0.00000000  1
  Sr  Sr3  1  0.00000000  0.50000000  -0.00000000  1
  La  La4  1  0.74971347  0.74971699  0.74986286  1
  La  La5  1  0.25028653  0.25028301  0.74986286  1
  La  La6  1  0.25028653  0.74971699  0.25013714  1
  La  La7  1  0.74971347  0.25028301  0.25013714  1
  Eu  Eu8  1  0.50000000  0.00000000  -0.00000000  1
  Eu  Eu9  1  0.00000000  0.00000000  0.50000000  1
  Eu  Eu10  1  0.00000000  0.00000000  0.00000000  1
  Eu  Eu11  1  0.50000000  0.50000000  0.50000000  1
  Nb  Nb12  1  0.25051471  0.25067662  0.24972885  1
  Nb  Nb13  1  0.74948529  0.74932338  0.24972885  1
  Nb  Nb14  1  0.74948529  0.25067662  0.75027115  1
  Nb  Nb15  1  0.25051471  0.74932338  0.75027115  1
  O  O16  1  0.02105493  0.19566576  0.29322254  1
  O  O17  1  0.97894507  0.80433424  0.29322254  1
  O  O18  1  0.97894507  0.19566576  0.70677746  1
  O  O19  1  0.02105493  0.80433424  0.70677746  1
  O  O20  1  0.29300778  0.02106889  0.19596927  1
  O  O21  1  0.29300778  0.97893111  0.80403073  1
  O  O22  1  0.70699222  0.97893111  0.19596927  1
  O  O23  1  0.70699222  0.02106889  0.80403073  1
  O  O24  1  0.19726696  0.29143879  0.02146041  1
  O  O25  1  0.80273304  0.29143879  0.97853959  1
  O  O26  1  0.19726696  0.70856121  0.97853959  1
  O  O27  1  0.80273304  0.70856121  0.02146041  1
  O  O28  1  0.47859870  0.30225567  0.20820409  1
  O  O29  1  0.52140130  0.69774433  0.20820409  1
  O  O30  1  0.52140130  0.30225567  0.79179591  1
  O  O31  1  0.47859870  0.69774433  0.79179591  1
  O  O32  1  0.20836411  0.47833919  0.30263482  1
  O  O33  1  0.20836411  0.52166081  0.69736518  1
  O  O34  1  0.79163589  0.52166081  0.30263482  1
  O  O35  1  0.79163589  0.47833919  0.69736518  1
  O  O36  1  0.30236659  0.20798203  0.47880943  1
  O  O37  1  0.69763341  0.20798203  0.52119057  1
  O  O38  1  0.30236659  0.79201797  0.52119057  1
  O  O39  1  0.69763341  0.79201797  0.47880943  1
