# generated using pymatgen
data_TmGe3
_symmetry_space_group_name_H-M   'P 1'
_cell_length_a   10.52519206
_cell_length_b   10.52519206
_cell_length_c   3.93589300
_cell_angle_alpha   90.00000000
_cell_angle_beta   90.00000000
_cell_angle_gamma   157.95516042
_symmetry_Int_Tables_number   1
_chemical_formula_structural   TmGe3
_chemical_formula_sum   'Tm2 Ge6'
_cell_volume   163.65114218
_cell_formula_units_Z   2
loop_
 _symmetry_equiv_pos_site_id
 _symmetry_equiv_pos_as_xyz
  1  'x, y, z'
loop_
 _atom_site_type_symbol
 _atom_site_label
 _atom_site_symmetry_multiplicity
 _atom_site_fract_x
 _atom_site_fract_y
 _atom_site_fract_z
 _atom_site_occupancy
  Tm  Tm0  1  0.91820000  0.08180000  0.75000000  1
  Tm  Tm1  1  0.08180000  0.91820000  0.25000000  1
  Ge  Ge2  1  0.54042400  0.45957600  0.75000000  1
  Ge  Ge3  1  0.45957600  0.54042400  0.25000000  1
  Ge  Ge4  1  0.31179000  0.68821000  0.75000000  1
  Ge  Ge5  1  0.68821000  0.31179000  0.25000000  1
  Ge  Ge6  1  0.80942100  0.19057900  0.25000000  1
  Ge  Ge7  1  0.19057900  0.80942100  0.75000000  1
