# generated using pymatgen
data_KPrEuSbO6
_symmetry_space_group_name_H-M   'P 1'
_cell_length_a   8.69053703
_cell_length_b   8.45761478
_cell_length_c   8.45411472
_cell_angle_alpha   90.00000000
_cell_angle_beta   90.00000000
_cell_angle_gamma   90.00000000
_symmetry_Int_Tables_number   1
_chemical_formula_structural   KPrEuSbO6
_chemical_formula_sum   'K4 Pr4 Eu4 Sb4 O24'
_cell_volume   621.38769886
_cell_formula_units_Z   4
loop_
 _symmetry_equiv_pos_site_id
 _symmetry_equiv_pos_as_xyz
  1  'x, y, z'
loop_
 _atom_site_type_symbol
 _atom_site_label
 _atom_site_symmetry_multiplicity
 _atom_site_fract_x
 _atom_site_fract_y
 _atom_site_fract_z
 _atom_site_occupancy
  K  K0  1  0.00000000  0.50000000  0.50000000  1
  K  K1  1  0.50000000  -0.00000000  0.50000000  1
  K  K2  1  0.50000000  -0.00000000  0.00000000  1
  K  K3  1  0.00000000  0.50000000  0.00000000  1
  Pr  Pr4  1  0.75000000  0.75000000  0.75000000  1
  Pr  Pr5  1  0.25000000  0.25000000  0.75000000  1
  Pr  Pr6  1  0.25000000  0.75000000  0.25000000  1
  Pr  Pr7  1  0.75000000  0.25000000  0.25000000  1
  Eu  Eu8  1  0.50000000  0.50000000  0.00000000  1
  Eu  Eu9  1  0.00000000  -0.00000000  0.50000000  1
  Eu  Eu10  1  0.00000000  -0.00000000  0.00000000  1
  Eu  Eu11  1  0.50000000  0.50000000  0.50000000  1
  Sb  Sb12  1  0.25000000  0.25000000  0.25000000  1
  Sb  Sb13  1  0.75000000  0.75000000  0.25000000  1
  Sb  Sb14  1  0.75000000  0.25000000  0.75000000  1
  Sb  Sb15  1  0.25000000  0.75000000  0.75000000  1
  O  O16  1  0.01656384  0.19205633  0.29164900  1
  O  O17  1  -0.01656384  0.80794367  0.29164900  1
  O  O18  1  -0.01656384  0.19205633  0.70835100  1
  O  O19  1  0.01656384  0.80794367  0.70835100  1
  O  O20  1  0.27781952  0.02130936  0.20518452  1
  O  O21  1  0.27781952  0.97869064  0.79481548  1
  O  O22  1  0.72218048  0.97869064  0.20518452  1
  O  O23  1  0.72218048  0.02130936  0.79481548  1
  O  O24  1  0.20689065  0.28383052  0.02058774  1
  O  O25  1  0.79310935  0.28383052  0.97941226  1
  O  O26  1  0.20689065  0.71616948  0.97941226  1
  O  O27  1  0.79310935  0.71616948  0.02058774  1
  O  O28  1  0.48343616  0.30794367  0.20835100  1
  O  O29  1  0.51656384  0.69205633  0.20835100  1
  O  O30  1  0.51656384  0.30794367  0.79164900  1
  O  O31  1  0.48343616  0.69205633  0.79164900  1
  O  O32  1  0.22218048  0.47869064  0.29481548  1
  O  O33  1  0.22218048  0.52130936  0.70518452  1
  O  O34  1  0.77781952  0.52130936  0.29481548  1
  O  O35  1  0.77781952  0.47869064  0.70518452  1
  O  O36  1  0.29310935  0.21616948  0.47941226  1
  O  O37  1  0.70689065  0.21616948  0.52058774  1
  O  O38  1  0.29310935  0.78383052  0.52058774  1
  O  O39  1  0.70689065  0.78383052  0.47941226  1
