# generated using pymatgen
data_KCaNdWO6
_symmetry_space_group_name_H-M   'P 1'
_cell_length_a   8.47539079
_cell_length_b   8.43173505
_cell_length_c   8.42021395
_cell_angle_alpha   90.00000000
_cell_angle_beta   90.00000000
_cell_angle_gamma   90.00000000
_symmetry_Int_Tables_number   1
_chemical_formula_structural   KCaNdWO6
_chemical_formula_sum   'K4 Ca4 Nd4 W4 O24'
_cell_volume   601.72743087
_cell_formula_units_Z   4
loop_
 _symmetry_equiv_pos_site_id
 _symmetry_equiv_pos_as_xyz
  1  'x, y, z'
loop_
 _atom_site_type_symbol
 _atom_site_label
 _atom_site_symmetry_multiplicity
 _atom_site_fract_x
 _atom_site_fract_y
 _atom_site_fract_z
 _atom_site_occupancy
  K  K0  1  -0.00000000  0.50000000  0.50000000  1
  K  K1  1  0.50000000  0.00000000  0.50000000  1
  K  K2  1  0.50000000  0.00000000  -0.00000000  1
  K  K3  1  -0.00000000  0.50000000  0.00000000  1
  Ca  Ca4  1  0.50000000  0.50000000  0.00000000  1
  Ca  Ca5  1  -0.00000000  0.00000000  0.50000000  1
  Ca  Ca6  1  -0.00000000  0.00000000  0.00000000  1
  Ca  Ca7  1  0.50000000  0.50000000  0.50000000  1
  Nd  Nd8  1  0.75000000  0.75000000  0.75000000  1
  Nd  Nd9  1  0.25000000  0.25000000  0.75000000  1
  Nd  Nd10  1  0.25000000  0.75000000  0.25000000  1
  Nd  Nd11  1  0.75000000  0.25000000  0.25000000  1
  W  W12  1  0.25000000  0.25000000  0.25000000  1
  W  W13  1  0.75000000  0.75000000  0.25000000  1
  W  W14  1  0.75000000  0.25000000  0.75000000  1
  W  W15  1  0.25000000  0.75000000  0.75000000  1
  O  O16  1  0.02213747  0.20290027  0.28186384  1
  O  O17  1  0.97786253  0.79709973  0.28186384  1
  O  O18  1  0.97786253  0.20290027  0.71813616  1
  O  O19  1  0.02213747  0.79709973  0.71813616  1
  O  O20  1  0.27152415  0.02337510  0.21695511  1
  O  O21  1  0.27152415  0.97662490  0.78304489  1
  O  O22  1  0.72847585  0.97662490  0.21695511  1
  O  O23  1  0.72847585  0.02337510  0.78304489  1
  O  O24  1  0.21686238  0.27442893  0.02301216  1
  O  O25  1  0.78313762  0.27442893  0.97698784  1
  O  O26  1  0.21686238  0.72557107  0.97698784  1
  O  O27  1  0.78313762  0.72557107  0.02301216  1
  O  O28  1  0.47786253  0.29709973  0.21813616  1
  O  O29  1  0.52213747  0.70290027  0.21813616  1
  O  O30  1  0.52213747  0.29709973  0.78186384  1
  O  O31  1  0.47786253  0.70290027  0.78186384  1
  O  O32  1  0.22847585  0.47662490  0.28304489  1
  O  O33  1  0.22847585  0.52337510  0.71695511  1
  O  O34  1  0.77152415  0.52337510  0.28304489  1
  O  O35  1  0.77152415  0.47662490  0.71695511  1
  O  O36  1  0.28313762  0.22557107  0.47698784  1
  O  O37  1  0.71686238  0.22557107  0.52301216  1
  O  O38  1  0.28313762  0.77442893  0.52301216  1
  O  O39  1  0.71686238  0.77442893  0.47698784  1
