# generated using pymatgen
data_SrCaDyBiO6
_symmetry_space_group_name_H-M   'P 1'
_cell_length_a   8.47287097
_cell_length_b   8.47042839
_cell_length_c   8.46644050
_cell_angle_alpha   90.00000000
_cell_angle_beta   90.00000000
_cell_angle_gamma   90.00000000
_symmetry_Int_Tables_number   1
_chemical_formula_structural   SrCaDyBiO6
_chemical_formula_sum   'Sr4 Ca4 Dy4 Bi4 O24'
_cell_volume   607.62667126
_cell_formula_units_Z   4
loop_
 _symmetry_equiv_pos_site_id
 _symmetry_equiv_pos_as_xyz
  1  'x, y, z'
loop_
 _atom_site_type_symbol
 _atom_site_label
 _atom_site_symmetry_multiplicity
 _atom_site_fract_x
 _atom_site_fract_y
 _atom_site_fract_z
 _atom_site_occupancy
  Sr  Sr0  1  0.00000000  0.50000000  0.50000000  1
  Sr  Sr1  1  0.50000000  -0.00000000  0.50000000  1
  Sr  Sr2  1  0.50000000  0.50000000  -0.00000000  1
  Sr  Sr3  1  -0.00000000  0.50000000  -0.00000000  1
  Ca  Ca4  1  0.50000000  -0.00000000  -0.00000000  1
  Ca  Ca5  1  -0.00000000  -0.00000000  0.50000000  1
  Ca  Ca6  1  -0.00000000  -0.00000000  -0.00000000  1
  Ca  Ca7  1  0.50000000  0.50000000  0.50000000  1
  Dy  Dy8  1  0.24990252  0.24766990  0.24961261  1
  Dy  Dy9  1  0.75009748  0.75233010  0.24961261  1
  Dy  Dy10  1  0.75009748  0.24766990  0.75038739  1
  Dy  Dy11  1  0.24990252  0.75233010  0.75038739  1
  Bi  Bi12  1  0.74985587  0.75263471  0.75037787  1
  Bi  Bi13  1  0.25014413  0.24736529  0.75037787  1
  Bi  Bi14  1  0.25014413  0.75263471  0.24962213  1
  Bi  Bi15  1  0.74985587  0.24736529  0.24962213  1
  O  O16  1  0.99281579  0.19275704  0.29294916  1
  O  O17  1  0.00718421  0.80724296  0.29294916  1
  O  O18  1  0.00718421  0.19275704  0.70705084  1
  O  O19  1  0.99281579  0.80724296  0.70705084  1
  O  O20  1  0.29580938  0.99375456  0.19485377  1
  O  O21  1  0.29580938  0.00624544  0.80514623  1
  O  O22  1  0.70419062  0.00624544  0.19485377  1
  O  O23  1  0.70419062  0.99375456  0.80514623  1
  O  O24  1  0.20062056  0.28406739  0.99346188  1
  O  O25  1  0.79937944  0.28406739  0.00653812  1
  O  O26  1  0.20062056  0.71593261  0.00653812  1
  O  O27  1  0.79937944  0.71593261  0.99346188  1
  O  O28  1  0.50598311  0.29653427  0.21666448  1
  O  O29  1  0.49401689  0.70346573  0.21666448  1
  O  O30  1  0.49401689  0.29653427  0.78333552  1
  O  O31  1  0.50598311  0.70346573  0.78333552  1
  O  O32  1  0.21370351  0.50683288  0.29307551  1
  O  O33  1  0.21370351  0.49316712  0.70692449  1
  O  O34  1  0.78629649  0.49316712  0.29307551  1
  O  O35  1  0.78629649  0.50683288  0.70692449  1
  O  O36  1  0.29555543  0.21377835  0.50614339  1
  O  O37  1  0.70444457  0.21377835  0.49385661  1
  O  O38  1  0.29555543  0.78622165  0.49385661  1
  O  O39  1  0.70444457  0.78622165  0.50614339  1
