# generated using pymatgen
data_SrNdV4O12
_symmetry_space_group_name_H-M   'P 1'
_cell_length_a   5.34948757
_cell_length_b   5.34948757
_cell_length_c   7.56354439
_cell_angle_alpha   90.00000000
_cell_angle_beta   90.00000000
_cell_angle_gamma   89.98301193
_symmetry_Int_Tables_number   1
_chemical_formula_structural   SrNdV4O12
_chemical_formula_sum   'Sr1 Nd1 V4 O12'
_cell_volume   216.44607085
_cell_formula_units_Z   1
loop_
 _symmetry_equiv_pos_site_id
 _symmetry_equiv_pos_as_xyz
  1  'x, y, z'
loop_
 _atom_site_type_symbol
 _atom_site_label
 _atom_site_symmetry_multiplicity
 _atom_site_fract_x
 _atom_site_fract_y
 _atom_site_fract_z
 _atom_site_occupancy
  Sr  Sr0  1  0.99654315  0.99654315  0.50000000  1
  Nd  Nd1  1  0.50557425  0.50557425  0.00000000  1
  V  V2  1  0.50005505  0.00019547  0.74850436  1
  V  V3  1  0.50005505  0.00019547  0.25149564  1
  V  V4  1  0.00019547  0.50005505  0.25149564  1
  V  V5  1  0.00019547  0.50005505  0.74850436  1
  O  O6  1  0.76123407  0.23836287  0.75490199  1
  O  O7  1  0.23836287  0.76123407  0.75490199  1
  O  O8  1  0.23836287  0.76123407  0.24509801  1
  O  O9  1  0.76123407  0.23836287  0.24509801  1
  O  O10  1  0.73203870  0.73203870  0.73812462  1
  O  O11  1  0.26912491  0.26912491  0.77045144  1
  O  O12  1  0.26912491  0.26912491  0.22954856  1
  O  O13  1  0.73203870  0.73203870  0.26187538  1
  O  O14  1  0.51483305  0.97884587  0.00000000  1
  O  O15  1  0.48595968  0.01582188  0.50000000  1
  O  O16  1  0.97884587  0.51483305  0.00000000  1
  O  O17  1  0.01582188  0.48595968  0.50000000  1
