# generated using pymatgen
data_BaSrNbSbO6
_symmetry_space_group_name_H-M   'P 1'
_cell_length_a   8.58530517
_cell_length_b   8.76515871
_cell_length_c   8.55954490
_cell_angle_alpha   90.00000000
_cell_angle_beta   90.00000000
_cell_angle_gamma   90.00000000
_symmetry_Int_Tables_number   1
_chemical_formula_structural   BaSrNbSbO6
_chemical_formula_sum   'Ba4 Sr4 Nb4 Sb4 O24'
_cell_volume   644.11912706
_cell_formula_units_Z   4
loop_
 _symmetry_equiv_pos_site_id
 _symmetry_equiv_pos_as_xyz
  1  'x, y, z'
loop_
 _atom_site_type_symbol
 _atom_site_label
 _atom_site_symmetry_multiplicity
 _atom_site_fract_x
 _atom_site_fract_y
 _atom_site_fract_z
 _atom_site_occupancy
  Ba  Ba0  1  0.00000000  -0.00000000  0.00000000  1
  Ba  Ba1  1  0.50000000  0.50000000  0.50000000  1
  Ba  Ba2  1  0.50000000  0.00000000  0.50000000  1
  Ba  Ba3  1  0.50000000  0.50000000  0.00000000  1
  Sr  Sr4  1  0.00000000  0.50000000  0.50000000  1
  Sr  Sr5  1  0.50000000  0.00000000  0.00000000  1
  Sr  Sr6  1  0.00000000  0.50000000  0.00000000  1
  Sr  Sr7  1  0.00000000  0.00000000  0.50000000  1
  Nb  Nb8  1  0.75127142  0.74664416  0.75474891  1
  Nb  Nb9  1  0.24872858  0.25335584  0.75474891  1
  Nb  Nb10  1  0.24872858  0.74664416  0.24525109  1
  Nb  Nb11  1  0.75127142  0.25335584  0.24525109  1
  Sb  Sb12  1  0.23004628  0.26495694  0.26828050  1
  Sb  Sb13  1  0.76995372  0.73504306  0.26828050  1
  Sb  Sb14  1  0.76995372  0.26495694  0.73171950  1
  Sb  Sb15  1  0.23004628  0.73504306  0.73171950  1
  O  O16  1  0.99669248  0.21723262  0.28873836  1
  O  O17  1  0.00330752  0.78276738  0.28873836  1
  O  O18  1  0.00330752  0.21723262  0.71126164  1
  O  O19  1  0.99669248  0.78276738  0.71126164  1
  O  O20  1  0.29152190  0.95697389  0.20509519  1
  O  O21  1  0.29152190  0.04302611  0.79490481  1
  O  O22  1  0.70847810  0.04302611  0.20509519  1
  O  O23  1  0.70847810  0.95697389  0.79490481  1
  O  O24  1  0.19962717  0.30023950  0.96744119  1
  O  O25  1  0.80037283  0.30023950  0.03255881  1
  O  O26  1  0.19962717  0.69976050  0.03255881  1
  O  O27  1  0.80037283  0.69976050  0.96744119  1
  O  O28  1  0.53797888  0.31381604  0.24796325  1
  O  O29  1  0.46202112  0.68618396  0.24796325  1
  O  O30  1  0.46202112  0.31381604  0.75203675  1
  O  O31  1  0.53797888  0.68618396  0.75203675  1
  O  O32  1  0.20082955  0.49141301  0.29221232  1
  O  O33  1  0.20082955  0.50858699  0.70778768  1
  O  O34  1  0.79917045  0.50858699  0.29221232  1
  O  O35  1  0.79917045  0.49141301  0.70778768  1
  O  O36  1  0.25714055  0.22160600  0.50505202  1
  O  O37  1  0.74285945  0.22160600  0.49494798  1
  O  O38  1  0.25714055  0.77839400  0.49494798  1
  O  O39  1  0.74285945  0.77839400  0.50505202  1
