# generated using pymatgen
data_NaPr(NiO3)4
_symmetry_space_group_name_H-M   'P 1'
_cell_length_a   5.37036171
_cell_length_b   5.37036171
_cell_length_c   7.74144390
_cell_angle_alpha   90.00000000
_cell_angle_beta   90.00000000
_cell_angle_gamma   90.00000000
_symmetry_Int_Tables_number   1
_chemical_formula_structural   NaPr(NiO3)4
_chemical_formula_sum   'Na1 Pr1 Ni4 O12'
_cell_volume   223.26931831
_cell_formula_units_Z   1
loop_
 _symmetry_equiv_pos_site_id
 _symmetry_equiv_pos_as_xyz
  1  'x, y, z'
loop_
 _atom_site_type_symbol
 _atom_site_label
 _atom_site_symmetry_multiplicity
 _atom_site_fract_x
 _atom_site_fract_y
 _atom_site_fract_z
 _atom_site_occupancy
  Na  Na0  1  0.50000000  0.50000000  -0.00000000  1
  Pr  Pr1  1  0.00000000  0.00000000  0.50000000  1
  Ni  Ni2  1  -0.00000000  0.50000000  0.75450983  1
  Ni  Ni3  1  -0.00000000  0.50000000  0.24549017  1
  Ni  Ni4  1  0.50000000  0.00000000  0.75450983  1
  Ni  Ni5  1  0.50000000  0.00000000  0.24549017  1
  O  O6  1  0.23763063  0.23763063  0.73775229  1
  O  O7  1  0.23763063  0.23763063  0.26224771  1
  O  O8  1  0.76236937  0.76236937  0.73775229  1
  O  O9  1  0.76236937  0.76236937  0.26224771  1
  O  O10  1  0.76236937  0.23763063  0.73775229  1
  O  O11  1  0.76236937  0.23763063  0.26224771  1
  O  O12  1  0.23763063  0.76236937  0.26224771  1
  O  O13  1  0.23763063  0.76236937  0.73775229  1
  O  O14  1  -0.00000000  0.50000000  0.50000000  1
  O  O15  1  0.00000000  0.50000000  0.00000000  1
  O  O16  1  0.50000000  0.00000000  0.50000000  1
  O  O17  1  0.50000000  0.00000000  0.00000000  1
