data_image0
_chemical_formula_structural       Ca2Pd2Sn4
_chemical_formula_sum              "Ca2 Pd2 Sn4"
_cell_length_a       4.46299
_cell_length_b       6.01499
_cell_length_c       7.54292
_cell_angle_alpha    90
_cell_angle_beta     90
_cell_angle_gamma    68.2234

_space_group_name_H-M_alt    "P 1"
_space_group_IT_number       1

loop_
  _space_group_symop_operation_xyz
  'x, y, z'

loop_
  _atom_site_type_symbol
  _atom_site_label
  _atom_site_symmetry_multiplicity
  _atom_site_fract_x
  _atom_site_fract_y
  _atom_site_fract_z
  _atom_site_occupancy
  Ca  Ca1       1.0  0.93000  0.13900  0.25000  1.0000
  Ca  Ca2       1.0  0.06960  0.86100  0.75000  1.0000
  Pd  Pd1       1.0  0.20400  0.59100  0.25000  1.0000
  Pd  Pd2       1.0  0.79600  0.40900  0.75000  1.0000
  Sn  Sn1       1.0  0.64100  0.71800  0.04520  1.0000
  Sn  Sn2       1.0  0.64100  0.71800  0.45500  1.0000
  Sn  Sn3       1.0  0.35900  0.28200  0.54500  1.0000
  Sn  Sn4       1.0  0.35900  0.28200  0.95500  1.0000
