# generated using pymatgen
data_Sr2CeHfO6
_symmetry_space_group_name_H-M   'P 1'
_cell_length_a   8.48354248
_cell_length_b   8.48354248
_cell_length_c   8.48354248
_cell_angle_alpha   90.00000000
_cell_angle_beta   90.00000000
_cell_angle_gamma   90.00000000
_symmetry_Int_Tables_number   1
_chemical_formula_structural   Sr2CeHfO6
_chemical_formula_sum   'Sr8 Ce4 Hf4 O24'
_cell_volume   610.56473476
_cell_formula_units_Z   4
loop_
 _symmetry_equiv_pos_site_id
 _symmetry_equiv_pos_as_xyz
  1  'x, y, z'
loop_
 _atom_site_type_symbol
 _atom_site_label
 _atom_site_symmetry_multiplicity
 _atom_site_fract_x
 _atom_site_fract_y
 _atom_site_fract_z
 _atom_site_occupancy
  Sr  Sr0  1  0.50000000  0.50000000  0.50000000  1
  Sr  Sr1  1  -0.00000000  0.00000000  -0.00000000  1
  Sr  Sr2  1  -0.00000000  0.00000000  0.50000000  1
  Sr  Sr3  1  -0.00000000  0.50000000  -0.00000000  1
  Sr  Sr4  1  0.50000000  0.00000000  -0.00000000  1
  Sr  Sr5  1  0.50000000  0.50000000  -0.00000000  1
  Sr  Sr6  1  0.50000000  0.00000000  0.50000000  1
  Sr  Sr7  1  -0.00000000  0.50000000  0.50000000  1
  Ce  Ce8  1  0.75000000  0.75000000  0.75000000  1
  Ce  Ce9  1  0.75000000  0.25000000  0.25000000  1
  Ce  Ce10  1  0.25000000  0.75000000  0.25000000  1
  Ce  Ce11  1  0.25000000  0.25000000  0.75000000  1
  Hf  Hf12  1  0.25000000  0.25000000  0.25000000  1
  Hf  Hf13  1  0.25000000  0.75000000  0.75000000  1
  Hf  Hf14  1  0.75000000  0.25000000  0.75000000  1
  Hf  Hf15  1  0.75000000  0.75000000  0.25000000  1
  O  O16  1  0.21436160  0.29312383  0.49105121  1
  O  O17  1  0.21436160  0.70687617  0.50894879  1
  O  O18  1  0.78563840  0.29312383  0.50894879  1
  O  O19  1  0.78563840  0.70687617  0.49105121  1
  O  O20  1  0.29312383  0.49105121  0.21436160  1
  O  O21  1  0.70687617  0.50894879  0.21436160  1
  O  O22  1  0.29312383  0.50894879  0.78563840  1
  O  O23  1  0.70687617  0.49105121  0.78563840  1
  O  O24  1  0.49105121  0.21436160  0.29312383  1
  O  O25  1  0.50894879  0.21436160  0.70687617  1
  O  O26  1  0.50894879  0.78563840  0.29312383  1
  O  O27  1  0.49105121  0.78563840  0.70687617  1
  O  O28  1  0.28563840  0.20687617  0.00894879  1
  O  O29  1  0.28563840  0.79312383  0.99105121  1
  O  O30  1  0.71436160  0.20687617  0.99105121  1
  O  O31  1  0.71436160  0.79312383  0.00894879  1
  O  O32  1  0.20687617  0.00894879  0.28563840  1
  O  O33  1  0.79312383  0.99105121  0.28563840  1
  O  O34  1  0.20687617  0.99105121  0.71436160  1
  O  O35  1  0.79312383  0.00894879  0.71436160  1
  O  O36  1  0.00894879  0.28563840  0.20687617  1
  O  O37  1  0.99105121  0.28563840  0.79312383  1
  O  O38  1  0.99105121  0.71436160  0.20687617  1
  O  O39  1  0.00894879  0.71436160  0.79312383  1
