# generated using pymatgen
data_KBaEuWO6
_symmetry_space_group_name_H-M   'P 1'
_cell_length_a   8.52365592
_cell_length_b   8.53350341
_cell_length_c   8.54320506
_cell_angle_alpha   90.00000000
_cell_angle_beta   90.00000000
_cell_angle_gamma   90.00000000
_symmetry_Int_Tables_number   1
_chemical_formula_structural   KBaEuWO6
_chemical_formula_sum   'K4 Ba4 Eu4 W4 O24'
_cell_volume   621.40408949
_cell_formula_units_Z   4
loop_
 _symmetry_equiv_pos_site_id
 _symmetry_equiv_pos_as_xyz
  1  'x, y, z'
loop_
 _atom_site_type_symbol
 _atom_site_label
 _atom_site_symmetry_multiplicity
 _atom_site_fract_x
 _atom_site_fract_y
 _atom_site_fract_z
 _atom_site_occupancy
  K  K0  1  -0.00000000  0.50000000  0.50000000  1
  K  K1  1  0.50000000  0.00000000  0.50000000  1
  K  K2  1  0.50000000  0.00000000  0.00000000  1
  K  K3  1  -0.00000000  0.50000000  0.00000000  1
  Ba  Ba4  1  0.50000000  0.50000000  0.00000000  1
  Ba  Ba5  1  -0.00000000  0.00000000  0.50000000  1
  Ba  Ba6  1  -0.00000000  0.00000000  0.00000000  1
  Ba  Ba7  1  0.50000000  0.50000000  0.50000000  1
  Eu  Eu8  1  0.75000000  0.75000000  0.75000000  1
  Eu  Eu9  1  0.25000000  0.25000000  0.75000000  1
  Eu  Eu10  1  0.25000000  0.75000000  0.25000000  1
  Eu  Eu11  1  0.75000000  0.25000000  0.25000000  1
  W  W12  1  0.25000000  0.25000000  0.25000000  1
  W  W13  1  0.75000000  0.75000000  0.25000000  1
  W  W14  1  0.75000000  0.25000000  0.75000000  1
  W  W15  1  0.25000000  0.75000000  0.75000000  1
  O  O16  1  0.02151434  0.22350392  0.26751527  1
  O  O17  1  0.97848566  0.77649608  0.26751527  1
  O  O18  1  0.97848566  0.22350392  0.73248473  1
  O  O19  1  0.02151434  0.77649608  0.73248473  1
  O  O20  1  0.26320374  0.02251804  0.22814028  1
  O  O21  1  0.26320374  0.97748196  0.77185972  1
  O  O22  1  0.73679626  0.97748196  0.22814028  1
  O  O23  1  0.73679626  0.02251804  0.77185972  1
  O  O24  1  0.22990474  0.26922442  0.02264230  1
  O  O25  1  0.77009526  0.26922442  0.97735770  1
  O  O26  1  0.22990474  0.73077558  0.97735770  1
  O  O27  1  0.77009526  0.73077558  0.02264230  1
  O  O28  1  0.47848566  0.27649608  0.23248473  1
  O  O29  1  0.52151434  0.72350392  0.23248473  1
  O  O30  1  0.52151434  0.27649608  0.76751527  1
  O  O31  1  0.47848566  0.72350392  0.76751527  1
  O  O32  1  0.23679626  0.47748196  0.27185972  1
  O  O33  1  0.23679626  0.52251804  0.72814028  1
  O  O34  1  0.76320374  0.52251804  0.27185972  1
  O  O35  1  0.76320374  0.47748196  0.72814028  1
  O  O36  1  0.27009526  0.23077558  0.47735770  1
  O  O37  1  0.72990474  0.23077558  0.52264230  1
  O  O38  1  0.27009526  0.76922442  0.52264230  1
  O  O39  1  0.72990474  0.76922442  0.47735770  1
