# generated using pymatgen
data_BaCaDyBiO6
_symmetry_space_group_name_H-M   'P 1'
_cell_length_a   8.54966391
_cell_length_b   8.54954788
_cell_length_c   8.53450314
_cell_angle_alpha   90.00000000
_cell_angle_beta   90.00000000
_cell_angle_gamma   90.00000000
_symmetry_Int_Tables_number   1
_chemical_formula_structural   BaCaDyBiO6
_chemical_formula_sum   'Ba4 Ca4 Dy4 Bi4 O24'
_cell_volume   623.83600140
_cell_formula_units_Z   4
loop_
 _symmetry_equiv_pos_site_id
 _symmetry_equiv_pos_as_xyz
  1  'x, y, z'
loop_
 _atom_site_type_symbol
 _atom_site_label
 _atom_site_symmetry_multiplicity
 _atom_site_fract_x
 _atom_site_fract_y
 _atom_site_fract_z
 _atom_site_occupancy
  Ba  Ba0  1  0.00000000  0.00000000  0.00000000  1
  Ba  Ba1  1  0.50000000  0.50000000  0.50000000  1
  Ba  Ba2  1  0.50000000  0.00000000  0.50000000  1
  Ba  Ba3  1  0.00000000  0.50000000  0.00000000  1
  Ca  Ca4  1  0.00000000  0.50000000  0.50000000  1
  Ca  Ca5  1  0.50000000  0.50000000  0.00000000  1
  Ca  Ca6  1  0.50000000  0.00000000  0.00000000  1
  Ca  Ca7  1  0.00000000  0.00000000  0.50000000  1
  Dy  Dy8  1  0.25000000  0.25000000  0.25000000  1
  Dy  Dy9  1  0.75000000  0.75000000  0.25000000  1
  Dy  Dy10  1  0.75000000  0.25000000  0.75000000  1
  Dy  Dy11  1  0.25000000  0.75000000  0.75000000  1
  Bi  Bi12  1  0.75000000  0.75000000  0.75000000  1
  Bi  Bi13  1  0.25000000  0.25000000  0.75000000  1
  Bi  Bi14  1  0.25000000  0.75000000  0.25000000  1
  Bi  Bi15  1  0.75000000  0.25000000  0.25000000  1
  O  O16  1  0.99280790  0.19005289  0.28664190  1
  O  O17  1  0.00719210  0.80994711  0.28664190  1
  O  O18  1  0.00719210  0.19005289  0.71335810  1
  O  O19  1  0.99280790  0.80994711  0.71335810  1
  O  O20  1  0.30571450  0.99278469  0.20754902  1
  O  O21  1  0.30571450  0.00721531  0.79245098  1
  O  O22  1  0.69428550  0.00721531  0.20754902  1
  O  O23  1  0.69428550  0.99278469  0.79245098  1
  O  O24  1  0.21623777  0.27799052  0.99475979  1
  O  O25  1  0.78376223  0.27799052  0.00524021  1
  O  O26  1  0.21623777  0.72200948  0.00524021  1
  O  O27  1  0.78376223  0.72200948  0.99475979  1
  O  O28  1  0.50719210  0.30994711  0.21335810  1
  O  O29  1  0.49280790  0.69005289  0.21335810  1
  O  O30  1  0.49280790  0.30994711  0.78664190  1
  O  O31  1  0.50719210  0.69005289  0.78664190  1
  O  O32  1  0.19428550  0.50721531  0.29245098  1
  O  O33  1  0.19428550  0.49278469  0.70754902  1
  O  O34  1  0.80571450  0.49278469  0.29245098  1
  O  O35  1  0.80571450  0.50721531  0.70754902  1
  O  O36  1  0.28376223  0.22200948  0.50524021  1
  O  O37  1  0.71623777  0.22200948  0.49475979  1
  O  O38  1  0.28376223  0.77799052  0.49475979  1
  O  O39  1  0.71623777  0.77799052  0.50524021  1
