# generated using pymatgen
data_KGa(SeO3)4
_symmetry_space_group_name_H-M   'P 1'
_cell_length_a   5.29415843
_cell_length_b   5.29415843
_cell_length_c   7.62855469
_cell_angle_alpha   90.00000000
_cell_angle_beta   90.00000000
_cell_angle_gamma   87.97322161
_symmetry_Int_Tables_number   1
_chemical_formula_structural   KGa(SeO3)4
_chemical_formula_sum   'K1 Ga1 Se4 O12'
_cell_volume   213.68023562
_cell_formula_units_Z   1
loop_
 _symmetry_equiv_pos_site_id
 _symmetry_equiv_pos_as_xyz
  1  'x, y, z'
loop_
 _atom_site_type_symbol
 _atom_site_label
 _atom_site_symmetry_multiplicity
 _atom_site_fract_x
 _atom_site_fract_y
 _atom_site_fract_z
 _atom_site_occupancy
  K  K0  1  0.01683854  0.98316146  0.50000000  1
  Ga  Ga1  1  0.48073421  0.51926579  -0.00000000  1
  Se  Se2  1  0.49805155  0.99184356  0.25223788  1
  Se  Se3  1  0.49805155  0.99184356  0.74776212  1
  Se  Se4  1  0.00815644  0.50194845  0.74776212  1
  Se  Se5  1  0.00815644  0.50194845  0.25223788  1
  O  O6  1  0.19126592  0.19699012  0.22947514  1
  O  O7  1  0.80300988  0.80873408  0.22947514  1
  O  O8  1  0.80300988  0.80873408  0.77052486  1
  O  O9  1  0.19126592  0.19699012  0.77052486  1
  O  O10  1  0.31817263  0.68182737  0.29180419  1
  O  O11  1  0.67468908  0.32531092  0.17780501  1
  O  O12  1  0.67468908  0.32531092  0.82219499  1
  O  O13  1  0.31817263  0.68182737  0.70819581  1
  O  O14  1  0.46099483  0.89128499  -0.00000000  1
  O  O15  1  0.52568505  0.06485866  0.50000000  1
  O  O16  1  0.10871501  0.53900517  0.00000000  1
  O  O17  1  0.93514134  0.47431495  0.50000000  1
