# generated using pymatgen
data_BaSrEuWO6
_symmetry_space_group_name_H-M   'P 1'
_cell_length_a   6.01623670
_cell_length_b   6.01623670
_cell_length_c   8.78097996
_cell_angle_alpha   90.00000000
_cell_angle_beta   90.00000000
_cell_angle_gamma   90.00000000
_symmetry_Int_Tables_number   1
_chemical_formula_structural   BaSrEuWO6
_chemical_formula_sum   'Ba2 Sr2 Eu2 W2 O12'
_cell_volume   317.82848314
_cell_formula_units_Z   2
loop_
 _symmetry_equiv_pos_site_id
 _symmetry_equiv_pos_as_xyz
  1  'x, y, z'
loop_
 _atom_site_type_symbol
 _atom_site_label
 _atom_site_symmetry_multiplicity
 _atom_site_fract_x
 _atom_site_fract_y
 _atom_site_fract_z
 _atom_site_occupancy
  Ba  Ba0  1  0.50000000  0.50000000  0.00000000  1
  Ba  Ba1  1  0.00000000  0.00000000  0.00000000  1
  Sr  Sr2  1  0.50000000  0.00000000  0.74967290  1
  Sr  Sr3  1  0.00000000  0.50000000  0.25032710  1
  Eu  Eu4  1  0.50000000  0.50000000  0.50000000  1
  Eu  Eu5  1  0.00000000  0.00000000  0.50000000  1
  W  W6  1  0.50000000  0.00000000  0.26011229  1
  W  W7  1  0.00000000  0.50000000  0.73988771  1
  O  O8  1  0.50000000  0.00000000  0.03259515  1
  O  O9  1  0.00000000  0.50000000  0.96740485  1
  O  O10  1  0.50000000  0.00000000  0.48173259  1
  O  O11  1  0.00000000  0.50000000  0.51826741  1
  O  O12  1  0.71020124  0.64920382  0.73776186  1
  O  O13  1  0.28979876  0.35079618  0.73776186  1
  O  O14  1  0.85079618  0.21020124  0.73776186  1
  O  O15  1  0.14920382  0.78979876  0.73776186  1
  O  O16  1  0.78979876  0.14920382  0.26223814  1
  O  O17  1  0.21020124  0.85079618  0.26223814  1
  O  O18  1  0.64920382  0.71020124  0.26223814  1
  O  O19  1  0.35079618  0.28979876  0.26223814  1
