# generated using pymatgen
data_BaSrCeZrO6
_symmetry_space_group_name_H-M   'P 1'
_cell_length_a   8.60313087
_cell_length_b   8.61144557
_cell_length_c   8.61908003
_cell_angle_alpha   90.00000000
_cell_angle_beta   90.00000000
_cell_angle_gamma   90.00000000
_symmetry_Int_Tables_number   1
_chemical_formula_structural   BaSrCeZrO6
_chemical_formula_sum   'Ba4 Sr4 Ce4 Zr4 O24'
_cell_volume   638.54793321
_cell_formula_units_Z   4
loop_
 _symmetry_equiv_pos_site_id
 _symmetry_equiv_pos_as_xyz
  1  'x, y, z'
loop_
 _atom_site_type_symbol
 _atom_site_label
 _atom_site_symmetry_multiplicity
 _atom_site_fract_x
 _atom_site_fract_y
 _atom_site_fract_z
 _atom_site_occupancy
  Ba  Ba0  1  0.00000000  -0.00000000  -0.00000000  1
  Ba  Ba1  1  0.50000000  0.50000000  0.50000000  1
  Ba  Ba2  1  0.00000000  0.50000000  0.50000000  1
  Ba  Ba3  1  0.50000000  0.50000000  -0.00000000  1
  Sr  Sr4  1  0.50000000  -0.00000000  0.50000000  1
  Sr  Sr5  1  0.50000000  0.00000000  -0.00000000  1
  Sr  Sr6  1  0.00000000  0.50000000  0.00000000  1
  Sr  Sr7  1  -0.00000000  -0.00000000  0.50000000  1
  Ce  Ce8  1  0.75002154  0.75278962  0.75045050  1
  Ce  Ce9  1  0.24997846  0.24721038  0.75045050  1
  Ce  Ce10  1  0.24997846  0.75278962  0.24954950  1
  Ce  Ce11  1  0.75002154  0.24721038  0.24954950  1
  Zr  Zr12  1  0.24987798  0.24690296  0.24946906  1
  Zr  Zr13  1  0.75012202  0.75309704  0.24946906  1
  Zr  Zr14  1  0.75012202  0.24690296  0.75053094  1
  Zr  Zr15  1  0.24987798  0.75309704  0.75053094  1
  O  O16  1  0.00763886  0.20949049  0.28604101  1
  O  O17  1  0.99236114  0.79050951  0.28604101  1
  O  O18  1  0.99236114  0.20949049  0.71395899  1
  O  O19  1  0.00763886  0.79050951  0.71395899  1
  O  O20  1  0.28544439  0.00669433  0.20890006  1
  O  O21  1  0.28544439  0.99330567  0.79109994  1
  O  O22  1  0.71455561  0.99330567  0.20890006  1
  O  O23  1  0.71455561  0.00669433  0.79109994  1
  O  O24  1  0.20991502  0.28239760  0.00763072  1
  O  O25  1  0.79008498  0.28239760  0.99236928  1
  O  O26  1  0.20991502  0.71760240  0.99236928  1
  O  O27  1  0.79008498  0.71760240  0.00763072  1
  O  O28  1  0.49338770  0.27605489  0.22296393  1
  O  O29  1  0.50661230  0.72394511  0.22296393  1
  O  O30  1  0.50661230  0.27605489  0.77703607  1
  O  O31  1  0.49338770  0.72394511  0.77703607  1
  O  O32  1  0.22541558  0.49221274  0.27782028  1
  O  O33  1  0.22541558  0.50778726  0.72217972  1
  O  O34  1  0.77458442  0.50778726  0.27782028  1
  O  O35  1  0.77458442  0.49221274  0.72217972  1
  O  O36  1  0.28543288  0.21451661  0.49264756  1
  O  O37  1  0.71456712  0.21451661  0.50735244  1
  O  O38  1  0.28543288  0.78548339  0.50735244  1
  O  O39  1  0.71456712  0.78548339  0.49264756  1
