# generated using pymatgen
data_SmEu(CoO3)4
_symmetry_space_group_name_H-M   'P 1'
_cell_length_a   5.25178650
_cell_length_b   5.25178650
_cell_length_c   7.50452391
_cell_angle_alpha   90.00000000
_cell_angle_beta   90.00000000
_cell_angle_gamma   90.00000000
_symmetry_Int_Tables_number   1
_chemical_formula_structural   SmEu(CoO3)4
_chemical_formula_sum   'Sm1 Eu1 Co4 O12'
_cell_volume   206.98423596
_cell_formula_units_Z   1
loop_
 _symmetry_equiv_pos_site_id
 _symmetry_equiv_pos_as_xyz
  1  'x, y, z'
loop_
 _atom_site_type_symbol
 _atom_site_label
 _atom_site_symmetry_multiplicity
 _atom_site_fract_x
 _atom_site_fract_y
 _atom_site_fract_z
 _atom_site_occupancy
  Sm  Sm0  1  0.00000000  -0.00000000  0.50000000  1
  Eu  Eu1  1  0.50000000  0.50000000  -0.00000000  1
  Co  Co2  1  0.00000000  0.50000000  0.75202230  1
  Co  Co3  1  -0.00000000  0.50000000  0.24797770  1
  Co  Co4  1  0.50000000  -0.00000000  0.24797770  1
  Co  Co5  1  0.50000000  -0.00000000  0.75202230  1
  O  O6  1  0.24835909  0.24835909  0.25177741  1
  O  O7  1  0.24835909  0.24835909  0.74822259  1
  O  O8  1  0.75164091  0.75164091  0.25177741  1
  O  O9  1  0.75164091  0.75164091  0.74822259  1
  O  O10  1  0.75164091  0.24835909  0.74822259  1
  O  O11  1  0.75164091  0.24835909  0.25177741  1
  O  O12  1  0.24835909  0.75164091  0.74822259  1
  O  O13  1  0.24835909  0.75164091  0.25177741  1
  O  O14  1  0.00000000  0.50000000  0.50000000  1
  O  O15  1  0.00000000  0.50000000  -0.00000000  1
  O  O16  1  0.50000000  -0.00000000  0.50000000  1
  O  O17  1  0.50000000  -0.00000000  -0.00000000  1
