# generated using pymatgen
data_SrNdHf4O12
_symmetry_space_group_name_H-M   'P 1'
_cell_length_a   5.76800568
_cell_length_b   5.76800568
_cell_length_c   8.20208570
_cell_angle_alpha   90.00000000
_cell_angle_beta   90.00000000
_cell_angle_gamma   90.44059969
_symmetry_Int_Tables_number   1
_chemical_formula_structural   SrNdHf4O12
_chemical_formula_sum   'Sr1 Nd1 Hf4 O12'
_cell_volume   272.87441647
_cell_formula_units_Z   1
loop_
 _symmetry_equiv_pos_site_id
 _symmetry_equiv_pos_as_xyz
  1  'x, y, z'
loop_
 _atom_site_type_symbol
 _atom_site_label
 _atom_site_symmetry_multiplicity
 _atom_site_fract_x
 _atom_site_fract_y
 _atom_site_fract_z
 _atom_site_occupancy
  Sr  Sr0  1  0.97289142  0.02710858  0.00000000  1
  Nd  Nd1  1  0.53246385  0.46753615  0.50000000  1
  Hf  Hf2  1  0.48816098  0.98785872  0.25136167  1
  Hf  Hf3  1  0.48816098  0.98785872  0.74863833  1
  Hf  Hf4  1  0.01214128  0.51183902  0.74863833  1
  Hf  Hf5  1  0.01214128  0.51183902  0.25136167  1
  O  O6  1  0.21321373  0.21578357  0.24038768  1
  O  O7  1  0.78421643  0.78678627  0.24038768  1
  O  O8  1  0.78421643  0.78678627  0.75961232  1
  O  O9  1  0.21321373  0.21578357  0.75961232  1
  O  O10  1  0.30607434  0.69392566  0.30758931  1
  O  O11  1  0.72198478  0.27801522  0.23888713  1
  O  O12  1  0.72198478  0.27801522  0.76111287  1
  O  O13  1  0.30607434  0.69392566  0.69241069  1
  O  O14  1  0.45988887  0.97428809  0.00000000  1
  O  O15  1  0.50916334  0.06400247  0.50000000  1
  O  O16  1  0.02571191  0.54011113  0.00000000  1
  O  O17  1  0.93599753  0.49083666  0.50000000  1
