data_image0
_chemical_formula_structural       CFe2Si2Tb2
_chemical_formula_sum              "C1 Fe2 Si2 Tb2"
_cell_length_a       3.93632
_cell_length_b       5.65391
_cell_length_c       5.66404
_cell_angle_alpha    92.246
_cell_angle_beta     110.333
_cell_angle_gamma    110.372

_space_group_name_H-M_alt    "P 1"
_space_group_IT_number       1

loop_
  _space_group_symop_operation_xyz
  'x, y, z'

loop_
  _atom_site_type_symbol
  _atom_site_label
  _atom_site_symmetry_multiplicity
  _atom_site_fract_x
  _atom_site_fract_y
  _atom_site_fract_z
  _atom_site_occupancy
  C   C1        1.0  0.00000  0.50000  0.50000  1.0000
  Fe  Fe1       1.0  0.10600  0.80700  0.40500  1.0000
  Fe  Fe2       1.0  0.89400  0.19300  0.59500  1.0000
  Si  Si1       1.0  0.55600  0.89400  0.21900  1.0000
  Si  Si2       1.0  0.44400  0.10600  0.78100  1.0000
  Tb  Tb1       1.0  0.26600  0.32500  0.20600  1.0000
  Tb  Tb2       1.0  0.73400  0.67500  0.79400  1.0000
