# generated using pymatgen
data_BaCaEuSbO6
_symmetry_space_group_name_H-M   'P 1'
_cell_length_a   8.42670795
_cell_length_b   8.46360602
_cell_length_c   8.41952487
_cell_angle_alpha   90.00000000
_cell_angle_beta   90.00000000
_cell_angle_gamma   90.00000000
_symmetry_Int_Tables_number   1
_chemical_formula_structural   BaCaEuSbO6
_chemical_formula_sum   'Ba4 Ca4 Eu4 Sb4 O24'
_cell_volume   600.48334382
_cell_formula_units_Z   4
loop_
 _symmetry_equiv_pos_site_id
 _symmetry_equiv_pos_as_xyz
  1  'x, y, z'
loop_
 _atom_site_type_symbol
 _atom_site_label
 _atom_site_symmetry_multiplicity
 _atom_site_fract_x
 _atom_site_fract_y
 _atom_site_fract_z
 _atom_site_occupancy
  Ba  Ba0  1  0.00000000  0.00000000  -0.00000000  1
  Ba  Ba1  1  0.50000000  0.50000000  0.50000000  1
  Ba  Ba2  1  0.50000000  0.00000000  0.50000000  1
  Ba  Ba3  1  0.50000000  0.50000000  -0.00000000  1
  Ca  Ca4  1  0.00000000  0.50000000  0.50000000  1
  Ca  Ca5  1  0.50000000  0.00000000  -0.00000000  1
  Ca  Ca6  1  -0.00000000  0.50000000  -0.00000000  1
  Ca  Ca7  1  -0.00000000  0.00000000  0.50000000  1
  Eu  Eu8  1  0.75433998  0.75049833  0.75040382  1
  Eu  Eu9  1  0.24566002  0.24950167  0.75040382  1
  Eu  Eu10  1  0.24566002  0.75049833  0.24959618  1
  Eu  Eu11  1  0.75433998  0.24950167  0.24959618  1
  Sb  Sb12  1  0.24448169  0.24937311  0.25068517  1
  Sb  Sb13  1  0.75551831  0.75062689  0.25068517  1
  Sb  Sb14  1  0.75551831  0.24937311  0.74931483  1
  Sb  Sb15  1  0.24448169  0.75062689  0.74931483  1
  O  O16  1  0.01645509  0.19599100  0.29336464  1
  O  O17  1  0.98354491  0.80400900  0.29336464  1
  O  O18  1  0.98354491  0.19599100  0.70663536  1
  O  O19  1  0.01645509  0.80400900  0.70663536  1
  O  O20  1  0.29052287  0.01914692  0.19888893  1
  O  O21  1  0.29052287  0.98085308  0.80111107  1
  O  O22  1  0.70947713  0.98085308  0.19888893  1
  O  O23  1  0.70947713  0.01914692  0.80111107  1
  O  O24  1  0.19861876  0.29569220  0.01964522  1
  O  O25  1  0.80138124  0.29569220  0.98035478  1
  O  O26  1  0.19861876  0.70430780  0.98035478  1
  O  O27  1  0.80138124  0.70430780  0.01964522  1
  O  O28  1  0.48093105  0.28192232  0.22441140  1
  O  O29  1  0.51906895  0.71807768  0.22441140  1
  O  O30  1  0.51906895  0.28192232  0.77558860  1
  O  O31  1  0.48093105  0.71807768  0.77558860  1
  O  O32  1  0.20453768  0.48202692  0.29459004  1
  O  O33  1  0.20453768  0.51797308  0.70540996  1
  O  O34  1  0.79546232  0.51797308  0.29459004  1
  O  O35  1  0.79546232  0.48202692  0.70540996  1
  O  O36  1  0.27864322  0.22055725  0.48442340  1
  O  O37  1  0.72135678  0.22055725  0.51557660  1
  O  O38  1  0.27864322  0.77944275  0.51557660  1
  O  O39  1  0.72135678  0.77944275  0.48442340  1
