# generated using pymatgen
data_BaTbEuSbO6
_symmetry_space_group_name_H-M   'P 1'
_cell_length_a   5.96750438
_cell_length_b   5.99156449
_cell_length_c   8.45272190
_cell_angle_alpha   90.20814178
_cell_angle_beta   89.80370606
_cell_angle_gamma   89.78006252
_symmetry_Int_Tables_number   1
_chemical_formula_structural   BaTbEuSbO6
_chemical_formula_sum   'Ba2 Tb2 Eu2 Sb2 O12'
_cell_volume   302.21841979
_cell_formula_units_Z   2
loop_
 _symmetry_equiv_pos_site_id
 _symmetry_equiv_pos_as_xyz
  1  'x, y, z'
loop_
 _atom_site_type_symbol
 _atom_site_label
 _atom_site_symmetry_multiplicity
 _atom_site_fract_x
 _atom_site_fract_y
 _atom_site_fract_z
 _atom_site_occupancy
  Ba  Ba0  1  0.99533227  0.01936674  0.24981588  1
  Ba  Ba1  1  0.00466773  0.98063326  0.75018412  1
  Tb  Tb2  1  0.50000000  -0.00000000  -0.00000000  1
  Tb  Tb3  1  0.00000000  0.50000000  0.50000000  1
  Eu  Eu4  1  0.50463237  0.52868207  0.25113941  1
  Eu  Eu5  1  0.49536763  0.47131793  0.74886059  1
  Sb  Sb6  1  0.00000000  0.50000000  -0.00000000  1
  Sb  Sb7  1  0.50000000  -0.00000000  0.50000000  1
  O  O8  1  0.21032093  0.23898205  0.96764262  1
  O  O9  1  0.29908943  0.73013794  0.53461929  1
  O  O10  1  0.78967907  0.76101795  0.03235738  1
  O  O11  1  0.70091057  0.26986206  0.46538071  1
  O  O12  1  0.26691344  0.70387118  0.96281760  1
  O  O13  1  0.23957016  0.21226175  0.52882864  1
  O  O14  1  0.73308656  0.29612882  0.03718240  1
  O  O15  1  0.76042984  0.78773825  0.47117136  1
  O  O16  1  0.44776685  0.97702505  0.26426690  1
  O  O17  1  0.07426101  0.49712017  0.23504020  1
  O  O18  1  0.55223315  0.02297495  0.73573310  1
  O  O19  1  0.92573899  0.50287983  0.76495980  1
