# generated using pymatgen
data_BaSrCeZrO6
_symmetry_space_group_name_H-M   'P 1'
_cell_length_a   6.06818675
_cell_length_b   6.09273046
_cell_length_c   8.58299243
_cell_angle_alpha   90.16724773
_cell_angle_beta   90.14824359
_cell_angle_gamma   90.22804271
_symmetry_Int_Tables_number   1
_chemical_formula_structural   BaSrCeZrO6
_chemical_formula_sum   'Ba2 Sr2 Ce2 Zr2 O12'
_cell_volume   317.32396789
_cell_formula_units_Z   2
loop_
 _symmetry_equiv_pos_site_id
 _symmetry_equiv_pos_as_xyz
  1  'x, y, z'
loop_
 _atom_site_type_symbol
 _atom_site_label
 _atom_site_symmetry_multiplicity
 _atom_site_fract_x
 _atom_site_fract_y
 _atom_site_fract_z
 _atom_site_occupancy
  Ba  Ba0  1  0.50571115  0.52401023  0.24988586  1
  Ba  Ba1  1  0.49428885  0.47598977  0.75011414  1
  Sr  Sr2  1  0.99437232  0.03103397  0.25129878  1
  Sr  Sr3  1  0.00562768  0.96896603  0.74870122  1
  Ce  Ce4  1  0.00000000  0.50000000  -0.00000000  1
  Ce  Ce5  1  0.50000000  0.00000000  0.50000000  1
  Zr  Zr6  1  0.50000000  0.00000000  -0.00000000  1
  Zr  Zr7  1  0.00000000  0.50000000  0.50000000  1
  O  O8  1  0.22120487  0.20587533  0.95349982  1
  O  O9  1  0.27498423  0.71141947  0.53425334  1
  O  O10  1  0.77879513  0.79412467  0.04650018  1
  O  O11  1  0.72501577  0.28858053  0.46574666  1
  O  O12  1  0.29024176  0.72422747  0.96387275  1
  O  O13  1  0.20339653  0.21848104  0.54470043  1
  O  O14  1  0.70975824  0.27577253  0.03612725  1
  O  O15  1  0.79660347  0.78151896  0.45529957  1
  O  O16  1  0.41330831  0.99327072  0.24218683  1
  O  O17  1  0.06663515  0.46477168  0.25753117  1
  O  O18  1  0.58669169  0.00672928  0.75781317  1
  O  O19  1  0.93336485  0.53522832  0.74246883  1
