# generated using pymatgen
data_SrCaYBiO6
_symmetry_space_group_name_H-M   'P 1'
_cell_length_a   8.47632255
_cell_length_b   8.46621624
_cell_length_c   8.47824276
_cell_angle_alpha   90.00000000
_cell_angle_beta   90.00000000
_cell_angle_gamma   90.00000000
_symmetry_Int_Tables_number   1
_chemical_formula_structural   SrCaYBiO6
_chemical_formula_sum   'Sr4 Ca4 Y4 Bi4 O24'
_cell_volume   608.41887552
_cell_formula_units_Z   4
loop_
 _symmetry_equiv_pos_site_id
 _symmetry_equiv_pos_as_xyz
  1  'x, y, z'
loop_
 _atom_site_type_symbol
 _atom_site_label
 _atom_site_symmetry_multiplicity
 _atom_site_fract_x
 _atom_site_fract_y
 _atom_site_fract_z
 _atom_site_occupancy
  Sr  Sr0  1  0.00000000  0.50000000  0.50000000  1
  Sr  Sr1  1  0.50000000  0.00000000  -0.00000000  1
  Sr  Sr2  1  0.00000000  0.50000000  -0.00000000  1
  Sr  Sr3  1  0.00000000  0.00000000  0.50000000  1
  Ca  Ca4  1  0.50000000  0.00000000  0.50000000  1
  Ca  Ca5  1  0.50000000  0.50000000  -0.00000000  1
  Ca  Ca6  1  0.00000000  0.00000000  -0.00000000  1
  Ca  Ca7  1  0.50000000  0.50000000  0.50000000  1
  Y  Y8  1  0.25225620  0.25033148  0.24992639  1
  Y  Y9  1  0.74774380  0.74966852  0.24992639  1
  Y  Y10  1  0.74774380  0.25033148  0.75007361  1
  Y  Y11  1  0.25225620  0.74966852  0.75007361  1
  Bi  Bi12  1  0.74743486  0.74970143  0.75018980  1
  Bi  Bi13  1  0.25256514  0.25029857  0.75018980  1
  Bi  Bi14  1  0.25256514  0.74970143  0.24981020  1
  Bi  Bi15  1  0.74743486  0.25029857  0.24981020  1
  O  O16  1  0.99274748  0.20555786  0.28642257  1
  O  O17  1  0.00725252  0.79444214  0.28642257  1
  O  O18  1  0.00725252  0.20555786  0.71357743  1
  O  O19  1  0.99274748  0.79444214  0.71357743  1
  O  O20  1  0.28649898  0.99351702  0.20327111  1
  O  O21  1  0.28649898  0.00648298  0.79672889  1
  O  O22  1  0.71350102  0.00648298  0.20327111  1
  O  O23  1  0.71350102  0.99351702  0.79672889  1
  O  O24  1  0.20260997  0.28396180  0.99347354  1
  O  O25  1  0.79739003  0.28396180  0.00652646  1
  O  O26  1  0.20260997  0.71603820  0.00652646  1
  O  O27  1  0.79739003  0.71603820  0.99347354  1
  O  O28  1  0.50678010  0.30593043  0.20411682  1
  O  O29  1  0.49321990  0.69406957  0.20411682  1
  O  O30  1  0.49321990  0.30593043  0.79588318  1
  O  O31  1  0.50678010  0.69406957  0.79588318  1
  O  O32  1  0.21515701  0.50684367  0.29988608  1
  O  O33  1  0.21515701  0.49315633  0.70011392  1
  O  O34  1  0.78484299  0.49315633  0.29988608  1
  O  O35  1  0.78484299  0.50684367  0.70011392  1
  O  O36  1  0.30762226  0.20652330  0.50757926  1
  O  O37  1  0.69237774  0.20652330  0.49242074  1
  O  O38  1  0.30762226  0.79347670  0.49242074  1
  O  O39  1  0.69237774  0.79347670  0.50757926  1
