# generated using pymatgen
data_SrNdHf2O6
_symmetry_space_group_name_H-M   'P 1'
_cell_length_a   4.21921592
_cell_length_b   5.70051007
_cell_length_c   5.70051007
_cell_angle_alpha   91.34957022
_cell_angle_beta   90.00000000
_cell_angle_gamma   90.00000000
_symmetry_Int_Tables_number   1
_chemical_formula_structural   SrNdHf2O6
_chemical_formula_sum   'Sr1 Nd1 Hf2 O6'
_cell_volume   137.06882785
_cell_formula_units_Z   1
loop_
 _symmetry_equiv_pos_site_id
 _symmetry_equiv_pos_as_xyz
  1  'x, y, z'
loop_
 _atom_site_type_symbol
 _atom_site_label
 _atom_site_symmetry_multiplicity
 _atom_site_fract_x
 _atom_site_fract_y
 _atom_site_fract_z
 _atom_site_occupancy
  Sr  Sr0  1  0.50000000  0.50000000  0.50000000  1
  Nd  Nd1  1  0.50000000  0.00000000  -0.00000000  1
  Hf  Hf2  1  -0.00000000  0.00000000  0.50000000  1
  Hf  Hf3  1  0.00000000  0.50000000  -0.00000000  1
  O  O4  1  0.50000000  0.00000000  0.50000000  1
  O  O5  1  0.50000000  0.50000000  -0.00000000  1
  O  O6  1  -0.00000000  0.31812340  0.68187660  1
  O  O7  1  0.00000000  0.68187660  0.31812340  1
  O  O8  1  -0.00000000  0.82021361  0.82021361  1
  O  O9  1  0.00000000  0.17978639  0.17978639  1
