# generated using pymatgen
data_BaSrYSbO6
_symmetry_space_group_name_H-M   'P 1'
_cell_length_a   8.45491907
_cell_length_b   8.44814352
_cell_length_c   8.44701580
_cell_angle_alpha   90.00000000
_cell_angle_beta   90.00000000
_cell_angle_gamma   90.00000000
_symmetry_Int_Tables_number   1
_chemical_formula_structural   BaSrYSbO6
_chemical_formula_sum   'Ba4 Sr4 Y4 Sb4 O24'
_cell_volume   603.35656787
_cell_formula_units_Z   4
loop_
 _symmetry_equiv_pos_site_id
 _symmetry_equiv_pos_as_xyz
  1  'x, y, z'
loop_
 _atom_site_type_symbol
 _atom_site_label
 _atom_site_symmetry_multiplicity
 _atom_site_fract_x
 _atom_site_fract_y
 _atom_site_fract_z
 _atom_site_occupancy
  Ba  Ba0  1  -0.00000000  -0.00000000  0.00000000  1
  Ba  Ba1  1  0.50000000  0.50000000  0.50000000  1
  Ba  Ba2  1  -0.00000000  0.50000000  0.00000000  1
  Ba  Ba3  1  -0.00000000  0.00000000  0.50000000  1
  Sr  Sr4  1  -0.00000000  0.50000000  0.50000000  1
  Sr  Sr5  1  0.50000000  0.00000000  0.50000000  1
  Sr  Sr6  1  0.50000000  0.50000000  0.00000000  1
  Sr  Sr7  1  0.50000000  0.00000000  0.00000000  1
  Y  Y8  1  0.25220906  0.25051862  0.25052563  1
  Y  Y9  1  0.74779094  0.74948138  0.25052563  1
  Y  Y10  1  0.74779094  0.25051862  0.74947437  1
  Y  Y11  1  0.25220906  0.74948138  0.74947437  1
  Sb  Sb12  1  0.74671689  0.74920037  0.75013172  1
  Sb  Sb13  1  0.25328311  0.25079963  0.75013172  1
  Sb  Sb14  1  0.25328311  0.74920037  0.24986828  1
  Sb  Sb15  1  0.74671689  0.25079963  0.24986828  1
  O  O16  1  0.98484358  0.22993913  0.26880507  1
  O  O17  1  0.01515642  0.77006087  0.26880507  1
  O  O18  1  0.01515642  0.22993913  0.73119493  1
  O  O19  1  0.98484358  0.77006087  0.73119493  1
  O  O20  1  0.27903249  0.98618975  0.22454020  1
  O  O21  1  0.27903249  0.01381025  0.77545980  1
  O  O22  1  0.72096751  0.01381025  0.22454020  1
  O  O23  1  0.72096751  0.98618975  0.77545980  1
  O  O24  1  0.23324450  0.27231968  0.98688817  1
  O  O25  1  0.76675550  0.27231968  0.01311183  1
  O  O26  1  0.23324450  0.72768032  0.01311183  1
  O  O27  1  0.76675550  0.72768032  0.98688817  1
  O  O28  1  0.51247252  0.28190100  0.22280828  1
  O  O29  1  0.48752748  0.71809900  0.22280828  1
  O  O30  1  0.48752748  0.28190100  0.77719172  1
  O  O31  1  0.51247252  0.71809900  0.77719172  1
  O  O32  1  0.22554967  0.51369209  0.28178293  1
  O  O33  1  0.22554967  0.48630791  0.71821707  1
  O  O34  1  0.77445033  0.48630791  0.28178293  1
  O  O35  1  0.77445033  0.51369209  0.71821707  1
  O  O36  1  0.28085573  0.22093435  0.51448088  1
  O  O37  1  0.71914427  0.22093435  0.48551912  1
  O  O38  1  0.28085573  0.77906565  0.48551912  1
  O  O39  1  0.71914427  0.77906565  0.51448088  1
