# generated using pymatgen
data_CaDyMnSnO6
_symmetry_space_group_name_H-M   'P 1'
_cell_length_a   5.48911010
_cell_length_b   5.53279459
_cell_length_c   8.61459917
_cell_angle_alpha   88.86271070
_cell_angle_beta   94.60689894
_cell_angle_gamma   88.19885613
_symmetry_Int_Tables_number   1
_chemical_formula_structural   CaDyMnSnO6
_chemical_formula_sum   'Ca2 Dy2 Mn2 Sn2 O12'
_cell_volume   260.58656722
_cell_formula_units_Z   2
loop_
 _symmetry_equiv_pos_site_id
 _symmetry_equiv_pos_as_xyz
  1  'x, y, z'
loop_
 _atom_site_type_symbol
 _atom_site_label
 _atom_site_symmetry_multiplicity
 _atom_site_fract_x
 _atom_site_fract_y
 _atom_site_fract_z
 _atom_site_occupancy
  Ca  Ca0  1  0.00000000  0.50000000  -0.00000000  1
  Ca  Ca1  1  0.50000000  -0.00000000  0.50000000  1
  Dy  Dy2  1  0.97654514  0.05847033  0.27406801  1
  Dy  Dy3  1  0.02345486  0.94152967  0.72593199  1
  Mn  Mn4  1  0.50000000  -0.00000000  -0.00000000  1
  Mn  Mn5  1  0.00000000  0.50000000  0.50000000  1
  Sn  Sn6  1  0.51442746  0.55270191  0.22248352  1
  Sn  Sn7  1  0.48557254  0.44729809  0.77751648  1
  O  O8  1  0.23688775  0.20250161  0.89039163  1
  O  O9  1  0.28735214  0.65170092  0.60361850  1
  O  O10  1  0.76311225  0.79749839  0.10960837  1
  O  O11  1  0.71264786  0.34829908  0.39638150  1
  O  O12  1  0.33164975  0.70970264  0.92482232  1
  O  O13  1  0.14533267  0.18911345  0.54472930  1
  O  O14  1  0.66835025  0.29029736  0.07517768  1
  O  O15  1  0.85466733  0.81088655  0.45527070  1
  O  O16  1  0.35216334  0.89040408  0.24613347  1
  O  O17  1  0.18773615  0.40123174  0.23852705  1
  O  O18  1  0.64783666  0.10959592  0.75386653  1
  O  O19  1  0.81226385  0.59876826  0.76147295  1
