# generated using pymatgen
data_BaZr2SnO6
_symmetry_space_group_name_H-M   'P 1'
_cell_length_a   8.45589274
_cell_length_b   8.45589274
_cell_length_c   8.45567941
_cell_angle_alpha   90.00000000
_cell_angle_beta   90.00000000
_cell_angle_gamma   90.00000000
_symmetry_Int_Tables_number   1
_chemical_formula_structural   BaZr2SnO6
_chemical_formula_sum   'Ba4 Zr8 Sn4 O24'
_cell_volume   604.59902102
_cell_formula_units_Z   4
loop_
 _symmetry_equiv_pos_site_id
 _symmetry_equiv_pos_as_xyz
  1  'x, y, z'
loop_
 _atom_site_type_symbol
 _atom_site_label
 _atom_site_symmetry_multiplicity
 _atom_site_fract_x
 _atom_site_fract_y
 _atom_site_fract_z
 _atom_site_occupancy
  Ba  Ba0  1  0.50000000  -0.00000000  0.50000000  1
  Ba  Ba1  1  0.00000000  0.50000000  0.00000000  1
  Ba  Ba2  1  0.50000000  0.50000000  0.00000000  1
  Ba  Ba3  1  0.50000000  0.50000000  0.50000000  1
  Zr  Zr4  1  0.75143436  0.75143436  0.75000000  1
  Zr  Zr5  1  0.24856564  0.75143436  0.75000000  1
  Zr  Zr6  1  0.75143436  0.75143436  0.25000000  1
  Zr  Zr7  1  0.24856564  0.75143436  0.25000000  1
  Zr  Zr8  1  0.75143436  0.24856564  0.75000000  1
  Zr  Zr9  1  0.24856564  0.24856564  0.75000000  1
  Zr  Zr10  1  0.75143436  0.24856564  0.25000000  1
  Zr  Zr11  1  0.24856564  0.24856564  0.25000000  1
  Sn  Sn12  1  0.00000000  -0.00000000  0.00000000  1
  Sn  Sn13  1  0.50000000  -0.00000000  0.00000000  1
  Sn  Sn14  1  0.00000000  -0.00000000  0.50000000  1
  Sn  Sn15  1  0.00000000  0.50000000  0.50000000  1
  O  O16  1  0.00000000  0.75016435  0.74997070  1
  O  O17  1  0.50000000  0.75010441  0.74995559  1
  O  O18  1  0.00000000  0.75016435  0.25002930  1
  O  O19  1  0.50000000  0.75010441  0.25004441  1
  O  O20  1  0.00000000  0.24983565  0.74997070  1
  O  O21  1  0.50000000  0.24989559  0.74995559  1
  O  O22  1  0.00000000  0.24983565  0.25002930  1
  O  O23  1  0.50000000  0.24989559  0.25004441  1
  O  O24  1  0.75016435  -0.00000000  0.75002930  1
  O  O25  1  0.24983565  -0.00000000  0.75002930  1
  O  O26  1  0.75016435  -0.00000000  0.24997070  1
  O  O27  1  0.24983565  -0.00000000  0.24997070  1
  O  O28  1  0.75010441  0.50000000  0.75004441  1
  O  O29  1  0.24989559  0.50000000  0.75004441  1
  O  O30  1  0.75010441  0.50000000  0.24995559  1
  O  O31  1  0.24989559  0.50000000  0.24995559  1
  O  O32  1  0.75013560  0.75011588  0.00000000  1
  O  O33  1  0.24986440  0.75011588  -0.00000000  1
  O  O34  1  0.75011588  0.75013560  0.50000000  1
  O  O35  1  0.24988412  0.75013560  0.50000000  1
  O  O36  1  0.75013560  0.24988412  0.00000000  1
  O  O37  1  0.24986440  0.24988412  -0.00000000  1
  O  O38  1  0.75011588  0.24986440  0.50000000  1
  O  O39  1  0.24988412  0.24986440  0.50000000  1
