# generated using pymatgen
data_KEu(GeO3)4
_symmetry_space_group_name_H-M   'P 1'
_cell_length_a   5.43130137
_cell_length_b   5.43130137
_cell_length_c   7.66510716
_cell_angle_alpha   90.00000000
_cell_angle_beta   90.00000000
_cell_angle_gamma   89.30897128
_symmetry_Int_Tables_number   1
_chemical_formula_structural   KEu(GeO3)4
_chemical_formula_sum   'K1 Eu1 Ge4 O12'
_cell_volume   226.09681608
_cell_formula_units_Z   1
loop_
 _symmetry_equiv_pos_site_id
 _symmetry_equiv_pos_as_xyz
  1  'x, y, z'
loop_
 _atom_site_type_symbol
 _atom_site_label
 _atom_site_symmetry_multiplicity
 _atom_site_fract_x
 _atom_site_fract_y
 _atom_site_fract_z
 _atom_site_occupancy
  K  K0  1  0.99498787  0.99498787  0.50000000  1
  Eu  Eu1  1  0.51557959  0.51557959  -0.00000000  1
  Ge  Ge2  1  0.49443095  0.01011519  0.74335150  1
  Ge  Ge3  1  0.49443095  0.01011519  0.25664850  1
  Ge  Ge4  1  0.01011519  0.49443095  0.25664850  1
  Ge  Ge5  1  0.01011519  0.49443095  0.74335150  1
  O  O6  1  0.74643520  0.25182318  0.77920921  1
  O  O7  1  0.25182318  0.74643520  0.77920921  1
  O  O8  1  0.25182318  0.74643520  0.22079079  1
  O  O9  1  0.74643520  0.25182318  0.22079079  1
  O  O10  1  0.71406059  0.71406059  0.76130901  1
  O  O11  1  0.27060415  0.27060415  0.77777304  1
  O  O12  1  0.27060415  0.27060415  0.22222696  1
  O  O13  1  0.71406059  0.71406059  0.23869099  1
  O  O14  1  0.51543796  0.98275754  -0.00000000  1
  O  O15  1  0.49144787  0.02395064  0.50000000  1
  O  O16  1  0.98275754  0.51543796  -0.00000000  1
  O  O17  1  0.02395064  0.49144787  0.50000000  1
