# generated using pymatgen
data_BaNdZr2O6
_symmetry_space_group_name_H-M   'P 1'
_cell_length_a   8.41902284
_cell_length_b   8.41902284
_cell_length_c   8.41982070
_cell_angle_alpha   90.00000000
_cell_angle_beta   90.00000000
_cell_angle_gamma   90.00000000
_symmetry_Int_Tables_number   1
_chemical_formula_structural   BaNdZr2O6
_chemical_formula_sum   'Ba4 Nd4 Zr8 O24'
_cell_volume   596.79643301
_cell_formula_units_Z   4
loop_
 _symmetry_equiv_pos_site_id
 _symmetry_equiv_pos_as_xyz
  1  'x, y, z'
loop_
 _atom_site_type_symbol
 _atom_site_label
 _atom_site_symmetry_multiplicity
 _atom_site_fract_x
 _atom_site_fract_y
 _atom_site_fract_z
 _atom_site_occupancy
  Ba  Ba0  1  -0.00000000  0.00000000  -0.00000000  1
  Ba  Ba1  1  -0.00000000  0.00000000  0.50000000  1
  Ba  Ba2  1  0.50000000  0.00000000  -0.00000000  1
  Ba  Ba3  1  -0.00000000  0.50000000  -0.00000000  1
  Nd  Nd4  1  0.50000000  0.00000000  0.50000000  1
  Nd  Nd5  1  -0.00000000  0.50000000  0.50000000  1
  Nd  Nd6  1  0.50000000  0.50000000  -0.00000000  1
  Nd  Nd7  1  0.50000000  0.50000000  0.50000000  1
  Zr  Zr8  1  0.25221523  0.25221523  0.25229200  1
  Zr  Zr9  1  0.25221523  0.25221523  0.74770800  1
  Zr  Zr10  1  0.74778477  0.25221523  0.25229200  1
  Zr  Zr11  1  0.74778477  0.25221523  0.74770800  1
  Zr  Zr12  1  0.25221523  0.74778477  0.25229200  1
  Zr  Zr13  1  0.25221523  0.74778477  0.74770800  1
  Zr  Zr14  1  0.74778477  0.74778477  0.25229200  1
  Zr  Zr15  1  0.74778477  0.74778477  0.74770800  1
  O  O16  1  0.26077183  0.26077183  -0.00000000  1
  O  O17  1  0.26011342  0.26011342  0.50000000  1
  O  O18  1  0.73922817  0.26077183  -0.00000000  1
  O  O19  1  0.73988658  0.26011342  0.50000000  1
  O  O20  1  0.26077183  0.73922817  -0.00000000  1
  O  O21  1  0.26011342  0.73988658  0.50000000  1
  O  O22  1  0.73922817  0.73922817  -0.00000000  1
  O  O23  1  0.73988658  0.73988658  0.50000000  1
  O  O24  1  -0.00000000  0.26070482  0.26083998  1
  O  O25  1  -0.00000000  0.26070482  0.73916002  1
  O  O26  1  0.50000000  0.26020735  0.26020631  1
  O  O27  1  0.50000000  0.26020735  0.73979369  1
  O  O28  1  -0.00000000  0.73929518  0.26083998  1
  O  O29  1  -0.00000000  0.73929518  0.73916002  1
  O  O30  1  0.50000000  0.73979265  0.26020631  1
  O  O31  1  0.50000000  0.73979265  0.73979369  1
  O  O32  1  0.26070482  0.00000000  0.26083998  1
  O  O33  1  0.26070482  0.00000000  0.73916002  1
  O  O34  1  0.73929518  0.00000000  0.26083998  1
  O  O35  1  0.73929518  0.00000000  0.73916002  1
  O  O36  1  0.26020735  0.50000000  0.26020631  1
  O  O37  1  0.26020735  0.50000000  0.73979369  1
  O  O38  1  0.73979265  0.50000000  0.26020631  1
  O  O39  1  0.73979265  0.50000000  0.73979369  1
