# generated using pymatgen
data_CaTbEuVO6
_symmetry_space_group_name_H-M   'P 1'
_cell_length_a   9.32688428
_cell_length_b   8.95835043
_cell_length_c   9.14099189
_cell_angle_alpha   90.00000000
_cell_angle_beta   90.00000000
_cell_angle_gamma   90.00000000
_symmetry_Int_Tables_number   1
_chemical_formula_structural   CaTbEuVO6
_chemical_formula_sum   'Ca4 Tb4 Eu4 V4 O24'
_cell_volume   763.76184577
_cell_formula_units_Z   4
loop_
 _symmetry_equiv_pos_site_id
 _symmetry_equiv_pos_as_xyz
  1  'x, y, z'
loop_
 _atom_site_type_symbol
 _atom_site_label
 _atom_site_symmetry_multiplicity
 _atom_site_fract_x
 _atom_site_fract_y
 _atom_site_fract_z
 _atom_site_occupancy
  Ca  Ca0  1  0.00000000  0.00000000  -0.00000000  1
  Ca  Ca1  1  0.50000000  0.50000000  0.50000000  1
  Ca  Ca2  1  0.50000000  -0.00000000  -0.00000000  1
  Ca  Ca3  1  0.00000000  0.00000000  0.50000000  1
  Tb  Tb4  1  0.74732883  0.75522509  0.74686786  1
  Tb  Tb5  1  0.25267117  0.24477491  0.74686786  1
  Tb  Tb6  1  0.25267117  0.75522509  0.25313214  1
  Tb  Tb7  1  0.74732883  0.24477491  0.25313214  1
  Eu  Eu8  1  0.00000000  0.50000000  0.50000000  1
  Eu  Eu9  1  0.50000000  -0.00000000  0.50000000  1
  Eu  Eu10  1  0.50000000  0.50000000  -0.00000000  1
  Eu  Eu11  1  0.00000000  0.50000000  -0.00000000  1
  V  V12  1  0.25115234  0.24690533  0.25193555  1
  V  V13  1  0.74884766  0.75309467  0.25193555  1
  V  V14  1  0.74884766  0.24690533  0.74806445  1
  V  V15  1  0.25115234  0.75309467  0.74806445  1
  O  O16  1  0.01947896  0.20913124  0.28524162  1
  O  O17  1  0.98052104  0.79086876  0.28524162  1
  O  O18  1  0.98052104  0.20913124  0.71475838  1
  O  O19  1  0.01947896  0.79086876  0.71475838  1
  O  O20  1  0.28582388  0.01931781  0.20881512  1
  O  O21  1  0.28582388  0.98068219  0.79118488  1
  O  O22  1  0.71417612  0.98068219  0.20881512  1
  O  O23  1  0.71417612  0.01931781  0.79118488  1
  O  O24  1  0.20866263  0.28523900  0.01930354  1
  O  O25  1  0.79133737  0.28523900  0.98069646  1
  O  O26  1  0.20866263  0.71476100  0.98069646  1
  O  O27  1  0.79133737  0.71476100  0.01930354  1
  O  O28  1  0.48046983  0.29045849  0.21578689  1
  O  O29  1  0.51953017  0.70954151  0.21578689  1
  O  O30  1  0.51953017  0.29045849  0.78421311  1
  O  O31  1  0.48046983  0.70954151  0.78421311  1
  O  O32  1  0.21534510  0.48099994  0.29023991  1
  O  O33  1  0.21534510  0.51900006  0.70976009  1
  O  O34  1  0.78465490  0.51900006  0.29023991  1
  O  O35  1  0.78465490  0.48099994  0.70976009  1
  O  O36  1  0.29198921  0.21467261  0.48041704  1
  O  O37  1  0.70801079  0.21467261  0.51958296  1
  O  O38  1  0.29198921  0.78532739  0.51958296  1
  O  O39  1  0.70801079  0.78532739  0.48041704  1
