# generated using pymatgen
data_NaSrPrSbO6
_symmetry_space_group_name_H-M   'P 1'
_cell_length_a   8.49678733
_cell_length_b   8.56080746
_cell_length_c   8.50940699
_cell_angle_alpha   90.00000000
_cell_angle_beta   90.00000000
_cell_angle_gamma   90.00000000
_symmetry_Int_Tables_number   1
_chemical_formula_structural   NaSrPrSbO6
_chemical_formula_sum   'Na4 Sr4 Pr4 Sb4 O24'
_cell_volume   618.96882150
_cell_formula_units_Z   4
loop_
 _symmetry_equiv_pos_site_id
 _symmetry_equiv_pos_as_xyz
  1  'x, y, z'
loop_
 _atom_site_type_symbol
 _atom_site_label
 _atom_site_symmetry_multiplicity
 _atom_site_fract_x
 _atom_site_fract_y
 _atom_site_fract_z
 _atom_site_occupancy
  Na  Na0  1  0.00000000  -0.00000000  0.00000000  1
  Na  Na1  1  0.50000000  0.50000000  0.50000000  1
  Na  Na2  1  0.00000000  0.50000000  0.50000000  1
  Na  Na3  1  0.50000000  -0.00000000  0.00000000  1
  Sr  Sr4  1  0.50000000  -0.00000000  0.50000000  1
  Sr  Sr5  1  0.50000000  0.50000000  0.00000000  1
  Sr  Sr6  1  0.00000000  0.50000000  0.00000000  1
  Sr  Sr7  1  0.00000000  -0.00000000  0.50000000  1
  Pr  Pr8  1  0.75000000  0.75000000  0.75000000  1
  Pr  Pr9  1  0.25000000  0.25000000  0.75000000  1
  Pr  Pr10  1  0.25000000  0.75000000  0.25000000  1
  Pr  Pr11  1  0.75000000  0.25000000  0.25000000  1
  Sb  Sb12  1  0.25000000  0.25000000  0.25000000  1
  Sb  Sb13  1  0.75000000  0.75000000  0.25000000  1
  Sb  Sb14  1  0.75000000  0.25000000  0.75000000  1
  Sb  Sb15  1  0.25000000  0.75000000  0.75000000  1
  O  O16  1  0.02188150  0.20246044  0.27755969  1
  O  O17  1  0.97811850  0.79753956  0.27755969  1
  O  O18  1  0.97811850  0.20246044  0.72244031  1
  O  O19  1  0.02188150  0.79753956  0.72244031  1
  O  O20  1  0.29428106  0.02200778  0.21432293  1
  O  O21  1  0.29428106  0.97799222  0.78567707  1
  O  O22  1  0.70571894  0.97799222  0.21432293  1
  O  O23  1  0.70571894  0.02200778  0.78567707  1
  O  O24  1  0.21705474  0.29454264  0.02029624  1
  O  O25  1  0.78294526  0.29454264  0.97970376  1
  O  O26  1  0.21705474  0.70545736  0.97970376  1
  O  O27  1  0.78294526  0.70545736  0.02029624  1
  O  O28  1  0.47811850  0.29753956  0.22244031  1
  O  O29  1  0.52188150  0.70246044  0.22244031  1
  O  O30  1  0.52188150  0.29753956  0.77755969  1
  O  O31  1  0.47811850  0.70246044  0.77755969  1
  O  O32  1  0.20571894  0.47799222  0.28567707  1
  O  O33  1  0.20571894  0.52200778  0.71432293  1
  O  O34  1  0.79428106  0.52200778  0.28567707  1
  O  O35  1  0.79428106  0.47799222  0.71432293  1
  O  O36  1  0.28294526  0.20545736  0.47970376  1
  O  O37  1  0.71705474  0.20545736  0.52029624  1
  O  O38  1  0.28294526  0.79454264  0.52029624  1
  O  O39  1  0.71705474  0.79454264  0.47970376  1
