# generated using pymatgen
data_Sr2TbZrO6
_symmetry_space_group_name_H-M   'P 1'
_cell_length_a   8.54561723
_cell_length_b   8.54561723
_cell_length_c   8.54561723
_cell_angle_alpha   90.00000000
_cell_angle_beta   90.00000000
_cell_angle_gamma   90.00000000
_symmetry_Int_Tables_number   1
_chemical_formula_structural   Sr2TbZrO6
_chemical_formula_sum   'Sr8 Tb4 Zr4 O24'
_cell_volume   624.06569329
_cell_formula_units_Z   4
loop_
 _symmetry_equiv_pos_site_id
 _symmetry_equiv_pos_as_xyz
  1  'x, y, z'
loop_
 _atom_site_type_symbol
 _atom_site_label
 _atom_site_symmetry_multiplicity
 _atom_site_fract_x
 _atom_site_fract_y
 _atom_site_fract_z
 _atom_site_occupancy
  Sr  Sr0  1  0.50000000  0.50000000  0.50000000  1
  Sr  Sr1  1  0.00000000  -0.00000000  -0.00000000  1
  Sr  Sr2  1  0.00000000  -0.00000000  0.50000000  1
  Sr  Sr3  1  0.00000000  0.50000000  -0.00000000  1
  Sr  Sr4  1  0.50000000  -0.00000000  -0.00000000  1
  Sr  Sr5  1  0.50000000  0.50000000  -0.00000000  1
  Sr  Sr6  1  0.50000000  -0.00000000  0.50000000  1
  Sr  Sr7  1  0.00000000  0.50000000  0.50000000  1
  Tb  Tb8  1  0.75000000  0.75000000  0.75000000  1
  Tb  Tb9  1  0.75000000  0.25000000  0.25000000  1
  Tb  Tb10  1  0.25000000  0.75000000  0.25000000  1
  Tb  Tb11  1  0.25000000  0.25000000  0.75000000  1
  Zr  Zr12  1  0.25000000  0.25000000  0.25000000  1
  Zr  Zr13  1  0.25000000  0.75000000  0.75000000  1
  Zr  Zr14  1  0.75000000  0.25000000  0.75000000  1
  Zr  Zr15  1  0.75000000  0.75000000  0.25000000  1
  O  O16  1  0.21405387  0.29300910  0.49156700  1
  O  O17  1  0.21405387  0.70699090  0.50843300  1
  O  O18  1  0.78594613  0.29300910  0.50843300  1
  O  O19  1  0.78594613  0.70699090  0.49156700  1
  O  O20  1  0.29300910  0.49156700  0.21405387  1
  O  O21  1  0.70699090  0.50843300  0.21405387  1
  O  O22  1  0.29300910  0.50843300  0.78594613  1
  O  O23  1  0.70699090  0.49156700  0.78594613  1
  O  O24  1  0.49156700  0.21405387  0.29300910  1
  O  O25  1  0.50843300  0.21405387  0.70699090  1
  O  O26  1  0.50843300  0.78594613  0.29300910  1
  O  O27  1  0.49156700  0.78594613  0.70699090  1
  O  O28  1  0.28594613  0.20699090  0.00843300  1
  O  O29  1  0.28594613  0.79300910  0.99156700  1
  O  O30  1  0.71405387  0.20699090  0.99156700  1
  O  O31  1  0.71405387  0.79300910  0.00843300  1
  O  O32  1  0.20699090  0.00843300  0.28594613  1
  O  O33  1  0.79300910  0.99156700  0.28594613  1
  O  O34  1  0.20699090  0.99156700  0.71405387  1
  O  O35  1  0.79300910  0.00843300  0.71405387  1
  O  O36  1  0.00843300  0.28594613  0.20699090  1
  O  O37  1  0.99156700  0.28594613  0.79300910  1
  O  O38  1  0.99156700  0.71405387  0.20699090  1
  O  O39  1  0.00843300  0.71405387  0.79300910  1
