# generated using pymatgen
data_BaSrCeTiO6
_symmetry_space_group_name_H-M   'P 1'
_cell_length_a   5.96333672
_cell_length_b   5.93639366
_cell_length_c   8.39935493
_cell_angle_alpha   90.20356366
_cell_angle_beta   90.15361964
_cell_angle_gamma   90.24634042
_symmetry_Int_Tables_number   1
_chemical_formula_structural   BaSrCeTiO6
_chemical_formula_sum   'Ba2 Sr2 Ce2 Ti2 O12'
_cell_volume   297.33745826
_cell_formula_units_Z   2
loop_
 _symmetry_equiv_pos_site_id
 _symmetry_equiv_pos_as_xyz
  1  'x, y, z'
loop_
 _atom_site_type_symbol
 _atom_site_label
 _atom_site_symmetry_multiplicity
 _atom_site_fract_x
 _atom_site_fract_y
 _atom_site_fract_z
 _atom_site_occupancy
  Ba  Ba0  1  0.50357388  0.51016060  0.24956946  1
  Ba  Ba1  1  0.49642612  0.48983940  0.75043054  1
  Sr  Sr2  1  0.00076237  0.01542238  0.25222762  1
  Sr  Sr3  1  0.99923763  0.98457762  0.74777238  1
  Ce  Ce4  1  -0.00000000  0.50000000  -0.00000000  1
  Ce  Ce5  1  0.50000000  -0.00000000  0.50000000  1
  Ti  Ti6  1  0.50000000  -0.00000000  -0.00000000  1
  Ti  Ti7  1  -0.00000000  0.50000000  0.50000000  1
  O  O8  1  0.24167900  0.21173212  0.96801227  1
  O  O9  1  0.25229862  0.71801147  0.52338418  1
  O  O10  1  0.75832100  0.78826788  0.03198773  1
  O  O11  1  0.74770138  0.28198853  0.47661582  1
  O  O12  1  0.28387877  0.74631254  0.97410276  1
  O  O13  1  0.20934145  0.23797333  0.52841208  1
  O  O14  1  0.71612123  0.25368746  0.02589724  1
  O  O15  1  0.79065855  0.76202667  0.47158792  1
  O  O16  1  0.43723459  0.00088142  0.23495492  1
  O  O17  1  0.04380265  0.48524130  0.26495061  1
  O  O18  1  0.56276541  0.99911858  0.76504508  1
  O  O19  1  0.95619735  0.51475870  0.73504939  1
