# generated using pymatgen
data_BaSrDyWO6
_symmetry_space_group_name_H-M   'P 1'
_cell_length_a   8.43246517
_cell_length_b   8.44332765
_cell_length_c   8.47387647
_cell_angle_alpha   90.00000000
_cell_angle_beta   90.00000000
_cell_angle_gamma   90.00000000
_symmetry_Int_Tables_number   1
_chemical_formula_structural   BaSrDyWO6
_chemical_formula_sum   'Ba4 Sr4 Dy4 W4 O24'
_cell_volume   603.32361896
_cell_formula_units_Z   4
loop_
 _symmetry_equiv_pos_site_id
 _symmetry_equiv_pos_as_xyz
  1  'x, y, z'
loop_
 _atom_site_type_symbol
 _atom_site_label
 _atom_site_symmetry_multiplicity
 _atom_site_fract_x
 _atom_site_fract_y
 _atom_site_fract_z
 _atom_site_occupancy
  Ba  Ba0  1  -0.00000000  -0.00000000  -0.00000000  1
  Ba  Ba1  1  0.50000000  0.50000000  0.50000000  1
  Ba  Ba2  1  0.50000000  -0.00000000  0.50000000  1
  Ba  Ba3  1  0.50000000  0.50000000  -0.00000000  1
  Sr  Sr4  1  -0.00000000  0.50000000  0.50000000  1
  Sr  Sr5  1  0.50000000  -0.00000000  -0.00000000  1
  Sr  Sr6  1  -0.00000000  0.50000000  -0.00000000  1
  Sr  Sr7  1  -0.00000000  -0.00000000  0.50000000  1
  Dy  Dy8  1  0.75222481  0.75046286  0.75038013  1
  Dy  Dy9  1  0.24777519  0.24953714  0.75038013  1
  Dy  Dy10  1  0.24777519  0.75046286  0.24961987  1
  Dy  Dy11  1  0.75222481  0.24953714  0.24961987  1
  W  W12  1  0.24714215  0.24949317  0.25010592  1
  W  W13  1  0.75285785  0.75050683  0.25010592  1
  W  W14  1  0.75285785  0.24949317  0.74989408  1
  W  W15  1  0.24714215  0.75050683  0.74989408  1
  O  O16  1  0.01415363  0.21882314  0.28164879  1
  O  O17  1  0.98584637  0.78117686  0.28164879  1
  O  O18  1  0.98584637  0.21882314  0.71835121  1
  O  O19  1  0.01415363  0.78117686  0.71835121  1
  O  O20  1  0.27978240  0.01442945  0.21814730  1
  O  O21  1  0.27978240  0.98557055  0.78185270  1
  O  O22  1  0.72021760  0.98557055  0.21814730  1
  O  O23  1  0.72021760  0.01442945  0.78185270  1
  O  O24  1  0.21788141  0.28171431  0.01311580  1
  O  O25  1  0.78211859  0.28171431  0.98688420  1
  O  O26  1  0.21788141  0.71828569  0.98688420  1
  O  O27  1  0.78211859  0.71828569  0.01311580  1
  O  O28  1  0.48378091  0.26992271  0.22678049  1
  O  O29  1  0.51621909  0.73007729  0.22678049  1
  O  O30  1  0.51621909  0.26992271  0.77321951  1
  O  O31  1  0.48378091  0.73007729  0.77321951  1
  O  O32  1  0.21687684  0.48557670  0.27699239  1
  O  O33  1  0.21687684  0.51442330  0.72300761  1
  O  O34  1  0.78312316  0.51442330  0.27699239  1
  O  O35  1  0.78312316  0.48557670  0.72300761  1
  O  O36  1  0.26856323  0.22525354  0.48781417  1
  O  O37  1  0.73143677  0.22525354  0.51218583  1
  O  O38  1  0.26856323  0.77474646  0.51218583  1
  O  O39  1  0.73143677  0.77474646  0.48781417  1
