# generated using pymatgen
data_BaLaEuWO6
_symmetry_space_group_name_H-M   'P 1'
_cell_length_a   11.01009289
_cell_length_b   10.53037467
_cell_length_c   10.01912260
_cell_angle_alpha   90.00000000
_cell_angle_beta   90.00000000
_cell_angle_gamma   90.00000000
_symmetry_Int_Tables_number   1
_chemical_formula_structural   BaLaEuWO6
_chemical_formula_sum   'Ba4 La4 Eu4 W4 O24'
_cell_volume   1161.62111479
_cell_formula_units_Z   4
loop_
 _symmetry_equiv_pos_site_id
 _symmetry_equiv_pos_as_xyz
  1  'x, y, z'
loop_
 _atom_site_type_symbol
 _atom_site_label
 _atom_site_symmetry_multiplicity
 _atom_site_fract_x
 _atom_site_fract_y
 _atom_site_fract_z
 _atom_site_occupancy
  Ba  Ba0  1  0.00000000  0.00000000  0.00000000  1
  Ba  Ba1  1  0.50000000  0.50000000  0.50000000  1
  Ba  Ba2  1  0.50000000  0.50000000  -0.00000000  1
  Ba  Ba3  1  -0.00000000  0.00000000  0.50000000  1
  La  La4  1  0.75000000  0.75000000  0.75000000  1
  La  La5  1  0.25000000  0.25000000  0.75000000  1
  La  La6  1  0.25000000  0.75000000  0.25000000  1
  La  La7  1  0.75000000  0.25000000  0.25000000  1
  Eu  Eu8  1  -0.00000000  0.50000000  0.50000000  1
  Eu  Eu9  1  0.50000000  0.00000000  0.50000000  1
  Eu  Eu10  1  0.50000000  0.00000000  0.00000000  1
  Eu  Eu11  1  -0.00000000  0.50000000  -0.00000000  1
  W  W12  1  0.25000000  0.25000000  0.25000000  1
  W  W13  1  0.75000000  0.75000000  0.25000000  1
  W  W14  1  0.75000000  0.25000000  0.75000000  1
  W  W15  1  0.25000000  0.75000000  0.75000000  1
  O  O16  1  -0.00299833  0.21128297  0.28562379  1
  O  O17  1  0.00299833  0.78871703  0.28562379  1
  O  O18  1  0.00299833  0.21128297  0.71437621  1
  O  O19  1  -0.00299833  0.78871703  0.71437621  1
  O  O20  1  0.29158522  0.02164601  0.20560610  1
  O  O21  1  0.29158522  0.97835399  0.79439390  1
  O  O22  1  0.70841478  0.97835399  0.20560610  1
  O  O23  1  0.70841478  0.02164601  0.79439390  1
  O  O24  1  0.20661478  0.29174906  0.02945168  1
  O  O25  1  0.79338522  0.29174906  0.97054832  1
  O  O26  1  0.20661478  0.70825094  0.97054832  1
  O  O27  1  0.79338522  0.70825094  0.02945168  1
  O  O28  1  0.50299833  0.28871703  0.21437621  1
  O  O29  1  0.49700167  0.71128297  0.21437621  1
  O  O30  1  0.49700167  0.28871703  0.78562379  1
  O  O31  1  0.50299833  0.71128297  0.78562379  1
  O  O32  1  0.20841478  0.47835399  0.29439390  1
  O  O33  1  0.20841478  0.52164601  0.70560610  1
  O  O34  1  0.79158522  0.52164601  0.29439390  1
  O  O35  1  0.79158522  0.47835399  0.70560610  1
  O  O36  1  0.29338522  0.20825094  0.47054832  1
  O  O37  1  0.70661478  0.20825094  0.52945168  1
  O  O38  1  0.29338522  0.79174906  0.52945168  1
  O  O39  1  0.70661478  0.79174906  0.47054832  1
