# generated using pymatgen
data_Sr2GdWO6
_symmetry_space_group_name_H-M   'P 1'
_cell_length_a   8.41396807
_cell_length_b   8.41396807
_cell_length_c   8.41396807
_cell_angle_alpha   90.00000000
_cell_angle_beta   90.00000000
_cell_angle_gamma   90.00000000
_symmetry_Int_Tables_number   1
_chemical_formula_structural   Sr2GdWO6
_chemical_formula_sum   'Sr8 Gd4 W4 O24'
_cell_volume   595.66568048
_cell_formula_units_Z   4
loop_
 _symmetry_equiv_pos_site_id
 _symmetry_equiv_pos_as_xyz
  1  'x, y, z'
loop_
 _atom_site_type_symbol
 _atom_site_label
 _atom_site_symmetry_multiplicity
 _atom_site_fract_x
 _atom_site_fract_y
 _atom_site_fract_z
 _atom_site_occupancy
  Sr  Sr0  1  0.50000000  0.50000000  0.50000000  1
  Sr  Sr1  1  -0.00000000  -0.00000000  -0.00000000  1
  Sr  Sr2  1  -0.00000000  -0.00000000  0.50000000  1
  Sr  Sr3  1  -0.00000000  0.50000000  0.00000000  1
  Sr  Sr4  1  0.50000000  -0.00000000  0.00000000  1
  Sr  Sr5  1  0.50000000  0.50000000  0.00000000  1
  Sr  Sr6  1  0.50000000  -0.00000000  0.50000000  1
  Sr  Sr7  1  -0.00000000  0.50000000  0.50000000  1
  Gd  Gd8  1  0.75000000  0.75000000  0.75000000  1
  Gd  Gd9  1  0.75000000  0.25000000  0.25000000  1
  Gd  Gd10  1  0.25000000  0.75000000  0.25000000  1
  Gd  Gd11  1  0.25000000  0.25000000  0.75000000  1
  W  W12  1  0.25000000  0.25000000  0.25000000  1
  W  W13  1  0.25000000  0.75000000  0.75000000  1
  W  W14  1  0.75000000  0.25000000  0.75000000  1
  W  W15  1  0.75000000  0.75000000  0.25000000  1
  O  O16  1  0.21487173  0.28719970  0.48413349  1
  O  O17  1  0.21487173  0.71280030  0.51586651  1
  O  O18  1  0.78512827  0.28719970  0.51586651  1
  O  O19  1  0.78512827  0.71280030  0.48413349  1
  O  O20  1  0.28719970  0.48413349  0.21487173  1
  O  O21  1  0.71280030  0.51586651  0.21487173  1
  O  O22  1  0.28719970  0.51586651  0.78512827  1
  O  O23  1  0.71280030  0.48413349  0.78512827  1
  O  O24  1  0.48413349  0.21487173  0.28719970  1
  O  O25  1  0.51586651  0.21487173  0.71280030  1
  O  O26  1  0.51586651  0.78512827  0.28719970  1
  O  O27  1  0.48413349  0.78512827  0.71280030  1
  O  O28  1  0.28512827  0.21280030  0.01586651  1
  O  O29  1  0.28512827  0.78719970  0.98413349  1
  O  O30  1  0.71487173  0.21280030  0.98413349  1
  O  O31  1  0.71487173  0.78719970  0.01586651  1
  O  O32  1  0.21280030  0.01586651  0.28512827  1
  O  O33  1  0.78719970  0.98413349  0.28512827  1
  O  O34  1  0.21280030  0.98413349  0.71487173  1
  O  O35  1  0.78719970  0.01586651  0.71487173  1
  O  O36  1  0.01586651  0.28512827  0.21280030  1
  O  O37  1  0.98413349  0.28512827  0.78719970  1
  O  O38  1  0.98413349  0.71487173  0.21280030  1
  O  O39  1  0.01586651  0.71487173  0.78719970  1
