# generated using pymatgen
data_SrCaEuBiO6
_symmetry_space_group_name_H-M   'P 1'
_cell_length_a   8.54600394
_cell_length_b   8.54462051
_cell_length_c   8.54397561
_cell_angle_alpha   90.00000000
_cell_angle_beta   90.00000000
_cell_angle_gamma   90.00000000
_symmetry_Int_Tables_number   1
_chemical_formula_structural   SrCaEuBiO6
_chemical_formula_sum   'Sr4 Ca4 Eu4 Bi4 O24'
_cell_volume   623.90126747
_cell_formula_units_Z   4
loop_
 _symmetry_equiv_pos_site_id
 _symmetry_equiv_pos_as_xyz
  1  'x, y, z'
loop_
 _atom_site_type_symbol
 _atom_site_label
 _atom_site_symmetry_multiplicity
 _atom_site_fract_x
 _atom_site_fract_y
 _atom_site_fract_z
 _atom_site_occupancy
  Sr  Sr0  1  -0.00000000  0.50000000  0.50000000  1
  Sr  Sr1  1  0.50000000  -0.00000000  0.50000000  1
  Sr  Sr2  1  0.50000000  0.50000000  -0.00000000  1
  Sr  Sr3  1  -0.00000000  0.50000000  -0.00000000  1
  Ca  Ca4  1  0.50000000  -0.00000000  -0.00000000  1
  Ca  Ca5  1  -0.00000000  -0.00000000  0.50000000  1
  Ca  Ca6  1  -0.00000000  -0.00000000  -0.00000000  1
  Ca  Ca7  1  0.50000000  0.50000000  0.50000000  1
  Eu  Eu8  1  0.24976475  0.24784223  0.24972439  1
  Eu  Eu9  1  0.75023525  0.75215777  0.24972439  1
  Eu  Eu10  1  0.75023525  0.24784223  0.75027561  1
  Eu  Eu11  1  0.24976475  0.75215777  0.75027561  1
  Bi  Bi12  1  0.74967873  0.75258281  0.75017856  1
  Bi  Bi13  1  0.25032127  0.24741719  0.75017856  1
  Bi  Bi14  1  0.25032127  0.75258281  0.24982144  1
  Bi  Bi15  1  0.74967873  0.24741719  0.24982144  1
  O  O16  1  0.98983704  0.18908250  0.29529811  1
  O  O17  1  0.01016296  0.81091750  0.29529811  1
  O  O18  1  0.01016296  0.18908250  0.70470189  1
  O  O19  1  0.98983704  0.81091750  0.70470189  1
  O  O20  1  0.29778354  0.99110200  0.19098533  1
  O  O21  1  0.29778354  0.00889800  0.80901467  1
  O  O22  1  0.70221646  0.00889800  0.19098533  1
  O  O23  1  0.70221646  0.99110200  0.80901467  1
  O  O24  1  0.19722334  0.28575487  0.99068867  1
  O  O25  1  0.80277666  0.28575487  0.00931133  1
  O  O26  1  0.19722334  0.71424513  0.00931133  1
  O  O27  1  0.80277666  0.71424513  0.99068867  1
  O  O28  1  0.50852769  0.30069946  0.21481407  1
  O  O29  1  0.49147231  0.69930054  0.21481407  1
  O  O30  1  0.49147231  0.30069946  0.78518593  1
  O  O31  1  0.50852769  0.69930054  0.78518593  1
  O  O32  1  0.21204834  0.50962706  0.29732287  1
  O  O33  1  0.21204834  0.49037294  0.70267713  1
  O  O34  1  0.78795166  0.49037294  0.29732287  1
  O  O35  1  0.78795166  0.50962706  0.70267713  1
  O  O36  1  0.29996254  0.21248206  0.50862557  1
  O  O37  1  0.70003746  0.21248206  0.49137443  1
  O  O38  1  0.29996254  0.78751794  0.49137443  1
  O  O39  1  0.70003746  0.78751794  0.50862557  1
