# generated using pymatgen
data_NaSrPrWO6
_symmetry_space_group_name_H-M   'P 1'
_cell_length_a   8.44491849
_cell_length_b   8.45405176
_cell_length_c   8.46674679
_cell_angle_alpha   90.00000000
_cell_angle_beta   90.00000000
_cell_angle_gamma   90.00000000
_symmetry_Int_Tables_number   1
_chemical_formula_structural   NaSrPrWO6
_chemical_formula_sum   'Na4 Sr4 Pr4 W4 O24'
_cell_volume   604.47304091
_cell_formula_units_Z   4
loop_
 _symmetry_equiv_pos_site_id
 _symmetry_equiv_pos_as_xyz
  1  'x, y, z'
loop_
 _atom_site_type_symbol
 _atom_site_label
 _atom_site_symmetry_multiplicity
 _atom_site_fract_x
 _atom_site_fract_y
 _atom_site_fract_z
 _atom_site_occupancy
  Na  Na0  1  0.00000000  0.00000000  -0.00000000  1
  Na  Na1  1  0.50000000  0.50000000  0.50000000  1
  Na  Na2  1  0.00000000  0.50000000  0.50000000  1
  Na  Na3  1  0.50000000  0.00000000  -0.00000000  1
  Sr  Sr4  1  0.50000000  0.00000000  0.50000000  1
  Sr  Sr5  1  0.50000000  0.50000000  -0.00000000  1
  Sr  Sr6  1  0.00000000  0.50000000  -0.00000000  1
  Sr  Sr7  1  0.00000000  0.00000000  0.50000000  1
  Pr  Pr8  1  0.75000000  0.75000000  0.75000000  1
  Pr  Pr9  1  0.25000000  0.25000000  0.75000000  1
  Pr  Pr10  1  0.25000000  0.75000000  0.25000000  1
  Pr  Pr11  1  0.75000000  0.25000000  0.25000000  1
  W  W12  1  0.25000000  0.25000000  0.25000000  1
  W  W13  1  0.75000000  0.75000000  0.25000000  1
  W  W14  1  0.75000000  0.25000000  0.75000000  1
  W  W15  1  0.25000000  0.75000000  0.75000000  1
  O  O16  1  0.02458122  0.20233870  0.27920926  1
  O  O17  1  0.97541878  0.79766130  0.27920926  1
  O  O18  1  0.97541878  0.20233870  0.72079074  1
  O  O19  1  0.02458122  0.79766130  0.72079074  1
  O  O20  1  0.29349872  0.02556882  0.21334554  1
  O  O21  1  0.29349872  0.97443118  0.78665446  1
  O  O22  1  0.70650128  0.97443118  0.21334554  1
  O  O23  1  0.70650128  0.02556882  0.78665446  1
  O  O24  1  0.21504446  0.29139845  0.02335896  1
  O  O25  1  0.78495554  0.29139845  0.97664104  1
  O  O26  1  0.21504446  0.70860155  0.97664104  1
  O  O27  1  0.78495554  0.70860155  0.02335896  1
  O  O28  1  0.47541878  0.29766130  0.22079074  1
  O  O29  1  0.52458122  0.70233870  0.22079074  1
  O  O30  1  0.52458122  0.29766130  0.77920926  1
  O  O31  1  0.47541878  0.70233870  0.77920926  1
  O  O32  1  0.20650128  0.47443118  0.28665446  1
  O  O33  1  0.20650128  0.52556882  0.71334554  1
  O  O34  1  0.79349872  0.52556882  0.28665446  1
  O  O35  1  0.79349872  0.47443118  0.71334554  1
  O  O36  1  0.28495554  0.20860155  0.47664104  1
  O  O37  1  0.71504446  0.20860155  0.52335896  1
  O  O38  1  0.28495554  0.79139845  0.52335896  1
  O  O39  1  0.71504446  0.79139845  0.47664104  1
