# generated using pymatgen
data_NaPr(FeO3)4
_symmetry_space_group_name_H-M   'P 1'
_cell_length_a   5.39490807
_cell_length_b   5.39490807
_cell_length_c   7.69423241
_cell_angle_alpha   90.00000000
_cell_angle_beta   90.00000000
_cell_angle_gamma   90.00000000
_symmetry_Int_Tables_number   1
_chemical_formula_structural   NaPr(FeO3)4
_chemical_formula_sum   'Na1 Pr1 Fe4 O12'
_cell_volume   223.94088885
_cell_formula_units_Z   1
loop_
 _symmetry_equiv_pos_site_id
 _symmetry_equiv_pos_as_xyz
  1  'x, y, z'
loop_
 _atom_site_type_symbol
 _atom_site_label
 _atom_site_symmetry_multiplicity
 _atom_site_fract_x
 _atom_site_fract_y
 _atom_site_fract_z
 _atom_site_occupancy
  Na  Na0  1  0.50000000  0.50000000  -0.00000000  1
  Pr  Pr1  1  0.00000000  -0.00000000  0.50000000  1
  Fe  Fe2  1  -0.00000000  0.50000000  0.75622570  1
  Fe  Fe3  1  0.00000000  0.50000000  0.24377430  1
  Fe  Fe4  1  0.50000000  -0.00000000  0.24377430  1
  Fe  Fe5  1  0.50000000  -0.00000000  0.75622570  1
  O  O6  1  0.24257851  0.24257851  0.25874785  1
  O  O7  1  0.24257851  0.24257851  0.74125215  1
  O  O8  1  0.75742149  0.75742149  0.74125215  1
  O  O9  1  0.75742149  0.75742149  0.25874785  1
  O  O10  1  0.75742149  0.24257851  0.74125215  1
  O  O11  1  0.75742149  0.24257851  0.25874785  1
  O  O12  1  0.24257851  0.75742149  0.74125215  1
  O  O13  1  0.24257851  0.75742149  0.25874785  1
  O  O14  1  -0.00000000  0.50000000  0.50000000  1
  O  O15  1  -0.00000000  0.50000000  -0.00000000  1
  O  O16  1  0.50000000  -0.00000000  0.50000000  1
  O  O17  1  0.50000000  0.00000000  -0.00000000  1
