# generated using pymatgen
data_CoTe(PbO3)2
_symmetry_space_group_name_H-M   'P 1'
_cell_length_a   8.11721607
_cell_length_b   9.82788027
_cell_length_c   8.11317570
_cell_angle_alpha   66.62977190
_cell_angle_beta   89.26050405
_cell_angle_gamma   113.37995005
_symmetry_Int_Tables_number   1
_chemical_formula_structural   CoTe(PbO3)2
_chemical_formula_sum   'Co4 Te4 Pb8 O24'
_cell_volume   534.09163383
_cell_formula_units_Z   4
loop_
 _symmetry_equiv_pos_site_id
 _symmetry_equiv_pos_as_xyz
  1  'x, y, z'
loop_
 _atom_site_type_symbol
 _atom_site_label
 _atom_site_symmetry_multiplicity
 _atom_site_fract_x
 _atom_site_fract_y
 _atom_site_fract_z
 _atom_site_occupancy
  Co  Co0  1  0.49996700  0.00005200  0.49998500  1
  Co  Co1  1  0.74999700  0.49998900  0.74999400  1
  Co  Co2  1  0.00006100  0.99997800  0.00005500  1
  Co  Co3  1  0.24999400  0.49997200  0.25004500  1
  Te  Te4  1  0.24990300  0.50003600  0.75010600  1
  Te  Te5  1  0.49979500  0.99996600  0.00019600  1
  Te  Te6  1  0.75009000  0.49997700  0.24988800  1
  Te  Te7  1  0.00021400  0.00002700  0.49981600  1
  Pb  Pb8  1  0.12636800  0.74756200  0.87425500  1
  Pb  Pb9  1  0.37653600  0.24771400  0.12383200  1
  Pb  Pb10  1  0.62661600  0.74725400  0.37339100  1
  Pb  Pb11  1  0.87537500  0.24693500  0.62374900  1
  Pb  Pb12  1  0.37333200  0.25283300  0.62643800  1
  Pb  Pb13  1  0.62395000  0.75324700  0.87559000  1
  Pb  Pb14  1  0.87369800  0.25218000  0.12616400  1
  Pb  Pb15  1  0.12406600  0.75205400  0.37700700  1
  O  O16  1  0.02560000  0.52973300  0.71167300  1
  O  O17  1  0.27610100  0.02987000  0.96205600  1
  O  O18  1  0.52587200  0.52948800  0.21270800  1
  O  O19  1  0.77577300  0.02981300  0.46196500  1
  O  O20  1  0.39296300  0.73917100  0.66027600  1
  O  O21  1  0.64307400  0.23918200  0.91014300  1
  O  O22  1  0.89202800  0.73935600  0.15965100  1
  O  O23  1  0.14282300  0.23938100  0.41031200  1
  O  O24  1  0.20893300  0.47727200  0.00035100  1
  O  O25  1  0.45839600  0.97649900  0.25105400  1
  O  O26  1  0.70873100  0.47674200  0.50081000  1
  O  O27  1  0.95860500  0.97724400  0.75045100  1
  O  O28  1  0.47407400  0.47022600  0.78815700  1
  O  O29  1  0.72386100  0.97033800  0.03776200  1
  O  O30  1  0.97429600  0.47033300  0.28750000  1
  O  O31  1  0.22444500  0.97026700  0.53805100  1
  O  O32  1  0.10790100  0.26075800  0.84008300  1
  O  O33  1  0.35717900  0.76065900  0.08962900  1
  O  O34  1  0.60705400  0.26074600  0.33985800  1
  O  O35  1  0.85697800  0.76082000  0.58977400  1
  O  O36  1  0.29117900  0.52298700  0.49961400  1
  O  O37  1  0.54148400  0.02320400  0.74923200  1
  O  O38  1  0.79144400  0.52337500  0.99906900  1
  O  O39  1  0.04124600  0.02276500  0.24931200  1
