# generated using pymatgen
data_BaSrLaBiO6
_symmetry_space_group_name_H-M   'P 1'
_cell_length_a   6.17873901
_cell_length_b   6.25627139
_cell_length_c   8.79594225
_cell_angle_alpha   90.13858533
_cell_angle_beta   89.67348882
_cell_angle_gamma   89.94004960
_symmetry_Int_Tables_number   1
_chemical_formula_structural   BaSrLaBiO6
_chemical_formula_sum   'Ba2 Sr2 La2 Bi2 O12'
_cell_volume   340.00807675
_cell_formula_units_Z   2
loop_
 _symmetry_equiv_pos_site_id
 _symmetry_equiv_pos_as_xyz
  1  'x, y, z'
loop_
 _atom_site_type_symbol
 _atom_site_label
 _atom_site_symmetry_multiplicity
 _atom_site_fract_x
 _atom_site_fract_y
 _atom_site_fract_z
 _atom_site_occupancy
  Ba  Ba0  1  0.99294788  0.03299903  0.25026131  1
  Ba  Ba1  1  0.00705212  0.96700097  0.74973869  1
  Sr  Sr2  1  0.50928220  0.53771446  0.25146715  1
  Sr  Sr3  1  0.49071780  0.46228554  0.74853285  1
  La  La4  1  0.50000000  -0.00000000  0.00000000  1
  La  La5  1  0.00000000  0.50000000  0.50000000  1
  Bi  Bi6  1  0.00000000  0.50000000  0.00000000  1
  Bi  Bi7  1  0.50000000  -0.00000000  0.50000000  1
  O  O8  1  0.19778925  0.22405956  0.95634321  1
  O  O9  1  0.31039062  0.71777071  0.55177244  1
  O  O10  1  0.80221075  0.77594044  0.04365679  1
  O  O11  1  0.68960938  0.28222929  0.44822756  1
  O  O12  1  0.27819940  0.69593456  0.94764089  1
  O  O13  1  0.22206666  0.19948191  0.53521604  1
  O  O14  1  0.72180060  0.30406544  0.05235911  1
  O  O15  1  0.77793334  0.80051809  0.46478396  1
  O  O16  1  0.42601350  0.95326382  0.26330074  1
  O  O17  1  0.09737888  0.48448904  0.23591784  1
  O  O18  1  0.57398650  0.04673618  0.73669926  1
  O  O19  1  0.90262112  0.51551096  0.76408216  1
