# generated using pymatgen
data_BaPrInWO6
_symmetry_space_group_name_H-M   'P 1'
_cell_length_a   8.65119697
_cell_length_b   8.67628111
_cell_length_c   8.64747372
_cell_angle_alpha   90.00000000
_cell_angle_beta   90.00000000
_cell_angle_gamma   90.00000000
_symmetry_Int_Tables_number   1
_chemical_formula_structural   BaPrInWO6
_chemical_formula_sum   'Ba4 Pr4 In4 W4 O24'
_cell_volume   649.08125263
_cell_formula_units_Z   4
loop_
 _symmetry_equiv_pos_site_id
 _symmetry_equiv_pos_as_xyz
  1  'x, y, z'
loop_
 _atom_site_type_symbol
 _atom_site_label
 _atom_site_symmetry_multiplicity
 _atom_site_fract_x
 _atom_site_fract_y
 _atom_site_fract_z
 _atom_site_occupancy
  Ba  Ba0  1  -0.00000000  -0.00000000  0.00000000  1
  Ba  Ba1  1  0.50000000  0.50000000  0.50000000  1
  Ba  Ba2  1  0.50000000  0.00000000  0.50000000  1
  Ba  Ba3  1  -0.00000000  0.50000000  0.00000000  1
  Pr  Pr4  1  0.75000000  0.75000000  0.75000000  1
  Pr  Pr5  1  0.25000000  0.25000000  0.75000000  1
  Pr  Pr6  1  0.25000000  0.75000000  0.25000000  1
  Pr  Pr7  1  0.75000000  0.25000000  0.25000000  1
  In  In8  1  -0.00000000  0.50000000  0.50000000  1
  In  In9  1  0.50000000  0.50000000  0.00000000  1
  In  In10  1  0.50000000  -0.00000000  0.00000000  1
  In  In11  1  -0.00000000  0.00000000  0.50000000  1
  W  W12  1  0.25000000  0.25000000  0.25000000  1
  W  W13  1  0.75000000  0.75000000  0.25000000  1
  W  W14  1  0.75000000  0.25000000  0.75000000  1
  W  W15  1  0.25000000  0.75000000  0.75000000  1
  O  O16  1  0.02487271  0.22459748  0.26165918  1
  O  O17  1  0.97512729  0.77540252  0.26165918  1
  O  O18  1  0.97512729  0.22459748  0.73834082  1
  O  O19  1  0.02487271  0.77540252  0.73834082  1
  O  O20  1  0.27356767  0.02491359  0.23715042  1
  O  O21  1  0.27356767  0.97508641  0.76284958  1
  O  O22  1  0.72643233  0.97508641  0.23715042  1
  O  O23  1  0.72643233  0.02491359  0.76284958  1
  O  O24  1  0.22234014  0.26050762  0.02378080  1
  O  O25  1  0.77765986  0.26050762  0.97621920  1
  O  O26  1  0.22234014  0.73949238  0.97621920  1
  O  O27  1  0.77765986  0.73949238  0.02378080  1
  O  O28  1  0.47512729  0.27540252  0.23834082  1
  O  O29  1  0.52487271  0.72459748  0.23834082  1
  O  O30  1  0.52487271  0.27540252  0.76165918  1
  O  O31  1  0.47512729  0.72459748  0.76165918  1
  O  O32  1  0.22643233  0.47508641  0.26284958  1
  O  O33  1  0.22643233  0.52491359  0.73715042  1
  O  O34  1  0.77356767  0.52491359  0.26284958  1
  O  O35  1  0.77356767  0.47508641  0.73715042  1
  O  O36  1  0.27765986  0.23949238  0.47621920  1
  O  O37  1  0.72234014  0.23949238  0.52378080  1
  O  O38  1  0.27765986  0.76050762  0.52378080  1
  O  O39  1  0.72234014  0.76050762  0.47621920  1
