# generated using pymatgen
data_BaNaTbBiO6
_symmetry_space_group_name_H-M   'P 1'
_cell_length_a   8.68004366
_cell_length_b   8.60738702
_cell_length_c   8.68056099
_cell_angle_alpha   90.00000000
_cell_angle_beta   90.00000000
_cell_angle_gamma   90.00000000
_symmetry_Int_Tables_number   1
_chemical_formula_structural   BaNaTbBiO6
_chemical_formula_sum   'Ba4 Na4 Tb4 Bi4 O24'
_cell_volume   648.54637071
_cell_formula_units_Z   4
loop_
 _symmetry_equiv_pos_site_id
 _symmetry_equiv_pos_as_xyz
  1  'x, y, z'
loop_
 _atom_site_type_symbol
 _atom_site_label
 _atom_site_symmetry_multiplicity
 _atom_site_fract_x
 _atom_site_fract_y
 _atom_site_fract_z
 _atom_site_occupancy
  Ba  Ba0  1  -0.00000000  -0.00000000  -0.00000000  1
  Ba  Ba1  1  0.50000000  0.50000000  0.50000000  1
  Ba  Ba2  1  -0.00000000  0.50000000  0.50000000  1
  Ba  Ba3  1  0.50000000  -0.00000000  -0.00000000  1
  Na  Na4  1  0.50000000  -0.00000000  0.50000000  1
  Na  Na5  1  0.50000000  0.50000000  0.00000000  1
  Na  Na6  1  0.00000000  0.50000000  -0.00000000  1
  Na  Na7  1  -0.00000000  -0.00000000  0.50000000  1
  Tb  Tb8  1  0.25000000  0.25000000  0.25000000  1
  Tb  Tb9  1  0.75000000  0.75000000  0.25000000  1
  Tb  Tb10  1  0.75000000  0.25000000  0.75000000  1
  Tb  Tb11  1  0.25000000  0.75000000  0.75000000  1
  Bi  Bi12  1  0.75000000  0.75000000  0.75000000  1
  Bi  Bi13  1  0.25000000  0.25000000  0.75000000  1
  Bi  Bi14  1  0.25000000  0.75000000  0.25000000  1
  Bi  Bi15  1  0.75000000  0.25000000  0.25000000  1
  O  O16  1  0.99230087  0.21816804  0.28027324  1
  O  O17  1  0.00769913  0.78183196  0.28027324  1
  O  O18  1  0.00769913  0.21816804  0.71972676  1
  O  O19  1  0.99230087  0.78183196  0.71972676  1
  O  O20  1  0.27336135  0.99334493  0.21417068  1
  O  O21  1  0.27336135  0.00665507  0.78582932  1
  O  O22  1  0.72663865  0.00665507  0.21417068  1
  O  O23  1  0.72663865  0.99334493  0.78582932  1
  O  O24  1  0.21488497  0.27130569  0.99232894  1
  O  O25  1  0.78511503  0.27130569  0.00767106  1
  O  O26  1  0.21488497  0.72869431  0.00767106  1
  O  O27  1  0.78511503  0.72869431  0.99232894  1
  O  O28  1  0.50769913  0.28183196  0.21972676  1
  O  O29  1  0.49230087  0.71816804  0.21972676  1
  O  O30  1  0.49230087  0.28183196  0.78027324  1
  O  O31  1  0.50769913  0.71816804  0.78027324  1
  O  O32  1  0.22663865  0.50665507  0.28582932  1
  O  O33  1  0.22663865  0.49334493  0.71417068  1
  O  O34  1  0.77336135  0.49334493  0.28582932  1
  O  O35  1  0.77336135  0.50665507  0.71417068  1
  O  O36  1  0.28511503  0.22869431  0.50767106  1
  O  O37  1  0.71488497  0.22869431  0.49232894  1
  O  O38  1  0.28511503  0.77130569  0.49232894  1
  O  O39  1  0.71488497  0.77130569  0.50767106  1
