# generated using pymatgen
data_BaCaLaSbO6
_symmetry_space_group_name_H-M   'P 1'
_cell_length_a   8.53864982
_cell_length_b   8.57971089
_cell_length_c   8.58325667
_cell_angle_alpha   90.00000000
_cell_angle_beta   90.00000000
_cell_angle_gamma   90.00000000
_symmetry_Int_Tables_number   1
_chemical_formula_structural   BaCaLaSbO6
_chemical_formula_sum   'Ba4 Ca4 La4 Sb4 O24'
_cell_volume   628.80206081
_cell_formula_units_Z   4
loop_
 _symmetry_equiv_pos_site_id
 _symmetry_equiv_pos_as_xyz
  1  'x, y, z'
loop_
 _atom_site_type_symbol
 _atom_site_label
 _atom_site_symmetry_multiplicity
 _atom_site_fract_x
 _atom_site_fract_y
 _atom_site_fract_z
 _atom_site_occupancy
  Ba  Ba0  1  0.00000000  0.00000000  -0.00000000  1
  Ba  Ba1  1  0.50000000  0.50000000  0.50000000  1
  Ba  Ba2  1  0.50000000  0.50000000  -0.00000000  1
  Ba  Ba3  1  -0.00000000  0.00000000  0.50000000  1
  Ca  Ca4  1  -0.00000000  0.50000000  0.50000000  1
  Ca  Ca5  1  0.50000000  0.00000000  0.50000000  1
  Ca  Ca6  1  0.50000000  0.00000000  -0.00000000  1
  Ca  Ca7  1  0.00000000  0.50000000  -0.00000000  1
  La  La8  1  0.75000000  0.75000000  0.75000000  1
  La  La9  1  0.25000000  0.25000000  0.75000000  1
  La  La10  1  0.25000000  0.75000000  0.25000000  1
  La  La11  1  0.75000000  0.25000000  0.25000000  1
  Sb  Sb12  1  0.25000000  0.25000000  0.25000000  1
  Sb  Sb13  1  0.75000000  0.75000000  0.25000000  1
  Sb  Sb14  1  0.75000000  0.25000000  0.75000000  1
  Sb  Sb15  1  0.25000000  0.75000000  0.75000000  1
  O  O16  1  0.01949656  0.21319043  0.27842337  1
  O  O17  1  0.98050344  0.78680957  0.27842337  1
  O  O18  1  0.98050344  0.21319043  0.72157663  1
  O  O19  1  0.01949656  0.78680957  0.72157663  1
  O  O20  1  0.28857723  0.02206150  0.19222486  1
  O  O21  1  0.28857723  0.97793850  0.80777514  1
  O  O22  1  0.71142277  0.97793850  0.19222486  1
  O  O23  1  0.71142277  0.02206150  0.80777514  1
  O  O24  1  0.20569520  0.30244002  0.02192471  1
  O  O25  1  0.79430480  0.30244002  0.97807529  1
  O  O26  1  0.20569520  0.69755998  0.97807529  1
  O  O27  1  0.79430480  0.69755998  0.02192471  1
  O  O28  1  0.48050344  0.28680957  0.22157663  1
  O  O29  1  0.51949656  0.71319043  0.22157663  1
  O  O30  1  0.51949656  0.28680957  0.77842337  1
  O  O31  1  0.48050344  0.71319043  0.77842337  1
  O  O32  1  0.21142277  0.47793850  0.30777514  1
  O  O33  1  0.21142277  0.52206150  0.69222486  1
  O  O34  1  0.78857723  0.52206150  0.30777514  1
  O  O35  1  0.78857723  0.47793850  0.69222486  1
  O  O36  1  0.29430480  0.19755998  0.47807529  1
  O  O37  1  0.70569520  0.19755998  0.52192471  1
  O  O38  1  0.29430480  0.80244002  0.52192471  1
  O  O39  1  0.70569520  0.80244002  0.47807529  1
