# generated using pymatgen
data_BaSrPrSnO6
_symmetry_space_group_name_H-M   'P 1'
_cell_length_a   8.72808196
_cell_length_b   8.72784733
_cell_length_c   8.69772480
_cell_angle_alpha   90.00000000
_cell_angle_beta   90.00000000
_cell_angle_gamma   90.00000000
_symmetry_Int_Tables_number   1
_chemical_formula_structural   BaSrPrSnO6
_chemical_formula_sum   'Ba4 Sr4 Pr4 Sn4 O24'
_cell_volume   662.56977268
_cell_formula_units_Z   4
loop_
 _symmetry_equiv_pos_site_id
 _symmetry_equiv_pos_as_xyz
  1  'x, y, z'
loop_
 _atom_site_type_symbol
 _atom_site_label
 _atom_site_symmetry_multiplicity
 _atom_site_fract_x
 _atom_site_fract_y
 _atom_site_fract_z
 _atom_site_occupancy
  Ba  Ba0  1  -0.00000000  -0.00000000  0.00000000  1
  Ba  Ba1  1  0.50000000  0.50000000  0.50000000  1
  Ba  Ba2  1  0.50000000  0.00000000  0.00000000  1
  Ba  Ba3  1  -0.00000000  -0.00000000  0.50000000  1
  Sr  Sr4  1  -0.00000000  0.50000000  0.50000000  1
  Sr  Sr5  1  0.50000000  0.00000000  0.50000000  1
  Sr  Sr6  1  0.50000000  0.50000000  0.00000000  1
  Sr  Sr7  1  -0.00000000  0.50000000  0.00000000  1
  Pr  Pr8  1  0.74845753  0.74678553  0.74981480  1
  Pr  Pr9  1  0.25154247  0.25321447  0.74981480  1
  Pr  Pr10  1  0.25154247  0.74678553  0.25018520  1
  Pr  Pr11  1  0.74845753  0.25321447  0.25018520  1
  Sn  Sn12  1  0.25157231  0.25389262  0.25030222  1
  Sn  Sn13  1  0.74842769  0.74610738  0.25030222  1
  Sn  Sn14  1  0.74842769  0.25389262  0.74969778  1
  Sn  Sn15  1  0.25157231  0.74610738  0.74969778  1
  O  O16  1  0.01543599  0.21807170  0.28000759  1
  O  O17  1  0.98456401  0.78192830  0.28000759  1
  O  O18  1  0.98456401  0.21807170  0.71999241  1
  O  O19  1  0.01543599  0.78192830  0.71999241  1
  O  O20  1  0.27841832  0.01596925  0.21874280  1
  O  O21  1  0.27841832  0.98403075  0.78125720  1
  O  O22  1  0.72158168  0.98403075  0.21874280  1
  O  O23  1  0.72158168  0.01596925  0.78125720  1
  O  O24  1  0.20897422  0.28834276  0.01511822  1
  O  O25  1  0.79102578  0.28834276  0.98488178  1
  O  O26  1  0.20897422  0.71165724  0.98488178  1
  O  O27  1  0.79102578  0.71165724  0.01511822  1
  O  O28  1  0.48430888  0.29442089  0.21048725  1
  O  O29  1  0.51569112  0.70557911  0.21048725  1
  O  O30  1  0.51569112  0.29442089  0.78951275  1
  O  O31  1  0.48430888  0.70557911  0.78951275  1
  O  O32  1  0.20970081  0.48518142  0.29468602  1
  O  O33  1  0.20970081  0.51481858  0.70531398  1
  O  O34  1  0.79029919  0.51481858  0.29468602  1
  O  O35  1  0.79029919  0.48518142  0.70531398  1
  O  O36  1  0.29398807  0.21334178  0.48466468  1
  O  O37  1  0.70601193  0.21334178  0.51533532  1
  O  O38  1  0.29398807  0.78665822  0.51533532  1
  O  O39  1  0.70601193  0.78665822  0.48466468  1
