# generated using pymatgen
data_CaEuAlBiO6
_symmetry_space_group_name_H-M   'P 1'
_cell_length_a   8.79178139
_cell_length_b   8.74924997
_cell_length_c   8.54877258
_cell_angle_alpha   90.00000000
_cell_angle_beta   90.00000000
_cell_angle_gamma   90.00000000
_symmetry_Int_Tables_number   1
_chemical_formula_structural   CaEuAlBiO6
_chemical_formula_sum   'Ca4 Eu4 Al4 Bi4 O24'
_cell_volume   657.58435071
_cell_formula_units_Z   4
loop_
 _symmetry_equiv_pos_site_id
 _symmetry_equiv_pos_as_xyz
  1  'x, y, z'
loop_
 _atom_site_type_symbol
 _atom_site_label
 _atom_site_symmetry_multiplicity
 _atom_site_fract_x
 _atom_site_fract_y
 _atom_site_fract_z
 _atom_site_occupancy
  Ca  Ca0  1  -0.00000000  0.00000000  0.00000000  1
  Ca  Ca1  1  0.50000000  0.50000000  0.50000000  1
  Ca  Ca2  1  0.50000000  0.00000000  0.50000000  1
  Ca  Ca3  1  -0.00000000  0.00000000  0.50000000  1
  Eu  Eu4  1  -0.00000000  0.50000000  0.50000000  1
  Eu  Eu5  1  0.50000000  0.50000000  -0.00000000  1
  Eu  Eu6  1  0.50000000  0.00000000  -0.00000000  1
  Eu  Eu7  1  -0.00000000  0.50000000  -0.00000000  1
  Al  Al8  1  0.74931559  0.75415952  0.74541883  1
  Al  Al9  1  0.25068441  0.24584048  0.74541883  1
  Al  Al10  1  0.25068441  0.75415952  0.25458117  1
  Al  Al11  1  0.74931559  0.24584048  0.25458117  1
  Bi  Bi12  1  0.24978210  0.24021607  0.26105853  1
  Bi  Bi13  1  0.75021790  0.75978393  0.26105853  1
  Bi  Bi14  1  0.75021790  0.24021607  0.73894147  1
  Bi  Bi15  1  0.24978210  0.75978393  0.73894147  1
  O  O16  1  0.98308631  0.22184990  0.27586850  1
  O  O17  1  0.01691369  0.77815010  0.27586850  1
  O  O18  1  0.01691369  0.22184990  0.72413150  1
  O  O19  1  0.98308631  0.77815010  0.72413150  1
  O  O20  1  0.27781497  0.98482868  0.21795773  1
  O  O21  1  0.27781497  0.01517132  0.78204227  1
  O  O22  1  0.72218503  0.01517132  0.21795773  1
  O  O23  1  0.72218503  0.98482868  0.78204227  1
  O  O24  1  0.22386627  0.27526439  0.98218426  1
  O  O25  1  0.77613373  0.27526439  0.01781574  1
  O  O26  1  0.22386627  0.72473561  0.01781574  1
  O  O27  1  0.77613373  0.72473561  0.98218426  1
  O  O28  1  0.51878887  0.27785278  0.22156906  1
  O  O29  1  0.48121113  0.72214722  0.22156906  1
  O  O30  1  0.48121113  0.27785278  0.77843094  1
  O  O31  1  0.51878887  0.72214722  0.77843094  1
  O  O32  1  0.22518593  0.51854577  0.27594932  1
  O  O33  1  0.22518593  0.48145423  0.72405068  1
  O  O34  1  0.77481407  0.48145423  0.27594932  1
  O  O35  1  0.77481407  0.51854577  0.72405068  1
  O  O36  1  0.27924949  0.22446511  0.51319579  1
  O  O37  1  0.72075051  0.22446511  0.48680421  1
  O  O38  1  0.27924949  0.77553489  0.48680421  1
  O  O39  1  0.72075051  0.77553489  0.51319579  1
