# generated using pymatgen
data_BaSrTbTiO6
_symmetry_space_group_name_H-M   'P 1'
_cell_length_a   8.39527104
_cell_length_b   8.42182213
_cell_length_c   8.41185893
_cell_angle_alpha   90.00000000
_cell_angle_beta   90.00000000
_cell_angle_gamma   90.00000000
_symmetry_Int_Tables_number   1
_chemical_formula_structural   BaSrTbTiO6
_chemical_formula_sum   'Ba4 Sr4 Tb4 Ti4 O24'
_cell_volume   594.74769484
_cell_formula_units_Z   4
loop_
 _symmetry_equiv_pos_site_id
 _symmetry_equiv_pos_as_xyz
  1  'x, y, z'
loop_
 _atom_site_type_symbol
 _atom_site_label
 _atom_site_symmetry_multiplicity
 _atom_site_fract_x
 _atom_site_fract_y
 _atom_site_fract_z
 _atom_site_occupancy
  Ba  Ba0  1  -0.00000000  0.00000000  -0.00000000  1
  Ba  Ba1  1  0.50000000  0.50000000  0.50000000  1
  Ba  Ba2  1  0.50000000  0.00000000  0.50000000  1
  Ba  Ba3  1  0.50000000  0.50000000  0.00000000  1
  Sr  Sr4  1  -0.00000000  0.50000000  0.50000000  1
  Sr  Sr5  1  0.50000000  0.00000000  0.00000000  1
  Sr  Sr6  1  -0.00000000  0.50000000  -0.00000000  1
  Sr  Sr7  1  -0.00000000  0.00000000  0.50000000  1
  Tb  Tb8  1  0.75171749  0.75028205  0.75086445  1
  Tb  Tb9  1  0.24828251  0.24971795  0.75086445  1
  Tb  Tb10  1  0.24828251  0.75028205  0.24913555  1
  Tb  Tb11  1  0.75171749  0.24971795  0.24913555  1
  Ti  Ti12  1  0.24631903  0.25010077  0.24754256  1
  Ti  Ti13  1  0.75368097  0.74989923  0.24754256  1
  Ti  Ti14  1  0.75368097  0.25010077  0.75245744  1
  Ti  Ti15  1  0.24631903  0.74989923  0.75245744  1
  O  O16  1  0.01528488  0.22231975  0.27727387  1
  O  O17  1  0.98471512  0.77768025  0.27727387  1
  O  O18  1  0.98471512  0.22231975  0.72272613  1
  O  O19  1  0.01528488  0.77768025  0.72272613  1
  O  O20  1  0.27030571  0.01640345  0.22248518  1
  O  O21  1  0.27030571  0.98359655  0.77751482  1
  O  O22  1  0.72969429  0.98359655  0.22248518  1
  O  O23  1  0.72969429  0.01640345  0.77751482  1
  O  O24  1  0.22116248  0.27573174  0.01647684  1
  O  O25  1  0.77883752  0.27573174  0.98352316  1
  O  O26  1  0.22116248  0.72426826  0.98352316  1
  O  O27  1  0.77883752  0.72426826  0.01647684  1
  O  O28  1  0.48319024  0.26248851  0.23638076  1
  O  O29  1  0.51680976  0.73751149  0.23638076  1
  O  O30  1  0.51680976  0.26248851  0.76361924  1
  O  O31  1  0.48319024  0.73751149  0.76361924  1
  O  O32  1  0.22724391  0.48407184  0.26921104  1
  O  O33  1  0.22724391  0.51592816  0.73078896  1
  O  O34  1  0.77275609  0.51592816  0.26921104  1
  O  O35  1  0.77275609  0.48407184  0.73078896  1
  O  O36  1  0.26064325  0.23337022  0.48385840  1
  O  O37  1  0.73935675  0.23337022  0.51614160  1
  O  O38  1  0.26064325  0.76662978  0.51614160  1
  O  O39  1  0.73935675  0.76662978  0.48385840  1
