# generated using pymatgen
data_KPrDyGeO6
_symmetry_space_group_name_H-M   'P 1'
_cell_length_a   5.78876479
_cell_length_b   5.78876479
_cell_length_c   5.78876479
_cell_angle_alpha   60.00000000
_cell_angle_beta   60.00000000
_cell_angle_gamma   60.00000000
_symmetry_Int_Tables_number   1
_chemical_formula_structural   KPrDyGeO6
_chemical_formula_sum   'K1 Pr1 Dy1 Ge1 O6'
_cell_volume   137.16481236
_cell_formula_units_Z   1
loop_
 _symmetry_equiv_pos_site_id
 _symmetry_equiv_pos_as_xyz
  1  'x, y, z'
loop_
 _atom_site_type_symbol
 _atom_site_label
 _atom_site_symmetry_multiplicity
 _atom_site_fract_x
 _atom_site_fract_y
 _atom_site_fract_z
 _atom_site_occupancy
  K  K0  1  0.25000000  0.25000000  0.25000000  1
  Pr  Pr1  1  0.75000000  0.75000000  0.75000000  1
  Dy  Dy2  1  -0.00000000  -0.00000000  -0.00000000  1
  Ge  Ge3  1  0.50000000  0.50000000  0.50000000  1
  O  O4  1  0.73151883  0.26848117  0.26848117  1
  O  O5  1  0.26848117  0.73151883  0.73151883  1
  O  O6  1  0.73151883  0.26848117  0.73151883  1
  O  O7  1  0.26848117  0.73151883  0.26848117  1
  O  O8  1  0.73151883  0.73151883  0.26848117  1
  O  O9  1  0.26848117  0.26848117  0.73151883  1
