# generated using pymatgen
data_PtN4Cl2O
_symmetry_space_group_name_H-M   'P 1'
_cell_length_a   5.75220400
_cell_length_b   5.75220400
_cell_length_c   3.01778800
_cell_angle_alpha   90.00000000
_cell_angle_beta   90.00000000
_cell_angle_gamma   90.00000000
_symmetry_Int_Tables_number   1
_chemical_formula_structural   PtN4Cl2O
_chemical_formula_sum   'Pt1 N4 Cl2 O1'
_cell_volume   99.85211926
_cell_formula_units_Z   1
loop_
 _symmetry_equiv_pos_site_id
 _symmetry_equiv_pos_as_xyz
  1  'x, y, z'
loop_
 _atom_site_type_symbol
 _atom_site_label
 _atom_site_symmetry_multiplicity
 _atom_site_fract_x
 _atom_site_fract_y
 _atom_site_fract_z
 _atom_site_occupancy
  Pt  Pt0  1  0.00000000  0.00000000  0.00000000  1
  N  N1  1  0.24053500  0.24053500  0.00000000  1
  N  N2  1  0.75946500  0.75946500  0.00000000  1
  N  N3  1  0.24053500  0.75946500  0.00000000  1
  N  N4  1  0.75946500  0.24053500  0.00000000  1
  Cl  Cl5  1  0.50000000  0.00000000  0.50000000  1
  Cl  Cl6  1  0.00000000  0.50000000  0.50000000  1
  O  O7  1  0.50000000  0.50000000  0.50000000  1
