# generated using pymatgen
data_Ba2SmCrO6
_symmetry_space_group_name_H-M   'P 1'
_cell_length_a   8.41273529
_cell_length_b   8.41273529
_cell_length_c   8.41273529
_cell_angle_alpha   90.00000000
_cell_angle_beta   90.00000000
_cell_angle_gamma   90.00000000
_symmetry_Int_Tables_number   1
_chemical_formula_structural   Ba2SmCrO6
_chemical_formula_sum   'Ba8 Sm4 Cr4 O24'
_cell_volume   595.40389538
_cell_formula_units_Z   4
loop_
 _symmetry_equiv_pos_site_id
 _symmetry_equiv_pos_as_xyz
  1  'x, y, z'
loop_
 _atom_site_type_symbol
 _atom_site_label
 _atom_site_symmetry_multiplicity
 _atom_site_fract_x
 _atom_site_fract_y
 _atom_site_fract_z
 _atom_site_occupancy
  Ba  Ba0  1  0.50000000  0.50000000  0.50000000  1
  Ba  Ba1  1  -0.00000000  0.00000000  -0.00000000  1
  Ba  Ba2  1  -0.00000000  0.00000000  0.50000000  1
  Ba  Ba3  1  -0.00000000  0.50000000  -0.00000000  1
  Ba  Ba4  1  0.50000000  0.00000000  -0.00000000  1
  Ba  Ba5  1  0.50000000  0.50000000  -0.00000000  1
  Ba  Ba6  1  0.50000000  0.00000000  0.50000000  1
  Ba  Ba7  1  -0.00000000  0.50000000  0.50000000  1
  Sm  Sm8  1  0.25000000  0.25000000  0.25000000  1
  Sm  Sm9  1  0.25000000  0.75000000  0.75000000  1
  Sm  Sm10  1  0.75000000  0.25000000  0.75000000  1
  Sm  Sm11  1  0.75000000  0.75000000  0.25000000  1
  Cr  Cr12  1  0.75000000  0.75000000  0.75000000  1
  Cr  Cr13  1  0.75000000  0.25000000  0.25000000  1
  Cr  Cr14  1  0.25000000  0.75000000  0.25000000  1
  Cr  Cr15  1  0.25000000  0.25000000  0.75000000  1
  O  O16  1  0.23933326  0.26213405  0.52281904  1
  O  O17  1  0.23933326  0.73786595  0.47718096  1
  O  O18  1  0.76066674  0.26213405  0.47718096  1
  O  O19  1  0.76066674  0.73786595  0.52281904  1
  O  O20  1  0.26213405  0.52281904  0.23933326  1
  O  O21  1  0.73786595  0.47718096  0.23933326  1
  O  O22  1  0.26213405  0.47718096  0.76066674  1
  O  O23  1  0.73786595  0.52281904  0.76066674  1
  O  O24  1  0.52281904  0.23933326  0.26213405  1
  O  O25  1  0.47718096  0.23933326  0.73786595  1
  O  O26  1  0.47718096  0.76066674  0.26213405  1
  O  O27  1  0.52281904  0.76066674  0.73786595  1
  O  O28  1  0.26066674  0.23786595  0.97718096  1
  O  O29  1  0.26066674  0.76213405  0.02281904  1
  O  O30  1  0.73933326  0.23786595  0.02281904  1
  O  O31  1  0.73933326  0.76213405  0.97718096  1
  O  O32  1  0.23786595  0.97718096  0.26066674  1
  O  O33  1  0.76213405  0.02281904  0.26066674  1
  O  O34  1  0.23786595  0.02281904  0.73933326  1
  O  O35  1  0.76213405  0.97718096  0.73933326  1
  O  O36  1  0.97718096  0.26066674  0.23786595  1
  O  O37  1  0.02281904  0.26066674  0.76213405  1
  O  O38  1  0.02281904  0.73933326  0.23786595  1
  O  O39  1  0.97718096  0.73933326  0.76213405  1
