# generated using pymatgen
data_KEuNb4O12
_symmetry_space_group_name_H-M   'P 1'
_cell_length_a   5.62551555
_cell_length_b   5.62551555
_cell_length_c   7.99114553
_cell_angle_alpha   90.00000000
_cell_angle_beta   90.00000000
_cell_angle_gamma   90.45973292
_symmetry_Int_Tables_number   1
_chemical_formula_structural   KEuNb4O12
_chemical_formula_sum   'K1 Eu1 Nb4 O12'
_cell_volume   252.88304846
_cell_formula_units_Z   1
loop_
 _symmetry_equiv_pos_site_id
 _symmetry_equiv_pos_as_xyz
  1  'x, y, z'
loop_
 _atom_site_type_symbol
 _atom_site_label
 _atom_site_symmetry_multiplicity
 _atom_site_fract_x
 _atom_site_fract_y
 _atom_site_fract_z
 _atom_site_occupancy
  K  K0  1  0.98596196  0.01403804  0.00000000  1
  Eu  Eu1  1  0.51993276  0.48006724  0.50000000  1
  Nb  Nb2  1  0.48883788  0.00433192  0.24837484  1
  Nb  Nb3  1  0.48883788  0.00433192  0.75162516  1
  Nb  Nb4  1  0.99566808  0.51116212  0.75162516  1
  Nb  Nb5  1  0.99566808  0.51116212  0.24837484  1
  O  O6  1  0.22706582  0.22453783  0.26299160  1
  O  O7  1  0.77546217  0.77293418  0.26299160  1
  O  O8  1  0.77546217  0.77293418  0.73700840  1
  O  O9  1  0.22706582  0.22453783  0.73700840  1
  O  O10  1  0.29030879  0.70969121  0.29308695  1
  O  O11  1  0.71860454  0.28139546  0.23779886  1
  O  O12  1  0.71860454  0.28139546  0.76220114  1
  O  O13  1  0.29030879  0.70969121  0.70691305  1
  O  O14  1  0.47782203  0.96913069  0.00000000  1
  O  O15  1  0.52383389  0.04181450  0.50000000  1
  O  O16  1  0.03086931  0.52217797  0.00000000  1
  O  O17  1  0.95818550  0.47616611  0.50000000  1
