# generated using pymatgen
data_KBaPrWO6
_symmetry_space_group_name_H-M   'P 1'
_cell_length_a   8.62993545
_cell_length_b   8.61455613
_cell_length_c   8.62108393
_cell_angle_alpha   90.00000000
_cell_angle_beta   90.00000000
_cell_angle_gamma   90.00000000
_symmetry_Int_Tables_number   1
_chemical_formula_structural   KBaPrWO6
_chemical_formula_sum   'K4 Ba4 Pr4 W4 O24'
_cell_volume   640.91778860
_cell_formula_units_Z   4
loop_
 _symmetry_equiv_pos_site_id
 _symmetry_equiv_pos_as_xyz
  1  'x, y, z'
loop_
 _atom_site_type_symbol
 _atom_site_label
 _atom_site_symmetry_multiplicity
 _atom_site_fract_x
 _atom_site_fract_y
 _atom_site_fract_z
 _atom_site_occupancy
  K  K0  1  0.50000000  0.00000000  0.50000000  1
  K  K1  1  0.50000000  0.50000000  0.00000000  1
  K  K2  1  0.00000000  0.50000000  -0.00000000  1
  K  K3  1  0.00000000  0.00000000  0.50000000  1
  Ba  Ba4  1  0.00000000  0.50000000  0.50000000  1
  Ba  Ba5  1  0.50000000  0.00000000  -0.00000000  1
  Ba  Ba6  1  0.00000000  0.00000000  0.00000000  1
  Ba  Ba7  1  0.50000000  0.50000000  0.50000000  1
  Pr  Pr8  1  0.75000000  0.75000000  0.75000000  1
  Pr  Pr9  1  0.25000000  0.25000000  0.75000000  1
  Pr  Pr10  1  0.25000000  0.75000000  0.25000000  1
  Pr  Pr11  1  0.75000000  0.25000000  0.25000000  1
  W  W12  1  0.25000000  0.25000000  0.25000000  1
  W  W13  1  0.75000000  0.75000000  0.25000000  1
  W  W14  1  0.75000000  0.25000000  0.75000000  1
  W  W15  1  0.25000000  0.75000000  0.75000000  1
  O  O16  1  0.02454357  0.22965039  0.26912606  1
  O  O17  1  0.97545643  0.77034961  0.26912606  1
  O  O18  1  0.97545643  0.22965039  0.73087394  1
  O  O19  1  0.02454357  0.77034961  0.73087394  1
  O  O20  1  0.26793243  0.02359943  0.22279115  1
  O  O21  1  0.26793243  0.97640057  0.77720885  1
  O  O22  1  0.73206757  0.97640057  0.22279115  1
  O  O23  1  0.73206757  0.02359943  0.77720885  1
  O  O24  1  0.22802322  0.26280741  0.02453009  1
  O  O25  1  0.77197678  0.26280741  0.97546991  1
  O  O26  1  0.22802322  0.73719259  0.97546991  1
  O  O27  1  0.77197678  0.73719259  0.02453009  1
  O  O28  1  0.47545643  0.27034961  0.23087394  1
  O  O29  1  0.52454357  0.72965039  0.23087394  1
  O  O30  1  0.52454357  0.27034961  0.76912606  1
  O  O31  1  0.47545643  0.72965039  0.76912606  1
  O  O32  1  0.23206757  0.47640057  0.27720885  1
  O  O33  1  0.23206757  0.52359943  0.72279115  1
  O  O34  1  0.76793243  0.52359943  0.27720885  1
  O  O35  1  0.76793243  0.47640057  0.72279115  1
  O  O36  1  0.27197678  0.23719259  0.47546991  1
  O  O37  1  0.72802322  0.23719259  0.52453009  1
  O  O38  1  0.27197678  0.76280741  0.52453009  1
  O  O39  1  0.72802322  0.76280741  0.47546991  1
