# generated using pymatgen
data_Yb2CdGe2
_symmetry_space_group_name_H-M   'P 1'
_cell_length_a   7.34160400
_cell_length_b   7.34160400
_cell_length_c   4.38277900
_cell_angle_alpha   90.00000000
_cell_angle_beta   90.00000000
_cell_angle_gamma   90.00000000
_symmetry_Int_Tables_number   1
_chemical_formula_structural   Yb2CdGe2
_chemical_formula_sum   'Yb4 Cd2 Ge4'
_cell_volume   236.22805964
_cell_formula_units_Z   2
loop_
 _symmetry_equiv_pos_site_id
 _symmetry_equiv_pos_as_xyz
  1  'x, y, z'
loop_
 _atom_site_type_symbol
 _atom_site_label
 _atom_site_symmetry_multiplicity
 _atom_site_fract_x
 _atom_site_fract_y
 _atom_site_fract_z
 _atom_site_occupancy
  Yb  Yb0  1  0.67351100  0.17351100  0.50000000  1
  Yb  Yb1  1  0.32648900  0.82648900  0.50000000  1
  Yb  Yb2  1  0.17351100  0.32648900  0.50000000  1
  Yb  Yb3  1  0.82648900  0.67351100  0.50000000  1
  Cd  Cd4  1  0.50000000  0.50000000  0.00000000  1
  Cd  Cd5  1  0.00000000  0.00000000  0.00000000  1
  Ge  Ge6  1  0.12382100  0.62382100  0.00000000  1
  Ge  Ge7  1  0.87617900  0.37617900  0.00000000  1
  Ge  Ge8  1  0.62382100  0.87617900  0.00000000  1
  Ge  Ge9  1  0.37617900  0.12382100  0.00000000  1
