# generated using pymatgen
data_BaSrNdWO6
_symmetry_space_group_name_H-M   'P 1'
_cell_length_a   8.60060743
_cell_length_b   8.59157873
_cell_length_c   8.55504583
_cell_angle_alpha   90.00000000
_cell_angle_beta   90.00000000
_cell_angle_gamma   90.00000000
_symmetry_Int_Tables_number   1
_chemical_formula_structural   BaSrNdWO6
_chemical_formula_sum   'Ba4 Sr4 Nd4 W4 O24'
_cell_volume   632.15625509
_cell_formula_units_Z   4
loop_
 _symmetry_equiv_pos_site_id
 _symmetry_equiv_pos_as_xyz
  1  'x, y, z'
loop_
 _atom_site_type_symbol
 _atom_site_label
 _atom_site_symmetry_multiplicity
 _atom_site_fract_x
 _atom_site_fract_y
 _atom_site_fract_z
 _atom_site_occupancy
  Ba  Ba0  1  -0.00000000  -0.00000000  0.00000000  1
  Ba  Ba1  1  0.50000000  0.50000000  0.50000000  1
  Ba  Ba2  1  0.50000000  -0.00000000  0.00000000  1
  Ba  Ba3  1  -0.00000000  -0.00000000  0.50000000  1
  Sr  Sr4  1  -0.00000000  0.50000000  0.50000000  1
  Sr  Sr5  1  0.50000000  -0.00000000  0.50000000  1
  Sr  Sr6  1  0.50000000  0.50000000  0.00000000  1
  Sr  Sr7  1  -0.00000000  0.50000000  0.00000000  1
  Nd  Nd8  1  0.74939866  0.74748020  0.74945119  1
  Nd  Nd9  1  0.25060134  0.25251980  0.74945119  1
  Nd  Nd10  1  0.25060134  0.74748020  0.25054881  1
  Nd  Nd11  1  0.74939866  0.25251980  0.25054881  1
  W  W12  1  0.24966215  0.25334389  0.25057829  1
  W  W13  1  0.75033785  0.74665611  0.25057829  1
  W  W14  1  0.75033785  0.25334389  0.74942171  1
  W  W15  1  0.24966215  0.74665611  0.74942171  1
  O  O16  1  0.01723560  0.22578327  0.27934029  1
  O  O17  1  0.98276440  0.77421673  0.27934029  1
  O  O18  1  0.98276440  0.22578327  0.72065971  1
  O  O19  1  0.01723560  0.77421673  0.72065971  1
  O  O20  1  0.27662472  0.02043454  0.22398664  1
  O  O21  1  0.27662472  0.97956546  0.77601336  1
  O  O22  1  0.72337528  0.97956546  0.22398664  1
  O  O23  1  0.72337528  0.02043454  0.77601336  1
  O  O24  1  0.21684221  0.28844780  0.02020228  1
  O  O25  1  0.78315779  0.28844780  0.97979772  1
  O  O26  1  0.21684221  0.71155220  0.97979772  1
  O  O27  1  0.78315779  0.71155220  0.02020228  1
  O  O28  1  0.48121950  0.28892586  0.21227149  1
  O  O29  1  0.51878050  0.71107414  0.21227149  1
  O  O30  1  0.51878050  0.28892586  0.78772851  1
  O  O31  1  0.48121950  0.71107414  0.78772851  1
  O  O32  1  0.21410251  0.48153127  0.28928911  1
  O  O33  1  0.21410251  0.51846873  0.71071089  1
  O  O34  1  0.78589749  0.51846873  0.28928911  1
  O  O35  1  0.78589749  0.48153127  0.71071089  1
  O  O36  1  0.28862111  0.21525279  0.47946380  1
  O  O37  1  0.71137889  0.21525279  0.52053620  1
  O  O38  1  0.28862111  0.78474721  0.52053620  1
  O  O39  1  0.71137889  0.78474721  0.47946380  1
