# generated using pymatgen
data_KLiNb4O12
_symmetry_space_group_name_H-M   'P 1'
_cell_length_a   5.66326656
_cell_length_b   5.66326656
_cell_length_c   8.01260662
_cell_angle_alpha   90.00000000
_cell_angle_beta   90.00000000
_cell_angle_gamma   90.00000000
_symmetry_Int_Tables_number   1
_chemical_formula_structural   KLiNb4O12
_chemical_formula_sum   'K1 Li1 Nb4 O12'
_cell_volume   256.98503197
_cell_formula_units_Z   1
loop_
 _symmetry_equiv_pos_site_id
 _symmetry_equiv_pos_as_xyz
  1  'x, y, z'
loop_
 _atom_site_type_symbol
 _atom_site_label
 _atom_site_symmetry_multiplicity
 _atom_site_fract_x
 _atom_site_fract_y
 _atom_site_fract_z
 _atom_site_occupancy
  K  K0  1  -0.00000000  -0.00000000  0.00000000  1
  Li  Li1  1  0.50000000  0.50000000  0.50000000  1
  Nb  Nb2  1  -0.00000000  0.50000000  0.74777857  1
  Nb  Nb3  1  -0.00000000  0.50000000  0.25222143  1
  Nb  Nb4  1  0.50000000  -0.00000000  0.25222143  1
  Nb  Nb5  1  0.50000000  -0.00000000  0.74777857  1
  O  O6  1  0.25309132  0.25309132  0.25414105  1
  O  O7  1  0.25309132  0.25309132  0.74585895  1
  O  O8  1  0.74690868  0.74690868  0.74585895  1
  O  O9  1  0.74690868  0.74690868  0.25414105  1
  O  O10  1  0.74690868  0.25309132  0.74585895  1
  O  O11  1  0.74690868  0.25309132  0.25414105  1
  O  O12  1  0.25309132  0.74690868  0.74585895  1
  O  O13  1  0.25309132  0.74690868  0.25414105  1
  O  O14  1  -0.00000000  0.50000000  0.50000000  1
  O  O15  1  -0.00000000  0.50000000  0.00000000  1
  O  O16  1  0.50000000  -0.00000000  0.50000000  1
  O  O17  1  0.50000000  -0.00000000  0.00000000  1
