# generated using pymatgen
data_BaSrGdSbO6
_symmetry_space_group_name_H-M   'P 1'
_cell_length_a   5.98080351
_cell_length_b   6.01958181
_cell_length_c   8.48525033
_cell_angle_alpha   90.30188642
_cell_angle_beta   90.19770608
_cell_angle_gamma   90.22459593
_symmetry_Int_Tables_number   1
_chemical_formula_structural   BaSrGdSbO6
_chemical_formula_sum   'Ba2 Sr2 Gd2 Sb2 O12'
_cell_volume   305.47701176
_cell_formula_units_Z   2
loop_
 _symmetry_equiv_pos_site_id
 _symmetry_equiv_pos_as_xyz
  1  'x, y, z'
loop_
 _atom_site_type_symbol
 _atom_site_label
 _atom_site_symmetry_multiplicity
 _atom_site_fract_x
 _atom_site_fract_y
 _atom_site_fract_z
 _atom_site_occupancy
  Ba  Ba0  1  0.50524899  0.52171080  0.24957040  1
  Ba  Ba1  1  0.49475101  0.47828920  0.75042960  1
  Sr  Sr2  1  0.99500565  0.03055256  0.25140862  1
  Sr  Sr3  1  0.00499435  0.96944744  0.74859138  1
  Gd  Gd4  1  0.00000000  0.50000000  0.00000000  1
  Gd  Gd5  1  0.50000000  0.00000000  0.50000000  1
  Sb  Sb6  1  0.50000000  0.00000000  0.00000000  1
  Sb  Sb7  1  0.00000000  0.50000000  0.50000000  1
  O  O8  1  0.23427000  0.20261909  0.96339912  1
  O  O9  1  0.26124426  0.70845450  0.52913480  1
  O  O10  1  0.76573000  0.79738091  0.03660088  1
  O  O11  1  0.73875574  0.29154550  0.47086520  1
  O  O12  1  0.29381068  0.73805360  0.96751768  1
  O  O13  1  0.19926035  0.23133526  0.53436512  1
  O  O14  1  0.70618932  0.26194640  0.03248232  1
  O  O15  1  0.80073965  0.76866474  0.46563488  1
  O  O16  1  0.42877021  0.99562680  0.23379422  1
  O  O17  1  0.05461807  0.47775372  0.26563405  1
  O  O18  1  0.57122979  0.00437320  0.76620578  1
  O  O19  1  0.94538193  0.52224628  0.73436595  1
