# generated using pymatgen
data_BaCaGdBiO6
_symmetry_space_group_name_H-M   'P 1'
_cell_length_a   8.57562636
_cell_length_b   8.60809954
_cell_length_c   8.58865367
_cell_angle_alpha   90.00000000
_cell_angle_beta   90.00000000
_cell_angle_gamma   90.00000000
_symmetry_Int_Tables_number   1
_chemical_formula_structural   BaCaGdBiO6
_chemical_formula_sum   'Ba4 Ca4 Gd4 Bi4 O24'
_cell_volume   634.01308547
_cell_formula_units_Z   4
loop_
 _symmetry_equiv_pos_site_id
 _symmetry_equiv_pos_as_xyz
  1  'x, y, z'
loop_
 _atom_site_type_symbol
 _atom_site_label
 _atom_site_symmetry_multiplicity
 _atom_site_fract_x
 _atom_site_fract_y
 _atom_site_fract_z
 _atom_site_occupancy
  Ba  Ba0  1  -0.00000000  -0.00000000  0.00000000  1
  Ba  Ba1  1  0.50000000  0.50000000  0.50000000  1
  Ba  Ba2  1  -0.00000000  0.50000000  -0.00000000  1
  Ba  Ba3  1  -0.00000000  -0.00000000  0.50000000  1
  Ca  Ca4  1  -0.00000000  0.50000000  0.50000000  1
  Ca  Ca5  1  0.50000000  -0.00000000  0.50000000  1
  Ca  Ca6  1  0.50000000  0.50000000  0.00000000  1
  Ca  Ca7  1  0.50000000  -0.00000000  0.00000000  1
  Gd  Gd8  1  0.25551555  0.25119027  0.25191885  1
  Gd  Gd9  1  0.74448445  0.74880973  0.25191885  1
  Gd  Gd10  1  0.74448445  0.25119027  0.74808115  1
  Gd  Gd11  1  0.25551555  0.74880973  0.74808115  1
  Bi  Bi12  1  0.74306490  0.74836040  0.75005328  1
  Bi  Bi13  1  0.25693510  0.25163960  0.75005328  1
  Bi  Bi14  1  0.25693510  0.74836040  0.24994672  1
  Bi  Bi15  1  0.74306490  0.25163960  0.24994672  1
  O  O16  1  0.99054349  0.21345892  0.27512423  1
  O  O17  1  0.00945651  0.78654108  0.27512423  1
  O  O18  1  0.00945651  0.21345892  0.72487577  1
  O  O19  1  0.99054349  0.78654108  0.72487577  1
  O  O20  1  0.30357612  0.99155265  0.20393403  1
  O  O21  1  0.30357612  0.00844735  0.79606597  1
  O  O22  1  0.69642388  0.00844735  0.20393403  1
  O  O23  1  0.69642388  0.99155265  0.79606597  1
  O  O24  1  0.22289594  0.28509293  0.99372896  1
  O  O25  1  0.77710406  0.28509293  0.00627104  1
  O  O26  1  0.22289594  0.71490707  0.00627104  1
  O  O27  1  0.77710406  0.71490707  0.99372896  1
  O  O28  1  0.50662466  0.31446418  0.20868705  1
  O  O29  1  0.49337534  0.68553582  0.20868705  1
  O  O30  1  0.49337534  0.31446418  0.79131295  1
  O  O31  1  0.50662466  0.68553582  0.79131295  1
  O  O32  1  0.20696440  0.50877190  0.30929065  1
  O  O33  1  0.20696440  0.49122810  0.69070935  1
  O  O34  1  0.79303560  0.49122810  0.30929065  1
  O  O35  1  0.79303560  0.50877190  0.69070935  1
  O  O36  1  0.30416251  0.19946448  0.50948909  1
  O  O37  1  0.69583749  0.19946448  0.49051091  1
  O  O38  1  0.30416251  0.80053552  0.49051091  1
  O  O39  1  0.69583749  0.80053552  0.50948909  1
