# generated using pymatgen
data_BaCa(SnO3)4
_symmetry_space_group_name_H-M   'P 1'
_cell_length_a   5.80842052
_cell_length_b   5.80842052
_cell_length_c   8.17261522
_cell_angle_alpha   90.00000000
_cell_angle_beta   90.00000000
_cell_angle_gamma   89.94865430
_symmetry_Int_Tables_number   1
_chemical_formula_structural   BaCa(SnO3)4
_chemical_formula_sum   'Ba1 Ca1 Sn4 O12'
_cell_volume   275.72552969
_cell_formula_units_Z   1
loop_
 _symmetry_equiv_pos_site_id
 _symmetry_equiv_pos_as_xyz
  1  'x, y, z'
loop_
 _atom_site_type_symbol
 _atom_site_label
 _atom_site_symmetry_multiplicity
 _atom_site_fract_x
 _atom_site_fract_y
 _atom_site_fract_z
 _atom_site_occupancy
  Ba  Ba0  1  0.51375120  0.51375120  -0.00000000  1
  Ca  Ca1  1  0.97915495  0.97915495  0.50000000  1
  Sn  Sn2  1  0.49191234  0.00520443  0.74596443  1
  Sn  Sn3  1  0.49191234  0.00520443  0.25403557  1
  Sn  Sn4  1  0.00520443  0.49191234  0.25403557  1
  Sn  Sn5  1  0.00520443  0.49191234  0.74596443  1
  O  O6  1  0.72829382  0.27145591  0.74632105  1
  O  O7  1  0.27145591  0.72829382  0.74632105  1
  O  O8  1  0.27145591  0.72829382  0.25367895  1
  O  O9  1  0.72829382  0.27145591  0.25367895  1
  O  O10  1  0.77025489  0.77025489  0.75691975  1
  O  O11  1  0.21011135  0.21011135  0.70001378  1
  O  O12  1  0.21011135  0.21011135  0.29998622  1
  O  O13  1  0.77025489  0.77025489  0.24308025  1
  O  O14  1  0.48205159  0.01958873  -0.00000000  1
  O  O15  1  0.56773781  0.98465023  0.50000000  1
  O  O16  1  0.01958873  0.48205159  -0.00000000  1
  O  O17  1  0.98465023  0.56773781  0.50000000  1
