# generated using pymatgen
data_SrSmEuNbO6
_symmetry_space_group_name_H-M   'P 1'
_cell_length_a   5.86487394
_cell_length_b   6.01353756
_cell_length_c   8.39098997
_cell_angle_alpha   89.73799929
_cell_angle_beta   89.46368974
_cell_angle_gamma   90.02559693
_symmetry_Int_Tables_number   1
_chemical_formula_structural   SrSmEuNbO6
_chemical_formula_sum   'Sr2 Sm2 Eu2 Nb2 O12'
_cell_volume   295.92270811
_cell_formula_units_Z   2
loop_
 _symmetry_equiv_pos_site_id
 _symmetry_equiv_pos_as_xyz
  1  'x, y, z'
loop_
 _atom_site_type_symbol
 _atom_site_label
 _atom_site_symmetry_multiplicity
 _atom_site_fract_x
 _atom_site_fract_y
 _atom_site_fract_z
 _atom_site_occupancy
  Sr  Sr0  1  0.51082503  0.54682401  0.24974714  1
  Sr  Sr1  1  0.48917497  0.45317599  0.75025286  1
  Sm  Sm2  1  0.50000000  0.00000000  -0.00000000  1
  Sm  Sm3  1  0.00000000  0.50000000  0.50000000  1
  Eu  Eu4  1  0.98699130  0.05140105  0.24934546  1
  Eu  Eu5  1  0.01300870  0.94859895  0.75065454  1
  Nb  Nb6  1  0.00000000  0.50000000  -0.00000000  1
  Nb  Nb7  1  0.50000000  0.00000000  0.50000000  1
  O  O8  1  0.18037220  0.21745298  0.94411928  1
  O  O9  1  0.31600454  0.72063538  0.55472164  1
  O  O10  1  0.81962780  0.78254702  0.05588072  1
  O  O11  1  0.68399546  0.27936462  0.44527836  1
  O  O12  1  0.27925489  0.68916139  0.94896806  1
  O  O13  1  0.21958181  0.18634906  0.55416046  1
  O  O14  1  0.72074511  0.31083861  0.05103194  1
  O  O15  1  0.78041819  0.81365094  0.44583954  1
  O  O16  1  0.39616532  0.96860856  0.26873663  1
  O  O17  1  0.09446699  0.46121489  0.23187468  1
  O  O18  1  0.60383468  0.03139144  0.73126337  1
  O  O19  1  0.90553301  0.53878511  0.76812532  1
