# generated using pymatgen
data_CaSmTi4O12
_symmetry_space_group_name_H-M   'P 1'
_cell_length_a   5.44628342
_cell_length_b   5.44628342
_cell_length_c   7.74312288
_cell_angle_alpha   90.00000000
_cell_angle_beta   90.00000000
_cell_angle_gamma   89.99922621
_symmetry_Int_Tables_number   1
_chemical_formula_structural   CaSmTi4O12
_chemical_formula_sum   'Ca1 Sm1 Ti4 O12'
_cell_volume   229.67653437
_cell_formula_units_Z   1
loop_
 _symmetry_equiv_pos_site_id
 _symmetry_equiv_pos_as_xyz
  1  'x, y, z'
loop_
 _atom_site_type_symbol
 _atom_site_label
 _atom_site_symmetry_multiplicity
 _atom_site_fract_x
 _atom_site_fract_y
 _atom_site_fract_z
 _atom_site_occupancy
  Ca  Ca0  1  0.48319593  0.48319593  0.50000000  1
  Sm  Sm1  1  0.02220144  0.02220144  -0.00000000  1
  Ti  Ti2  1  0.50976709  0.99329242  0.74583546  1
  Ti  Ti3  1  0.50976709  0.99329242  0.25416454  1
  Ti  Ti4  1  0.99329242  0.50976709  0.25416454  1
  Ti  Ti5  1  0.99329242  0.50976709  0.74583546  1
  O  O6  1  0.78238033  0.21791265  0.76602333  1
  O  O7  1  0.21791265  0.78238033  0.76602333  1
  O  O8  1  0.21791265  0.78238033  0.23397667  1
  O  O9  1  0.78238033  0.21791265  0.23397667  1
  O  O10  1  0.70912326  0.70912326  0.71056664  1
  O  O11  1  0.26163859  0.26163859  0.78113179  1
  O  O12  1  0.26163859  0.26163859  0.21886821  1
  O  O13  1  0.70912326  0.70912326  0.28943336  1
  O  O14  1  0.54520014  0.97139316  0.00000000  1
  O  O15  1  0.48537535  0.04650531  0.50000000  1
  O  O16  1  0.97139316  0.54520014  0.00000000  1
  O  O17  1  0.04650531  0.48537535  0.50000000  1
