# generated using pymatgen
data_Yb4Si2S3O7
_symmetry_space_group_name_H-M   'P 1'
_cell_length_a   11.04273569
_cell_length_b   11.04273569
_cell_length_c   11.04273569
_cell_angle_alpha   116.28679881
_cell_angle_beta   116.28679881
_cell_angle_gamma   96.56156485
_symmetry_Int_Tables_number   1
_chemical_formula_structural   Yb4Si2S3O7
_chemical_formula_sum   'Yb16 Si8 S12 O28'
_cell_volume   998.51882877
_cell_formula_units_Z   4
loop_
 _symmetry_equiv_pos_site_id
 _symmetry_equiv_pos_as_xyz
  1  'x, y, z'
loop_
 _atom_site_type_symbol
 _atom_site_label
 _atom_site_symmetry_multiplicity
 _atom_site_fract_x
 _atom_site_fract_y
 _atom_site_fract_z
 _atom_site_occupancy
  Yb  Yb0  1  0.56024600  0.81386400  0.25361800  1
  Yb  Yb1  1  0.56024600  0.30662800  0.74638200  1
  Yb  Yb2  1  0.18613600  0.43975400  0.74638200  1
  Yb  Yb3  1  0.05662800  0.81024600  0.24638200  1
  Yb  Yb4  1  0.56386400  0.81024600  0.75361800  1
  Yb  Yb5  1  0.18975400  0.94337200  0.75361800  1
  Yb  Yb6  1  0.18975400  0.43613600  0.24638200  1
  Yb  Yb7  1  0.69337200  0.43975400  0.25361800  1
  Yb  Yb8  1  0.83320200  0.83320200  0.66640300  1
  Yb  Yb9  1  0.58320200  0.41679800  0.50000000  1
  Yb  Yb10  1  0.91679800  0.08320200  0.50000000  1
  Yb  Yb11  1  0.16679800  0.16679800  0.33359700  1
  Yb  Yb12  1  0.91679800  0.41679800  0.83359700  1
  Yb  Yb13  1  0.16679800  0.83320200  0.00000000  1
  Yb  Yb14  1  0.83320200  0.16679800  0.00000000  1
  Yb  Yb15  1  0.58320200  0.08320200  0.16640300  1
  Si  Si16  1  0.78642200  0.91521800  0.12879500  1
  Si  Si17  1  0.78642200  0.65762700  0.87120500  1
  Si  Si18  1  0.08478200  0.21357800  0.87120500  1
  Si  Si19  1  0.40762700  0.03642200  0.37120500  1
  Si  Si20  1  0.66521800  0.03642200  0.62879500  1
  Si  Si21  1  0.96357800  0.59237300  0.62879500  1
  Si  Si22  1  0.96357800  0.33478200  0.37120500  1
  Si  Si23  1  0.34237300  0.21357800  0.12879500  1
  S  S24  1  0.00000000  0.00000000  0.00000000  1
  S  S25  1  0.75000000  0.25000000  0.50000000  1
  S  S26  1  0.25000000  0.75000000  0.50000000  1
  S  S27  1  0.50000000  0.50000000  0.00000000  1
  S  S28  1  0.87500000  0.71151500  0.33651500  1
  S  S29  1  0.46151500  0.62500000  0.33651500  1
  S  S30  1  0.28848500  0.12500000  0.66348500  1
  S  S31  1  0.37500000  0.53848500  0.66348500  1
  S  S32  1  0.87500000  0.53848500  0.16348500  1
  S  S33  1  0.28848500  0.62500000  0.16348500  1
  S  S34  1  0.46151500  0.12500000  0.83651500  1
  S  S35  1  0.37500000  0.71151500  0.83651500  1
  O  O36  1  0.73713700  0.73713700  0.00000000  1
  O  O37  1  0.48713700  0.98713700  0.50000000  1
  O  O38  1  0.01286300  0.51286300  0.50000000  1
  O  O39  1  0.26286300  0.26286300  0.00000000  1
  O  O40  1  0.78667200  0.26807400  0.23533800  1
  O  O41  1  0.03273500  0.55133300  0.76466200  1
  O  O42  1  0.73192600  0.21332800  0.76466200  1
  O  O43  1  0.30133300  0.03667200  0.01859800  1
  O  O44  1  0.01807400  0.28273500  0.98140200  1
  O  O45  1  0.96332800  0.69866700  0.98140200  1
  O  O46  1  0.71726500  0.98192600  0.01859800  1
  O  O47  1  0.44866700  0.96726500  0.23533800  1
  O  O48  1  0.96332800  0.98192600  0.26466200  1
  O  O49  1  0.71726500  0.69866700  0.73533800  1
  O  O50  1  0.01807400  0.03667200  0.73533800  1
  O  O51  1  0.44866700  0.21332800  0.48140200  1
  O  O52  1  0.73192600  0.96726500  0.51859800  1
  O  O53  1  0.78667200  0.55133300  0.51859800  1
  O  O54  1  0.03273500  0.26807400  0.48140200  1
  O  O55  1  0.30133300  0.28273500  0.26466200  1
  O  O56  1  0.70799000  0.93667600  0.22868600  1
  O  O57  1  0.70799000  0.47930400  0.77131400  1
  O  O58  1  0.06332400  0.29201000  0.77131400  1
  O  O59  1  0.22930400  0.95799000  0.27131400  1
  O  O60  1  0.68667600  0.95799000  0.72868600  1
  O  O61  1  0.04201000  0.77069600  0.72868600  1
  O  O62  1  0.04201000  0.31332400  0.27131400  1
  O  O63  1  0.52069600  0.29201000  0.22868600  1
