# generated using pymatgen
data_Mn2As2O7
_symmetry_space_group_name_H-M   'P 1'
_cell_length_a   4.89239877
_cell_length_b   5.63271814
_cell_length_c   5.63228239
_cell_angle_alpha   105.12056497
_cell_angle_beta   97.83886603
_cell_angle_gamma   97.82678001
_symmetry_Int_Tables_number   1
_chemical_formula_structural   Mn2As2O7
_chemical_formula_sum   'Mn2 As2 O7'
_cell_volume   146.02445530
_cell_formula_units_Z   1
loop_
 _symmetry_equiv_pos_site_id
 _symmetry_equiv_pos_as_xyz
  1  'x, y, z'
loop_
 _atom_site_type_symbol
 _atom_site_label
 _atom_site_symmetry_multiplicity
 _atom_site_fract_x
 _atom_site_fract_y
 _atom_site_fract_z
 _atom_site_occupancy
  Mn  Mn0  1  0.50350200  0.69727600  0.30568900  1
  Mn  Mn1  1  0.50393900  0.31402300  0.68834600  1
  As  As2  1  0.90779300  0.22715800  0.23198700  1
  As  As3  1  0.10052400  0.77024400  0.77522900  1
  O  O4  1  0.71235600  0.08398300  0.40307500  1
  O  O5  1  0.71993900  0.38116100  0.06448800  1
  O  O6  1  0.28812400  0.93770500  0.62098800  1
  O  O7  1  0.29557700  0.59888400  0.91851200  1
  O  O8  1  0.22533400  0.40197400  0.39138900  1
  O  O9  1  0.78168300  0.61258600  0.60197600  1
  O  O10  1  0.00682900  0.95920600  0.04512200  1
