# generated using pymatgen
data_Mg(MoO2)2
_symmetry_space_group_name_H-M   'P 1'
_cell_length_a   6.19165115
_cell_length_b   6.43639150
_cell_length_c   6.18917369
_cell_angle_alpha   90.32601178
_cell_angle_beta   117.17587643
_cell_angle_gamma   121.09290250
_symmetry_Int_Tables_number   1
_chemical_formula_structural   Mg(MoO2)2
_chemical_formula_sum   'Mg2 Mo4 O8'
_cell_volume   178.20207138
_cell_formula_units_Z   2
loop_
 _symmetry_equiv_pos_site_id
 _symmetry_equiv_pos_as_xyz
  1  'x, y, z'
loop_
 _atom_site_type_symbol
 _atom_site_label
 _atom_site_symmetry_multiplicity
 _atom_site_fract_x
 _atom_site_fract_y
 _atom_site_fract_z
 _atom_site_occupancy
  Mg  Mg0  1  0.24382300  0.12190000  0.87815100  1
  Mg  Mg1  1  0.75619200  0.87811800  0.12185600  1
  Mo  Mo2  1  0.49999200  0.99999300  0.50000100  1
  Mo  Mo3  1  0.50000400  0.50000000  0.50000100  1
  Mo  Mo4  1  0.00000100  0.50000100  0.99999500  1
  Mo  Mo5  1  0.99999800  0.50000100  0.50000200  1
  O  O6  1  0.01229500  0.74688000  0.25622400  1
  O  O7  1  0.49020800  0.74650500  0.73453200  1
  O  O8  1  0.48467900  0.74106900  0.25604200  1
  O  O9  1  0.98741700  0.73456700  0.74683300  1
  O  O10  1  0.51532500  0.25893200  0.74395500  1
  O  O11  1  0.50978800  0.25348100  0.26547300  1
  O  O12  1  0.01259100  0.26544800  0.25316900  1
  O  O13  1  0.98768900  0.25310600  0.74376600  1
