# generated using pymatgen
data_Cs2NaTiF6
_symmetry_space_group_name_H-M   'P 1'
_cell_length_a   11.09355233
_cell_length_b   11.09355233
_cell_length_c   11.09355250
_cell_angle_alpha   33.45975831
_cell_angle_beta   33.45975831
_cell_angle_gamma   33.45976157
_symmetry_Int_Tables_number   1
_chemical_formula_structural   Cs2NaTiF6
_chemical_formula_sum   'Cs4 Na2 Ti2 F12'
_cell_volume   369.60845261
_cell_formula_units_Z   2
loop_
 _symmetry_equiv_pos_site_id
 _symmetry_equiv_pos_as_xyz
  1  'x, y, z'
loop_
 _atom_site_type_symbol
 _atom_site_label
 _atom_site_symmetry_multiplicity
 _atom_site_fract_x
 _atom_site_fract_y
 _atom_site_fract_z
 _atom_site_occupancy
  Cs  Cs0  1  0.71844200  0.71844200  0.71844200  1
  Cs  Cs1  1  0.28155800  0.28155800  0.28155800  1
  Cs  Cs2  1  0.87201300  0.87201300  0.87201300  1
  Cs  Cs3  1  0.12798700  0.12798700  0.12798700  1
  Na  Na4  1  0.40278000  0.40278000  0.40278000  1
  Na  Na5  1  0.59722000  0.59722000  0.59722000  1
  Ti  Ti6  1  0.00000000  0.00000000  0.00000000  1
  Ti  Ti7  1  0.50000000  0.50000000  0.50000000  1
  F  F8  1  0.18552600  0.18552600  0.73935900  1
  F  F9  1  0.73935900  0.18552600  0.18552600  1
  F  F10  1  0.18552600  0.73935900  0.18552600  1
  F  F11  1  0.81447400  0.26064100  0.81447400  1
  F  F12  1  0.81447400  0.81447400  0.26064100  1
  F  F13  1  0.26064100  0.81447400  0.81447400  1
  F  F14  1  0.39551800  0.39551800  0.82522100  1
  F  F15  1  0.82522100  0.39551800  0.39551800  1
  F  F16  1  0.17477900  0.60448200  0.60448200  1
  F  F17  1  0.60448200  0.60448200  0.17477900  1
  F  F18  1  0.60448200  0.17477900  0.60448200  1
  F  F19  1  0.39551800  0.82522100  0.39551800  1
