# generated using pymatgen
data_Ca2TaCrO6
_symmetry_space_group_name_H-M   'P 1'
_cell_length_a   5.45204193
_cell_length_b   11.21618844
_cell_length_c   7.82315900
_cell_angle_alpha   90.00001926
_cell_angle_beta   90.00008569
_cell_angle_gamma   89.79922064
_symmetry_Int_Tables_number   1
_chemical_formula_structural   Ca2TaCrO6
_chemical_formula_sum   'Ca8 Ta4 Cr4 O24'
_cell_volume   478.39207333
_cell_formula_units_Z   4
loop_
 _symmetry_equiv_pos_site_id
 _symmetry_equiv_pos_as_xyz
  1  'x, y, z'
loop_
 _atom_site_type_symbol
 _atom_site_label
 _atom_site_symmetry_multiplicity
 _atom_site_fract_x
 _atom_site_fract_y
 _atom_site_fract_z
 _atom_site_occupancy
  Ca  Ca0  1  0.00874000  0.48061600  0.25000100  1
  Ca  Ca1  1  0.00876300  0.98059600  0.24999800  1
  Ca  Ca2  1  0.99125100  0.01938500  0.74999500  1
  Ca  Ca3  1  0.99122100  0.51940500  0.75000200  1
  Ca  Ca4  1  0.48915000  0.21814900  0.24998900  1
  Ca  Ca5  1  0.48914900  0.71815900  0.24999400  1
  Ca  Ca6  1  0.51090300  0.28186200  0.74999300  1
  Ca  Ca7  1  0.51090100  0.78185100  0.74999000  1
  Ta  Ta8  1  0.99992300  0.24999100  0.99997700  1
  Ta  Ta9  1  0.99992500  0.74999300  0.99997300  1
  Ta  Ta10  1  0.99999900  0.25002300  0.50000400  1
  Ta  Ta11  1  0.99999700  0.75002300  0.50000000  1
  Cr  Cr12  1  0.49978000  0.49991500  0.00005700  1
  Cr  Cr13  1  0.50007900  0.99997000  0.50000600  1
  Cr  Cr14  1  0.50004600  0.99997600  0.99995000  1
  Cr  Cr15  1  0.50001400  0.50004700  0.50009100  1
  O  O16  1  0.08773600  0.23692600  0.74999200  1
  O  O17  1  0.08773600  0.73692600  0.74999700  1
  O  O18  1  0.91230000  0.26307700  0.24999800  1
  O  O19  1  0.91230100  0.76307700  0.24999200  1
  O  O20  1  0.59154300  0.01450400  0.25000300  1
  O  O21  1  0.59152700  0.51448200  0.25000900  1
  O  O22  1  0.40844400  0.48549900  0.75000700  1
  O  O23  1  0.40847100  0.98552400  0.75000700  1
  O  O24  1  0.79877700  0.39421500  0.54638300  1
  O  O25  1  0.79875600  0.89423300  0.54638700  1
  O  O26  1  0.20123400  0.10579700  0.45359700  1
  O  O27  1  0.20125900  0.60577800  0.45359400  1
  O  O28  1  0.79874000  0.39420900  0.95361700  1
  O  O29  1  0.79877300  0.89422800  0.95360300  1
  O  O30  1  0.20125900  0.10579000  0.04639500  1
  O  O31  1  0.20123000  0.60577300  0.04640800  1
  O  O32  1  0.29114400  0.35099100  0.45582200  1
  O  O33  1  0.29114800  0.85101300  0.45583200  1
  O  O34  1  0.70888500  0.14900800  0.95583300  1
  O  O35  1  0.70885500  0.64898700  0.95585100  1
  O  O36  1  0.70888200  0.14902200  0.54416000  1
  O  O37  1  0.70887500  0.64899800  0.54415200  1
  O  O38  1  0.29112900  0.35098200  0.04418100  1
  O  O39  1  0.29115600  0.85100300  0.04416300  1
