# generated using pymatgen
data_YbCeS3
_symmetry_space_group_name_H-M   'P 1'
_cell_length_a   6.87815750
_cell_length_b   6.87815750
_cell_length_c   9.24131000
_cell_angle_alpha   90.00000000
_cell_angle_beta   90.00000000
_cell_angle_gamma   147.33785080
_symmetry_Int_Tables_number   1
_chemical_formula_structural   YbCeS3
_chemical_formula_sum   'Yb2 Ce2 S6'
_cell_volume   235.94867462
_cell_formula_units_Z   2
loop_
 _symmetry_equiv_pos_site_id
 _symmetry_equiv_pos_as_xyz
  1  'x, y, z'
loop_
 _atom_site_type_symbol
 _atom_site_label
 _atom_site_symmetry_multiplicity
 _atom_site_fract_x
 _atom_site_fract_y
 _atom_site_fract_z
 _atom_site_occupancy
  Yb  Yb0  1  0.00000000  0.00000000  0.50000000  1
  Yb  Yb1  1  0.00000000  0.00000000  0.00000000  1
  Ce  Ce2  1  0.75043500  0.24956500  0.25000000  1
  Ce  Ce3  1  0.24956500  0.75043500  0.75000000  1
  S  S4  1  0.64984100  0.35015900  0.57154200  1
  S  S5  1  0.64984100  0.35015900  0.92845800  1
  S  S6  1  0.35015900  0.64984100  0.07154200  1
  S  S7  1  0.35015900  0.64984100  0.42845800  1
  S  S8  1  0.10622800  0.89377200  0.25000000  1
  S  S9  1  0.89377200  0.10622800  0.75000000  1
