# generated using pymatgen
data_SrV(PO4)2
_symmetry_space_group_name_H-M   'P 1'
_cell_length_a   8.50149092
_cell_length_b   9.60103642
_cell_length_c   9.56814186
_cell_angle_alpha   64.58919914
_cell_angle_beta   98.62601426
_cell_angle_gamma   87.28673716
_symmetry_Int_Tables_number   1
_chemical_formula_structural   SrV(PO4)2
_chemical_formula_sum   'Sr4 V4 P8 O32'
_cell_volume   691.96876105
_cell_formula_units_Z   4
loop_
 _symmetry_equiv_pos_site_id
 _symmetry_equiv_pos_as_xyz
  1  'x, y, z'
loop_
 _atom_site_type_symbol
 _atom_site_label
 _atom_site_symmetry_multiplicity
 _atom_site_fract_x
 _atom_site_fract_y
 _atom_site_fract_z
 _atom_site_occupancy
  Sr  Sr0  1  0.51350800  0.76452400  0.28547300  1
  Sr  Sr1  1  0.01351100  0.26455900  0.78555200  1
  Sr  Sr2  1  0.98648900  0.73544200  0.21444600  1
  Sr  Sr3  1  0.48649300  0.23547500  0.71452800  1
  V  V4  1  0.01467600  0.71921700  0.82425800  1
  V  V5  1  0.98530600  0.28082400  0.17572100  1
  V  V6  1  0.51467600  0.21921100  0.32442900  1
  V  V7  1  0.48532700  0.78078700  0.67557600  1
  P  P8  1  0.70346800  0.10079500  0.11981500  1
  P  P9  1  0.20348200  0.60083000  0.61974300  1
  P  P10  1  0.79652000  0.39917100  0.38025500  1
  P  P11  1  0.29653100  0.89920500  0.88018600  1
  P  P12  1  0.71459000  0.56091400  0.73718100  1
  P  P13  1  0.21461800  0.06077600  0.23726500  1
  P  P14  1  0.78538600  0.93922000  0.76273800  1
  P  P15  1  0.28540600  0.43908400  0.26281800  1
  O  O16  1  0.73675300  0.57079700  0.31882700  1
  O  O17  1  0.23678600  0.07081900  0.81879400  1
  O  O18  1  0.76321500  0.92918100  0.18120800  1
  O  O19  1  0.26324700  0.42920500  0.68117400  1
  O  O20  1  0.55647200  0.16278200  0.99233200  1
  O  O21  1  0.05650000  0.66276500  0.49222700  1
  O  O22  1  0.94350100  0.33723900  0.50777500  1
  O  O23  1  0.44353000  0.83721800  0.00766800  1
  O  O24  1  0.65364700  0.29594800  0.43787100  1
  O  O25  1  0.15363800  0.79598400  0.93780200  1
  O  O26  1  0.84635600  0.20401200  0.06219500  1
  O  O27  1  0.34635400  0.70405200  0.56213000  1
  O  O28  1  0.83751300  0.78368300  0.91730000  1
  O  O29  1  0.33754200  0.28358800  0.41742700  1
  O  O30  1  0.66245800  0.71640900  0.58257600  1
  O  O31  1  0.16248800  0.21631500  0.08270100  1
  O  O32  1  0.41019900  0.40829600  0.16502600  1
  O  O33  1  0.91018300  0.90851200  0.66492100  1
  O  O34  1  0.08982100  0.09147400  0.33508300  1
  O  O35  1  0.58979800  0.59170000  0.83497400  1
  O  O36  1  0.79829900  0.08440400  0.78493900  1
  O  O37  1  0.29832300  0.58434100  0.28488100  1
  O  O38  1  0.70167700  0.41565800  0.71511700  1
  O  O39  1  0.20170600  0.91559300  0.21505700  1
  O  O40  1  0.67287200  0.12522700  0.26813200  1
  O  O41  1  0.17280900  0.62529300  0.76802300  1
  O  O42  1  0.82719500  0.37470400  0.23198500  1
  O  O43  1  0.32713000  0.87477400  0.73186800  1
  O  O44  1  0.38901700  0.05171900  0.32572100  1
  O  O45  1  0.88899500  0.55188200  0.82559500  1
  O  O46  1  0.11100400  0.44811100  0.17440800  1
  O  O47  1  0.61098300  0.94828000  0.67427700  1
