# generated using pymatgen
data_CrAsRh
_symmetry_space_group_name_H-M   'P 1'
_cell_length_a   6.50480579
_cell_length_b   6.50480579
_cell_length_c   3.73768600
_cell_angle_alpha   90.00000000
_cell_angle_beta   90.00000000
_cell_angle_gamma   119.99999786
_symmetry_Int_Tables_number   1
_chemical_formula_structural   CrAsRh
_chemical_formula_sum   'Cr3 As3 Rh3'
_cell_volume   136.96264175
_cell_formula_units_Z   3
loop_
 _symmetry_equiv_pos_site_id
 _symmetry_equiv_pos_as_xyz
  1  'x, y, z'
loop_
 _atom_site_type_symbol
 _atom_site_label
 _atom_site_symmetry_multiplicity
 _atom_site_fract_x
 _atom_site_fract_y
 _atom_site_fract_z
 _atom_site_occupancy
  Cr  Cr0  1  0.40750900  0.40750900  0.50000000  1
  Cr  Cr1  1  0.59249100  0.00000000  0.50000000  1
  Cr  Cr2  1  0.00000000  0.59249100  0.50000000  1
  As  As3  1  0.33333300  0.66666700  0.00000000  1
  As  As4  1  0.66666700  0.33333300  0.00000000  1
  As  As5  1  0.00000000  0.00000000  0.50000000  1
  Rh  Rh6  1  0.00000000  0.25481900  0.00000000  1
  Rh  Rh7  1  0.74518100  0.74518100  0.00000000  1
  Rh  Rh8  1  0.25481900  0.00000000  0.00000000  1
