# generated using pymatgen
data_V2NiO6
_symmetry_space_group_name_H-M   'P 1'
_cell_length_a   8.06731900
_cell_length_b   9.71663100
_cell_length_c   14.91244400
_cell_angle_alpha   90.00000000
_cell_angle_beta   90.00000000
_cell_angle_gamma   90.00000000
_symmetry_Int_Tables_number   1
_chemical_formula_structural   V2NiO6
_chemical_formula_sum   'V16 Ni8 O48'
_cell_volume   1168.94416189
_cell_formula_units_Z   8
loop_
 _symmetry_equiv_pos_site_id
 _symmetry_equiv_pos_as_xyz
  1  'x, y, z'
loop_
 _atom_site_type_symbol
 _atom_site_label
 _atom_site_symmetry_multiplicity
 _atom_site_fract_x
 _atom_site_fract_y
 _atom_site_fract_z
 _atom_site_occupancy
  V  V0  1  0.35225000  0.72801000  0.38447500  1
  V  V1  1  0.64775000  0.22801000  0.11552500  1
  V  V2  1  0.14775000  0.27199000  0.88447500  1
  V  V3  1  0.85225000  0.77199000  0.61552500  1
  V  V4  1  0.64775000  0.27199000  0.61552500  1
  V  V5  1  0.35225000  0.77199000  0.88447500  1
  V  V6  1  0.85225000  0.72801000  0.11552500  1
  V  V7  1  0.14775000  0.22801000  0.38447500  1
  V  V8  1  0.93916100  0.79966100  0.39294100  1
  V  V9  1  0.06083900  0.29966100  0.10705900  1
  V  V10  1  0.56083900  0.20033900  0.89294200  1
  V  V11  1  0.43916100  0.70033900  0.60705800  1
  V  V12  1  0.06083900  0.20033900  0.60705800  1
  V  V13  1  0.93916100  0.70033900  0.89294200  1
  V  V14  1  0.43916100  0.79966100  0.10705900  1
  V  V15  1  0.56083900  0.29966100  0.39294100  1
  Ni  Ni16  1  0.37739000  0.47722900  0.20864400  1
  Ni  Ni17  1  0.62261000  0.97722900  0.29135600  1
  Ni  Ni18  1  0.12261000  0.52277100  0.70864400  1
  Ni  Ni19  1  0.87739000  0.02277100  0.79135600  1
  Ni  Ni20  1  0.62261000  0.52277100  0.79135600  1
  Ni  Ni21  1  0.37739000  0.02277100  0.70864400  1
  Ni  Ni22  1  0.87739000  0.47722900  0.29135600  1
  Ni  Ni23  1  0.12261000  0.97722900  0.20864400  1
  O  O24  1  0.51051600  0.83569200  0.36154400  1
  O  O25  1  0.48948400  0.33569200  0.13845600  1
  O  O26  1  0.98948400  0.16430800  0.86154400  1
  O  O27  1  0.01051600  0.66430800  0.63845600  1
  O  O28  1  0.48948400  0.16430800  0.63845600  1
  O  O29  1  0.51051600  0.66430800  0.86154400  1
  O  O30  1  0.01051600  0.83569200  0.13845600  1
  O  O31  1  0.98948400  0.33569200  0.36154400  1
  O  O32  1  0.34076700  0.59895700  0.30985500  1
  O  O33  1  0.65923300  0.09895700  0.19014500  1
  O  O34  1  0.15923300  0.40104300  0.80985500  1
  O  O35  1  0.84076700  0.90104300  0.69014500  1
  O  O36  1  0.65923300  0.40104300  0.69014500  1
  O  O37  1  0.34076700  0.90104300  0.80985500  1
  O  O38  1  0.84076700  0.59895700  0.19014500  1
  O  O39  1  0.15923300  0.09895700  0.30985500  1
  O  O40  1  0.84740900  0.90262100  0.31448000  1
  O  O41  1  0.15259100  0.40262100  0.18552000  1
  O  O42  1  0.65259100  0.09737900  0.81448000  1
  O  O43  1  0.34740900  0.59737900  0.68552000  1
  O  O44  1  0.15259100  0.09737900  0.68552000  1
  O  O45  1  0.84740900  0.59737900  0.81448000  1
  O  O46  1  0.34740900  0.90262100  0.18552000  1
  O  O47  1  0.65259100  0.40262100  0.31448000  1
  O  O48  1  0.89829500  0.63227300  0.37581000  1
  O  O49  1  0.10170500  0.13227300  0.12419000  1
  O  O50  1  0.60170500  0.36772700  0.87581000  1
  O  O51  1  0.39829500  0.86772700  0.62419000  1
  O  O52  1  0.10170500  0.36772700  0.62419000  1
  O  O53  1  0.89829500  0.86772700  0.87581000  1
  O  O54  1  0.39829500  0.63227300  0.12419000  1
  O  O55  1  0.60170500  0.13227300  0.37581000  1
  O  O56  1  0.15938600  0.82317600  0.37938100  1
  O  O57  1  0.84061400  0.32317600  0.12061900  1
  O  O58  1  0.34061400  0.17682400  0.87938100  1
  O  O59  1  0.65938600  0.67682400  0.62061900  1
  O  O60  1  0.84061400  0.17682400  0.62061900  1
  O  O61  1  0.15938600  0.67682400  0.87938100  1
  O  O62  1  0.65938600  0.82317600  0.12061900  1
  O  O63  1  0.34061400  0.32317600  0.37938100  1
  O  O64  1  0.37689500  0.65386400  0.49509400  1
  O  O65  1  0.62310500  0.15386400  0.00490600  1
  O  O66  1  0.12310500  0.34613600  0.99509400  1
  O  O67  1  0.87689500  0.84613600  0.50490600  1
  O  O68  1  0.62310500  0.34613600  0.50490600  1
  O  O69  1  0.37689500  0.84613600  0.99509400  1
  O  O70  1  0.87689500  0.65386400  0.00490600  1
  O  O71  1  0.12310500  0.15386400  0.49509400  1
