# generated using pymatgen
data_CaV(GeO3)2
_symmetry_space_group_name_H-M   'P 1'
_cell_length_a   5.50017265
_cell_length_b   6.93790014
_cell_length_c   6.93793597
_cell_angle_alpha   83.01701991
_cell_angle_beta   79.24153149
_cell_angle_gamma   79.24201344
_symmetry_Int_Tables_number   1
_chemical_formula_structural   CaV(GeO3)2
_chemical_formula_sum   'Ca2 V2 Ge4 O12'
_cell_volume   254.49052498
_cell_formula_units_Z   2
loop_
 _symmetry_equiv_pos_site_id
 _symmetry_equiv_pos_as_xyz
  1  'x, y, z'
loop_
 _atom_site_type_symbol
 _atom_site_label
 _atom_site_symmetry_multiplicity
 _atom_site_fract_x
 _atom_site_fract_y
 _atom_site_fract_z
 _atom_site_occupancy
  Ca  Ca0  1  0.74999700  0.30175800  0.69824000  1
  Ca  Ca1  1  0.25000300  0.69825400  0.30175700  1
  V  V2  1  0.24999900  0.08756400  0.91243400  1
  V  V3  1  0.74999500  0.91248000  0.08752000  1
  Ge  Ge4  1  0.77259300  0.38573600  0.18915700  1
  Ge  Ge5  1  0.72741000  0.81084400  0.61426500  1
  Ge  Ge6  1  0.22742900  0.61427300  0.81082400  1
  Ge  Ge7  1  0.27257300  0.18917600  0.38572300  1
  O  O8  1  0.52334100  0.32514700  0.39174200  1
  O  O9  1  0.97666000  0.60825900  0.67485600  1
  O  O10  1  0.47673600  0.67475800  0.60822200  1
  O  O11  1  0.02326500  0.39178100  0.32524300  1
  O  O12  1  0.15142700  0.10936400  0.62459500  1
  O  O13  1  0.34857000  0.37540000  0.89064000  1
  O  O14  1  0.84862700  0.89065500  0.37540600  1
  O  O15  1  0.65137900  0.62459200  0.10933800  1
  O  O16  1  0.85897400  0.20716000  0.01964600  1
  O  O17  1  0.64102100  0.98036000  0.79283700  1
  O  O18  1  0.14103600  0.79281400  0.98037100  1
  O  O19  1  0.35896600  0.01962600  0.20718300  1
