# generated using pymatgen
data_ZnFe(GeO3)2
_symmetry_space_group_name_H-M   'P 1'
_cell_length_a   6.88225407
_cell_length_b   7.84293213
_cell_length_c   9.56333670
_cell_angle_alpha   75.82580955
_cell_angle_beta   80.80275611
_cell_angle_gamma   94.71838108
_symmetry_Int_Tables_number   1
_chemical_formula_structural   ZnFe(GeO3)2
_chemical_formula_sum   'Zn4 Fe4 Ge8 O24'
_cell_volume   490.06079721
_cell_formula_units_Z   4
loop_
 _symmetry_equiv_pos_site_id
 _symmetry_equiv_pos_as_xyz
  1  'x, y, z'
loop_
 _atom_site_type_symbol
 _atom_site_label
 _atom_site_symmetry_multiplicity
 _atom_site_fract_x
 _atom_site_fract_y
 _atom_site_fract_z
 _atom_site_occupancy
  Zn  Zn0  1  0.25018600  0.99996000  0.75001400  1
  Zn  Zn1  1  0.25000500  0.50001600  0.24994800  1
  Zn  Zn2  1  0.74998700  0.99997400  0.25003000  1
  Zn  Zn3  1  0.74980900  0.50005200  0.75000700  1
  Fe  Fe4  1  0.90273700  0.17370100  0.92350700  1
  Fe  Fe5  1  0.09725700  0.32629000  0.57648900  1
  Fe  Fe6  1  0.90269000  0.67371800  0.42353700  1
  Fe  Fe7  1  0.09731900  0.82628500  0.07645600  1
  Ge  Ge8  1  0.38942400  0.72847700  0.48338900  1
  Ge  Ge9  1  0.38945200  0.22850200  0.98338400  1
  Ge  Ge10  1  0.78815000  0.93259500  0.67781400  1
  Ge  Ge11  1  0.78813400  0.43249300  0.17768500  1
  Ge  Ge12  1  0.61056600  0.27149800  0.51662100  1
  Ge  Ge13  1  0.61057300  0.77152900  0.01660400  1
  Ge  Ge14  1  0.21187400  0.06750000  0.32230800  1
  Ge  Ge15  1  0.21184400  0.56741500  0.82219600  1
  O  O16  1  0.29920200  0.93868200  0.47750400  1
  O  O17  1  0.29894600  0.43864600  0.97752500  1
  O  O18  1  0.58382500  0.86995300  0.83107600  1
  O  O19  1  0.58394700  0.36986800  0.33101700  1
  O  O20  1  0.70103500  0.06134700  0.52248500  1
  O  O21  1  0.70080700  0.56132200  0.02249300  1
  O  O22  1  0.41607300  0.13014600  0.16898600  1
  O  O23  1  0.41616400  0.63004100  0.66892100  1
  O  O24  1  0.14249400  0.25942000  0.36867400  1
  O  O25  1  0.14242700  0.75940100  0.86845600  1
  O  O26  1  0.37214000  0.23330000  0.62410000  1
  O  O27  1  0.37208000  0.73347500  0.12410100  1
  O  O28  1  0.85756300  0.74058300  0.63156400  1
  O  O29  1  0.85750600  0.24059000  0.13130700  1
  O  O30  1  0.62793700  0.76651300  0.37592200  1
  O  O31  1  0.62783500  0.26671300  0.87588100  1
  O  O32  1  0.20313800  0.58871000  0.44177800  1
  O  O33  1  0.20350300  0.08839200  0.94182600  1
  O  O34  1  0.96952800  0.07491600  0.72171100  1
  O  O35  1  0.96972700  0.57482100  0.22140900  1
  O  O36  1  0.79652800  0.41159500  0.55817900  1
  O  O37  1  0.79684300  0.91129600  0.05821000  1
  O  O38  1  0.03030500  0.92517600  0.27856000  1
  O  O39  1  0.03044200  0.42508800  0.77832400  1
