# generated using pymatgen
data_NbV3O8
_symmetry_space_group_name_H-M   'P 1'
_cell_length_a   5.96264368
_cell_length_b   9.39882355
_cell_length_c   6.06153516
_cell_angle_alpha   90.28162893
_cell_angle_beta   59.64487672
_cell_angle_gamma   90.21954747
_symmetry_Int_Tables_number   1
_chemical_formula_structural   NbV3O8
_chemical_formula_sum   'Nb2 V6 O16'
_cell_volume   293.12616376
_cell_formula_units_Z   2
loop_
 _symmetry_equiv_pos_site_id
 _symmetry_equiv_pos_as_xyz
  1  'x, y, z'
loop_
 _atom_site_type_symbol
 _atom_site_label
 _atom_site_symmetry_multiplicity
 _atom_site_fract_x
 _atom_site_fract_y
 _atom_site_fract_z
 _atom_site_occupancy
  Nb  Nb0  1  0.30788200  0.49911000  0.35596700  1
  Nb  Nb1  1  0.69971000  0.99795700  0.63455100  1
  V  V2  1  0.79759800  0.72020100  0.85887000  1
  V  V3  1  0.20666700  0.21579600  0.13622200  1
  V  V4  1  0.81685000  0.70469700  0.35067300  1
  V  V5  1  0.67693300  0.21193200  0.15917200  1
  V  V6  1  0.32708700  0.71904600  0.83808700  1
  V  V7  1  0.18407700  0.21462100  0.64540100  1
  O  O8  1  0.64895900  0.60009000  0.17578900  1
  O  O9  1  0.83599500  0.09685900  0.82028700  1
  O  O10  1  0.47067600  0.33688600  0.03647700  1
  O  O11  1  0.51745400  0.83575800  0.96835200  1
  O  O12  1  0.33474400  0.10630600  0.33423000  1
  O  O13  1  0.63244700  0.60654600  0.70495400  1
  O  O14  1  0.02528700  0.30190100  0.97201500  1
  O  O15  1  0.00106200  0.80335400  0.00089500  1
  O  O16  1  0.15876800  0.59679800  0.18155000  1
  O  O17  1  0.35603600  0.10007600  0.81772000  1
  O  O18  1  0.48164700  0.33943600  0.46446500  1
  O  O19  1  0.94719900  0.83276500  0.53680300  1
  O  O20  1  0.04901700  0.33380500  0.47301100  1
  O  O21  1  0.51262800  0.83777500  0.54135100  1
  O  O22  1  0.85910300  0.10106100  0.32319200  1
  O  O23  1  0.15237300  0.60294800  0.66996600  1
