# generated using pymatgen
data_Na2FeO3
_symmetry_space_group_name_H-M   'P 1'
_cell_length_a   5.39118514
_cell_length_b   10.95762860
_cell_length_c   5.39117953
_cell_angle_alpha   94.87793645
_cell_angle_beta   60.00086546
_cell_angle_gamma   85.12197188
_symmetry_Int_Tables_number   1
_chemical_formula_structural   Na2FeO3
_chemical_formula_sum   'Na8 Fe4 O12'
_cell_volume   271.79784274
_cell_formula_units_Z   4
loop_
 _symmetry_equiv_pos_site_id
 _symmetry_equiv_pos_as_xyz
  1  'x, y, z'
loop_
 _atom_site_type_symbol
 _atom_site_label
 _atom_site_symmetry_multiplicity
 _atom_site_fract_x
 _atom_site_fract_y
 _atom_site_fract_z
 _atom_site_occupancy
  Na  Na0  1  0.50451400  0.99993700  0.99161600  1
  Na  Na1  1  0.99161700  0.50006400  0.50451400  1
  Na  Na2  1  0.08685600  0.24999900  0.08685600  1
  Na  Na3  1  0.91339500  0.75000000  0.91339500  1
  Na  Na4  1  0.68409400  0.49968500  0.15807500  1
  Na  Na5  1  0.15807400  0.00031500  0.68409600  1
  Na  Na6  1  0.83951900  0.99988300  0.32037500  1
  Na  Na7  1  0.32037000  0.50011700  0.83951800  1
  Fe  Fe8  1  0.75325100  0.25000200  0.75325700  1
  Fe  Fe9  1  0.57964300  0.74999900  0.57963800  1
  Fe  Fe10  1  0.24704000  0.75000000  0.24703900  1
  Fe  Fe11  1  0.41989800  0.25000000  0.41989600  1
  O  O12  1  0.75220000  0.14812900  0.03761000  1
  O  O13  1  0.93445400  0.64764000  0.26111000  1
  O  O14  1  0.03761000  0.35187000  0.75220000  1
  O  O15  1  0.26111000  0.85236000  0.93445400  1
  O  O16  1  0.50903800  0.85125300  0.33427000  1
  O  O17  1  0.33427100  0.64874700  0.50903600  1
  O  O18  1  0.68347300  0.34984100  0.50691500  1
  O  O19  1  0.50691500  0.15015800  0.68347200  1
  O  O20  1  0.43803100  0.35106600  0.10469700  1
  O  O21  1  0.86221500  0.84928600  0.57771700  1
  O  O22  1  0.10469700  0.14893400  0.43803000  1
  O  O23  1  0.57771600  0.65071400  0.86221600  1
