# generated using pymatgen
data_BaSr3(CoO3)4
_symmetry_space_group_name_H-M   'P 1'
_cell_length_a   4.79441613
_cell_length_b   5.54183117
_cell_length_c   9.55395123
_cell_angle_alpha   89.98811056
_cell_angle_beta   90.60361055
_cell_angle_gamma   89.55942759
_symmetry_Int_Tables_number   1
_chemical_formula_structural   BaSr3(CoO3)4
_chemical_formula_sum   'Ba1 Sr3 Co4 O12'
_cell_volume   253.82539972
_cell_formula_units_Z   1
loop_
 _symmetry_equiv_pos_site_id
 _symmetry_equiv_pos_as_xyz
  1  'x, y, z'
loop_
 _atom_site_type_symbol
 _atom_site_label
 _atom_site_symmetry_multiplicity
 _atom_site_fract_x
 _atom_site_fract_y
 _atom_site_fract_z
 _atom_site_occupancy
  Ba  Ba0  1  0.25151200  0.50093800  0.16563000  1
  Sr  Sr1  1  0.24749600  0.99898900  0.66719200  1
  Sr  Sr2  1  0.75419300  0.00112100  0.33744100  1
  Sr  Sr3  1  0.74492700  0.49891800  0.83191800  1
  Co  Co4  1  0.99977300  0.99963000  0.99523100  1
  Co  Co5  1  0.49996700  0.49999900  0.50428200  1
  Co  Co6  1  0.49979900  0.99970500  0.99533100  1
  Co  Co7  1  0.00092700  0.50016200  0.50452300  1
  O  O8  1  0.74232400  0.50117500  0.35273600  1
  O  O9  1  0.74935300  0.99955700  0.84513900  1
  O  O10  1  0.24969600  0.00111700  0.14643800  1
  O  O11  1  0.26059200  0.49907400  0.65550400  1
  O  O12  1  0.75017700  0.77450800  0.07243100  1
  O  O13  1  0.74959200  0.22941800  0.07405300  1
  O  O14  1  0.75897300  0.26915500  0.57994300  1
  O  O15  1  0.75041200  0.72786200  0.58036100  1
  O  O16  1  0.24093900  0.73458100  0.43019800  1
  O  O17  1  0.24985200  0.26896500  0.42996700  1
  O  O18  1  0.24936700  0.22353800  0.91677700  1
  O  O19  1  0.25012900  0.77158800  0.91490400  1
