# generated using pymatgen
data_LiCrP2O7
_symmetry_space_group_name_H-M   'P 1'
_cell_length_a   7.58183677
_cell_length_b   9.87785741
_cell_length_c   7.58186241
_cell_angle_alpha   74.64206314
_cell_angle_beta   113.72158068
_cell_angle_gamma   105.35483658
_symmetry_Int_Tables_number   1
_chemical_formula_structural   LiCrP2O7
_chemical_formula_sum   'Li4 Cr4 P8 O28'
_cell_volume   493.16518244
_cell_formula_units_Z   4
loop_
 _symmetry_equiv_pos_site_id
 _symmetry_equiv_pos_as_xyz
  1  'x, y, z'
loop_
 _atom_site_type_symbol
 _atom_site_label
 _atom_site_symmetry_multiplicity
 _atom_site_fract_x
 _atom_site_fract_y
 _atom_site_fract_z
 _atom_site_occupancy
  Li  Li0  1  0.92560400  0.25000100  0.92559000  1
  Li  Li1  1  0.42556100  0.75000700  0.42563300  1
  Li  Li2  1  0.07431600  0.74999700  0.07427000  1
  Li  Li3  1  0.57427000  0.24997300  0.57433700  1
  Cr  Cr4  1  0.68338900  0.49995100  0.18339900  1
  Cr  Cr5  1  0.81707100  0.00001800  0.31673800  1
  Cr  Cr6  1  0.18326000  0.99990300  0.68340100  1
  Cr  Cr7  1  0.31689400  0.50002700  0.81682000  1
  P  P8  1  0.22064000  0.02682400  0.27932900  1
  P  P9  1  0.72065100  0.52683400  0.77937100  1
  P  P10  1  0.27932000  0.47318700  0.22064800  1
  P  P11  1  0.77928400  0.97316800  0.72056800  1
  P  P12  1  0.97290500  0.69445300  0.52716300  1
  P  P13  1  0.47289900  0.19445300  0.02709800  1
  P  P14  1  0.52716800  0.80555200  0.97291200  1
  P  P15  1  0.02714600  0.30555200  0.47293200  1
  O  O16  1  0.26471100  0.61857400  0.23525600  1
  O  O17  1  0.76471900  0.11856300  0.73521900  1
  O  O18  1  0.23514600  0.88141800  0.26464700  1
  O  O19  1  0.73521500  0.38143600  0.76468000  1
  O  O20  1  0.84173900  0.64759500  0.65846300  1
  O  O21  1  0.34159600  0.14756000  0.15828600  1
  O  O22  1  0.65823200  0.85243400  0.84149900  1
  O  O23  1  0.15825300  0.35243300  0.34159400  1
  O  O24  1  0.49802100  0.63848400  0.00209600  1
  O  O25  1  0.99807200  0.13846600  0.50212700  1
  O  O26  1  0.00200400  0.86155300  0.49793500  1
  O  O27  1  0.50200300  0.36153900  0.99793400  1
  O  O28  1  0.17637600  0.43526900  0.01143100  1
  O  O29  1  0.67644100  0.93525000  0.51135300  1
  O  O30  1  0.51144300  0.56479900  0.67649600  1
  O  O31  1  0.01145300  0.06479400  0.17642200  1
  O  O32  1  0.32348400  0.06471700  0.48855200  1
  O  O33  1  0.82353700  0.56472400  0.98859100  1
  O  O34  1  0.98846700  0.93518000  0.82353600  1
  O  O35  1  0.48851300  0.43522100  0.32355500  1
  O  O36  1  0.32993900  0.85147100  0.86575600  1
  O  O37  1  0.82996400  0.35152800  0.36572200  1
  O  O38  1  0.17008800  0.64852700  0.63433200  1
  O  O39  1  0.67011600  0.14849600  0.13426800  1
  O  O40  1  0.36558600  0.14843400  0.82994100  1
  O  O41  1  0.86560700  0.64837000  0.32999400  1
  O  O42  1  0.13438000  0.35161200  0.67005800  1
  O  O43  1  0.63451900  0.85165300  0.17005200  1
