# generated using pymatgen
data_CaV4O6
_symmetry_space_group_name_H-M   'P 1'
_cell_length_a   3.09723000
_cell_length_b   5.33661696
_cell_length_c   15.36745982
_cell_angle_alpha   89.41359309
_cell_angle_beta   89.99916391
_cell_angle_gamma   73.13068463
_symmetry_Int_Tables_number   1
_chemical_formula_structural   CaV4O6
_chemical_formula_sum   'Ca2 V8 O12'
_cell_volume   243.06066792
_cell_formula_units_Z   2
loop_
 _symmetry_equiv_pos_site_id
 _symmetry_equiv_pos_as_xyz
  1  'x, y, z'
loop_
 _atom_site_type_symbol
 _atom_site_label
 _atom_site_symmetry_multiplicity
 _atom_site_fract_x
 _atom_site_fract_y
 _atom_site_fract_z
 _atom_site_occupancy
  Ca  Ca0  1  0.34874200  0.30232300  0.74877500  1
  Ca  Ca1  1  0.65129200  0.69755900  0.25118100  1
  V  V2  1  0.86314400  0.27367800  0.54060300  1
  V  V3  1  0.59753500  0.80478500  0.63500200  1
  V  V4  1  0.40128200  0.19753600  0.13283400  1
  V  V5  1  0.59869800  0.80242500  0.86696300  1
  V  V6  1  0.13655900  0.72702500  0.04533000  1
  V  V7  1  0.86354600  0.27293400  0.95474400  1
  V  V8  1  0.13678900  0.72650700  0.45934300  1
  V  V9  1  0.40251200  0.19502900  0.36525500  1
  O  O10  1  0.49997600  0.00007300  0.49997800  1
  O  O11  1  0.49998900  0.00008500  0.00013200  1
  O  O12  1  0.67905800  0.64158600  0.75107400  1
  O  O13  1  0.32117500  0.35785600  0.24886000  1
  O  O14  1  0.97225800  0.05510100  0.83996400  1
  O  O15  1  0.02749100  0.94512000  0.15996400  1
  O  O16  1  0.02877600  0.94268400  0.34245500  1
  O  O17  1  0.97125000  0.05741600  0.65752500  1
  O  O18  1  0.22283100  0.55434500  0.91405800  1
  O  O19  1  0.77719900  0.44587500  0.08591100  1
  O  O20  1  0.77492500  0.45018600  0.41023600  1
  O  O21  1  0.22496300  0.54987200  0.58981600  1
