# generated using pymatgen
data_Ca3CoO6
_symmetry_space_group_name_H-M   'P 1'
_cell_length_a   6.40518066
_cell_length_b   12.70806301
_cell_length_c   6.39967521
_cell_angle_alpha   87.61468310
_cell_angle_beta   87.66056566
_cell_angle_gamma   87.65858347
_symmetry_Int_Tables_number   1
_chemical_formula_structural   Ca3CoO6
_chemical_formula_sum   'Ca12 Co4 O24'
_cell_volume   519.63187712
_cell_formula_units_Z   4
loop_
 _symmetry_equiv_pos_site_id
 _symmetry_equiv_pos_as_xyz
  1  'x, y, z'
loop_
 _atom_site_type_symbol
 _atom_site_label
 _atom_site_symmetry_multiplicity
 _atom_site_fract_x
 _atom_site_fract_y
 _atom_site_fract_z
 _atom_site_occupancy
  Ca  Ca0  1  0.74747600  0.20016900  0.10651100  1
  Ca  Ca1  1  0.75018700  0.70090200  0.10120800  1
  Ca  Ca2  1  0.39899800  0.04876300  0.75058100  1
  Ca  Ca3  1  0.39338000  0.54989700  0.75126900  1
  Ca  Ca4  1  0.89879400  0.12191400  0.60654700  1
  Ca  Ca5  1  0.89349900  0.62774600  0.60061300  1
  Ca  Ca6  1  0.25247400  0.29994700  0.90142600  1
  Ca  Ca7  1  0.25125100  0.80252400  0.89900300  1
  Ca  Ca8  1  0.59888500  0.45065400  0.24790700  1
  Ca  Ca9  1  0.59963200  0.94746400  0.25025200  1
  Ca  Ca10  1  0.10994500  0.37496100  0.39050800  1
  Ca  Ca11  1  0.09878000  0.87532200  0.40194300  1
  Co  Co12  1  0.00183800  0.49981100  0.99465100  1
  Co  Co13  1  0.50096600  0.74724300  0.49626700  1
  Co  Co14  1  0.00268700  0.00255900  0.99924900  1
  Co  Co15  1  0.50579200  0.25051000  0.50064300  1
  O  O16  1  0.57904900  0.21366600  0.78648400  1
  O  O17  1  0.57985300  0.71283300  0.78542900  1
  O  O18  1  0.06102000  0.46731300  0.72719300  1
  O  O19  1  0.07993200  0.96498400  0.72212700  1
  O  O20  1  0.42714500  0.38728300  0.57465900  1
  O  O21  1  0.43867100  0.87847000  0.58173100  1
  O  O22  1  0.24073000  0.20895200  0.56559800  1
  O  O23  1  0.21787000  0.70847400  0.56867000  1
  O  O24  1  0.06375900  0.13783400  0.93193500  1
  O  O25  1  0.07688000  0.64340700  0.92629600  1
  O  O26  1  0.57312200  0.10682300  0.42359600  1
  O  O27  1  0.56874100  0.61223900  0.43500100  1
  O  O28  1  0.77353600  0.28262000  0.43901800  1
  O  O29  1  0.77828000  0.78503600  0.42010700  1
  O  O30  1  0.71643900  0.03579700  0.92086100  1
  O  O31  1  0.71141200  0.53767300  0.91969100  1
  O  O32  1  0.27493900  0.46221500  0.06873000  1
  O  O33  1  0.27211300  0.96578100  0.07721700  1
  O  O34  1  0.92914000  0.04089400  0.28220300  1
  O  O35  1  0.93458500  0.54040700  0.25936600  1
  O  O36  1  0.92441100  0.36357500  0.07230400  1
  O  O37  1  0.91783700  0.87121400  0.05995700  1
  O  O38  1  0.43174900  0.28761300  0.22656200  1
  O  O39  1  0.42420100  0.78451000  0.22669000  1
