# generated using pymatgen
data_Zr3Co
_symmetry_space_group_name_H-M   'P 1'
_cell_length_a   6.05512022
_cell_length_b   6.05512022
_cell_length_c   4.88870100
_cell_angle_alpha   90.00000000
_cell_angle_beta   90.00000000
_cell_angle_gamma   120.00000243
_symmetry_Int_Tables_number   1
_chemical_formula_structural   Zr3Co
_chemical_formula_sum   'Zr6 Co2'
_cell_volume   155.22784838
_cell_formula_units_Z   2
loop_
 _symmetry_equiv_pos_site_id
 _symmetry_equiv_pos_as_xyz
  1  'x, y, z'
loop_
 _atom_site_type_symbol
 _atom_site_label
 _atom_site_symmetry_multiplicity
 _atom_site_fract_x
 _atom_site_fract_y
 _atom_site_fract_z
 _atom_site_occupancy
  Zr  Zr0  1  0.82458000  0.17542000  0.25000000  1
  Zr  Zr1  1  0.82458000  0.64915900  0.25000000  1
  Zr  Zr2  1  0.35084100  0.17542000  0.25000000  1
  Zr  Zr3  1  0.17542000  0.82458000  0.75000000  1
  Zr  Zr4  1  0.17542000  0.35084100  0.75000000  1
  Zr  Zr5  1  0.64915900  0.82458000  0.75000000  1
  Co  Co6  1  0.33333300  0.66666700  0.25000000  1
  Co  Co7  1  0.66666700  0.33333300  0.75000000  1
