# generated using pymatgen
data_Ca5Sc2(CoO6)2
_symmetry_space_group_name_H-M   'P 1'
_cell_length_a   6.43206885
_cell_length_b   9.37263984
_cell_length_c   8.82728640
_cell_angle_alpha   90.11191630
_cell_angle_beta   93.52708287
_cell_angle_gamma   88.68792383
_symmetry_Int_Tables_number   1
_chemical_formula_structural   Ca5Sc2(CoO6)2
_chemical_formula_sum   'Ca10 Sc4 Co4 O24'
_cell_volume   531.00972374
_cell_formula_units_Z   2
loop_
 _symmetry_equiv_pos_site_id
 _symmetry_equiv_pos_as_xyz
  1  'x, y, z'
loop_
 _atom_site_type_symbol
 _atom_site_label
 _atom_site_symmetry_multiplicity
 _atom_site_fract_x
 _atom_site_fract_y
 _atom_site_fract_z
 _atom_site_occupancy
  Ca  Ca0  1  0.61446400  0.31790400  0.56609300  1
  Ca  Ca1  1  0.61859900  0.81574100  0.06736300  1
  Ca  Ca2  1  0.73937900  0.13535500  0.24569500  1
  Ca  Ca3  1  0.74289900  0.63247300  0.74502400  1
  Ca  Ca4  1  0.12049200  0.18616200  0.57180200  1
  Ca  Ca5  1  0.12112600  0.68424100  0.07544600  1
  Ca  Ca6  1  0.89265700  0.80895000  0.43441100  1
  Ca  Ca7  1  0.88788700  0.31451000  0.93437700  1
  Ca  Ca8  1  0.25349700  0.86394700  0.74295100  1
  Ca  Ca9  1  0.25425300  0.36816300  0.24404400  1
  Sc  Sc10  1  0.24744300  0.00130800  0.25119700  1
  Sc  Sc11  1  0.25150400  0.49915000  0.74948100  1
  Sc  Sc12  1  0.74579300  0.00213500  0.75180400  1
  Sc  Sc13  1  0.74283500  0.50351200  0.25381400  1
  Co  Co14  1  0.50244400  0.50092000  0.99659300  1
  Co  Co15  1  0.00262100  0.49654500  0.50106600  1
  Co  Co16  1  0.50215400  0.99596200  0.49785600  1
  Co  Co17  1  0.00624700  0.00030900  0.99785700  1
  O  O18  1  0.07298200  0.65887900  0.62868500  1
  O  O19  1  0.06864400  0.16188200  0.13069900  1
  O  O20  1  0.20756000  0.94903200  0.48091300  1
  O  O21  1  0.21172000  0.44928700  0.97918800  1
  O  O22  1  0.91135700  0.33506700  0.38093600  1
  O  O23  1  0.91235000  0.83202900  0.87952100  1
  O  O24  1  0.78731600  0.06831700  0.52015700  1
  O  O25  1  0.78540400  0.56653000  0.02123600  1
  O  O26  1  0.72286500  0.55783300  0.48441300  1
  O  O27  1  0.72434800  0.05700700  0.98454800  1
  O  O28  1  0.45832100  0.10083900  0.67406700  1
  O  O29  1  0.45809000  0.60274400  0.17493700  1
  O  O30  1  0.96014000  0.89145000  0.19800800  1
  O  O31  1  0.96051800  0.39813000  0.69060400  1
  O  O32  1  0.40924000  0.17298500  0.36606900  1
  O  O33  1  0.41200900  0.66619000  0.87403500  1
  O  O34  1  0.03093300  0.09492400  0.80179300  1
  O  O35  1  0.03010500  0.58982600  0.30973900  1
  O  O36  1  0.60285300  0.83787500  0.63192900  1
  O  O37  1  0.60073400  0.34489000  0.12433300  1
  O  O38  1  0.55175500  0.91391600  0.30908000  1
  O  O39  1  0.55536900  0.41374100  0.80795100  1
  O  O40  1  0.27811100  0.41958300  0.52634000  1
  O  O41  1  0.27772300  0.92139000  0.02557200  1
