# generated using pymatgen
data_LaZnFeAgO6
_symmetry_space_group_name_H-M   'P 1'
_cell_length_a   5.18233793
_cell_length_b   17.86749192
_cell_length_c   5.52752601
_cell_angle_alpha   89.99423918
_cell_angle_beta   90.00632145
_cell_angle_gamma   92.02151254
_symmetry_Int_Tables_number   1
_chemical_formula_structural   LaZnFeAgO6
_chemical_formula_sum   'La4 Zn4 Fe4 Ag4 O24'
_cell_volume   511.50484061
_cell_formula_units_Z   4
loop_
 _symmetry_equiv_pos_site_id
 _symmetry_equiv_pos_as_xyz
  1  'x, y, z'
loop_
 _atom_site_type_symbol
 _atom_site_label
 _atom_site_symmetry_multiplicity
 _atom_site_fract_x
 _atom_site_fract_y
 _atom_site_fract_z
 _atom_site_occupancy
  La  La0  1  0.96984700  0.12753000  0.06527000  1
  La  La1  1  0.96985900  0.62752500  0.06526700  1
  La  La2  1  0.46997400  0.37751800  0.43453500  1
  La  La3  1  0.47000100  0.87751400  0.43453500  1
  Zn  Zn4  1  0.53522500  0.12350000  0.56468700  1
  Zn  Zn5  1  0.53524100  0.62349300  0.56466500  1
  Zn  Zn6  1  0.03518100  0.37352800  0.93539600  1
  Zn  Zn7  1  0.03519800  0.87353200  0.93535200  1
  Fe  Fe8  1  0.00381500  0.50146200  0.50565800  1
  Fe  Fe9  1  0.50385900  0.75154400  0.99430900  1
  Fe  Fe10  1  0.00382500  0.00150300  0.50560400  1
  Fe  Fe11  1  0.50381200  0.25152400  0.99433000  1
  Ag  Ag12  1  0.99438800  0.25158600  0.50784000  1
  Ag  Ag13  1  0.99443300  0.75157400  0.50784500  1
  Ag  Ag14  1  0.49429100  0.00158600  0.99217100  1
  Ag  Ag15  1  0.49425900  0.50159400  0.99221000  1
  O  O16  1  0.67381200  0.34436100  0.04146000  1
  O  O17  1  0.67379800  0.84432500  0.04142200  1
  O  O18  1  0.17387600  0.09432900  0.45873700  1
  O  O19  1  0.17382100  0.59432000  0.45885000  1
  O  O20  1  0.19205300  0.45303100  0.19115700  1
  O  O21  1  0.19207100  0.95301700  0.19114600  1
  O  O22  1  0.69204400  0.20307400  0.30908300  1
  O  O23  1  0.69205200  0.70306100  0.30908700  1
  O  O24  1  0.20844900  0.28025400  0.20248800  1
  O  O25  1  0.20847700  0.78022900  0.20246800  1
  O  O26  1  0.70852400  0.03027800  0.29739100  1
  O  O27  1  0.70856100  0.53027900  0.29740300  1
  O  O28  1  0.88660600  0.40390400  0.56620100  1
  O  O29  1  0.88655400  0.90387700  0.56622900  1
  O  O30  1  0.38707900  0.15383000  0.93344200  1
  O  O31  1  0.38706900  0.65382300  0.93346000  1
  O  O32  1  0.26723700  0.30005000  0.73662700  1
  O  O33  1  0.26733800  0.80000900  0.73671800  1
  O  O34  1  0.76726600  0.04997400  0.76322900  1
  O  O35  1  0.76732300  0.54995000  0.76321100  1
  O  O36  1  0.26797100  0.46436800  0.72145700  1
  O  O37  1  0.26805600  0.96435500  0.72144400  1
  O  O38  1  0.76838900  0.21440100  0.77880500  1
  O  O39  1  0.76836900  0.71438400  0.77880700  1
