# generated using pymatgen
data_V2OF5
_symmetry_space_group_name_H-M   'P 1'
_cell_length_a   5.32545391
_cell_length_b   13.49350815
_cell_length_c   5.31031626
_cell_angle_alpha   89.87647544
_cell_angle_beta   119.97121421
_cell_angle_gamma   89.78794308
_symmetry_Int_Tables_number   1
_chemical_formula_structural   V2OF5
_chemical_formula_sum   'V6 O3 F15'
_cell_volume   330.56038765
_cell_formula_units_Z   3
loop_
 _symmetry_equiv_pos_site_id
 _symmetry_equiv_pos_as_xyz
  1  'x, y, z'
loop_
 _atom_site_type_symbol
 _atom_site_label
 _atom_site_symmetry_multiplicity
 _atom_site_fract_x
 _atom_site_fract_y
 _atom_site_fract_z
 _atom_site_occupancy
  V  V0  1  0.00018200  0.49507000  0.03225100  1
  V  V1  1  0.97273200  0.00607900  0.97284500  1
  V  V2  1  0.64986800  0.83209100  0.32013500  1
  V  V3  1  0.32883200  0.67245800  0.69636500  1
  V  V4  1  0.67967000  0.33593000  0.33719200  1
  V  V5  1  0.34496500  0.16470300  0.66713100  1
  O  O6  1  0.41022600  0.74803400  0.97746600  1
  O  O7  1  0.92060100  0.41949200  0.23367200  1
  O  O8  1  0.69007000  0.08134600  0.77071400  1
  F  F9  1  0.98362100  0.74483600  0.40897800  1
  F  F10  1  0.34397300  0.42085400  0.08719800  1
  F  F11  1  0.09210100  0.07884800  0.33900400  1
  F  F12  1  0.32057800  0.91910200  0.23363300  1
  F  F13  1  0.24470000  0.58682200  0.34365700  1
  F  F14  1  0.59043100  0.25059400  0.00141300  1
  F  F15  1  0.00163800  0.24923300  0.58803400  1
  F  F16  1  0.75239100  0.91407300  0.07688000  1
  F  F17  1  0.08711400  0.58017800  0.76494100  1
  F  F18  1  0.41468400  0.25078700  0.41453800  1
  F  F19  1  0.56651800  0.74825300  0.57018600  1
  F  F20  1  0.26212200  0.08112900  0.92239600  1
  F  F21  1  0.75867600  0.42046000  0.66808500  1
  F  F22  1  0.91849600  0.91560800  0.66252700  1
  F  F23  1  0.66581100  0.58401900  0.91075900  1
