# generated using pymatgen
data_MgNiP2O7
_symmetry_space_group_name_H-M   'P 1'
_cell_length_a   6.41963135
_cell_length_b   9.00937016
_cell_length_c   9.40040401
_cell_angle_alpha   73.82232490
_cell_angle_beta   73.24399983
_cell_angle_gamma   95.02241805
_symmetry_Int_Tables_number   1
_chemical_formula_structural   MgNiP2O7
_chemical_formula_sum   'Mg4 Ni4 P8 O28'
_cell_volume   491.58965902
_cell_formula_units_Z   4
loop_
 _symmetry_equiv_pos_site_id
 _symmetry_equiv_pos_as_xyz
  1  'x, y, z'
loop_
 _atom_site_type_symbol
 _atom_site_label
 _atom_site_symmetry_multiplicity
 _atom_site_fract_x
 _atom_site_fract_y
 _atom_site_fract_z
 _atom_site_occupancy
  Mg  Mg0  1  0.65771700  0.16140900  0.49237900  1
  Mg  Mg1  1  0.65776600  0.66142800  0.99239400  1
  Mg  Mg2  1  0.34222400  0.83857000  0.50761500  1
  Mg  Mg3  1  0.34227200  0.33859400  0.00762900  1
  Ni  Ni4  1  0.16255900  0.47433300  0.72876200  1
  Ni  Ni5  1  0.83757400  0.02554000  0.77117900  1
  Ni  Ni6  1  0.16230700  0.97456400  0.22878100  1
  Ni  Ni7  1  0.83769400  0.52545100  0.27121100  1
  P  P8  1  0.68647300  0.95507700  0.13999100  1
  P  P9  1  0.68663900  0.45505000  0.64001700  1
  P  P10  1  0.31339100  0.04495400  0.85998400  1
  P  P11  1  0.31352400  0.54493700  0.36000300  1
  P  P12  1  0.19758000  0.19001200  0.42390700  1
  P  P13  1  0.19757400  0.69000200  0.92386300  1
  P  P14  1  0.80241700  0.81000500  0.57612100  1
  P  P15  1  0.80241000  0.30999400  0.07609000  1
  O  O16  1  0.69255600  0.39642100  0.49986400  1
  O  O17  1  0.69248000  0.89643900  0.99982900  1
  O  O18  1  0.30750600  0.60355500  0.50018200  1
  O  O19  1  0.30742300  0.10359200  0.00013900  1
  O  O20  1  0.86821000  0.91401100  0.20792400  1
  O  O21  1  0.86832000  0.41391200  0.70795200  1
  O  O22  1  0.13167100  0.08609900  0.79205700  1
  O  O23  1  0.13178500  0.58599200  0.29207900  1
  O  O24  1  0.45221500  0.90862900  0.26203400  1
  O  O25  1  0.45236300  0.40859000  0.76207100  1
  O  O26  1  0.54764200  0.09141200  0.73793400  1
  O  O27  1  0.54777600  0.59137700  0.23797000  1
  O  O28  1  0.64698800  0.91264600  0.51867600  1
  O  O29  1  0.64705200  0.41269600  0.01863200  1
  O  O30  1  0.35293000  0.08730800  0.48137300  1
  O  O31  1  0.35300800  0.58736300  0.98132600  1
  O  O32  1  0.21355800  0.20163000  0.25401300  1
  O  O33  1  0.21347100  0.70152400  0.75403300  1
  O  O34  1  0.78652000  0.79847400  0.74597000  1
  O  O35  1  0.78643100  0.29837800  0.24599100  1
  O  O36  1  0.28032200  0.35667700  0.43609200  1
  O  O37  1  0.28014800  0.85672500  0.93602100  1
  O  O38  1  0.71983700  0.64328600  0.56399000  1
  O  O39  1  0.71967100  0.14332800  0.06391200  1
  O  O40  1  0.04423000  0.85941300  0.46671800  1
  O  O41  1  0.04425600  0.35929900  0.96677400  1
  O  O42  1  0.95573500  0.14070200  0.53323600  1
  O  O43  1  0.95576000  0.64059500  0.03328900  1
