# generated using pymatgen
data_Li2VP2O7
_symmetry_space_group_name_H-M   'P 1'
_cell_length_a   6.73647725
_cell_length_b   8.89611989
_cell_length_c   10.72078473
_cell_angle_alpha   97.97948628
_cell_angle_beta   106.79022942
_cell_angle_gamma   110.37776810
_symmetry_Int_Tables_number   1
_chemical_formula_structural   Li2VP2O7
_chemical_formula_sum   'Li8 V4 P8 O28'
_cell_volume   555.70260608
_cell_formula_units_Z   4
loop_
 _symmetry_equiv_pos_site_id
 _symmetry_equiv_pos_as_xyz
  1  'x, y, z'
loop_
 _atom_site_type_symbol
 _atom_site_label
 _atom_site_symmetry_multiplicity
 _atom_site_fract_x
 _atom_site_fract_y
 _atom_site_fract_z
 _atom_site_occupancy
  Li  Li0  1  0.80864900  0.98388200  0.10897400  1
  Li  Li1  1  0.80877100  0.98372300  0.60893600  1
  Li  Li2  1  0.19136000  0.01612400  0.39101400  1
  Li  Li3  1  0.19123400  0.01626400  0.89104700  1
  Li  Li4  1  0.22221500  0.74689600  0.16388600  1
  Li  Li5  1  0.22211000  0.74691400  0.66388500  1
  Li  Li6  1  0.77781100  0.25312000  0.33612200  1
  Li  Li7  1  0.77791700  0.25310000  0.83610300  1
  V  V8  1  0.59506300  0.36648300  0.54458800  1
  V  V9  1  0.40482800  0.63361100  0.95552900  1
  V  V10  1  0.59512400  0.36649800  0.04430900  1
  V  V11  1  0.40480800  0.63339100  0.45568800  1
  P  P12  1  0.13934900  0.38390300  0.11317600  1
  P  P13  1  0.13921700  0.38390000  0.61318600  1
  P  P14  1  0.86065600  0.61608800  0.38680700  1
  P  P15  1  0.86076500  0.61610300  0.88682800  1
  P  P16  1  0.70359300  0.88000000  0.30816300  1
  P  P17  1  0.70367600  0.88003600  0.80818300  1
  P  P18  1  0.29641900  0.12000200  0.19183900  1
  P  P19  1  0.29633300  0.11996700  0.69181300  1
  O  O20  1  0.89141100  0.33869600  0.02984300  1
  O  O21  1  0.89127900  0.33868000  0.52990200  1
  O  O22  1  0.10859400  0.66129300  0.47014300  1
  O  O23  1  0.10870800  0.66133200  0.97010800  1
  O  O24  1  0.28908200  0.40849300  0.02590400  1
  O  O25  1  0.28893500  0.40842300  0.52591300  1
  O  O26  1  0.71092500  0.59150200  0.47408100  1
  O  O27  1  0.71104900  0.59156000  0.97408800  1
  O  O28  1  0.54087400  0.79512300  0.16185900  1
  O  O29  1  0.54087600  0.79519700  0.66190000  1
  O  O30  1  0.45914600  0.20490200  0.33813800  1
  O  O31  1  0.45914500  0.20479700  0.83809300  1
  O  O32  1  0.41357600  0.13127700  0.08801700  1
  O  O33  1  0.41349300  0.13124900  0.58800100  1
  O  O34  1  0.58641700  0.86869200  0.41197100  1
  O  O35  1  0.58651300  0.86876200  0.91198900  1
  O  O36  1  0.13528500  0.94368800  0.18109700  1
  O  O37  1  0.13512000  0.94367700  0.68104500  1
  O  O38  1  0.86473000  0.05631800  0.31890100  1
  O  O39  1  0.86488800  0.05632200  0.81894600  1
  O  O40  1  0.76401700  0.47412800  0.26001000  1
  O  O41  1  0.76409400  0.47407600  0.76008400  1
  O  O42  1  0.23598900  0.52586700  0.23997600  1
  O  O43  1  0.23593600  0.52593700  0.73992800  1
  O  O44  1  0.87983900  0.79027600  0.34530800  1
  O  O45  1  0.87984300  0.79024400  0.84526600  1
  O  O46  1  0.12016400  0.20971700  0.15467200  1
  O  O47  1  0.12017200  0.20976400  0.65474300  1
