# generated using pymatgen
data_ZnFeP2O7
_symmetry_space_group_name_H-M   'P 1'
_cell_length_a   7.32819793
_cell_length_b   10.04332492
_cell_length_c   8.36922440
_cell_angle_alpha   95.34005831
_cell_angle_beta   113.53084227
_cell_angle_gamma   102.75909358
_symmetry_Int_Tables_number   1
_chemical_formula_structural   ZnFeP2O7
_chemical_formula_sum   'Zn4 Fe4 P8 O28'
_cell_volume   539.37217606
_cell_formula_units_Z   4
loop_
 _symmetry_equiv_pos_site_id
 _symmetry_equiv_pos_as_xyz
  1  'x, y, z'
loop_
 _atom_site_type_symbol
 _atom_site_label
 _atom_site_symmetry_multiplicity
 _atom_site_fract_x
 _atom_site_fract_y
 _atom_site_fract_z
 _atom_site_occupancy
  Zn  Zn0  1  0.10818200  0.62605500  0.79713500  1
  Zn  Zn1  1  0.10777300  0.12590900  0.29667500  1
  Zn  Zn2  1  0.89187700  0.87386600  0.70281400  1
  Zn  Zn3  1  0.89228000  0.37417900  0.20340500  1
  Fe  Fe4  1  0.80762100  0.29320200  0.59695700  1
  Fe  Fe5  1  0.19198100  0.20658400  0.90296400  1
  Fe  Fe6  1  0.80782000  0.79293800  0.09688400  1
  Fe  Fe7  1  0.19223100  0.70712600  0.40299500  1
  P  P8  1  0.76288000  0.58480300  0.40175200  1
  P  P9  1  0.76300700  0.08511400  0.90130800  1
  P  P10  1  0.23713500  0.91518600  0.09820000  1
  P  P11  1  0.23695300  0.41488900  0.59874000  1
  P  P12  1  0.68946600  0.98489400  0.34907800  1
  P  P13  1  0.68945600  0.48465600  0.84929800  1
  P  P14  1  0.31053800  0.51512400  0.15095100  1
  P  P15  1  0.31060700  0.01534400  0.65074000  1
  O  O16  1  0.47530100  0.91670500  0.16800800  1
  O  O17  1  0.47528100  0.41670400  0.66813400  1
  O  O18  1  0.52471400  0.58328500  0.33201500  1
  O  O19  1  0.52471200  0.08334500  0.83195900  1
  O  O20  1  0.77838800  0.43372400  0.39101600  1
  O  O21  1  0.77912400  0.93415800  0.89057900  1
  O  O22  1  0.22154700  0.06625200  0.10893400  1
  O  O23  1  0.22089800  0.56586600  0.60946600  1
  O  O24  1  0.32787300  0.59969000  0.01329200  1
  O  O25  1  0.32766600  0.10017400  0.51322300  1
  O  O26  1  0.67216100  0.90035800  0.48677300  1
  O  O27  1  0.67240500  0.39980900  0.98678500  1
  O  O28  1  0.14694200  0.54176200  0.21474700  1
  O  O29  1  0.14670500  0.04145900  0.71439900  1
  O  O30  1  0.85309400  0.95828600  0.28530400  1
  O  O31  1  0.85328200  0.45851700  0.78556800  1
  O  O32  1  0.13612100  0.83113900  0.90515100  1
  O  O33  1  0.13549600  0.33093600  0.40561400  1
  O  O34  1  0.86396500  0.66885400  0.59480900  1
  O  O35  1  0.86458000  0.16911700  0.09441500  1
  O  O36  1  0.14260300  0.83985500  0.21043900  1
  O  O37  1  0.14290500  0.33937700  0.71109100  1
  O  O38  1  0.85738900  0.66012400  0.28949200  1
  O  O39  1  0.85689600  0.16059600  0.78883600  1
  O  O40  1  0.28622400  0.36073500  0.10704500  1
  O  O41  1  0.28702000  0.86107100  0.60662600  1
  O  O42  1  0.71365700  0.13927900  0.39292500  1
  O  O43  1  0.71324200  0.63895100  0.89346200  1
