# generated using pymatgen
data_Ca3Co2O7
_symmetry_space_group_name_H-M   'P 1'
_cell_length_a   10.00815756
_cell_length_b   10.00815756
_cell_length_c   5.30808500
_cell_angle_alpha   90.00000000
_cell_angle_beta   90.00000000
_cell_angle_gamma   149.54018023
_symmetry_Int_Tables_number   1
_chemical_formula_structural   Ca3Co2O7
_chemical_formula_sum   'Ca6 Co4 O14'
_cell_volume   269.52406915
_cell_formula_units_Z   2
loop_
 _symmetry_equiv_pos_site_id
 _symmetry_equiv_pos_as_xyz
  1  'x, y, z'
loop_
 _atom_site_type_symbol
 _atom_site_label
 _atom_site_symmetry_multiplicity
 _atom_site_fract_x
 _atom_site_fract_y
 _atom_site_fract_z
 _atom_site_occupancy
  Ca  Ca0  1  0.24256500  0.24256500  0.29460900  1
  Ca  Ca1  1  0.75743500  0.75743500  0.79460900  1
  Ca  Ca2  1  0.05796000  0.43076500  0.21099700  1
  Ca  Ca3  1  0.94204000  0.56923500  0.71099700  1
  Ca  Ca4  1  0.43076500  0.05796000  0.21099700  1
  Ca  Ca5  1  0.56923500  0.94204000  0.71099700  1
  Co  Co6  1  0.84764300  0.65315400  0.25167600  1
  Co  Co7  1  0.15235700  0.34684600  0.75167600  1
  Co  Co8  1  0.34684600  0.15235700  0.75167600  1
  Co  Co9  1  0.65315400  0.84764300  0.25167600  1
  O  O10  1  0.60278300  0.99265900  0.25717100  1
  O  O11  1  0.39721700  0.00734100  0.75717100  1
  O  O12  1  0.00734100  0.39721700  0.75717100  1
  O  O13  1  0.99265900  0.60278300  0.25717100  1
  O  O14  1  0.42902700  0.65219200  0.96120800  1
  O  O15  1  0.57097300  0.34780800  0.46120800  1
  O  O16  1  0.34780800  0.57097300  0.46120800  1
  O  O17  1  0.65219200  0.42902700  0.96120800  1
  O  O18  1  0.96019200  0.12551700  0.04384900  1
  O  O19  1  0.03980800  0.87448300  0.54384900  1
  O  O20  1  0.67463000  0.67463000  0.23558700  1
  O  O21  1  0.32537000  0.32537000  0.73558700  1
  O  O22  1  0.12551700  0.96019200  0.04384900  1
  O  O23  1  0.87448300  0.03980800  0.54384900  1
