# generated using pymatgen
data_As2O3
_symmetry_space_group_name_H-M   'P 1'
_cell_length_a   13.82279300
_cell_length_b   4.65853100
_cell_length_c   7.04693422
_cell_angle_alpha   53.19428205
_cell_angle_beta   90.00000000
_cell_angle_gamma   90.00000000
_symmetry_Int_Tables_number   1
_chemical_formula_structural   As2O3
_chemical_formula_sum   'As8 O12'
_cell_volume   363.32846881
_cell_formula_units_Z   4
loop_
 _symmetry_equiv_pos_site_id
 _symmetry_equiv_pos_as_xyz
  1  'x, y, z'
loop_
 _atom_site_type_symbol
 _atom_site_label
 _atom_site_symmetry_multiplicity
 _atom_site_fract_x
 _atom_site_fract_y
 _atom_site_fract_z
 _atom_site_occupancy
  As  As0  1  0.84447000  0.62747800  0.87072400  1
  As  As1  1  0.34447000  0.37252200  0.62927600  1
  As  As2  1  0.15553000  0.37252200  0.12927600  1
  As  As3  1  0.65553000  0.62747800  0.37072400  1
  As  As4  1  0.60766100  0.77800000  0.75634200  1
  As  As5  1  0.10766100  0.22200000  0.74365800  1
  As  As6  1  0.39233900  0.22200000  0.24365800  1
  As  As7  1  0.89233900  0.77800000  0.25634200  1
  O  O8  1  0.64735700  0.16841900  0.46465800  1
  O  O9  1  0.14735700  0.83158100  0.03534200  1
  O  O10  1  0.35264300  0.83158100  0.53534200  1
  O  O11  1  0.85264300  0.16841900  0.96465800  1
  O  O12  1  0.88974200  0.49303400  0.15915500  1
  O  O13  1  0.38974200  0.50696600  0.34084500  1
  O  O14  1  0.11025800  0.50696600  0.84084500  1
  O  O15  1  0.61025800  0.49303400  0.65915500  1
  O  O16  1  0.78369400  0.63017300  0.43578400  1
  O  O17  1  0.28369400  0.36982700  0.06421600  1
  O  O18  1  0.21630600  0.36982700  0.56421600  1
  O  O19  1  0.71630600  0.63017300  0.93578400  1
