# generated using pymatgen
data_SmCrS3
_symmetry_space_group_name_H-M   'P 1'
_cell_length_a   3.76185000
_cell_length_b   7.79520000
_cell_length_c   12.90226900
_cell_angle_alpha   90.00000000
_cell_angle_beta   90.00000000
_cell_angle_gamma   90.00000000
_symmetry_Int_Tables_number   1
_chemical_formula_structural   SmCrS3
_chemical_formula_sum   'Sm4 Cr4 S12'
_cell_volume   378.35095025
_cell_formula_units_Z   4
loop_
 _symmetry_equiv_pos_site_id
 _symmetry_equiv_pos_as_xyz
  1  'x, y, z'
loop_
 _atom_site_type_symbol
 _atom_site_label
 _atom_site_symmetry_multiplicity
 _atom_site_fract_x
 _atom_site_fract_y
 _atom_site_fract_z
 _atom_site_occupancy
  Sm  Sm0  1  0.25000000  0.08555900  0.82723500  1
  Sm  Sm1  1  0.75000000  0.91444100  0.17276500  1
  Sm  Sm2  1  0.25000000  0.58555900  0.67276500  1
  Sm  Sm3  1  0.75000000  0.41444100  0.32723500  1
  Cr  Cr4  1  0.25000000  0.33577800  0.05023300  1
  Cr  Cr5  1  0.75000000  0.66422200  0.94976700  1
  Cr  Cr6  1  0.25000000  0.83577800  0.44976700  1
  Cr  Cr7  1  0.75000000  0.16422200  0.55023300  1
  S  S8  1  0.25000000  0.49222200  0.89305200  1
  S  S9  1  0.75000000  0.50777800  0.10694800  1
  S  S10  1  0.25000000  0.99222200  0.60694800  1
  S  S11  1  0.75000000  0.00777800  0.39305200  1
  S  S12  1  0.25000000  0.34284100  0.49223200  1
  S  S13  1  0.75000000  0.65715900  0.50776800  1
  S  S14  1  0.25000000  0.84284100  0.00776800  1
  S  S15  1  0.75000000  0.15715900  0.99223200  1
  S  S16  1  0.75000000  0.30607800  0.71364200  1
  S  S17  1  0.25000000  0.69392200  0.28635800  1
  S  S18  1  0.75000000  0.80607800  0.78635800  1
  S  S19  1  0.25000000  0.19392200  0.21364200  1
