# generated using pymatgen
data_Na14Fe2O9
_symmetry_space_group_name_H-M   'P 1'
_cell_length_a   6.67365398
_cell_length_b   6.71021756
_cell_length_c   9.42728077
_cell_angle_alpha   89.64631771
_cell_angle_beta   89.25563884
_cell_angle_gamma   60.39318359
_symmetry_Int_Tables_number   1
_chemical_formula_structural   Na14Fe2O9
_chemical_formula_sum   'Na14 Fe2 O9'
_cell_volume   367.01833317
_cell_formula_units_Z   1
loop_
 _symmetry_equiv_pos_site_id
 _symmetry_equiv_pos_as_xyz
  1  'x, y, z'
loop_
 _atom_site_type_symbol
 _atom_site_label
 _atom_site_symmetry_multiplicity
 _atom_site_fract_x
 _atom_site_fract_y
 _atom_site_fract_z
 _atom_site_occupancy
  Na  Na0  1  0.00041400  0.99926000  0.25201300  1
  Na  Na1  1  0.99966500  0.99998600  0.74778200  1
  Na  Na2  1  0.36022800  0.68044700  0.90787900  1
  Na  Na3  1  0.96092100  0.36123800  0.90750000  1
  Na  Na4  1  0.67776800  0.96185100  0.90813600  1
  Na  Na5  1  0.31969400  0.04189900  0.09121400  1
  Na  Na6  1  0.03740400  0.64088000  0.09204900  1
  Na  Na7  1  0.63914200  0.32212700  0.09285100  1
  Na  Na8  1  0.37795200  0.93152400  0.59048700  1
  Na  Na9  1  0.68639400  0.37456600  0.59301900  1
  Na  Na10  1  0.06788700  0.30845800  0.40834500  1
  Na  Na11  1  0.93432500  0.68907100  0.59242300  1
  Na  Na12  1  0.31435400  0.62381500  0.40715100  1
  Na  Na13  1  0.62349900  0.06527100  0.40878600  1
  Fe  Fe14  1  0.32887700  0.33332200  0.74072900  1
  Fe  Fe15  1  0.67032400  0.66669000  0.25958700  1
  O  O16  1  0.99894000  0.00141500  0.99979000  1
  O  O17  1  0.66245300  0.66836800  0.04117200  1
  O  O18  1  0.33572400  0.33594200  0.95873700  1
  O  O19  1  0.35977500  0.94697600  0.33429400  1
  O  O20  1  0.69937700  0.35749500  0.33702400  1
  O  O21  1  0.05813500  0.30282200  0.66073900  1
  O  O22  1  0.94442400  0.69337000  0.33942300  1
  O  O23  1  0.30263200  0.64188100  0.66445000  1
  O  O24  1  0.63949000  0.05132700  0.66442100  1
