# generated using pymatgen
data_Sr3Sc2Cu2S2O5
_symmetry_space_group_name_H-M   'P 1'
_cell_length_a   13.39607482
_cell_length_b   13.39607482
_cell_length_c   13.39607482
_cell_angle_alpha   162.41089532
_cell_angle_beta   162.41089532
_cell_angle_gamma   24.97443070
_symmetry_Int_Tables_number   1
_chemical_formula_structural   Sr3Sc2Cu2S2O5
_chemical_formula_sum   'Sr3 Sc2 Cu2 S2 O5'
_cell_volume   219.46460362
_cell_formula_units_Z   1
loop_
 _symmetry_equiv_pos_site_id
 _symmetry_equiv_pos_as_xyz
  1  'x, y, z'
loop_
 _atom_site_type_symbol
 _atom_site_label
 _atom_site_symmetry_multiplicity
 _atom_site_fract_x
 _atom_site_fract_y
 _atom_site_fract_z
 _atom_site_occupancy
  Sr  Sr0  1  0.50000000  0.50000000  0.00000000  1
  Sr  Sr1  1  0.64488100  0.64488100  0.00000000  1
  Sr  Sr2  1  0.35511900  0.35511900  0.00000000  1
  Sc  Sc3  1  0.92370900  0.92370900  0.00000000  1
  Sc  Sc4  1  0.07629100  0.07629100  0.00000000  1
  Cu  Cu5  1  0.75000000  0.25000000  0.50000000  1
  Cu  Cu6  1  0.25000000  0.75000000  0.50000000  1
  S  S7  1  0.80081900  0.80081900  0.00000000  1
  S  S8  1  0.19918100  0.19918100  0.00000000  1
  O  O9  1  0.00000000  0.00000000  0.00000000  1
  O  O10  1  0.91328100  0.41328100  0.50000000  1
  O  O11  1  0.41328100  0.91328100  0.50000000  1
  O  O12  1  0.58671900  0.08671900  0.50000000  1
  O  O13  1  0.08671900  0.58671900  0.50000000  1
