# generated using pymatgen
data_Li2V(CO3)2
_symmetry_space_group_name_H-M   'P 1'
_cell_length_a   4.89951800
_cell_length_b   9.76633317
_cell_length_c   11.57636956
_cell_angle_alpha   74.92607939
_cell_angle_beta   89.99998437
_cell_angle_gamma   90.00023610
_symmetry_Int_Tables_number   1
_chemical_formula_structural   Li2V(CO3)2
_chemical_formula_sum   'Li8 V4 C8 O24'
_cell_volume   534.87282361
_cell_formula_units_Z   4
loop_
 _symmetry_equiv_pos_site_id
 _symmetry_equiv_pos_as_xyz
  1  'x, y, z'
loop_
 _atom_site_type_symbol
 _atom_site_label
 _atom_site_symmetry_multiplicity
 _atom_site_fract_x
 _atom_site_fract_y
 _atom_site_fract_z
 _atom_site_occupancy
  Li  Li0  1  0.53145800  0.51365100  0.42940700  1
  Li  Li1  1  0.53137700  0.01359100  0.92937800  1
  Li  Li2  1  0.03146500  0.48636200  0.57058900  1
  Li  Li3  1  0.03138100  0.98642100  0.07061600  1
  Li  Li4  1  0.96434200  0.60177600  0.05318500  1
  Li  Li5  1  0.96429700  0.10167100  0.55324700  1
  Li  Li6  1  0.46433800  0.39821700  0.94681300  1
  Li  Li7  1  0.46430700  0.89833000  0.44675200  1
  V  V8  1  0.50567900  0.90202000  0.69383100  1
  V  V9  1  0.00566900  0.09798000  0.30615200  1
  V  V10  1  0.50590700  0.40229200  0.19370500  1
  V  V11  1  0.00595900  0.59767400  0.80630800  1
  C  C12  1  0.02578600  0.51496900  0.31103500  1
  C  C13  1  0.02565600  0.01480800  0.81102400  1
  C  C14  1  0.52581800  0.48504000  0.68896200  1
  C  C15  1  0.52567300  0.98519200  0.18896900  1
  C  C16  1  0.46834700  0.67105100  0.93209700  1
  C  C17  1  0.46829300  0.17107900  0.43209500  1
  C  C18  1  0.96832700  0.32894700  0.06790800  1
  C  C19  1  0.96830100  0.82891500  0.56791000  1
  O  O20  1  0.91339800  0.51683600  0.41113500  1
  O  O21  1  0.91337500  0.01669400  0.91116200  1
  O  O22  1  0.41341500  0.48317500  0.58886400  1
  O  O23  1  0.41338100  0.98331600  0.08883500  1
  O  O24  1  0.29057600  0.51689100  0.30055100  1
  O  O25  1  0.29044800  0.01672900  0.80052400  1
  O  O26  1  0.79058900  0.48312100  0.69945400  1
  O  O27  1  0.79044900  0.98327200  0.19947200  1
  O  O28  1  0.87782100  0.51417500  0.21793600  1
  O  O29  1  0.87764100  0.01402800  0.71799500  1
  O  O30  1  0.37782200  0.48582800  0.78206400  1
  O  O31  1  0.37764100  0.98596500  0.28200800  1
  O  O32  1  0.56623100  0.57712000  0.02332300  1
  O  O33  1  0.56617000  0.07712500  0.52324000  1
  O  O34  1  0.06622900  0.42287800  0.97668300  1
  O  O35  1  0.06617500  0.92286700  0.47676000  1
  O  O36  1  0.13333500  0.27206100  0.15593800  1
  O  O37  1  0.13320200  0.77194400  0.65595800  1
  O  O38  1  0.63334900  0.72793600  0.84406500  1
  O  O39  1  0.63320900  0.22805700  0.34404300  1
  O  O40  1  0.21267900  0.70527600  0.92692200  1
  O  O41  1  0.21268900  0.20533600  0.42695300  1
  O  O42  1  0.71266800  0.29473100  0.07308500  1
  O  O43  1  0.71268900  0.79466100  0.57304800  1
