data_image0
_chemical_formula_structural       Ho4Ni4
_chemical_formula_sum              "Ho4 Ni4"
_cell_length_a       7.01487
_cell_length_b       4.13432
_cell_length_c       5.36014
_cell_angle_alpha    90
_cell_angle_beta     90
_cell_angle_gamma    90

_space_group_name_H-M_alt    "P 1"
_space_group_IT_number       1

loop_
  _space_group_symop_operation_xyz
  'x, y, z'

loop_
  _atom_site_type_symbol
  _atom_site_label
  _atom_site_symmetry_multiplicity
  _atom_site_fract_x
  _atom_site_fract_y
  _atom_site_fract_z
  _atom_site_occupancy
  Ho  Ho1       1.0  0.17900  0.25000  0.12900  1.0000
  Ho  Ho2       1.0  0.67900  0.25000  0.37100  1.0000
  Ho  Ho3       1.0  0.32100  0.75000  0.62900  1.0000
  Ho  Ho4       1.0  0.82100  0.75000  0.87100  1.0000
  Ni  Ni1       1.0  0.46400  0.75000  0.12700  1.0000
  Ni  Ni2       1.0  0.96400  0.75000  0.37300  1.0000
  Ni  Ni3       1.0  0.03560  0.25000  0.62700  1.0000
  Ni  Ni4       1.0  0.53600  0.25000  0.87300  1.0000
