# generated using pymatgen
data_KMnP3HO10
_symmetry_space_group_name_H-M   'P 1'
_cell_length_a   7.30206638
_cell_length_b   12.82010283
_cell_length_c   9.88173591
_cell_angle_alpha   76.08693538
_cell_angle_beta   89.06607768
_cell_angle_gamma   99.72201725
_symmetry_Int_Tables_number   1
_chemical_formula_structural   KMnP3HO10
_chemical_formula_sum   'K4 Mn4 P12 H4 O40'
_cell_volume   883.45940610
_cell_formula_units_Z   4
loop_
 _symmetry_equiv_pos_site_id
 _symmetry_equiv_pos_as_xyz
  1  'x, y, z'
loop_
 _atom_site_type_symbol
 _atom_site_label
 _atom_site_symmetry_multiplicity
 _atom_site_fract_x
 _atom_site_fract_y
 _atom_site_fract_z
 _atom_site_occupancy
  K  K0  1  0.82706564  0.40326340  0.85487839  1
  K  K1  1  0.32659729  0.90251596  0.35529244  1
  K  K2  1  0.17299925  0.59765448  0.14321208  1
  K  K3  1  0.67255656  0.09724899  0.64379238  1
  Mn  Mn4  1  0.75049654  0.74962351  0.25102119  1
  Mn  Mn5  1  0.74903038  0.25036255  0.24939575  1
  Mn  Mn6  1  0.25059555  0.24958884  0.75107110  1
  Mn  Mn7  1  0.24917882  0.75061132  0.74933271  1
  P  P8  1  0.42230024  0.16486788  0.04874934  1
  P  P9  1  0.92243310  0.66480205  0.54879509  1
  P  P10  1  0.57748823  0.83361360  0.95285065  1
  P  P11  1  0.07793514  0.33352655  0.45266195  1
  P  P12  1  0.66844994  0.50511047  0.19852332  1
  P  P13  1  0.16820113  0.00511599  0.69864679  1
  P  P14  1  0.33064428  0.49538436  0.80137871  1
  P  P15  1  0.83050912  0.99532931  0.30141212  1
  P  P16  1  0.98538214  0.83906446  0.94365495  1
  P  P17  1  0.48570789  0.33909546  0.44358290  1
  P  P18  1  0.01474097  0.16153307  0.05656269  1
  P  P19  1  0.51492407  0.66159156  0.55663064  1
  H  H20  1  0.49961370  0.49990853  0.99719303  1
  H  H21  1  0.99950111  0.99991367  0.49713955  1
  H  H22  1  0.50291440  0.99666386  0.99692257  1
  H  H23  1  0.00401523  0.49607956  0.49586258  1
  O  O24  1  0.21810411  0.16920994  0.11458013  1
  O  O25  1  0.71824363  0.66928698  0.61468180  1
  O  O26  1  0.78089085  0.83193618  0.88558673  1
  O  O27  1  0.28122125  0.33181572  0.38541241  1
  O  O28  1  0.49208595  0.51342539  0.11744950  1
  O  O29  1  0.99198256  0.01342466  0.61741776  1
  O  O30  1  0.50750667  0.48722080  0.88344656  1
  O  O31  1  0.00746013  0.98722552  0.38342903  1
  O  O32  1  0.43610465  0.22076879  0.89201644  1
  O  O33  1  0.93599251  0.72089944  0.39204808  1
  O  O34  1  0.56438769  0.77923823  0.10934589  1
  O  O35  1  0.06444733  0.27935604  0.60917091  1
  O  O36  1  0.59334431  0.45643435  0.36315099  1
  O  O37  1  0.09307569  0.95641249  0.86316138  1
  O  O38  1  0.40778831  0.54389048  0.63789730  1
  O  O39  1  0.90759738  0.04388304  0.13786529  1
  O  O40  1  0.55309611  0.23568465  0.12277479  1
  O  O41  1  0.05323696  0.73583589  0.62263507  1
  O  O42  1  0.44549012  0.76503871  0.87775830  1
  O  O43  1  0.94567253  0.26518333  0.37763494  1
  O  O44  1  0.78724836  0.61644701  0.19758029  1
  O  O45  1  0.28715126  0.11643064  0.69766405  1
  O  O46  1  0.21412133  0.38350542  0.80321970  1
  O  O47  1  0.71375145  0.88354049  0.30325921  1
  O  O48  1  0.78899975  0.42979408  0.16002571  1
  O  O49  1  0.28885360  0.92981861  0.66024321  1
  O  O50  1  0.21080134  0.57055843  0.84053024  1
  O  O51  1  0.71088228  0.07061614  0.34056197  1
  O  O52  1  0.98157293  0.83145348  0.09720218  1
  O  O53  1  0.48171883  0.33141058  0.59716427  1
  O  O54  1  0.01793150  0.16851220  0.90307597  1
  O  O55  1  0.51797244  0.66852817  0.40318482  1
  O  O56  1  0.93972188  0.54452284  0.58242917  1
  O  O57  1  0.43950820  0.04446466  0.08254877  1
  O  O58  1  0.06083651  0.45539135  0.41801135  1
  O  O59  1  0.56013571  0.95531729  0.91853046  1
  O  O60  1  0.92827340  0.24971945  0.10038585  1
  O  O61  1  0.42831415  0.74975921  0.60044812  1
  O  O62  1  0.07054103  0.75080779  0.89897543  1
  O  O63  1  0.57065462  0.25076211  0.39893304  1
