# generated using pymatgen
data_CaLaMnCrO6
_symmetry_space_group_name_H-M   'P 1'
_cell_length_a   5.45518929
_cell_length_b   5.48937400
_cell_length_c   7.71655054
_cell_angle_alpha   89.99964443
_cell_angle_beta   90.10863337
_cell_angle_gamma   89.99991630
_symmetry_Int_Tables_number   1
_chemical_formula_structural   CaLaMnCrO6
_chemical_formula_sum   'Ca2 La2 Mn2 Cr2 O12'
_cell_volume   231.07612165
_cell_formula_units_Z   2
loop_
 _symmetry_equiv_pos_site_id
 _symmetry_equiv_pos_as_xyz
  1  'x, y, z'
loop_
 _atom_site_type_symbol
 _atom_site_label
 _atom_site_symmetry_multiplicity
 _atom_site_fract_x
 _atom_site_fract_y
 _atom_site_fract_z
 _atom_site_occupancy
  Ca  Ca0  1  0.49067800  0.45863100  0.74999500  1
  Ca  Ca1  1  0.99067800  0.04137600  0.25000300  1
  La  La2  1  0.00632800  0.96936700  0.75005800  1
  La  La3  1  0.50632700  0.53062600  0.25006300  1
  Mn  Mn4  1  0.50034400  0.99999800  0.00056400  1
  Mn  Mn5  1  0.00034400  0.49999800  0.50056800  1
  Cr  Cr6  1  0.50024700  0.99973800  0.49946700  1
  Cr  Cr7  1  0.00024300  0.50025500  0.99947000  1
  O  O8  1  0.07037500  0.48137800  0.25543600  1
  O  O9  1  0.57037300  0.01862800  0.75543500  1
  O  O10  1  0.22294400  0.21266100  0.96253900  1
  O  O11  1  0.72294200  0.28734100  0.46254100  1
  O  O12  1  0.21143400  0.22190900  0.53822500  1
  O  O13  1  0.71143700  0.27809100  0.03822500  1
  O  O14  1  0.29474700  0.71777700  0.95801400  1
  O  O15  1  0.79475000  0.78222400  0.45801400  1
  O  O16  1  0.28254000  0.70725400  0.54138000  1
  O  O17  1  0.78253800  0.79274500  0.04138000  1
  O  O18  1  0.42036400  0.98569600  0.24431200  1
  O  O19  1  0.92036500  0.51430700  0.74431300  1
