# generated using pymatgen
data_Tb6O11
_symmetry_space_group_name_H-M   'P 1'
_cell_length_a   6.71152700
_cell_length_b   12.01736766
_cell_length_c   12.77619211
_cell_angle_alpha   74.23822602
_cell_angle_beta   81.46343043
_cell_angle_gamma   79.98354398
_symmetry_Int_Tables_number   1
_chemical_formula_structural   Tb6O11
_chemical_formula_sum   'Tb24 O44'
_cell_volume   971.01740587
_cell_formula_units_Z   4
loop_
 _symmetry_equiv_pos_site_id
 _symmetry_equiv_pos_as_xyz
  1  'x, y, z'
loop_
 _atom_site_type_symbol
 _atom_site_label
 _atom_site_symmetry_multiplicity
 _atom_site_fract_x
 _atom_site_fract_y
 _atom_site_fract_z
 _atom_site_occupancy
  Tb  Tb0  1  0.72660700  0.07058900  0.47891500  1
  Tb  Tb1  1  0.27339300  0.92941100  0.52108500  1
  Tb  Tb2  1  0.19412500  0.25156500  0.46611200  1
  Tb  Tb3  1  0.80587500  0.74843500  0.53388800  1
  Tb  Tb4  1  0.65988200  0.41137200  0.40451200  1
  Tb  Tb5  1  0.34011800  0.58862800  0.59548800  1
  Tb  Tb6  1  0.10472000  0.57927000  0.34643700  1
  Tb  Tb7  1  0.89528000  0.42073000  0.65356300  1
  Tb  Tb8  1  0.56984600  0.72918900  0.29998200  1
  Tb  Tb9  1  0.43015400  0.27081100  0.70001800  1
  Tb  Tb10  1  0.05611200  0.90859300  0.27698700  1
  Tb  Tb11  1  0.94388800  0.09140700  0.72301300  1
  Tb  Tb12  1  0.22673500  0.08052400  0.00601800  1
  Tb  Tb13  1  0.77326500  0.91947600  0.99398200  1
  Tb  Tb14  1  0.65748200  0.24287000  0.95970500  1
  Tb  Tb15  1  0.34251800  0.75713000  0.04029500  1
  Tb  Tb16  1  0.12876000  0.39718100  0.91114300  1
  Tb  Tb17  1  0.87124000  0.60281900  0.08885700  1
  Tb  Tb18  1  0.58174300  0.56489300  0.85872200  1
  Tb  Tb19  1  0.41825700  0.43510700  0.14127800  1
  Tb  Tb20  1  0.08735600  0.76451200  0.80311800  1
  Tb  Tb21  1  0.91264400  0.23548800  0.19688200  1
  Tb  Tb22  1  0.51031500  0.92060000  0.76165000  1
  Tb  Tb23  1  0.48968500  0.07940000  0.23835000  1
  O  O24  1  0.56939300  0.06387100  0.06169700  1
  O  O25  1  0.43060700  0.93612900  0.93830300  1
  O  O26  1  0.01881400  0.09353100  0.54001400  1
  O  O27  1  0.98118600  0.90646900  0.45998600  1
  O  O28  1  0.74233900  0.42214100  0.21081300  1
  O  O29  1  0.25766100  0.57785900  0.78918700  1
  O  O30  1  0.40994800  0.74700500  0.84761500  1
  O  O31  1  0.59005200  0.25299500  0.15238500  1
  O  O32  1  0.08784500  0.75490800  0.62334700  1
  O  O33  1  0.91215500  0.24509200  0.37665300  1
  O  O34  1  0.81489800  0.40418500  0.83930900  1
  O  O35  1  0.18510200  0.59581500  0.16069100  1
  O  O36  1  0.82041500  0.90934400  0.81348400  1
  O  O37  1  0.17958500  0.09065600  0.18651600  1
  O  O38  1  0.59611600  0.90316500  0.58471900  1
  O  O39  1  0.40388400  0.09683500  0.41528100  1
  O  O40  1  0.62096600  0.09895400  0.67238600  1
  O  O41  1  0.91252500  0.59151900  0.89601000  1
  O  O42  1  0.74198600  0.25541300  0.77199100  1
  O  O43  1  0.25801400  0.74458700  0.22800900  1
  O  O44  1  0.41764600  0.57776900  0.40987300  1
  O  O45  1  0.58235400  0.42223100  0.59012700  1
  O  O46  1  0.95900600  0.07708700  0.90549300  1
  O  O47  1  0.04099400  0.92291300  0.09450700  1
  O  O48  1  0.35123300  0.23184100  0.88473800  1
  O  O49  1  0.64876700  0.76815900  0.11526200  1
  O  O50  1  0.13174500  0.24732500  0.64805400  1
  O  O51  1  0.86825500  0.75267500  0.35194600  1
  O  O52  1  0.03272400  0.57881400  0.53340600  1
  O  O53  1  0.96727600  0.42118600  0.46659400  1
  O  O54  1  0.80014800  0.56720600  0.27878100  1
  O  O55  1  0.19985200  0.43279400  0.72121900  1
  O  O56  1  0.56649400  0.58834200  0.03341500  1
  O  O57  1  0.43350600  0.41165800  0.96658500  1
  O  O58  1  0.20252700  0.94421900  0.70268600  1
  O  O59  1  0.79747300  0.05578100  0.29731400  1
  O  O60  1  0.52325900  0.24602900  0.51553200  1
  O  O61  1  0.47674100  0.75397100  0.48446800  1
  O  O62  1  0.97111500  0.24025800  0.01614400  1
  O  O63  1  0.02888500  0.75974200  0.98385600  1
  O  O64  1  0.64697100  0.60030500  0.66661400  1
  O  O65  1  0.35302900  0.39969500  0.33338600  1
  O  O66  1  0.37903400  0.90104600  0.32761400  1
  O  O67  1  0.08747500  0.40848100  0.10399000  1
