# generated using pymatgen
data_Na9Fe2O7
_symmetry_space_group_name_H-M   'P 1'
_cell_length_a   9.59959900
_cell_length_b   10.02209800
_cell_length_c   10.40760700
_cell_angle_alpha   90.00000000
_cell_angle_beta   90.00000000
_cell_angle_gamma   90.00000000
_symmetry_Int_Tables_number   1
_chemical_formula_structural   Na9Fe2O7
_chemical_formula_sum   'Na36 Fe8 O28'
_cell_volume   1001.29632335
_cell_formula_units_Z   4
loop_
 _symmetry_equiv_pos_site_id
 _symmetry_equiv_pos_as_xyz
  1  'x, y, z'
loop_
 _atom_site_type_symbol
 _atom_site_label
 _atom_site_symmetry_multiplicity
 _atom_site_fract_x
 _atom_site_fract_y
 _atom_site_fract_z
 _atom_site_occupancy
  Na  Na0  1  0.57068200  0.83346100  0.25210900  1
  Na  Na1  1  0.42931800  0.16653900  0.75210900  1
  Na  Na2  1  0.92931800  0.83346100  0.75210900  1
  Na  Na3  1  0.07068200  0.16653900  0.25210900  1
  Na  Na4  1  0.92473900  0.45345200  0.46893900  1
  Na  Na5  1  0.07526100  0.54654800  0.96893900  1
  Na  Na6  1  0.57526100  0.45345200  0.96893900  1
  Na  Na7  1  0.42473900  0.54654800  0.46893900  1
  Na  Na8  1  0.01408200  0.24140200  0.98738400  1
  Na  Na9  1  0.98591800  0.75859800  0.48738400  1
  Na  Na10  1  0.48591800  0.24140200  0.48738400  1
  Na  Na11  1  0.51408200  0.75859800  0.98738400  1
  Na  Na12  1  0.51524800  0.34239300  0.23721400  1
  Na  Na13  1  0.48475200  0.65760700  0.73721400  1
  Na  Na14  1  0.98475200  0.34239300  0.73721400  1
  Na  Na15  1  0.01524800  0.65760700  0.23721400  1
  Na  Na16  1  0.71108200  0.72493300  0.55575400  1
  Na  Na17  1  0.28891800  0.27506700  0.05575400  1
  Na  Na18  1  0.78891800  0.72493300  0.05575400  1
  Na  Na19  1  0.21108200  0.27506700  0.55575400  1
  Na  Na20  1  0.41148300  0.01527200  0.02487100  1
  Na  Na21  1  0.58851700  0.98472800  0.52487100  1
  Na  Na22  1  0.08851700  0.01527200  0.52487100  1
  Na  Na23  1  0.91148300  0.98472800  0.02487100  1
  Na  Na24  1  0.77688800  0.21656500  0.38793300  1
  Na  Na25  1  0.22311200  0.78343500  0.88793300  1
  Na  Na26  1  0.72311200  0.21656500  0.88793300  1
  Na  Na27  1  0.27688800  0.78343500  0.38793300  1
  Na  Na28  1  0.84772800  0.94151000  0.32605000  1
  Na  Na29  1  0.15227200  0.05849000  0.82605000  1
  Na  Na30  1  0.65227200  0.94151000  0.82605000  1
  Na  Na31  1  0.34772800  0.05849000  0.32605000  1
  Na  Na32  1  0.84285000  0.39192600  0.13226900  1
  Na  Na33  1  0.15715000  0.60807400  0.63226900  1
  Na  Na34  1  0.65715000  0.39192600  0.63226900  1
  Na  Na35  1  0.34285000  0.60807400  0.13226900  1
  Fe  Fe36  1  0.68874700  0.56828600  0.30367400  1
  Fe  Fe37  1  0.31125300  0.43171400  0.80367400  1
  Fe  Fe38  1  0.81125300  0.56828600  0.80367400  1
  Fe  Fe39  1  0.18874700  0.43171400  0.30367400  1
  Fe  Fe40  1  0.65985900  0.10148300  0.14742000  1
  Fe  Fe41  1  0.34014100  0.89851700  0.64742000  1
  Fe  Fe42  1  0.84014100  0.10148300  0.64742000  1
  Fe  Fe43  1  0.15985900  0.89851700  0.14742000  1
  O  O44  1  0.80239500  0.71352500  0.33294400  1
  O  O45  1  0.19760500  0.28647500  0.83294400  1
  O  O46  1  0.69760500  0.71352500  0.83294400  1
  O  O47  1  0.30239500  0.28647500  0.33294400  1
  O  O48  1  0.84601300  0.16495700  0.16800900  1
  O  O49  1  0.15398700  0.83504300  0.66800900  1
  O  O50  1  0.65398700  0.16495700  0.66800900  1
  O  O51  1  0.34601300  0.83504300  0.16800900  1
  O  O52  1  0.54330900  0.22213800  0.04764700  1
  O  O53  1  0.45669100  0.77786200  0.54764700  1
  O  O54  1  0.95669100  0.22213800  0.54764700  1
  O  O55  1  0.04330900  0.77786200  0.04764700  1
  O  O56  1  0.65785400  0.41995700  0.40908000  1
  O  O57  1  0.34214600  0.58004300  0.90908000  1
  O  O58  1  0.84214600  0.41995700  0.90908000  1
  O  O59  1  0.15785400  0.58004300  0.40908000  1
  O  O60  1  0.59364300  0.07388300  0.31939000  1
  O  O61  1  0.40635700  0.92611700  0.81939000  1
  O  O62  1  0.90635700  0.07388300  0.81939000  1
  O  O63  1  0.09364300  0.92611700  0.31939000  1
  O  O64  1  0.58814000  0.57997100  0.15015500  1
  O  O65  1  0.41186000  0.42002900  0.65015500  1
  O  O66  1  0.91186000  0.57997100  0.65015500  1
  O  O67  1  0.08814000  0.42002900  0.15015500  1
  O  O68  1  0.66826300  0.93341800  0.06169000  1
  O  O69  1  0.33173700  0.06658200  0.56169000  1
  O  O70  1  0.83173700  0.93341800  0.56169000  1
  O  O71  1  0.16826300  0.06658200  0.06169000  1
