# generated using pymatgen
data_Na5Fe2P2(CO7)2
_symmetry_space_group_name_H-M   'P 1'
_cell_length_a   5.26777702
_cell_length_b   11.08762551
_cell_length_c   11.29212688
_cell_angle_alpha   106.45497124
_cell_angle_beta   89.36513096
_cell_angle_gamma   90.55709917
_symmetry_Int_Tables_number   1
_chemical_formula_structural   Na5Fe2P2(CO7)2
_chemical_formula_sum   'Na10 Fe4 P4 C4 O28'
_cell_volume   632.47403783
_cell_formula_units_Z   2
loop_
 _symmetry_equiv_pos_site_id
 _symmetry_equiv_pos_as_xyz
  1  'x, y, z'
loop_
 _atom_site_type_symbol
 _atom_site_label
 _atom_site_symmetry_multiplicity
 _atom_site_fract_x
 _atom_site_fract_y
 _atom_site_fract_z
 _atom_site_occupancy
  Na  Na0  1  0.77006200  0.06433400  0.15416200  1
  Na  Na1  1  0.76873100  0.57480700  0.66246400  1
  Na  Na2  1  0.24342600  0.10886500  0.37523100  1
  Na  Na3  1  0.25067100  0.62127800  0.88030300  1
  Na  Na4  1  0.74862500  0.87515500  0.61883500  1
  Na  Na5  1  0.74921300  0.38847200  0.12144900  1
  Na  Na6  1  0.74958300  0.63028600  0.36113700  1
  Na  Na7  1  0.74815400  0.12592300  0.85960200  1
  Na  Na8  1  0.24723900  0.91037000  0.83896400  1
  Na  Na9  1  0.24301100  0.42341400  0.35302000  1
  Fe  Fe10  1  0.78406900  0.71064500  0.05911600  1
  Fe  Fe11  1  0.22399100  0.79839600  0.44552800  1
  Fe  Fe12  1  0.78130300  0.20426700  0.55280300  1
  Fe  Fe13  1  0.21956400  0.30324100  0.94737800  1
  P  P14  1  0.70486700  0.92091400  0.34211400  1
  P  P15  1  0.71595900  0.41445800  0.83340500  1
  P  P16  1  0.28122600  0.08616000  0.66636600  1
  P  P17  1  0.28363800  0.57983600  0.16178900  1
  C  C18  1  0.72888600  0.33867600  0.40499400  1
  C  C19  1  0.73090100  0.84295500  0.90110000  1
  C  C20  1  0.27560200  0.65639100  0.59441700  1
  C  C21  1  0.27527400  0.16561600  0.09216000  1
  O  O22  1  0.31057500  0.11162500  0.17485300  1
  O  O23  1  0.29838700  0.59753200  0.67546400  1
  O  O24  1  0.95208900  0.31117400  0.43936900  1
  O  O25  1  0.95360700  0.81515800  0.93350800  1
  O  O26  1  0.53405100  0.29347800  0.45101500  1
  O  O27  1  0.53162700  0.79906900  0.94330600  1
  O  O28  1  0.76716500  0.87949800  0.20341100  1
  O  O29  1  0.76250400  0.36117100  0.69269600  1
  O  O30  1  0.78511900  0.06439700  0.38928800  1
  O  O31  1  0.78803500  0.55399000  0.87171400  1
  O  O32  1  0.12643900  0.15521700  0.59028100  1
  O  O33  1  0.14472700  0.65157000  0.08494800  1
  O  O34  1  0.41520600  0.91335900  0.36721100  1
  O  O35  1  0.42944800  0.39895000  0.86533500  1
  O  O36  1  0.57277300  0.10631800  0.64510200  1
  O  O37  1  0.57694100  0.59459000  0.15021900  1
  O  O38  1  0.84532800  0.84281400  0.41440500  1
  O  O39  1  0.86683400  0.33785100  0.90678100  1
  O  O40  1  0.22050600  0.94443200  0.63293500  1
  O  O41  1  0.21623400  0.43391400  0.11441900  1
  O  O42  1  0.22290200  0.13868900  0.80801900  1
  O  O43  1  0.20284600  0.61771000  0.30005700  1
  O  O44  1  0.47523800  0.69289800  0.54213900  1
  O  O45  1  0.46670500  0.20649300  0.03632000  1
  O  O46  1  0.05132000  0.68315600  0.55831900  1
  O  O47  1  0.04794700  0.18651300  0.05490400  1
  O  O48  1  0.70848500  0.91652600  0.82940900  1
  O  O49  1  0.70381100  0.40846700  0.33229300  1
