# generated using pymatgen
data_Sr5Mn(Fe2O5)2
_symmetry_space_group_name_H-M   'P 1'
_cell_length_a   3.48649400
_cell_length_b   20.67735352
_cell_length_c   8.13244900
_cell_angle_alpha   78.66005020
_cell_angle_beta   90.00081714
_cell_angle_gamma   89.99986137
_symmetry_Int_Tables_number   1
_chemical_formula_structural   Sr5Mn(Fe2O5)2
_chemical_formula_sum   'Sr10 Mn2 Fe8 O20'
_cell_volume   574.83471300
_cell_formula_units_Z   2
loop_
 _symmetry_equiv_pos_site_id
 _symmetry_equiv_pos_as_xyz
  1  'x, y, z'
loop_
 _atom_site_type_symbol
 _atom_site_label
 _atom_site_symmetry_multiplicity
 _atom_site_fract_x
 _atom_site_fract_y
 _atom_site_fract_z
 _atom_site_occupancy
  Sr  Sr0  1  0.49997600  0.50001100  0.00002000  1
  Sr  Sr1  1  0.50000100  0.50001100  0.50002200  1
  Sr  Sr2  1  0.49999900  0.09962000  0.20040800  1
  Sr  Sr3  1  0.50000900  0.09958900  0.69995400  1
  Sr  Sr4  1  0.49998600  0.90039100  0.79972500  1
  Sr  Sr5  1  0.49999500  0.90036500  0.29986500  1
  Sr  Sr6  1  0.49995900  0.30019500  0.10074200  1
  Sr  Sr7  1  0.49999500  0.30019200  0.59910400  1
  Sr  Sr8  1  0.49999000  0.69982300  0.89929400  1
  Sr  Sr9  1  0.49999800  0.69982700  0.40093400  1
  Mn  Mn10  1  0.00011900  0.99990000  0.49988600  1
  Mn  Mn11  1  0.00024400  0.00003400  0.99996000  1
  Fe  Fe12  1  0.99996900  0.20010000  0.39995700  1
  Fe  Fe13  1  0.99997000  0.79985400  0.60008700  1
  Fe  Fe14  1  0.99995900  0.40010100  0.79997100  1
  Fe  Fe15  1  0.00001000  0.59992300  0.20006700  1
  Fe  Fe16  1  0.99998400  0.20079200  0.89962200  1
  Fe  Fe17  1  0.99998400  0.79926300  0.10038700  1
  Fe  Fe18  1  0.99999700  0.40008300  0.29998300  1
  Fe  Fe19  1  0.99998500  0.59993600  0.70006100  1
  O  O20  1  0.00005100  0.49995300  0.25004900  1
  O  O21  1  0.00002000  0.50006900  0.74999100  1
  O  O22  1  0.00004000  0.99995600  0.26341100  1
  O  O23  1  0.00007200  0.99996100  0.73639100  1
  O  O24  1  0.99992100  0.09785700  0.45100400  1
  O  O25  1  0.00007100  0.10222400  0.94891800  1
  O  O26  1  0.99989200  0.89783100  0.05110100  1
  O  O27  1  0.99997400  0.90200200  0.54893000  1
  O  O28  1  0.00006000  0.30048100  0.34978300  1
  O  O29  1  0.99992700  0.30003800  0.85000200  1
  O  O30  1  0.00011200  0.69998500  0.15003700  1
  O  O31  1  0.00000400  0.69953300  0.65024700  1
  O  O32  1  0.99991900  0.20037500  0.15296000  1
  O  O33  1  0.00002300  0.20037400  0.64668200  1
  O  O34  1  0.99994100  0.79963700  0.84702100  1
  O  O35  1  0.00000200  0.79965600  0.35335000  1
  O  O36  1  0.99986400  0.40009200  0.04967200  1
  O  O37  1  0.00005900  0.40009300  0.55028500  1
  O  O38  1  0.99994700  0.59993700  0.95035300  1
  O  O39  1  0.99997200  0.59993600  0.44976300  1
