# generated using pymatgen
data_Li4FeTe(WO6)2
_symmetry_space_group_name_H-M   'P 1'
_cell_length_a   7.55464703
_cell_length_b   7.58505503
_cell_length_c   7.57847816
_cell_angle_alpha   86.48881401
_cell_angle_beta   93.30387740
_cell_angle_gamma   93.54587736
_symmetry_Int_Tables_number   1
_chemical_formula_structural   Li4FeTe(WO6)2
_chemical_formula_sum   'Li8 Fe2 Te2 W4 O24'
_cell_volume   431.98775714
_cell_formula_units_Z   2
loop_
 _symmetry_equiv_pos_site_id
 _symmetry_equiv_pos_as_xyz
  1  'x, y, z'
loop_
 _atom_site_type_symbol
 _atom_site_label
 _atom_site_symmetry_multiplicity
 _atom_site_fract_x
 _atom_site_fract_y
 _atom_site_fract_z
 _atom_site_occupancy
  Li  Li0  1  0.19852900  0.79236000  0.26729300  1
  Li  Li1  1  0.69902600  0.29586800  0.27134600  1
  Li  Li2  1  0.71959500  0.78313400  0.81024600  1
  Li  Li3  1  0.22754700  0.27717400  0.80008300  1
  Li  Li4  1  0.70464500  0.29809100  0.81126500  1
  Li  Li5  1  0.20438200  0.80162500  0.80496300  1
  Li  Li6  1  0.28220500  0.21854500  0.20323500  1
  Li  Li7  1  0.74848200  0.74144900  0.23510500  1
  Fe  Fe8  1  0.49084900  0.50820600  0.99988700  1
  Fe  Fe9  1  0.99217400  0.00512400  0.00249500  1
  Te  Te10  1  0.49498000  0.01219100  0.51802900  1
  Te  Te11  1  0.00036200  0.50204900  0.50495400  1
  W  W12  1  0.99758000  0.01209800  0.49869100  1
  W  W13  1  0.49870400  0.50725300  0.50440000  1
  W  W14  1  0.49493000  0.99457900  0.00754600  1
  W  W15  1  0.99759800  0.49677800  0.00478800  1
  O  O16  1  0.94811200  0.74545000  0.42615000  1
  O  O17  1  0.44411000  0.25365200  0.42495100  1
  O  O18  1  0.93935300  0.93837900  0.73175800  1
  O  O19  1  0.44624800  0.42419100  0.73702300  1
  O  O20  1  0.74275100  0.93144800  0.05027600  1
  O  O21  1  0.24029100  0.43346100  0.04617800  1
  O  O22  1  0.77809200  0.08122500  0.41629600  1
  O  O23  1  0.24920500  0.56969000  0.43921000  1
  O  O24  1  0.44814300  0.75644200  0.92040000  1
  O  O25  1  0.94160700  0.25695500  0.94247000  1
  O  O26  1  0.57117300  0.07482800  0.75822800  1
  O  O27  1  0.06664000  0.56094300  0.74590300  1
  O  O28  1  0.42688300  0.92189500  0.23369500  1
  O  O29  1  0.93986100  0.43982700  0.25693000  1
  O  O30  1  0.54909400  0.23934500  0.05914100  1
  O  O31  1  0.05847500  0.73903600  0.04393400  1
  O  O32  1  0.24520600  0.94473100  0.57540700  1
  O  O33  1  0.75784700  0.41924900  0.55587800  1
  O  O34  1  0.25146300  0.05067000  0.93591500  1
  O  O35  1  0.75501100  0.54625700  0.94369000  1
  O  O36  1  0.07934600  0.03912700  0.25862700  1
  O  O37  1  0.55919800  0.55015700  0.25874000  1
  O  O38  1  0.07595500  0.25843300  0.56301000  1
  O  O39  1  0.59195000  0.72047800  0.57425900  1
