# generated using pymatgen
data_Li4TiCo5O12
_symmetry_space_group_name_H-M   'P 1'
_cell_length_a   4.97557646
_cell_length_b   20.04366408
_cell_length_c   4.94926597
_cell_angle_alpha   94.37537800
_cell_angle_beta   119.69149226
_cell_angle_gamma   93.75498092
_symmetry_Int_Tables_number   1
_chemical_formula_structural   Li4TiCo5O12
_chemical_formula_sum   'Li8 Ti2 Co10 O24'
_cell_volume   424.47953164
_cell_formula_units_Z   2
loop_
 _symmetry_equiv_pos_site_id
 _symmetry_equiv_pos_as_xyz
  1  'x, y, z'
loop_
 _atom_site_type_symbol
 _atom_site_label
 _atom_site_symmetry_multiplicity
 _atom_site_fract_x
 _atom_site_fract_y
 _atom_site_fract_z
 _atom_site_occupancy
  Li  Li0  1  0.58199700  0.37303300  0.23858100  1
  Li  Li1  1  0.57229000  0.87417800  0.22903700  1
  Li  Li2  1  0.76316900  0.12726800  0.41630300  1
  Li  Li3  1  0.77251400  0.62605300  0.43472100  1
  Li  Li4  1  0.22285100  0.36975300  0.57957100  1
  Li  Li5  1  0.22446600  0.87092800  0.57632600  1
  Li  Li6  1  0.41817500  0.12979000  0.76670300  1
  Li  Li7  1  0.41775000  0.62868200  0.77478100  1
  Ti  Ti8  1  0.99461700  0.00047400  0.00372800  1
  Ti  Ti9  1  0.99207600  0.49963200  0.00613800  1
  Co  Co10  1  0.83407900  0.74992200  0.16863500  1
  Co  Co11  1  0.15822700  0.24982600  0.83730900  1
  Co  Co12  1  0.16199100  0.75005300  0.83441500  1
  Co  Co13  1  0.67858000  0.00055300  0.32654900  1
  Co  Co14  1  0.67610000  0.49972900  0.32776900  1
  Co  Co15  1  0.49119100  0.24987000  0.50282600  1
  Co  Co16  1  0.49435100  0.75012800  0.50346300  1
  Co  Co17  1  0.82354800  0.24985200  0.16926000  1
  Co  Co18  1  0.34475400  0.00036500  0.66040700  1
  Co  Co19  1  0.34289500  0.49964700  0.66234900  1
  O  O20  1  0.20286500  0.29962300  0.21853800  1
  O  O21  1  0.20026100  0.79958000  0.20471800  1
  O  O22  1  0.77856500  0.20002900  0.78846500  1
  O  O23  1  0.79452600  0.70081000  0.79826800  1
  O  O24  1  0.38492500  0.05262400  0.36912400  1
  O  O25  1  0.38409700  0.55189000  0.37115800  1
  O  O26  1  0.63577900  0.44707800  0.61864300  1
  O  O27  1  0.63802900  0.94766900  0.61682600  1
  O  O28  1  0.72562300  0.05845200  0.05151200  1
  O  O29  1  0.72489800  0.55810300  0.05442600  1
  O  O30  1  0.95189700  0.44196900  0.27900400  1
  O  O31  1  0.95450700  0.94280300  0.27863500  1
  O  O32  1  0.04016100  0.05137400  0.68329100  1
  O  O33  1  0.03817200  0.55015100  0.68552900  1
  O  O34  1  0.31965400  0.44897600  0.96321000  1
  O  O35  1  0.32185300  0.94983400  0.96231100  1
  O  O36  1  0.47516200  0.19801200  0.12969700  1
  O  O37  1  0.46982200  0.70024000  0.13154800  1
  O  O38  1  0.11981300  0.19829200  0.48512200  1
  O  O39  1  0.13526000  0.69388700  0.50627100  1
  O  O40  1  0.86242200  0.30144100  0.52173000  1
  O  O41  1  0.87632900  0.80155300  0.52941900  1
  O  O42  1  0.50547600  0.30178200  0.87605500  1
  O  O43  1  0.49428700  0.80408800  0.85763200  1
