# generated using pymatgen
data_Fe2PClO4
_symmetry_space_group_name_H-M   'P 1'
_cell_length_a   8.24928630
_cell_length_b   8.35818923
_cell_length_c   8.49175126
_cell_angle_alpha   111.70442491
_cell_angle_beta   111.91557517
_cell_angle_gamma   104.07657894
_symmetry_Int_Tables_number   1
_chemical_formula_structural   Fe2PClO4
_chemical_formula_sum   'Fe8 P4 Cl4 O16'
_cell_volume   452.62769863
_cell_formula_units_Z   4
loop_
 _symmetry_equiv_pos_site_id
 _symmetry_equiv_pos_as_xyz
  1  'x, y, z'
loop_
 _atom_site_type_symbol
 _atom_site_label
 _atom_site_symmetry_multiplicity
 _atom_site_fract_x
 _atom_site_fract_y
 _atom_site_fract_z
 _atom_site_occupancy
  Fe  Fe0  1  0.27415300  0.74888700  0.02476000  1
  Fe  Fe1  1  0.72369300  0.25220300  0.97266300  1
  Fe  Fe2  1  0.99969000  0.49905100  0.49871300  1
  Fe  Fe3  1  0.99951800  0.00089900  0.00038400  1
  Fe  Fe4  1  0.55406600  0.31936000  0.24990600  1
  Fe  Fe5  1  0.93139700  0.17652700  0.72998800  1
  Fe  Fe6  1  0.07036400  0.82384500  0.27120300  1
  Fe  Fe7  1  0.44549800  0.68033600  0.75068000  1
  P  P8  1  0.78041600  0.51470200  0.75484500  1
  P  P9  1  0.75622500  0.01438200  0.23856600  1
  P  P10  1  0.21998400  0.48548800  0.24479000  1
  P  P11  1  0.24375500  0.98533800  0.76202000  1
  Cl  Cl12  1  0.33509400  0.07345500  0.26928100  1
  Cl  Cl13  1  0.80159400  0.57319600  0.23689400  1
  Cl  Cl14  1  0.19777200  0.42708000  0.76339300  1
  Cl  Cl15  1  0.66430600  0.92670000  0.73033200  1
  O  O16  1  0.21177300  0.96832700  0.56871700  1
  O  O17  1  0.60080600  0.53576700  0.74691000  1
  O  O18  1  0.39963800  0.46431400  0.25273600  1
  O  O19  1  0.78891600  0.03286100  0.43257200  1
  O  O20  1  0.21895800  0.52398900  0.43876600  1
  O  O21  1  0.08563600  0.02727200  0.80777100  1
  O  O22  1  0.78135200  0.47446600  0.56065700  1
  O  O23  1  0.91427400  0.97198600  0.19280700  1
  O  O24  1  0.77001600  0.20709700  0.23860000  1
  O  O25  1  0.02806100  0.29477800  0.07103100  1
  O  O26  1  0.22942900  0.79179700  0.76026200  1
  O  O27  1  0.97239900  0.70566800  0.92796900  1
  O  O28  1  0.55220000  0.84690800  0.06527700  1
  O  O29  1  0.78878400  0.34504900  0.78987600  1
  O  O30  1  0.21253300  0.65605200  0.21160500  1
  O  O31  1  0.44770000  0.15222200  0.93602800  1
