data_image0
_chemical_formula_structural       Ga4Ho2Pd2
_chemical_formula_sum              "Ga4 Ho2 Pd2"
_cell_length_a       4.41138
_cell_length_b       5.51202
_cell_length_c       6.6335
_cell_angle_alpha    90
_cell_angle_beta     90
_cell_angle_gamma    66.4118

_space_group_name_H-M_alt    "P 1"
_space_group_IT_number       1

loop_
  _space_group_symop_operation_xyz
  'x, y, z'

loop_
  _atom_site_type_symbol
  _atom_site_label
  _atom_site_symmetry_multiplicity
  _atom_site_fract_x
  _atom_site_fract_y
  _atom_site_fract_z
  _atom_site_occupancy
  Ga  Ga1       1.0  0.87200  0.25600  0.05360  1.0000
  Ga  Ga2       1.0  0.87200  0.25600  0.44600  1.0000
  Ga  Ga3       1.0  0.12800  0.74400  0.55400  1.0000
  Ga  Ga4       1.0  0.12800  0.74400  0.94600  1.0000
  Ho  Ho1       1.0  0.58800  0.82400  0.25000  1.0000
  Ho  Ho2       1.0  0.41200  0.17600  0.75000  1.0000
  Pd  Pd1       1.0  0.29900  0.40200  0.25000  1.0000
  Pd  Pd2       1.0  0.70100  0.59800  0.75000  1.0000
