# generated using pymatgen
data_Li7Mn5O12
_symmetry_space_group_name_H-M   'P 1'
_cell_length_a   6.01903780
_cell_length_b   7.63931198
_cell_length_c   9.93021895
_cell_angle_alpha   94.73414604
_cell_angle_beta   78.31902747
_cell_angle_gamma   98.28787889
_symmetry_Int_Tables_number   1
_chemical_formula_structural   Li7Mn5O12
_chemical_formula_sum   'Li14 Mn10 O24'
_cell_volume   441.80733388
_cell_formula_units_Z   2
loop_
 _symmetry_equiv_pos_site_id
 _symmetry_equiv_pos_as_xyz
  1  'x, y, z'
loop_
 _atom_site_type_symbol
 _atom_site_label
 _atom_site_symmetry_multiplicity
 _atom_site_fract_x
 _atom_site_fract_y
 _atom_site_fract_z
 _atom_site_occupancy
  Li  Li0  1  0.16922100  0.66576800  0.00274000  1
  Li  Li1  1  0.66969800  0.16575600  0.50272100  1
  Li  Li2  1  0.67792400  0.42244900  0.75545100  1
  Li  Li3  1  0.17818800  0.92262900  0.25551100  1
  Li  Li4  1  0.15130200  0.40694500  0.74450600  1
  Li  Li5  1  0.65113700  0.90681500  0.24435400  1
  Li  Li6  1  0.84838000  0.58676000  0.24428100  1
  Li  Li7  1  0.34846400  0.08663700  0.74414800  1
  Li  Li8  1  0.50310800  0.75550700  0.76103700  1
  Li  Li9  1  0.00334900  0.25554600  0.26110200  1
  Li  Li10  1  0.99562100  0.74025100  0.74915800  1
  Li  Li11  1  0.49569700  0.24026500  0.24903900  1
  Li  Li12  1  0.32004300  0.58371600  0.24316300  1
  Li  Li13  1  0.82010700  0.08371400  0.74314100  1
  Mn  Mn14  1  0.16869400  0.16660700  0.50023000  1
  Mn  Mn15  1  0.49683300  0.49679400  0.49781100  1
  Mn  Mn16  1  0.83279800  0.83747700  0.50147800  1
  Mn  Mn17  1  0.49041800  0.99668700  0.99687500  1
  Mn  Mn18  1  0.84269300  0.34071700  0.00271800  1
  Mn  Mn19  1  0.66849700  0.66651700  0.00009300  1
  Mn  Mn20  1  0.99657600  0.99688500  0.99769800  1
  Mn  Mn21  1  0.33261000  0.33743000  0.00141100  1
  Mn  Mn22  1  0.99067400  0.49676700  0.49704600  1
  Mn  Mn23  1  0.34263200  0.84061600  0.50275000  1
  O  O24  1  0.89300900  0.79046700  0.10563700  1
  O  O25  1  0.39335100  0.29060400  0.60586100  1
  O  O26  1  0.44482600  0.54580800  0.89327000  1
  O  O27  1  0.94531800  0.04595200  0.39340900  1
  O  O28  1  0.60854000  0.46860500  0.11840400  1
  O  O29  1  0.10868500  0.96880800  0.61850200  1
  O  O30  1  0.72674300  0.86710300  0.88332400  1
  O  O31  1  0.22706600  0.36713900  0.38342600  1
  O  O32  1  0.26841400  0.12274300  0.11565500  1
  O  O33  1  0.76868900  0.62273900  0.61574900  1
  O  O34  1  0.06397600  0.20744900  0.88489200  1
  O  O35  1  0.56416800  0.70742600  0.38496200  1
  O  O36  1  0.43293900  0.79778500  0.11287500  1
  O  O37  1  0.93326700  0.29785600  0.61299300  1
  O  O38  1  0.90361300  0.54388100  0.88485900  1
  O  O39  1  0.40391300  0.04406000  0.38485600  1
  O  O40  1  0.09835200  0.44563300  0.12102100  1
  O  O41  1  0.59850900  0.94567100  0.62104900  1
  O  O42  1  0.76258800  0.39415000  0.39236100  1
  O  O43  1  0.26223700  0.89409600  0.89221500  1
  O  O44  1  0.73387700  0.11583900  0.10374800  1
  O  O45  1  0.23423700  0.61592600  0.60389100  1
  O  O46  1  0.56436600  0.20051500  0.88421900  1
  O  O47  1  0.06465100  0.70048800  0.38436000  1
