# generated using pymatgen
data_Ca5Sc2(CoO6)2
_symmetry_space_group_name_H-M   'P 1'
_cell_length_a   6.37083004
_cell_length_b   9.09817055
_cell_length_c   9.23958969
_cell_angle_alpha   89.90587638
_cell_angle_beta   90.00226911
_cell_angle_gamma   95.50480679
_symmetry_Int_Tables_number   1
_chemical_formula_structural   Ca5Sc2(CoO6)2
_chemical_formula_sum   'Ca10 Sc4 Co4 O24'
_cell_volume   533.08278462
_cell_formula_units_Z   2
loop_
 _symmetry_equiv_pos_site_id
 _symmetry_equiv_pos_as_xyz
  1  'x, y, z'
loop_
 _atom_site_type_symbol
 _atom_site_label
 _atom_site_symmetry_multiplicity
 _atom_site_fract_x
 _atom_site_fract_y
 _atom_site_fract_z
 _atom_site_occupancy
  Ca  Ca0  1  0.24994800  0.74989600  0.13241200  1
  Ca  Ca1  1  0.25101200  0.24993500  0.63694100  1
  Ca  Ca2  1  0.11552000  0.56346000  0.81654300  1
  Ca  Ca3  1  0.10802400  0.05955300  0.31978000  1
  Ca  Ca4  1  0.39135200  0.43947800  0.31991200  1
  Ca  Ca5  1  0.38540000  0.93804200  0.81711200  1
  Ca  Ca6  1  0.62452700  0.56996000  0.67491200  1
  Ca  Ca7  1  0.62108000  0.06948600  0.18174600  1
  Ca  Ca8  1  0.87941600  0.42863900  0.18267900  1
  Ca  Ca9  1  0.87504000  0.93167100  0.67481500  1
  Sc  Sc10  1  0.25036700  0.24991100  0.00299400  1
  Sc  Sc11  1  0.24849900  0.75051400  0.49460900  1
  Sc  Sc12  1  0.74995500  0.74985300  0.00091500  1
  Sc  Sc13  1  0.75104500  0.24949000  0.51111400  1
  Co  Co14  1  0.49221300  0.00153900  0.49840500  1
  Co  Co15  1  0.00681600  0.49893700  0.49847800  1
  Co  Co16  1  0.50070900  0.49688000  0.99658300  1
  Co  Co17  1  0.99984000  0.00274200  0.99646400  1
  O  O18  1  0.97453500  0.19052800  0.11887600  1
  O  O19  1  0.96803000  0.67726100  0.60400400  1
  O  O20  1  0.52579300  0.30858300  0.11992100  1
  O  O21  1  0.53030100  0.82500600  0.60359800  1
  O  O22  1  0.04155400  0.80059000  0.89489000  1
  O  O23  1  0.05053300  0.31526600  0.40693400  1
  O  O24  1  0.45880300  0.70004200  0.89427500  1
  O  O25  1  0.44851500  0.18351500  0.40764500  1
  O  O26  1  0.92933900  0.38390300  0.66187300  1
  O  O27  1  0.92247500  0.88411100  0.15744600  1
  O  O28  1  0.57739000  0.61493100  0.15751000  1
  O  O29  1  0.57567300  0.11686600  0.66236600  1
  O  O30  1  0.29775700  0.52801400  0.56321400  1
  O  O31  1  0.29293200  0.02084600  0.05997300  1
  O  O32  1  0.20796500  0.47882300  0.06025600  1
  O  O33  1  0.20157800  0.97410300  0.56322400  1
  O  O34  1  0.71778700  0.46112200  0.43720500  1
  O  O35  1  0.72017600  0.96973900  0.93422900  1
  O  O36  1  0.77957700  0.53022900  0.93344900  1
  O  O37  1  0.78090900  0.03808400  0.43557900  1
  O  O38  1  0.39662100  0.38896200  0.83391500  1
  O  O39  1  0.38720700  0.89010500  0.33113900  1
  O  O40  1  0.10936900  0.60802100  0.33145900  1
  O  O41  1  0.10441700  0.11136500  0.83386000  1
