# generated using pymatgen
data_CaLaFeWO6
_symmetry_space_group_name_H-M   'P 1'
_cell_length_a   5.61682870
_cell_length_b   8.00098889
_cell_length_c   5.80025014
_cell_angle_alpha   89.80916813
_cell_angle_beta   91.52265997
_cell_angle_gamma   89.27214746
_symmetry_Int_Tables_number   1
_chemical_formula_structural   CaLaFeWO6
_chemical_formula_sum   'Ca2 La2 Fe2 W2 O12'
_cell_volume   260.54948723
_cell_formula_units_Z   2
loop_
 _symmetry_equiv_pos_site_id
 _symmetry_equiv_pos_as_xyz
  1  'x, y, z'
loop_
 _atom_site_type_symbol
 _atom_site_label
 _atom_site_symmetry_multiplicity
 _atom_site_fract_x
 _atom_site_fract_y
 _atom_site_fract_z
 _atom_site_occupancy
  Ca  Ca0  1  0.52583300  0.25176200  0.55316200  1
  Ca  Ca1  1  0.01799900  0.75278800  0.94720200  1
  La  La2  1  0.98408300  0.24677400  0.04758700  1
  La  La3  1  0.47473600  0.74765800  0.45078700  1
  Fe  Fe4  1  0.49900700  0.50028500  0.00078400  1
  Fe  Fe5  1  0.99731800  0.00047400  0.50028600  1
  W  W6  1  0.99959500  0.49877600  0.50294900  1
  W  W7  1  0.50098900  0.99841700  0.99690700  1
  O  O8  1  0.60591500  0.76640300  0.03102100  1
  O  O9  1  0.10730100  0.26711300  0.47012900  1
  O  O10  1  0.21216500  0.94942200  0.19274600  1
  O  O11  1  0.70496400  0.44923000  0.29969300  1
  O  O12  1  0.19174900  0.56150400  0.21893300  1
  O  O13  1  0.70048100  0.05886300  0.28812400  1
  O  O14  1  0.89862500  0.73318000  0.53661900  1
  O  O15  1  0.40194500  0.23352800  0.96258300  1
  O  O16  1  0.29171400  0.55173400  0.70805400  1
  O  O17  1  0.78658500  0.05098300  0.79953600  1
  O  O18  1  0.29576500  0.94179500  0.71012700  1
  O  O19  1  0.80323100  0.43931200  0.78277100  1
