# generated using pymatgen
data_K2VPCO7
_symmetry_space_group_name_H-M   'P 1'
_cell_length_a   6.76424361
_cell_length_b   11.25924263
_cell_length_c   9.78507176
_cell_angle_alpha   89.55301224
_cell_angle_beta   90.05497269
_cell_angle_gamma   89.57355207
_symmetry_Int_Tables_number   1
_chemical_formula_structural   K2VPCO7
_chemical_formula_sum   'K8 V4 P4 C4 O28'
_cell_volume   745.18990469
_cell_formula_units_Z   4
loop_
 _symmetry_equiv_pos_site_id
 _symmetry_equiv_pos_as_xyz
  1  'x, y, z'
loop_
 _atom_site_type_symbol
 _atom_site_label
 _atom_site_symmetry_multiplicity
 _atom_site_fract_x
 _atom_site_fract_y
 _atom_site_fract_z
 _atom_site_occupancy
  K  K0  1  0.47869000  0.12485300  0.23670400  1
  K  K1  1  0.47648600  0.62565300  0.23748100  1
  K  K2  1  0.02493800  0.12089700  0.23668000  1
  K  K3  1  0.02207600  0.62166000  0.23374000  1
  K  K4  1  0.52535800  0.37549200  0.76151900  1
  K  K5  1  0.51949200  0.87418500  0.76544800  1
  K  K6  1  0.97944600  0.37853200  0.76681700  1
  K  K7  1  0.97488700  0.87861600  0.76366600  1
  V  V8  1  0.74948900  0.88776500  0.36126300  1
  V  V9  1  0.25024800  0.11261500  0.64067800  1
  V  V10  1  0.74751900  0.38820500  0.35961000  1
  V  V11  1  0.25214500  0.61133300  0.63894300  1
  P  P12  1  0.24760400  0.36129500  0.43300800  1
  P  P13  1  0.25155300  0.86188700  0.43375700  1
  P  P14  1  0.75006300  0.13874300  0.56637100  1
  P  P15  1  0.75109900  0.63764600  0.56619600  1
  C  C16  1  0.74918100  0.36574500  0.10524800  1
  C  C17  1  0.74938100  0.86613100  0.10633700  1
  C  C18  1  0.25060900  0.13458300  0.89462800  1
  C  C19  1  0.25087000  0.63395600  0.89404200  1
  O  O20  1  0.25040300  0.14626800  0.02125000  1
  O  O21  1  0.25015800  0.64645200  0.02066500  1
  O  O22  1  0.75028900  0.35328900  0.97864500  1
  O  O23  1  0.74912600  0.85393200  0.97968500  1
  O  O24  1  0.74152300  0.46901200  0.16825500  1
  O  O25  1  0.74431200  0.96919800  0.16972800  1
  O  O26  1  0.24868800  0.03141600  0.83081200  1
  O  O27  1  0.25962200  0.53079800  0.83097600  1
  O  O28  1  0.75584200  0.27594700  0.19404100  1
  O  O29  1  0.75484500  0.77620800  0.19483300  1
  O  O30  1  0.25272500  0.22478900  0.80635700  1
  O  O31  1  0.24273800  0.72357000  0.80520200  1
  O  O32  1  0.75308900  0.05531200  0.44000300  1
  O  O33  1  0.75121900  0.55567400  0.43846200  1
  O  O34  1  0.24801400  0.44284900  0.56149200  1
  O  O35  1  0.24889100  0.94465000  0.56082200  1
  O  O36  1  0.24843800  0.22718100  0.47585200  1
  O  O37  1  0.25907000  0.72859900  0.48087500  1
  O  O38  1  0.74294500  0.27182500  0.52033700  1
  O  O39  1  0.74549600  0.77110700  0.51984600  1
  O  O40  1  0.05951200  0.38667100  0.34580600  1
  O  O41  1  0.06241900  0.88337100  0.34679200  1
  O  O42  1  0.43621400  0.38641700  0.34658800  1
  O  O43  1  0.43837800  0.88713800  0.34613000  1
  O  O44  1  0.56195100  0.11318500  0.65326700  1
  O  O45  1  0.56387100  0.61295500  0.65364200  1
  O  O46  1  0.93938000  0.11770300  0.65429800  1
  O  O47  1  0.93970900  0.61469100  0.65320300  1
