# generated using pymatgen
data_Sr3Ca(FeO3)4
_symmetry_space_group_name_H-M   'P 1'
_cell_length_a   5.52336709
_cell_length_b   7.87512911
_cell_length_c   5.52719464
_cell_angle_alpha   90.43650687
_cell_angle_beta   90.12495930
_cell_angle_gamma   90.06368813
_symmetry_Int_Tables_number   1
_chemical_formula_structural   Sr3Ca(FeO3)4
_chemical_formula_sum   'Sr3 Ca1 Fe4 O12'
_cell_volume   240.40994908
_cell_formula_units_Z   1
loop_
 _symmetry_equiv_pos_site_id
 _symmetry_equiv_pos_as_xyz
  1  'x, y, z'
loop_
 _atom_site_type_symbol
 _atom_site_label
 _atom_site_symmetry_multiplicity
 _atom_site_fract_x
 _atom_site_fract_y
 _atom_site_fract_z
 _atom_site_occupancy
  Sr  Sr0  1  0.48085700  0.75070300  0.49839800  1
  Sr  Sr1  1  0.51453500  0.24969100  0.49873800  1
  Sr  Sr2  1  0.98682100  0.75030900  0.00554200  1
  Ca  Ca3  1  0.03127800  0.25087000  0.99202300  1
  Fe  Fe4  1  0.99845100  0.49738500  0.49974500  1
  Fe  Fe5  1  0.50263500  0.00187900  0.00052700  1
  Fe  Fe6  1  0.99869300  0.00335800  0.50095900  1
  Fe  Fe7  1  0.50333500  0.49869600  0.99861800  1
  O  O8  1  0.48082200  0.24670100  0.03404300  1
  O  O9  1  0.99723400  0.73791400  0.54830400  1
  O  O10  1  0.00138300  0.26072600  0.42743700  1
  O  O11  1  0.50472700  0.75395900  0.96549800  1
  O  O12  1  0.26179000  0.02259100  0.72485600  1
  O  O13  1  0.26577500  0.47549700  0.72009200  1
  O  O14  1  0.21995200  0.98063700  0.23654000  1
  O  O15  1  0.22013300  0.52290000  0.23152300  1
  O  O16  1  0.78784900  0.46128200  0.77414400  1
  O  O17  1  0.78543800  0.03323600  0.77363600  1
  O  O18  1  0.72805300  0.52152300  0.28602300  1
  O  O19  1  0.73023800  0.98014500  0.28335400  1
