# generated using pymatgen
data_Ba3Sc4(CuO4)3
_symmetry_space_group_name_H-M   'P 1'
_cell_length_a   9.50341878
_cell_length_b   9.50341878
_cell_length_c   9.50341878
_cell_angle_alpha   101.42990912
_cell_angle_beta   101.42990912
_cell_angle_gamma   127.13261783
_symmetry_Int_Tables_number   1
_chemical_formula_structural   Ba3Sc4(CuO4)3
_chemical_formula_sum   'Ba6 Sc8 Cu6 O24'
_cell_volume   612.73165067
_cell_formula_units_Z   2
loop_
 _symmetry_equiv_pos_site_id
 _symmetry_equiv_pos_as_xyz
  1  'x, y, z'
loop_
 _atom_site_type_symbol
 _atom_site_label
 _atom_site_symmetry_multiplicity
 _atom_site_fract_x
 _atom_site_fract_y
 _atom_site_fract_z
 _atom_site_occupancy
  Ba  Ba0  1  0.27715000  0.22285000  0.50000000  1
  Ba  Ba1  1  0.22285000  0.72285000  0.94569900  1
  Ba  Ba2  1  0.77715000  0.27715000  0.05430100  1
  Ba  Ba3  1  0.72285000  0.77715000  0.50000000  1
  Ba  Ba4  1  0.50000000  0.50000000  0.00000000  1
  Ba  Ba5  1  0.00000000  0.00000000  0.00000000  1
  Sc  Sc6  1  0.00889900  0.25000000  0.75889900  1
  Sc  Sc7  1  0.25000000  0.49110100  0.24110100  1
  Sc  Sc8  1  0.25000000  0.00889900  0.75889900  1
  Sc  Sc9  1  0.49110100  0.25000000  0.24110100  1
  Sc  Sc10  1  0.99110100  0.75000000  0.24110100  1
  Sc  Sc11  1  0.75000000  0.50889900  0.75889900  1
  Sc  Sc12  1  0.75000000  0.99110100  0.24110100  1
  Sc  Sc13  1  0.50889900  0.75000000  0.75889900  1
  Cu  Cu14  1  0.10369800  0.39630200  0.50000000  1
  Cu  Cu15  1  0.39630200  0.89630200  0.29260400  1
  Cu  Cu16  1  0.60369800  0.10369800  0.70739600  1
  Cu  Cu17  1  0.89630200  0.60369800  0.50000000  1
  Cu  Cu18  1  0.75000000  0.25000000  0.50000000  1
  Cu  Cu19  1  0.25000000  0.75000000  0.50000000  1
  O  O20  1  0.26242100  0.99861900  0.26104000  1
  O  O21  1  0.73757900  0.00138100  0.73896000  1
  O  O22  1  0.99861900  0.73757900  0.73619800  1
  O  O23  1  0.00138100  0.26242100  0.26380200  1
  O  O24  1  0.23757900  0.49861900  0.73619800  1
  O  O25  1  0.49861900  0.76242100  0.26104000  1
  O  O26  1  0.50138100  0.23757900  0.73896000  1
  O  O27  1  0.76242100  0.50138100  0.26380200  1
  O  O28  1  0.12250400  0.37749600  0.00000000  1
  O  O29  1  0.37749600  0.37749600  0.25499300  1
  O  O30  1  0.12250400  0.12250400  0.74500700  1
  O  O31  1  0.37749600  0.12250400  0.00000000  1
  O  O32  1  0.87749600  0.62250400  0.00000000  1
  O  O33  1  0.62250400  0.62250400  0.74500700  1
  O  O34  1  0.87749600  0.87749600  0.25499300  1
  O  O35  1  0.62250400  0.87749600  0.00000000  1
  O  O36  1  0.61468700  0.11468700  0.26794900  1
  O  O37  1  0.84673800  0.34673800  0.73205100  1
  O  O38  1  0.11468700  0.84673800  0.50000000  1
  O  O39  1  0.34673800  0.61468700  0.50000000  1
  O  O40  1  0.65326200  0.38531300  0.50000000  1
  O  O41  1  0.38531300  0.88531300  0.73205100  1
  O  O42  1  0.15326200  0.65326200  0.26794900  1
  O  O43  1  0.88531300  0.15326200  0.50000000  1
