# generated using pymatgen
data_Al3Au8
_symmetry_space_group_name_H-M   'P 1'
_cell_length_a   14.99805417
_cell_length_b   14.99805417
_cell_length_c   14.99805446
_cell_angle_alpha   30.31668409
_cell_angle_beta   30.31668409
_cell_angle_gamma   30.31668143
_symmetry_Int_Tables_number   1
_chemical_formula_structural   Al3Au8
_chemical_formula_sum   'Al12 Au32'
_cell_volume   761.79663423
_cell_formula_units_Z   4
loop_
 _symmetry_equiv_pos_site_id
 _symmetry_equiv_pos_as_xyz
  1  'x, y, z'
loop_
 _atom_site_type_symbol
 _atom_site_label
 _atom_site_symmetry_multiplicity
 _atom_site_fract_x
 _atom_site_fract_y
 _atom_site_fract_z
 _atom_site_occupancy
  Al  Al0  1  0.00000000  0.00000000  0.00000000  1
  Al  Al1  1  0.50000000  0.50000000  0.50000000  1
  Al  Al2  1  0.84373300  0.84373300  0.84373300  1
  Al  Al3  1  0.65626700  0.65626700  0.65626700  1
  Al  Al4  1  0.15626700  0.15626700  0.15626700  1
  Al  Al5  1  0.34373300  0.34373300  0.34373300  1
  Al  Al6  1  0.56627400  0.93372600  0.25000000  1
  Al  Al7  1  0.93372600  0.25000000  0.56627400  1
  Al  Al8  1  0.25000000  0.56627400  0.93372600  1
  Al  Al9  1  0.43372600  0.06627400  0.75000000  1
  Al  Al10  1  0.06627400  0.75000000  0.43372600  1
  Al  Al11  1  0.75000000  0.43372600  0.06627400  1
  Au  Au12  1  0.78249100  0.78249100  0.78249100  1
  Au  Au13  1  0.71750900  0.71750900  0.71750900  1
  Au  Au14  1  0.21750900  0.21750900  0.21750900  1
  Au  Au15  1  0.28249100  0.28249100  0.28249100  1
  Au  Au16  1  0.06285800  0.06285800  0.06285800  1
  Au  Au17  1  0.43714200  0.43714200  0.43714200  1
  Au  Au18  1  0.93714200  0.93714200  0.93714200  1
  Au  Au19  1  0.56285800  0.56285800  0.56285800  1
  Au  Au20  1  0.70391000  0.35106600  0.99620500  1
  Au  Au21  1  0.35106600  0.99620500  0.70391000  1
  Au  Au22  1  0.99620500  0.70391000  0.35106600  1
  Au  Au23  1  0.14893400  0.79609000  0.50379500  1
  Au  Au24  1  0.79609000  0.50379500  0.14893400  1
  Au  Au25  1  0.50379500  0.14893400  0.79609000  1
  Au  Au26  1  0.29609000  0.64893400  0.00379500  1
  Au  Au27  1  0.64893400  0.00379500  0.29609000  1
  Au  Au28  1  0.00379500  0.29609000  0.64893400  1
  Au  Au29  1  0.85106600  0.20391000  0.49620500  1
  Au  Au30  1  0.20391000  0.49620500  0.85106600  1
  Au  Au31  1  0.49620500  0.85106600  0.20391000  1
  Au  Au32  1  0.12500600  0.38489700  0.64722900  1
  Au  Au33  1  0.38489700  0.64722900  0.12500600  1
  Au  Au34  1  0.64722900  0.12500600  0.38489700  1
  Au  Au35  1  0.11510300  0.37499400  0.85277100  1
  Au  Au36  1  0.37499400  0.85277100  0.11510300  1
  Au  Au37  1  0.85277100  0.11510300  0.37499400  1
  Au  Au38  1  0.87499400  0.61510300  0.35277100  1
  Au  Au39  1  0.61510300  0.35277100  0.87499400  1
  Au  Au40  1  0.35277100  0.87499400  0.61510300  1
  Au  Au41  1  0.88489700  0.62500600  0.14722900  1
  Au  Au42  1  0.62500600  0.14722900  0.88489700  1
  Au  Au43  1  0.14722900  0.88489700  0.62500600  1
