# generated using pymatgen
data_Mn3Sb(PO4)4
_symmetry_space_group_name_H-M   'P 1'
_cell_length_a   7.95773806
_cell_length_b   11.09472357
_cell_length_c   7.95749741
_cell_angle_alpha   74.41825845
_cell_angle_beta   78.65072107
_cell_angle_gamma   105.55992636
_symmetry_Int_Tables_number   1
_chemical_formula_structural   Mn3Sb(PO4)4
_chemical_formula_sum   'Mn6 Sb2 P8 O32'
_cell_volume   623.97577200
_cell_formula_units_Z   2
loop_
 _symmetry_equiv_pos_site_id
 _symmetry_equiv_pos_as_xyz
  1  'x, y, z'
loop_
 _atom_site_type_symbol
 _atom_site_label
 _atom_site_symmetry_multiplicity
 _atom_site_fract_x
 _atom_site_fract_y
 _atom_site_fract_z
 _atom_site_occupancy
  Mn  Mn0  1  0.32617500  0.78960200  0.92386100  1
  Mn  Mn1  1  0.77398400  0.70938500  0.98021800  1
  Mn  Mn2  1  0.27007800  0.70930600  0.47607000  1
  Mn  Mn3  1  0.70696000  0.21892700  0.04516800  1
  Mn  Mn4  1  0.20456400  0.21870200  0.54322400  1
  Mn  Mn5  1  0.80702100  0.78371500  0.44306100  1
  Sb  Sb6  1  0.74756800  0.28416900  0.50243500  1
  Sb  Sb7  1  0.23994700  0.28741800  0.01023500  1
  P  P8  1  0.48475000  0.60596100  0.76521100  1
  P  P9  1  0.97959700  0.60281700  0.27025100  1
  P  P10  1  0.38083100  0.10061000  0.86917000  1
  P  P11  1  0.85551200  0.08589600  0.39448500  1
  P  P12  1  0.11369700  0.89066900  0.63641500  1
  P  P13  1  0.61367000  0.89079200  0.13618700  1
  P  P14  1  0.02463800  0.41295000  0.70644600  1
  P  P15  1  0.54350800  0.41299200  0.22547500  1
  O  O16  1  0.44617000  0.45593700  0.80375000  1
  O  O17  1  0.93810200  0.44690400  0.31195300  1
  O  O18  1  0.67485500  0.38443500  0.09005500  1
  O  O19  1  0.15997200  0.38428900  0.57515500  1
  O  O20  1  0.95330700  0.86692800  0.80219300  1
  O  O21  1  0.44766700  0.86689200  0.29646300  1
  O  O22  1  0.75374000  0.93768200  0.49624000  1
  O  O23  1  0.29545100  0.94952500  0.95456000  1
  O  O24  1  0.71048000  0.03911800  0.03951300  1
  O  O25  1  0.21063600  0.03901800  0.53954100  1
  O  O26  1  0.54793600  0.13206300  0.70214200  1
  O  O27  1  0.01434600  0.11059800  0.23585900  1
  O  O28  1  0.83676900  0.62117200  0.41328900  1
  O  O29  1  0.33994800  0.62379000  0.91011300  1
  O  O30  1  0.07352200  0.56356100  0.66685000  1
  O  O31  1  0.58280900  0.56358900  0.17662000  1
  O  O32  1  0.48183800  0.67466400  0.56790700  1
  O  O33  1  0.97833400  0.66570300  0.07178400  1
  O  O34  1  0.68205300  0.67467000  0.76782200  1
  O  O35  1  0.17816600  0.66576800  0.27093800  1
  O  O36  1  0.24195400  0.16817700  0.81298800  1
  O  O37  1  0.72121400  0.16635300  0.33755100  1
  O  O38  1  0.43699800  0.16815000  0.00810000  1
  O  O39  1  0.91239200  0.16619800  0.52895900  1
  O  O40  1  0.04870300  0.82247500  0.50033400  1
  O  O41  1  0.55305500  0.82002100  0.99976200  1
  O  O42  1  0.25011300  0.81991000  0.69722500  1
  O  O43  1  0.74966800  0.82257200  0.20132500  1
  O  O44  1  0.81721200  0.35050800  0.69697200  1
  O  O45  1  0.33958200  0.33735500  0.25283000  1
  O  O46  1  0.99730700  0.33742600  0.91042400  1
  O  O47  1  0.55319400  0.35063500  0.43287300  1
