# generated using pymatgen
data_Li8(CoO2)5
_symmetry_space_group_name_H-M   'P 1'
_cell_length_a   6.64178359
_cell_length_b   10.10298239
_cell_length_c   8.06191655
_cell_angle_alpha   83.14606582
_cell_angle_beta   100.12490450
_cell_angle_gamma   76.75463892
_symmetry_Int_Tables_number   1
_chemical_formula_structural   Li8(CoO2)5
_chemical_formula_sum   'Li16 Co10 O20'
_cell_volume   511.13563716
_cell_formula_units_Z   2
loop_
 _symmetry_equiv_pos_site_id
 _symmetry_equiv_pos_as_xyz
  1  'x, y, z'
loop_
 _atom_site_type_symbol
 _atom_site_label
 _atom_site_symmetry_multiplicity
 _atom_site_fract_x
 _atom_site_fract_y
 _atom_site_fract_z
 _atom_site_occupancy
  Li  Li0  1  0.62285600  0.72332400  0.06756000  1
  Li  Li1  1  0.12135700  0.21846000  0.06155700  1
  Li  Li2  1  0.27699400  0.77670400  0.13249800  1
  Li  Li3  1  0.77873400  0.28134200  0.13838600  1
  Li  Li4  1  0.43816600  0.72612600  0.44091200  1
  Li  Li5  1  0.93424500  0.22629500  0.44171900  1
  Li  Li6  1  0.46190800  0.77370700  0.75924700  1
  Li  Li7  1  0.96612100  0.27372500  0.75834500  1
  Li  Li8  1  0.48646300  0.22495800  0.26918800  1
  Li  Li9  1  0.98222300  0.72145700  0.26791900  1
  Li  Li10  1  0.41309600  0.27523900  0.93087700  1
  Li  Li11  1  0.91694800  0.77880400  0.93183700  1
  Li  Li12  1  0.59893300  0.28041600  0.54979500  1
  Li  Li13  1  0.09740800  0.78035900  0.55146700  1
  Li  Li14  1  0.30137300  0.21966300  0.65023300  1
  Li  Li15  1  0.80285500  0.71953700  0.64837400  1
  Co  Co16  1  0.20176500  0.49986500  0.60025100  1
  Co  Co17  1  0.40028400  0.49929100  0.19748700  1
  Co  Co18  1  0.00131600  0.50034500  0.00252400  1
  Co  Co19  1  0.79107500  0.50535800  0.40579700  1
  Co  Co20  1  0.60633100  0.49543400  0.79304500  1
  Co  Co21  1  0.69836300  0.00015900  0.59987800  1
  Co  Co22  1  0.89846900  0.99973700  0.19736700  1
  Co  Co23  1  0.49948100  0.00086500  0.00218300  1
  Co  Co24  1  0.29385300  0.00441500  0.40717800  1
  Co  Co25  1  0.10924500  0.99447200  0.79431000  1
  O  O26  1  0.54329800  0.64125600  0.26386400  1
  O  O27  1  0.03635000  0.13274100  0.25992500  1
  O  O28  1  0.35672400  0.85863100  0.93632800  1
  O  O29  1  0.86394700  0.36712200  0.94004200  1
  O  O30  1  0.78098900  0.87057200  0.10126900  1
  O  O31  1  0.25740600  0.36868300  0.09054000  1
  O  O32  1  0.64230100  0.13149200  0.10948400  1
  O  O33  1  0.11866000  0.62952200  0.09851400  1
  O  O34  1  0.54298800  0.86901600  0.56061300  1
  O  O35  1  0.04558600  0.37093400  0.55913400  1
  O  O36  1  0.85460000  0.12904700  0.64093500  1
  O  O37  1  0.35716800  0.63090400  0.63958200  1
  O  O38  1  0.14340600  0.86433600  0.32074500  1
  O  O39  1  0.65923700  0.35745900  0.32896000  1
  O  O40  1  0.24079300  0.14255200  0.87086600  1
  O  O41  1  0.75643400  0.63570600  0.87922200  1
  O  O42  1  0.45557600  0.13515900  0.48785200  1
  O  O43  1  0.96005000  0.63407600  0.49047300  1
  O  O44  1  0.44450500  0.36487300  0.71232400  1
  O  O45  1  0.94012000  0.86586300  0.70939100  1
