# generated using pymatgen
data_Li7Mn5O12
_symmetry_space_group_name_H-M   'P 1'
_cell_length_a   6.45345238
_cell_length_b   9.28402291
_cell_length_c   7.64885078
_cell_angle_alpha   88.89011323
_cell_angle_beta   76.24401917
_cell_angle_gamma   81.97707172
_symmetry_Int_Tables_number   1
_chemical_formula_structural   Li7Mn5O12
_chemical_formula_sum   'Li14 Mn10 O24'
_cell_volume   440.72643074
_cell_formula_units_Z   2
loop_
 _symmetry_equiv_pos_site_id
 _symmetry_equiv_pos_as_xyz
  1  'x, y, z'
loop_
 _atom_site_type_symbol
 _atom_site_label
 _atom_site_symmetry_multiplicity
 _atom_site_fract_x
 _atom_site_fract_y
 _atom_site_fract_z
 _atom_site_occupancy
  Li  Li0  1  0.41555700  0.41940900  0.66917800  1
  Li  Li1  1  0.91603000  0.91903500  0.66859300  1
  Li  Li2  1  0.28950000  0.79646000  0.16696000  1
  Li  Li3  1  0.78942700  0.29670800  0.16784400  1
  Li  Li4  1  0.54007400  0.05090100  0.15712100  1
  Li  Li5  1  0.04023700  0.55170200  0.15777600  1
  Li  Li6  1  0.62886000  0.12945200  0.50660500  1
  Li  Li7  1  0.12891600  0.62896200  0.50622500  1
  Li  Li8  1  0.70743700  0.19122200  0.83377800  1
  Li  Li9  1  0.20830100  0.69130100  0.83380100  1
  Li  Li10  1  0.47113100  0.95990200  0.82184100  1
  Li  Li11  1  0.97160300  0.45998300  0.82209300  1
  Li  Li12  1  0.36415300  0.87220300  0.51227900  1
  Li  Li13  1  0.86415300  0.37296800  0.51229600  1
  Mn  Mn14  1  0.66895800  0.66620900  0.66607100  1
  Mn  Mn15  1  0.49771600  0.50210200  0.99767500  1
  Mn  Mn16  1  0.99759300  0.00292200  0.99655300  1
  Mn  Mn17  1  0.33185500  0.33005100  0.33750500  1
  Mn  Mn18  1  0.83179200  0.83099000  0.33650300  1
  Mn  Mn19  1  0.16833400  0.16615300  0.66554000  1
  Mn  Mn20  1  0.75363800  0.75520500  0.99192600  1
  Mn  Mn21  1  0.25341600  0.25571900  0.99300400  1
  Mn  Mn22  1  0.08045100  0.07692300  0.33609200  1
  Mn  Mn23  1  0.58089100  0.57708000  0.33680900  1
  O  O24  1  0.24874400  0.01958400  0.09853200  1
  O  O25  1  0.74894400  0.51974500  0.09890300  1
  O  O26  1  0.58146400  0.78474500  0.24961700  1
  O  O27  1  0.08111300  0.28460200  0.24985100  1
  O  O28  1  0.58862600  0.37492200  0.40576300  1
  O  O29  1  0.08866000  0.87509300  0.40513200  1
  O  O30  1  0.74025600  0.98230700  0.92593600  1
  O  O31  1  0.24042600  0.48259200  0.92675000  1
  O  O32  1  0.42311800  0.18700000  0.75065300  1
  O  O33  1  0.92374100  0.68693500  0.75019300  1
  O  O34  1  0.41587300  0.64617600  0.57350400  1
  O  O35  1  0.91598500  0.14610800  0.57310600  1
  O  O36  1  0.50107400  0.27047400  0.09027500  1
  O  O37  1  0.00124400  0.77058200  0.08933400  1
  O  O38  1  0.82809600  0.06547100  0.24881600  1
  O  O39  1  0.32821700  0.56540300  0.24989000  1
  O  O40  1  0.33462300  0.09611500  0.42752400  1
  O  O41  1  0.83510800  0.59603900  0.42751900  1
  O  O42  1  0.50118500  0.73589800  0.90041900  1
  O  O43  1  0.00149200  0.23596200  0.90060600  1
  O  O44  1  0.17839000  0.96788100  0.75332700  1
  O  O45  1  0.67786000  0.46821400  0.75475900  1
  O  O46  1  0.65846900  0.86709300  0.57724000  1
  O  O47  1  0.15726500  0.36750100  0.57828300  1
