# generated using pymatgen
data_K3CoPCO7
_symmetry_space_group_name_H-M   'P 1'
_cell_length_a   5.63820753
_cell_length_b   9.59668415
_cell_length_c   13.97847475
_cell_angle_alpha   89.92961342
_cell_angle_beta   89.97016930
_cell_angle_gamma   90.01211393
_symmetry_Int_Tables_number   1
_chemical_formula_structural   K3CoPCO7
_chemical_formula_sum   'K12 Co4 P4 C4 O28'
_cell_volume   756.34797568
_cell_formula_units_Z   4
loop_
 _symmetry_equiv_pos_site_id
 _symmetry_equiv_pos_as_xyz
  1  'x, y, z'
loop_
 _atom_site_type_symbol
 _atom_site_label
 _atom_site_symmetry_multiplicity
 _atom_site_fract_x
 _atom_site_fract_y
 _atom_site_fract_z
 _atom_site_occupancy
  K  K0  1  0.75654500  0.07207900  0.12516500  1
  K  K1  1  0.75790800  0.07132700  0.62476500  1
  K  K2  1  0.24368300  0.92875000  0.37460000  1
  K  K3  1  0.24147000  0.92775100  0.87547600  1
  K  K4  1  0.25830400  0.28791900  0.00538100  1
  K  K5  1  0.25618000  0.28690100  0.50581400  1
  K  K6  1  0.25433000  0.28844400  0.24439100  1
  K  K7  1  0.25673800  0.28611800  0.74440100  1
  K  K8  1  0.74150600  0.71267000  0.25596500  1
  K  K9  1  0.74447600  0.71383100  0.75492900  1
  K  K10  1  0.74314900  0.71269300  0.49358100  1
  K  K11  1  0.74399900  0.71147800  0.99507900  1
  Co  Co12  1  0.76446600  0.35523400  0.87098300  1
  Co  Co13  1  0.23770400  0.64657800  0.62396000  1
  Co  Co14  1  0.76066100  0.35252700  0.37459400  1
  Co  Co15  1  0.23744800  0.64671900  0.12551000  1
  P  P16  1  0.73334500  0.42095600  0.12607100  1
  P  P17  1  0.73176000  0.42073200  0.62461400  1
  P  P18  1  0.26710800  0.57965900  0.37557500  1
  P  P19  1  0.26781600  0.57850800  0.87498700  1
  C  C20  1  0.74349100  0.08493500  0.37517100  1
  C  C21  1  0.74390100  0.08532900  0.87429000  1
  C  C22  1  0.25547600  0.91501900  0.12488400  1
  C  C23  1  0.25746400  0.91471300  0.62508600  1
  O  O24  1  0.26082200  0.04933000  0.12550000  1
  O  O25  1  0.26212000  0.04904200  0.62524600  1
  O  O26  1  0.73931800  0.95062500  0.37521500  1
  O  O27  1  0.73711800  0.95096000  0.87490200  1
  O  O28  1  0.94379800  0.15397300  0.37416600  1
  O  O29  1  0.94512900  0.15312200  0.87199300  1
  O  O30  1  0.05502600  0.84641000  0.12122400  1
  O  O31  1  0.05712500  0.84581400  0.62772600  1
  O  O32  1  0.54841100  0.15927600  0.37610600  1
  O  O33  1  0.54983500  0.16066400  0.87621600  1
  O  O34  1  0.44983300  0.84008300  0.12792800  1
  O  O35  1  0.45213800  0.84019500  0.62231200  1
  O  O36  1  0.48019800  0.48767500  0.12433500  1
  O  O37  1  0.47799500  0.48620300  0.62647400  1
  O  O38  1  0.52167100  0.51504600  0.37483900  1
  O  O39  1  0.52099000  0.51188900  0.87507900  1
  O  O40  1  0.07863500  0.46178900  0.37591600  1
  O  O41  1  0.07866200  0.46083200  0.87454100  1
  O  O42  1  0.92283000  0.53845200  0.12658800  1
  O  O43  1  0.92061300  0.53834500  0.62436300  1
  O  O44  1  0.76434100  0.32668000  0.03634200  1
  O  O45  1  0.75690100  0.32673900  0.53408800  1
  O  O46  1  0.75720200  0.32748800  0.21738400  1
  O  O47  1  0.76284200  0.32601100  0.71482100  1
  O  O48  1  0.23735200  0.67392400  0.28519100  1
  O  O49  1  0.24029400  0.67261400  0.78452800  1
  O  O50  1  0.23988900  0.67375100  0.46621300  1
  O  O51  1  0.23998100  0.67219500  0.96549000  1
