# generated using pymatgen
data_Mg2V3O8
_symmetry_space_group_name_H-M   'P 1'
_cell_length_a   5.91582400
_cell_length_b   5.91587182
_cell_length_c   9.50561500
_cell_angle_alpha   90.00171664
_cell_angle_beta   89.99775559
_cell_angle_gamma   120.00044125
_symmetry_Int_Tables_number   1
_chemical_formula_structural   Mg2V3O8
_chemical_formula_sum   'Mg4 V6 O16'
_cell_volume   288.09977635
_cell_formula_units_Z   2
loop_
 _symmetry_equiv_pos_site_id
 _symmetry_equiv_pos_as_xyz
  1  'x, y, z'
loop_
 _atom_site_type_symbol
 _atom_site_label
 _atom_site_symmetry_multiplicity
 _atom_site_fract_x
 _atom_site_fract_y
 _atom_site_fract_z
 _atom_site_occupancy
  Mg  Mg0  1  0.66665200  0.33332400  0.02221400  1
  Mg  Mg1  1  0.33333600  0.66666100  0.52225400  1
  Mg  Mg2  1  0.66665200  0.33335000  0.42152900  1
  Mg  Mg3  1  0.33335300  0.66667400  0.92152300  1
  V  V4  1  0.83767200  0.16380600  0.74438800  1
  V  V5  1  0.83620600  0.67382500  0.74439600  1
  V  V6  1  0.32618800  0.16234700  0.74439100  1
  V  V7  1  0.67373700  0.83650300  0.24416600  1
  V  V8  1  0.16272000  0.32625700  0.24415400  1
  V  V9  1  0.16348700  0.83726900  0.24416500  1
  O  O10  1  0.99999000  0.00002500  0.35311000  1
  O  O11  1  0.00002700  0.00000400  0.85340600  1
  O  O12  1  0.33331800  0.66667100  0.13175600  1
  O  O13  1  0.66668300  0.33331900  0.63191200  1
  O  O14  1  0.85156900  0.17814500  0.14557700  1
  O  O15  1  0.67343900  0.82201000  0.64587100  1
  O  O16  1  0.14861500  0.32655000  0.64585500  1
  O  O17  1  0.82183300  0.67344100  0.14558400  1
  O  O18  1  0.32654800  0.14841700  0.14557900  1
  O  O19  1  0.17797500  0.85138000  0.64586200  1
  O  O20  1  0.50561800  0.46841200  0.86497500  1
  O  O21  1  0.03718500  0.53167100  0.36479300  1
  O  O22  1  0.49444500  0.96281200  0.36480000  1
  O  O23  1  0.53159800  0.03718600  0.86497100  1
  O  O24  1  0.96282600  0.49439000  0.86497500  1
  O  O25  1  0.46833200  0.50555700  0.36479600  1
