# generated using pymatgen
data_Sr4LaMn5O15
_symmetry_space_group_name_H-M   'P 1'
_cell_length_a   5.45772732
_cell_length_b   9.48193085
_cell_length_c   12.39863357
_cell_angle_alpha   81.85865057
_cell_angle_beta   102.71202238
_cell_angle_gamma   73.27210040
_symmetry_Int_Tables_number   1
_chemical_formula_structural   Sr4LaMn5O15
_chemical_formula_sum   'Sr8 La2 Mn10 O30'
_cell_volume   584.81007081
_cell_formula_units_Z   2
loop_
 _symmetry_equiv_pos_site_id
 _symmetry_equiv_pos_as_xyz
  1  'x, y, z'
loop_
 _atom_site_type_symbol
 _atom_site_label
 _atom_site_symmetry_multiplicity
 _atom_site_fract_x
 _atom_site_fract_y
 _atom_site_fract_z
 _atom_site_occupancy
  Sr  Sr0  1  0.29959700  0.30166100  0.90078100  1
  Sr  Sr1  1  0.79916500  0.80199100  0.40029500  1
  Sr  Sr2  1  0.70012100  0.69910600  0.09937200  1
  Sr  Sr3  1  0.20068100  0.19827900  0.59960600  1
  Sr  Sr4  1  0.60131100  0.59883400  0.80149300  1
  Sr  Sr5  1  0.10089200  0.09901700  0.30083600  1
  Sr  Sr6  1  0.39896200  0.40073100  0.19859300  1
  Sr  Sr7  1  0.89972200  0.90010000  0.69947100  1
  La  La8  1  0.99962200  0.00076000  0.00012900  1
  La  La9  1  0.50016500  0.49953300  0.49994700  1
  Mn  Mn10  1  0.74974100  0.25092300  0.75036900  1
  Mn  Mn11  1  0.25076800  0.74889500  0.25044900  1
  Mn  Mn12  1  0.65015600  0.14939500  0.44970400  1
  Mn  Mn13  1  0.34979900  0.85070300  0.55027500  1
  Mn  Mn14  1  0.44965400  0.94897300  0.84822400  1
  Mn  Mn15  1  0.14998100  0.65009600  0.95007200  1
  Mn  Mn16  1  0.84990100  0.35214200  0.05186900  1
  Mn  Mn17  1  0.04973200  0.55069200  0.65016200  1
  Mn  Mn18  1  0.55057500  0.04968100  0.15102400  1
  Mn  Mn19  1  0.94993700  0.44949300  0.34935100  1
  O  O20  1  0.50194400  0.00151400  0.00543200  1
  O  O21  1  0.00148100  0.50060900  0.50359200  1
  O  O22  1  0.49896100  0.49972300  0.99905600  1
  O  O23  1  0.99791400  0.00123200  0.49931900  1
  O  O24  1  0.00052100  0.49969600  0.99906400  1
  O  O25  1  0.50026900  0.00121900  0.49933300  1
  O  O26  1  0.19645600  0.70431400  0.09702200  1
  O  O27  1  0.69632200  0.20492700  0.59760100  1
  O  O28  1  0.80114000  0.29360900  0.89612800  1
  O  O29  1  0.30079700  0.79371100  0.39545900  1
  O  O30  1  0.09888400  0.60426200  0.80189800  1
  O  O31  1  0.59771800  0.10364500  0.29914400  1
  O  O32  1  0.90083700  0.39601800  0.19767100  1
  O  O33  1  0.40354200  0.89830900  0.70530900  1
  O  O34  1  0.80396100  0.80501900  0.90476300  1
  O  O35  1  0.30448800  0.30430700  0.40362700  1
  O  O36  1  0.19614300  0.19450100  0.09568300  1
  O  O37  1  0.69791300  0.69495500  0.59688500  1
  O  O38  1  0.70484900  0.19450100  0.09565400  1
  O  O39  1  0.20391500  0.69497000  0.59689800  1
  O  O40  1  0.29596800  0.80503700  0.90477100  1
  O  O41  1  0.79486800  0.30428100  0.40360200  1
  O  O42  1  0.59769500  0.59852100  0.30295100  1
  O  O43  1  0.09850900  0.09840000  0.80459500  1
  O  O44  1  0.40201400  0.40065700  0.69601600  1
  O  O45  1  0.90141500  0.90172900  0.19640600  1
  O  O46  1  0.89314300  0.40072900  0.69600700  1
  O  O47  1  0.39307700  0.90178800  0.19640100  1
  O  O48  1  0.10688900  0.59847900  0.30301500  1
  O  O49  1  0.60788200  0.09833500  0.80468300  1
