# generated using pymatgen
data_CoSb(PO4)2
_symmetry_space_group_name_H-M   'P 1'
_cell_length_a   6.06799128
_cell_length_b   10.14731932
_cell_length_c   11.26799299
_cell_angle_alpha   115.39214304
_cell_angle_beta   89.99272046
_cell_angle_gamma   90.02709963
_symmetry_Int_Tables_number   1
_chemical_formula_structural   CoSb(PO4)2
_chemical_formula_sum   'Co4 Sb4 P8 O32'
_cell_volume   626.78709418
_cell_formula_units_Z   4
loop_
 _symmetry_equiv_pos_site_id
 _symmetry_equiv_pos_as_xyz
  1  'x, y, z'
loop_
 _atom_site_type_symbol
 _atom_site_label
 _atom_site_symmetry_multiplicity
 _atom_site_fract_x
 _atom_site_fract_y
 _atom_site_fract_z
 _atom_site_occupancy
  Co  Co0  1  0.74991300  0.83773800  0.23951000  1
  Co  Co1  1  0.25010200  0.16229200  0.76053300  1
  Co  Co2  1  0.75011200  0.31736000  0.20472800  1
  Co  Co3  1  0.24937600  0.68278000  0.79540000  1
  Sb  Sb4  1  0.24987600  0.61166200  0.27527500  1
  Sb  Sb5  1  0.25023200  0.11879600  0.28181300  1
  Sb  Sb6  1  0.75044200  0.38833100  0.72470200  1
  Sb  Sb7  1  0.74964000  0.88121300  0.71815700  1
  P  P8  1  0.24997800  0.25262900  0.08752100  1
  P  P9  1  0.24987900  0.73823300  0.09712100  1
  P  P10  1  0.74970300  0.74743300  0.91249200  1
  P  P11  1  0.75018100  0.26176600  0.90285600  1
  P  P12  1  0.74986700  0.64183200  0.40153700  1
  P  P13  1  0.75011900  0.14698700  0.40527200  1
  P  P14  1  0.25045000  0.35811300  0.59845800  1
  P  P15  1  0.24974400  0.85296000  0.59474400  1
  O  O16  1  0.75015300  0.36382500  0.04687400  1
  O  O17  1  0.75007900  0.82876400  0.05997000  1
  O  O18  1  0.24957600  0.63611700  0.95311700  1
  O  O19  1  0.24982300  0.17122700  0.94005000  1
  O  O20  1  0.24983000  0.42120900  0.12030000  1
  O  O21  1  0.25014900  0.89822800  0.12357200  1
  O  O22  1  0.74999600  0.57883300  0.87963000  1
  O  O23  1  0.75008500  0.10174100  0.87633700  1
  O  O24  1  0.74959400  0.27334500  0.36818900  1
  O  O25  1  0.74999600  0.78410900  0.38929000  1
  O  O26  1  0.24996900  0.72663200  0.63182700  1
  O  O27  1  0.25033100  0.21585600  0.61071300  1
  O  O28  1  0.24958200  0.34173000  0.45815300  1
  O  O29  1  0.24991300  0.79630300  0.43915500  1
  O  O30  1  0.74997700  0.65815600  0.54179800  1
  O  O31  1  0.75092900  0.20365100  0.56085400  1
  O  O32  1  0.04959300  0.21553200  0.15514500  1
  O  O33  1  0.05527500  0.70182500  0.17759200  1
  O  O34  1  0.45055700  0.21566200  0.15497200  1
  O  O35  1  0.44453700  0.70168000  0.17743100  1
  O  O36  1  0.54911500  0.78444200  0.84510000  1
  O  O37  1  0.55564900  0.29825100  0.82245500  1
  O  O38  1  0.95007700  0.78459100  0.84488400  1
  O  O39  1  0.94491800  0.29831700  0.82254700  1
  O  O40  1  0.95675500  0.54079600  0.32464400  1
  O  O41  1  0.94951100  0.03966800  0.34988700  1
  O  O42  1  0.54280400  0.54086800  0.32471100  1
  O  O43  1  0.55072500  0.03948900  0.35044200  1
  O  O44  1  0.04388700  0.45932900  0.67569300  1
  O  O45  1  0.05020200  0.96020100  0.64980200  1
  O  O46  1  0.45783700  0.45890800  0.67487900  1
  O  O47  1  0.44896500  0.96059000  0.64986500  1
