# generated using pymatgen
data_La2VFeO6
_symmetry_space_group_name_H-M   'P 1'
_cell_length_a   5.67931770
_cell_length_b   7.91052372
_cell_length_c   5.61022326
_cell_angle_alpha   89.69830718
_cell_angle_beta   89.54266822
_cell_angle_gamma   90.05762925
_symmetry_Int_Tables_number   1
_chemical_formula_structural   La2VFeO6
_chemical_formula_sum   'La4 V2 Fe2 O12'
_cell_volume   252.03534598
_cell_formula_units_Z   2
loop_
 _symmetry_equiv_pos_site_id
 _symmetry_equiv_pos_as_xyz
  1  'x, y, z'
loop_
 _atom_site_type_symbol
 _atom_site_label
 _atom_site_symmetry_multiplicity
 _atom_site_fract_x
 _atom_site_fract_y
 _atom_site_fract_z
 _atom_site_occupancy
  La  La0  1  0.54294600  0.25121800  0.50972600  1
  La  La1  1  0.04146200  0.24844800  0.98862100  1
  La  La2  1  0.45704700  0.74878100  0.49025900  1
  La  La3  1  0.95854100  0.75156100  0.01136500  1
  V  V4  1  0.49998800  0.50001200  0.99999800  1
  V  V5  1  0.00000300  0.99999900  0.50000200  1
  Fe  Fe6  1  0.99995800  0.49998800  0.50006100  1
  Fe  Fe7  1  0.50001300  0.00001500  0.00001600  1
  O  O8  1  0.97762700  0.24711600  0.41174400  1
  O  O9  1  0.47708300  0.25187200  0.08821700  1
  O  O10  1  0.02238300  0.75287700  0.58824500  1
  O  O11  1  0.52292500  0.74813000  0.91177200  1
  O  O12  1  0.78494500  0.04715700  0.79359700  1
  O  O13  1  0.30004300  0.45090100  0.72067500  1
  O  O14  1  0.21506500  0.95283900  0.20639500  1
  O  O15  1  0.69996400  0.54910000  0.27931200  1
  O  O16  1  0.22868500  0.54512600  0.19104200  1
  O  O17  1  0.71368200  0.95432700  0.28977300  1
  O  O18  1  0.77131200  0.45486300  0.80896300  1
  O  O19  1  0.28632700  0.04566900  0.71021600  1
