# generated using pymatgen
data_Ba5Gd8Zn4O21
_symmetry_space_group_name_H-M   'P 1'
_cell_length_a   10.35178530
_cell_length_b   10.35178530
_cell_length_c   10.35178530
_cell_angle_alpha   94.52569342
_cell_angle_beta   94.52569342
_cell_angle_gamma   147.37186358
_symmetry_Int_Tables_number   1
_chemical_formula_structural   Ba5Gd8Zn4O21
_chemical_formula_sum   'Ba5 Gd8 Zn4 O21'
_cell_volume   574.03060807
_cell_formula_units_Z   1
loop_
 _symmetry_equiv_pos_site_id
 _symmetry_equiv_pos_as_xyz
  1  'x, y, z'
loop_
 _atom_site_type_symbol
 _atom_site_label
 _atom_site_symmetry_multiplicity
 _atom_site_fract_x
 _atom_site_fract_y
 _atom_site_fract_z
 _atom_site_occupancy
  Ba  Ba0  1  0.53338900  0.86155100  0.39493900  1
  Ba  Ba1  1  0.86155100  0.46661100  0.32816200  1
  Ba  Ba2  1  0.13844900  0.53338900  0.67183800  1
  Ba  Ba3  1  0.46661100  0.13844900  0.60506100  1
  Ba  Ba4  1  0.00000000  0.00000000  0.00000000  1
  Gd  Gd5  1  0.41095800  0.64266300  0.05362100  1
  Gd  Gd6  1  0.64266300  0.58904200  0.23170500  1
  Gd  Gd7  1  0.35733700  0.41095800  0.76829500  1
  Gd  Gd8  1  0.58904200  0.35733700  0.94637900  1
  Gd  Gd9  1  0.24739500  0.83281100  0.08020600  1
  Gd  Gd10  1  0.83281100  0.75260500  0.58541600  1
  Gd  Gd11  1  0.16718900  0.24739500  0.41458400  1
  Gd  Gd12  1  0.75260500  0.16718900  0.91979400  1
  Zn  Zn13  1  0.04095500  0.74760700  0.78856100  1
  Zn  Zn14  1  0.74760700  0.95904500  0.70665200  1
  Zn  Zn15  1  0.25239300  0.04095500  0.29334800  1
  Zn  Zn16  1  0.95904500  0.25239300  0.21143900  1
  O  O17  1  0.90147600  0.49509000  0.88863100  1
  O  O18  1  0.49509000  0.60646000  0.59361400  1
  O  O19  1  0.01284600  0.90147600  0.40638600  1
  O  O20  1  0.60646000  0.01284600  0.11136900  1
  O  O21  1  0.09852400  0.50491000  0.11136900  1
  O  O22  1  0.50491000  0.39354000  0.40638600  1
  O  O23  1  0.98715400  0.09852400  0.59361400  1
  O  O24  1  0.39354000  0.98715400  0.88863100  1
  O  O25  1  0.06990000  0.29527400  0.86835900  1
  O  O26  1  0.29527400  0.42691600  0.22537500  1
  O  O27  1  0.20154100  0.06990000  0.77462500  1
  O  O28  1  0.42691600  0.20154100  0.13164100  1
  O  O29  1  0.93010000  0.70472600  0.13164100  1
  O  O30  1  0.70472600  0.57308400  0.77462500  1
  O  O31  1  0.79845900  0.93010000  0.22537500  1
  O  O32  1  0.57308400  0.79845900  0.86835900  1
  O  O33  1  0.62649100  0.03460200  0.66109300  1
  O  O34  1  0.50000000  0.50000000  0.00000000  1
  O  O35  1  0.37350900  0.96539800  0.33890700  1
  O  O36  1  0.96539800  0.62649100  0.59188900  1
  O  O37  1  0.03460200  0.37350900  0.40811100  1
