# generated using pymatgen
data_SrMgCo(PO4)2
_symmetry_space_group_name_H-M   'P 1'
_cell_length_a   8.20375628
_cell_length_b   9.49078825
_cell_length_c   9.47325273
_cell_angle_alpha   116.94335876
_cell_angle_beta   96.81310331
_cell_angle_gamma   77.01408692
_symmetry_Int_Tables_number   1
_chemical_formula_structural   SrMgCo(PO4)2
_chemical_formula_sum   'Sr4 Mg4 Co4 P8 O32'
_cell_volume   640.59087086
_cell_formula_units_Z   4
loop_
 _symmetry_equiv_pos_site_id
 _symmetry_equiv_pos_as_xyz
  1  'x, y, z'
loop_
 _atom_site_type_symbol
 _atom_site_label
 _atom_site_symmetry_multiplicity
 _atom_site_fract_x
 _atom_site_fract_y
 _atom_site_fract_z
 _atom_site_occupancy
  Sr  Sr0  1  0.99789200  0.25131700  0.05211000  1
  Sr  Sr1  1  0.49809600  0.75277200  0.05344300  1
  Sr  Sr2  1  0.50184600  0.24889100  0.94782000  1
  Sr  Sr3  1  0.00186500  0.74765000  0.94693900  1
  Mg  Mg4  1  0.13809500  0.12706700  0.65506500  1
  Mg  Mg5  1  0.63725300  0.62592900  0.65540700  1
  Mg  Mg6  1  0.36206800  0.37271200  0.34472500  1
  Mg  Mg7  1  0.86277700  0.87404200  0.34436500  1
  Co  Co8  1  0.03713900  0.67470400  0.56347200  1
  Co  Co9  1  0.46210000  0.82522200  0.43630400  1
  Co  Co10  1  0.53692100  0.17316900  0.56288200  1
  Co  Co11  1  0.96376300  0.32697100  0.43772200  1
  P  P12  1  0.20926600  0.60186900  0.23801900  1
  P  P13  1  0.70868700  0.10246900  0.23737200  1
  P  P14  1  0.29092700  0.89796700  0.76206900  1
  P  P15  1  0.79133300  0.39755600  0.76253000  1
  P  P16  1  0.21614700  0.05903900  0.30405600  1
  P  P17  1  0.71782200  0.56001100  0.30367400  1
  P  P18  1  0.28361000  0.44108800  0.69603400  1
  P  P19  1  0.78223100  0.94004300  0.69631400  1
  O  O20  1  0.25174500  0.08113100  0.87856000  1
  O  O21  1  0.75148700  0.58076200  0.87855100  1
  O  O22  1  0.24827800  0.41878100  0.12149300  1
  O  O23  1  0.74875500  0.91910800  0.12156700  1
  O  O24  1  0.03831500  0.69140300  0.20391800  1
  O  O25  1  0.53689400  0.19052500  0.20254300  1
  O  O26  1  0.46212000  0.80855600  0.79613200  1
  O  O27  1  0.96294500  0.30900800  0.79699900  1
  O  O28  1  0.15133400  0.81434900  0.76590700  1
  O  O29  1  0.65201800  0.31340300  0.76551400  1
  O  O30  1  0.34893600  0.68520400  0.23378800  1
  O  O31  1  0.84795700  0.18654700  0.23438800  1
  O  O32  1  0.31006900  0.26710900  0.68877200  1
  O  O33  1  0.80973900  0.76686700  0.69099100  1
  O  O34  1  0.18980800  0.23316800  0.31164300  1
  O  O35  1  0.69030900  0.73330000  0.30910200  1
  O  O36  1  0.41414200  0.42284500  0.57720800  1
  O  O37  1  0.91197900  0.92076500  0.57621200  1
  O  O38  1  0.08539500  0.07730100  0.42269500  1
  O  O39  1  0.58828700  0.57892800  0.42378600  1
  O  O40  1  0.30780300  0.56261400  0.86717100  1
  O  O41  1  0.80730100  0.06259900  0.86679300  1
  O  O42  1  0.19192800  0.93757800  0.13289100  1
  O  O43  1  0.69270200  0.43754800  0.13307600  1
  O  O44  1  0.21481400  0.59664000  0.40173300  1
  O  O45  1  0.71244500  0.09737200  0.40102700  1
  O  O46  1  0.28544500  0.90358600  0.59840900  1
  O  O47  1  0.78737700  0.40262700  0.59890400  1
  O  O48  1  0.89929600  0.51586900  0.36449700  1
  O  O49  1  0.39725700  0.01480900  0.36505100  1
  O  O50  1  0.60085300  0.98393200  0.63542800  1
  O  O51  1  0.10243000  0.48527600  0.63492900  1
