# generated using pymatgen
data_Ta2Zn2CrO8
_symmetry_space_group_name_H-M   'P 1'
_cell_length_a   6.02131109
_cell_length_b   10.14364353
_cell_length_c   10.57220535
_cell_angle_alpha   90.88096980
_cell_angle_beta   91.07795283
_cell_angle_gamma   104.41162786
_symmetry_Int_Tables_number   1
_chemical_formula_structural   Ta2Zn2CrO8
_chemical_formula_sum   'Ta8 Zn8 Cr4 O32'
_cell_volume   625.16529861
_cell_formula_units_Z   4
loop_
 _symmetry_equiv_pos_site_id
 _symmetry_equiv_pos_as_xyz
  1  'x, y, z'
loop_
 _atom_site_type_symbol
 _atom_site_label
 _atom_site_symmetry_multiplicity
 _atom_site_fract_x
 _atom_site_fract_y
 _atom_site_fract_z
 _atom_site_occupancy
  Ta  Ta0  1  0.27924500  0.23608000  0.36335700  1
  Ta  Ta1  1  0.27928400  0.23599200  0.86334400  1
  Ta  Ta2  1  0.02980800  0.76582900  0.38608300  1
  Ta  Ta3  1  0.02993000  0.76586300  0.88608700  1
  Ta  Ta4  1  0.71831000  0.76426000  0.13423600  1
  Ta  Ta5  1  0.71832600  0.76430000  0.63419300  1
  Ta  Ta6  1  0.96757900  0.23450200  0.11148900  1
  Ta  Ta7  1  0.96757700  0.23452700  0.61153000  1
  Zn  Zn8  1  0.43546700  0.56478500  0.38241600  1
  Zn  Zn9  1  0.43548200  0.56476600  0.88240800  1
  Zn  Zn10  1  0.86870500  0.44184600  0.36447900  1
  Zn  Zn11  1  0.86871900  0.44184600  0.86448700  1
  Zn  Zn12  1  0.56183100  0.43546400  0.11516600  1
  Zn  Zn13  1  0.56180300  0.43550300  0.61518800  1
  Zn  Zn14  1  0.12883400  0.55835400  0.13313600  1
  Zn  Zn15  1  0.12884800  0.55838500  0.63313400  1
  Cr  Cr16  1  0.64372800  0.99769900  0.87523200  1
  Cr  Cr17  1  0.35401400  0.00242300  0.62195000  1
  Cr  Cr18  1  0.64381200  0.99809500  0.37510000  1
  Cr  Cr19  1  0.35388900  0.00243100  0.12225800  1
  O  O20  1  0.20182000  0.14575500  0.02941700  1
  O  O21  1  0.20170000  0.14576900  0.52938400  1
  O  O22  1  0.01722300  0.85223900  0.22206000  1
  O  O23  1  0.01721500  0.85227400  0.72208500  1
  O  O24  1  0.79583800  0.85463900  0.46815100  1
  O  O25  1  0.79582700  0.85457100  0.96815600  1
  O  O26  1  0.98025000  0.14809400  0.27551500  1
  O  O27  1  0.98024300  0.14809500  0.77550900  1
  O  O28  1  0.43922100  0.11726300  0.29284300  1
  O  O29  1  0.43917600  0.11714800  0.79279100  1
  O  O30  1  0.28669300  0.87806700  0.46273400  1
  O  O31  1  0.28663100  0.87806400  0.96289500  1
  O  O32  1  0.55837400  0.88327100  0.20456300  1
  O  O33  1  0.55824600  0.88325000  0.70445200  1
  O  O34  1  0.71108300  0.12226400  0.03448800  1
  O  O35  1  0.71106300  0.12235500  0.53448400  1
  O  O36  1  0.28657000  0.36098400  0.21362900  1
  O  O37  1  0.28657700  0.36094500  0.71364200  1
  O  O38  1  0.91882300  0.64114100  0.03417800  1
  O  O39  1  0.91882200  0.64115900  0.53419500  1
  O  O40  1  0.07893100  0.35935900  0.46356900  1
  O  O41  1  0.07889200  0.35931100  0.96356300  1
  O  O42  1  0.71073300  0.63949300  0.28405100  1
  O  O43  1  0.71072100  0.63954200  0.78404700  1
  O  O44  1  0.84293000  0.38777800  0.17824100  1
  O  O45  1  0.84292600  0.38782500  0.67825500  1
  O  O46  1  0.45050000  0.61287700  0.06959300  1
  O  O47  1  0.45048300  0.61290400  0.56959900  1
  O  O48  1  0.15414200  0.61234100  0.31939400  1
  O  O49  1  0.15414100  0.61234900  0.81939600  1
  O  O50  1  0.54713000  0.38739500  0.42802700  1
  O  O51  1  0.54712600  0.38735800  0.92799500  1
