# generated using pymatgen
data_Sr5Fe4MoO15
_symmetry_space_group_name_H-M   'P 1'
_cell_length_a   5.59065716
_cell_length_b   13.71127696
_cell_length_c   8.85189125
_cell_angle_alpha   104.84648423
_cell_angle_beta   71.57804413
_cell_angle_gamma   89.98420514
_symmetry_Int_Tables_number   1
_chemical_formula_structural   Sr5Fe4MoO15
_chemical_formula_sum   'Sr10 Fe8 Mo2 O30'
_cell_volume   619.83162263
_cell_formula_units_Z   2
loop_
 _symmetry_equiv_pos_site_id
 _symmetry_equiv_pos_as_xyz
  1  'x, y, z'
loop_
 _atom_site_type_symbol
 _atom_site_label
 _atom_site_symmetry_multiplicity
 _atom_site_fract_x
 _atom_site_fract_y
 _atom_site_fract_z
 _atom_site_occupancy
  Sr  Sr0  1  0.60085400  0.29960900  0.79771200  1
  Sr  Sr1  1  0.59971500  0.79903000  0.80017700  1
  Sr  Sr2  1  0.20600400  0.10239600  0.58751000  1
  Sr  Sr3  1  0.20723500  0.60142100  0.58550300  1
  Sr  Sr4  1  0.99472200  0.49836800  0.01069300  1
  Sr  Sr5  1  0.99371500  0.99811500  0.01254900  1
  Sr  Sr6  1  0.39515200  0.20413600  0.20907400  1
  Sr  Sr7  1  0.39603000  0.70381900  0.20783800  1
  Sr  Sr8  1  0.80460200  0.39736300  0.39087300  1
  Sr  Sr9  1  0.80478000  0.89710800  0.39025000  1
  Fe  Fe10  1  0.99912500  0.75544800  0.00190500  1
  Fe  Fe11  1  0.20196100  0.34560800  0.59568400  1
  Fe  Fe12  1  0.80298700  0.65169100  0.39353000  1
  Fe  Fe13  1  0.99983900  0.25403500  0.99986300  1
  Fe  Fe14  1  0.20147900  0.84557300  0.59670000  1
  Fe  Fe15  1  0.39668200  0.45057200  0.20684500  1
  Fe  Fe16  1  0.39752700  0.94869300  0.20472600  1
  Fe  Fe17  1  0.80231400  0.15241500  0.39504600  1
  Mo  Mo18  1  0.59926100  0.04968600  0.80150100  1
  Mo  Mo19  1  0.60028900  0.54935600  0.79941300  1
  O  O20  1  0.09779200  0.29838500  0.80363500  1
  O  O21  1  0.09900500  0.79640000  0.80362500  1
  O  O22  1  0.09573400  0.05164000  0.30020800  1
  O  O23  1  0.10476100  0.54943500  0.29539900  1
  O  O24  1  0.60447100  0.05158900  0.30062500  1
  O  O25  1  0.60157100  0.54953700  0.29584200  1
  O  O26  1  0.69808500  0.09563200  0.60475400  1
  O  O27  1  0.69928800  0.59781900  0.60229700  1
  O  O28  1  0.49916400  0.00415500  0.00230200  1
  O  O29  1  0.50352300  0.49909700  0.99343300  1
  O  O30  1  0.90289500  0.19997500  0.19302000  1
  O  O31  1  0.90487400  0.70113700  0.19071100  1
  O  O32  1  0.29870200  0.40048100  0.40183200  1
  O  O33  1  0.29585900  0.90736600  0.40862800  1
  O  O34  1  0.50479400  0.24638700  0.50082800  1
  O  O35  1  0.50186000  0.75028400  0.49888800  1
  O  O36  1  0.69906700  0.34988200  0.10038600  1
  O  O37  1  0.69818700  0.85050700  0.10001000  1
  O  O38  1  0.99358400  0.24646100  0.50052800  1
  O  O39  1  0.99942100  0.75006600  0.49858900  1
  O  O40  1  0.19911600  0.34973200  0.10004100  1
  O  O41  1  0.20294100  0.85051600  0.09986600  1
  O  O42  1  0.89307900  0.45153700  0.70297200  1
  O  O43  1  0.88963200  0.95204500  0.71083600  1
  O  O44  1  0.30555900  0.14887900  0.89802500  1
  O  O45  1  0.30637600  0.64686600  0.89686300  1
  O  O46  1  0.40367300  0.45169800  0.70301300  1
  O  O47  1  0.39996400  0.95216300  0.71076900  1
  O  O48  1  0.79655800  0.14897400  0.89793800  1
  O  O49  1  0.79619000  0.64691200  0.89674200  1
