# generated using pymatgen
data_NaMo3P3O13
_symmetry_space_group_name_H-M   'P 1'
_cell_length_a   6.68194400
_cell_length_b   7.63028700
_cell_length_c   10.90770130
_cell_angle_alpha   80.97996247
_cell_angle_beta   90.00000000
_cell_angle_gamma   90.00000000
_symmetry_Int_Tables_number   1
_chemical_formula_structural   NaMo3P3O13
_chemical_formula_sum   'Na2 Mo6 P6 O26'
_cell_volume   549.25344046
_cell_formula_units_Z   2
loop_
 _symmetry_equiv_pos_site_id
 _symmetry_equiv_pos_as_xyz
  1  'x, y, z'
loop_
 _atom_site_type_symbol
 _atom_site_label
 _atom_site_symmetry_multiplicity
 _atom_site_fract_x
 _atom_site_fract_y
 _atom_site_fract_z
 _atom_site_occupancy
  Na  Na0  1  0.75000000  0.34552200  0.19016000  1
  Na  Na1  1  0.25000000  0.65447800  0.80984000  1
  Mo  Mo2  1  0.25000000  0.64609700  0.20602900  1
  Mo  Mo3  1  0.75000000  0.35390300  0.79397100  1
  Mo  Mo4  1  0.25000000  0.23351000  0.44816700  1
  Mo  Mo5  1  0.50000000  0.00000000  0.00000000  1
  Mo  Mo6  1  0.75000000  0.76649000  0.55183300  1
  Mo  Mo7  1  0.00000000  0.00000000  0.00000000  1
  P  P8  1  0.25000000  0.78380300  0.48745800  1
  P  P9  1  0.75000000  0.21619700  0.51254200  1
  P  P10  1  0.25000000  0.25221900  0.76887000  1
  P  P11  1  0.75000000  0.74778100  0.23113000  1
  P  P12  1  0.75000000  0.68485900  0.88063400  1
  P  P13  1  0.25000000  0.31514100  0.11936600  1
  O  O14  1  0.75000000  0.64417800  0.74290200  1
  O  O15  1  0.56543300  0.25581300  0.42827300  1
  O  O16  1  0.25000000  0.18473700  0.64496800  1
  O  O17  1  0.55667700  0.78354700  0.90280200  1
  O  O18  1  0.75000000  0.35020100  0.60926300  1
  O  O19  1  0.75000000  0.12894500  0.90126900  1
  O  O20  1  0.25000000  0.64979900  0.39073700  1
  O  O21  1  0.05667700  0.21645300  0.09719800  1
  O  O22  1  0.25000000  0.97285200  0.41172800  1
  O  O23  1  0.75000000  0.02714800  0.58827200  1
  O  O24  1  0.06642000  0.36571200  0.79080100  1
  O  O25  1  0.25000000  0.87105500  0.09873100  1
  O  O26  1  0.56642000  0.63428800  0.20919900  1
  O  O27  1  0.75000000  0.48980800  0.94923800  1
  O  O28  1  0.75000000  0.81526300  0.35503200  1
  O  O29  1  0.44332300  0.21645300  0.09719800  1
  O  O30  1  0.93456700  0.25581300  0.42827300  1
  O  O31  1  0.43456700  0.74418700  0.57172700  1
  O  O32  1  0.43358000  0.36571200  0.79080100  1
  O  O33  1  0.25000000  0.35582200  0.25709800  1
  O  O34  1  0.75000000  0.91804600  0.12486200  1
  O  O35  1  0.25000000  0.08195400  0.87513800  1
  O  O36  1  0.93358000  0.63428800  0.20919900  1
  O  O37  1  0.94332300  0.78354700  0.90280200  1
  O  O38  1  0.06543300  0.74418700  0.57172700  1
  O  O39  1  0.25000000  0.51019200  0.05076200  1
