# generated using pymatgen
data_Na3CoBPO7
_symmetry_space_group_name_H-M   'P 1'
_cell_length_a   5.20094882
_cell_length_b   11.14537573
_cell_length_c   11.13978014
_cell_angle_alpha   105.14147669
_cell_angle_beta   91.40838073
_cell_angle_gamma   88.56734359
_symmetry_Int_Tables_number   1
_chemical_formula_structural   Na3CoBPO7
_chemical_formula_sum   'Na12 Co4 B4 P4 O28'
_cell_volume   623.01310123
_cell_formula_units_Z   4
loop_
 _symmetry_equiv_pos_site_id
 _symmetry_equiv_pos_as_xyz
  1  'x, y, z'
loop_
 _atom_site_type_symbol
 _atom_site_label
 _atom_site_symmetry_multiplicity
 _atom_site_fract_x
 _atom_site_fract_y
 _atom_site_fract_z
 _atom_site_occupancy
  Na  Na0  1  0.76360000  0.16316900  0.08685300  1
  Na  Na1  1  0.76160300  0.66429500  0.58635000  1
  Na  Na2  1  0.23528400  0.83446500  0.91505700  1
  Na  Na3  1  0.23534100  0.33512900  0.41446100  1
  Na  Na4  1  0.25468300  0.13620300  0.87289200  1
  Na  Na5  1  0.25457800  0.63530400  0.37221400  1
  Na  Na6  1  0.25479700  0.37769300  0.11337600  1
  Na  Na7  1  0.25455400  0.87703800  0.61452200  1
  Na  Na8  1  0.74627400  0.62139300  0.88366600  1
  Na  Na9  1  0.74570600  0.12094900  0.38336700  1
  Na  Na10  1  0.74553100  0.86604900  0.12888800  1
  Na  Na11  1  0.74385300  0.36687500  0.62841300  1
  Co  Co12  1  0.78252700  0.04401900  0.70661300  1
  Co  Co13  1  0.22716600  0.95332300  0.29494100  1
  Co  Co14  1  0.78251800  0.54358600  0.20585000  1
  Co  Co15  1  0.21956100  0.45034600  0.79206100  1
  B  B16  1  0.73035600  0.41032100  0.33994800  1
  B  B17  1  0.73024900  0.91019800  0.83987400  1
  B  B18  1  0.26666000  0.59158200  0.65943600  1
  B  B19  1  0.27233100  0.09120500  0.15888600  1
  P  P20  1  0.72001400  0.33406200  0.91559100  1
  P  P21  1  0.71771900  0.83477500  0.41538400  1
  P  P22  1  0.28187900  0.66350400  0.08539700  1
  P  P23  1  0.28263000  0.16368600  0.58642600  1
  O  O24  1  0.29074800  0.16679700  0.08334600  1
  O  O25  1  0.29728100  0.66560800  0.58285800  1
  O  O26  1  0.70334900  0.83541700  0.91486300  1
  O  O27  1  0.70344900  0.33550200  0.41514100  1
  O  O28  1  0.96520000  0.44695400  0.30336700  1
  O  O29  1  0.96515900  0.94671700  0.80312200  1
  O  O30  1  0.02850200  0.55736900  0.69470200  1
  O  O31  1  0.03732200  0.05361500  0.19642800  1
  O  O32  1  0.53122000  0.46506200  0.28444200  1
  O  O33  1  0.53112100  0.96549400  0.78481400  1
  O  O34  1  0.46973200  0.53914100  0.71526500  1
  O  O35  1  0.47918000  0.03914500  0.21085600  1
  O  O36  1  0.42534900  0.35742200  0.89339000  1
  O  O37  1  0.41949300  0.85808200  0.39251300  1
  O  O38  1  0.57671900  0.64135700  0.10827300  1
  O  O39  1  0.57715400  0.14215500  0.60879100  1
  O  O40  1  0.12533700  0.59106200  0.15900900  1
  O  O41  1  0.12566900  0.09102200  0.65919800  1
  O  O42  1  0.87269400  0.40750000  0.84116100  1
  O  O43  1  0.86898800  0.90822100  0.34199800  1
  O  O44  1  0.78197300  0.19287800  0.87378500  1
  O  O45  1  0.77561200  0.69339700  0.37379800  1
  O  O46  1  0.78249800  0.37585400  0.05673700  1
  O  O47  1  0.77587500  0.87637600  0.55687400  1
  O  O48  1  0.21939100  0.62263100  0.94368000  1
  O  O49  1  0.22004500  0.12394100  0.44465300  1
  O  O50  1  0.22066600  0.80583100  0.12737100  1
  O  O51  1  0.22085900  0.30628600  0.62909700  1
