# generated using pymatgen
data_SrMgNi(PO4)2
_symmetry_space_group_name_H-M   'P 1'
_cell_length_a   5.50701427
_cell_length_b   6.91385132
_cell_length_c   9.29782607
_cell_angle_alpha   111.11399551
_cell_angle_beta   101.18360057
_cell_angle_gamma   97.98988901
_symmetry_Int_Tables_number   1
_chemical_formula_structural   SrMgNi(PO4)2
_chemical_formula_sum   'Sr2 Mg2 Ni2 P4 O16'
_cell_volume   315.42363734
_cell_formula_units_Z   2
loop_
 _symmetry_equiv_pos_site_id
 _symmetry_equiv_pos_as_xyz
  1  'x, y, z'
loop_
 _atom_site_type_symbol
 _atom_site_label
 _atom_site_symmetry_multiplicity
 _atom_site_fract_x
 _atom_site_fract_y
 _atom_site_fract_z
 _atom_site_occupancy
  Sr  Sr0  1  0.25073300  0.80212500  0.05169700  1
  Sr  Sr1  1  0.74926700  0.19787500  0.94830300  1
  Mg  Mg2  1  0.98482900  0.38832900  0.65547800  1
  Mg  Mg3  1  0.01517100  0.61167100  0.34452200  1
  Ni  Ni4  1  0.64092100  0.85332200  0.56051900  1
  Ni  Ni5  1  0.35907900  0.14667800  0.43948100  1
  P  P6  1  0.39738600  0.42551800  0.23878600  1
  P  P7  1  0.60261400  0.57448200  0.76121400  1
  P  P8  1  0.84420900  0.02631700  0.30375300  1
  P  P9  1  0.15579100  0.97368300  0.69624700  1
  O  O10  1  0.82034900  0.54721500  0.88232300  1
  O  O11  1  0.66092000  0.47266900  0.20717200  1
  O  O12  1  0.66202200  0.80078500  0.76410300  1
  O  O13  1  0.95571100  0.11731100  0.69575700  1
  O  O14  1  0.33908000  0.52733100  0.79282800  1
  O  O15  1  0.99848300  0.74541700  0.57389600  1
  O  O16  1  0.00151700  0.25458300  0.42610400  1
  O  O17  1  0.25940200  0.99488700  0.86633000  1
  O  O18  1  0.33797800  0.19921500  0.23589700  1
  O  O19  1  0.74059800  0.00511300  0.13367000  1
  O  O20  1  0.17965100  0.45278500  0.11767700  1
  O  O21  1  0.38295600  0.59237300  0.40288400  1
  O  O22  1  0.61704400  0.40762700  0.59711600  1
  O  O23  1  0.62138600  0.95454500  0.36952200  1
  O  O24  1  0.04428900  0.88268900  0.30424300  1
  O  O25  1  0.37861400  0.04545500  0.63047800  1
