# generated using pymatgen
data_CaV5O7
_symmetry_space_group_name_H-M   'P 1'
_cell_length_a   3.10472316
_cell_length_b   5.35949865
_cell_length_c   18.00458703
_cell_angle_alpha   90.00626737
_cell_angle_beta   90.00065248
_cell_angle_gamma   106.87432783
_symmetry_Int_Tables_number   1
_chemical_formula_structural   CaV5O7
_chemical_formula_sum   'Ca2 V10 O14'
_cell_volume   286.69268727
_cell_formula_units_Z   2
loop_
 _symmetry_equiv_pos_site_id
 _symmetry_equiv_pos_as_xyz
  1  'x, y, z'
loop_
 _atom_site_type_symbol
 _atom_site_label
 _atom_site_symmetry_multiplicity
 _atom_site_fract_x
 _atom_site_fract_y
 _atom_site_fract_z
 _atom_site_occupancy
  Ca  Ca0  1  0.78976000  0.57938400  0.74998200  1
  Ca  Ca1  1  0.20880400  0.41686000  0.25011200  1
  V  V2  1  0.72675900  0.45373600  0.42949700  1
  V  V3  1  0.72626900  0.45344100  0.07055800  1
  V  V4  1  0.45879400  0.91694900  0.15130800  1
  V  V5  1  0.45858800  0.91682900  0.34871400  1
  V  V6  1  0.00218500  0.00431000  0.49705400  1
  V  V7  1  0.00207900  0.00421500  0.00290400  1
  V  V8  1  0.27289500  0.54577500  0.57276700  1
  V  V9  1  0.27292900  0.54592000  0.92731600  1
  V  V10  1  0.54099100  0.08194400  0.84865200  1
  V  V11  1  0.54111700  0.08224500  0.65108600  1
  O  O12  1  0.45854200  0.91674800  0.74996300  1
  O  O13  1  0.53972500  0.07876100  0.25008400  1
  O  O14  1  0.63022300  0.26065600  0.95869700  1
  O  O15  1  0.36846700  0.73674300  0.03999200  1
  O  O16  1  0.36854700  0.73689700  0.45999200  1
  O  O17  1  0.63029400  0.26066500  0.54131500  1
  O  O18  1  0.16729100  0.33486600  0.82757100  1
  O  O19  1  0.83239700  0.66315700  0.17114900  1
  O  O20  1  0.83203800  0.66293600  0.32887100  1
  O  O21  1  0.16738200  0.33494700  0.67236400  1
  O  O22  1  0.91556400  0.83080600  0.89121800  1
  O  O23  1  0.08596900  0.17519200  0.11286100  1
  O  O24  1  0.08682700  0.17522300  0.38724200  1
  O  O25  1  0.91556800  0.83079500  0.60873300  1
