# generated using pymatgen
data_Al3Pd5
_symmetry_space_group_name_H-M   'P 1'
_cell_length_a   4.07488000
_cell_length_b   5.44614300
_cell_length_c   10.65003400
_cell_angle_alpha   90.00000000
_cell_angle_beta   90.00000000
_cell_angle_gamma   90.00000000
_symmetry_Int_Tables_number   1
_chemical_formula_structural   Al3Pd5
_chemical_formula_sum   'Al6 Pd10'
_cell_volume   236.34959289
_cell_formula_units_Z   2
loop_
 _symmetry_equiv_pos_site_id
 _symmetry_equiv_pos_as_xyz
  1  'x, y, z'
loop_
 _atom_site_type_symbol
 _atom_site_label
 _atom_site_symmetry_multiplicity
 _atom_site_fract_x
 _atom_site_fract_y
 _atom_site_fract_z
 _atom_site_occupancy
  Al  Al0  1  0.00000000  0.00000000  0.00000000  1
  Al  Al1  1  0.00000000  0.50000000  0.50000000  1
  Al  Al2  1  0.50000000  0.16087700  0.35691200  1
  Al  Al3  1  0.50000000  0.83912300  0.64308800  1
  Al  Al4  1  0.50000000  0.66087700  0.14308800  1
  Al  Al5  1  0.50000000  0.33912300  0.85691200  1
  Pd  Pd6  1  0.50000000  0.18673000  0.10551900  1
  Pd  Pd7  1  0.50000000  0.81327000  0.89448100  1
  Pd  Pd8  1  0.50000000  0.68673000  0.39448100  1
  Pd  Pd9  1  0.50000000  0.31327000  0.60551900  1
  Pd  Pd10  1  0.00000000  0.00000000  0.50000000  1
  Pd  Pd11  1  0.00000000  0.50000000  0.00000000  1
  Pd  Pd12  1  0.00000000  0.90359900  0.23223600  1
  Pd  Pd13  1  0.00000000  0.09640100  0.76776400  1
  Pd  Pd14  1  0.00000000  0.40359900  0.26776400  1
  Pd  Pd15  1  0.00000000  0.59640100  0.73223600  1
