# generated using pymatgen
data_Na3CoPCO7
_symmetry_space_group_name_H-M   'P 1'
_cell_length_a   6.61589959
_cell_length_b   10.45280252
_cell_length_c   10.40549737
_cell_angle_alpha   118.49415027
_cell_angle_beta   89.88686226
_cell_angle_gamma   90.22568528
_symmetry_Int_Tables_number   1
_chemical_formula_structural   Na3CoPCO7
_chemical_formula_sum   'Na12 Co4 P4 C4 O28'
_cell_volume   632.41723899
_cell_formula_units_Z   4
loop_
 _symmetry_equiv_pos_site_id
 _symmetry_equiv_pos_as_xyz
  1  'x, y, z'
loop_
 _atom_site_type_symbol
 _atom_site_label
 _atom_site_symmetry_multiplicity
 _atom_site_fract_x
 _atom_site_fract_y
 _atom_site_fract_z
 _atom_site_occupancy
  Na  Na0  1  0.48687900  0.50549800  0.49996800  1
  Na  Na1  1  0.48629700  0.00575200  0.00224700  1
  Na  Na2  1  0.98444400  0.49722500  0.49996300  1
  Na  Na3  1  0.98425200  0.99897900  0.00271200  1
  Na  Na4  1  0.22516900  0.30133300  0.13836500  1
  Na  Na5  1  0.22304800  0.80059900  0.63829100  1
  Na  Na6  1  0.72043200  0.69644400  0.86372300  1
  Na  Na7  1  0.71919300  0.19725700  0.36475900  1
  Na  Na8  1  0.49073100  0.49168800  0.00041400  1
  Na  Na9  1  0.48812800  0.99183600  0.49758400  1
  Na  Na10  1  0.99110300  0.50022800  0.99739100  1
  Na  Na11  1  0.99225900  0.00674000  0.49899700  1
  Co  Co12  1  0.74719100  0.66327900  0.37008400  1
  Co  Co13  1  0.23415000  0.83080900  0.12157700  1
  Co  Co14  1  0.74653100  0.16140800  0.86859900  1
  Co  Co15  1  0.24331400  0.33906200  0.62868500  1
  P  P16  1  0.23881000  0.66454800  0.31653500  1
  P  P17  1  0.23820900  0.16297100  0.81660700  1
  P  P18  1  0.73747300  0.33627100  0.68235400  1
  P  P19  1  0.73585800  0.83544900  0.18160100  1
  C  C20  1  0.73726900  0.32895300  0.17228000  1
  C  C21  1  0.73595300  0.82935800  0.67243600  1
  C  C22  1  0.23818200  0.67030400  0.82912100  1
  C  C23  1  0.23983900  0.17453000  0.33060700  1
  O  O24  1  0.74199700  0.19269800  0.14191400  1
  O  O25  1  0.74137800  0.69276600  0.64097100  1
  O  O26  1  0.23497000  0.80898200  0.86797700  1
  O  O27  1  0.23993700  0.31281100  0.36712900  1
  O  O28  1  0.73210500  0.43095700  0.30947500  1
  O  O29  1  0.73043800  0.93054400  0.81004000  1
  O  O30  1  0.23275700  0.57404200  0.69034600  1
  O  O31  1  0.23793100  0.07699900  0.19225400  1
  O  O32  1  0.05061600  0.16058100  0.90903500  1
  O  O33  1  0.05105800  0.66336800  0.40955700  1
  O  O34  1  0.54946800  0.83986600  0.09080700  1
  O  O35  1  0.55083400  0.34198500  0.59197500  1
  O  O36  1  0.42523500  0.16791000  0.91047400  1
  O  O37  1  0.42533700  0.66814600  0.41029600  1
  O  O38  1  0.92423400  0.83100500  0.08683800  1
  O  O39  1  0.92486200  0.33357600  0.58908400  1
  O  O40  1  0.73815400  0.36259400  0.06797500  1
  O  O41  1  0.73652800  0.86404900  0.56890800  1
  O  O42  1  0.24786700  0.62987200  0.92844500  1
  O  O43  1  0.24240000  0.13613900  0.43160500  1
  O  O44  1  0.23721700  0.52813500  0.16547400  1
  O  O45  1  0.23831200  0.02683300  0.66556500  1
  O  O46  1  0.73977600  0.46994200  0.83505600  1
  O  O47  1  0.74088500  0.96986800  0.33354700  1
  O  O48  1  0.22924100  0.30595900  0.80436000  1
  O  O49  1  0.23334200  0.80738600  0.30388000  1
  O  O50  1  0.72853400  0.69106500  0.19107700  1
  O  O51  1  0.72827300  0.19140400  0.69103700  1
