# generated using pymatgen
data_Ba6Nd2Ti4O17
_symmetry_space_group_name_H-M   'P 1'
_cell_length_a   6.06662667
_cell_length_b   6.06662667
_cell_length_c   30.48331700
_cell_angle_alpha   90.00000000
_cell_angle_beta   90.00000000
_cell_angle_gamma   120.00000726
_symmetry_Int_Tables_number   1
_chemical_formula_structural   Ba6Nd2Ti4O17
_chemical_formula_sum   'Ba12 Nd4 Ti8 O34'
_cell_volume   971.59967696
_cell_formula_units_Z   2
loop_
 _symmetry_equiv_pos_site_id
 _symmetry_equiv_pos_as_xyz
  1  'x, y, z'
loop_
 _atom_site_type_symbol
 _atom_site_label
 _atom_site_symmetry_multiplicity
 _atom_site_fract_x
 _atom_site_fract_y
 _atom_site_fract_z
 _atom_site_occupancy
  Ba  Ba0  1  0.00000000  0.00000000  0.75000000  1
  Ba  Ba1  1  0.00000000  0.00000000  0.25000000  1
  Ba  Ba2  1  0.33333300  0.66666700  0.31321500  1
  Ba  Ba3  1  0.66666700  0.33333300  0.81321500  1
  Ba  Ba4  1  0.66666700  0.33333300  0.68678500  1
  Ba  Ba5  1  0.33333300  0.66666700  0.18678500  1
  Ba  Ba6  1  0.66666700  0.33333300  0.41123800  1
  Ba  Ba7  1  0.33333300  0.66666700  0.91123800  1
  Ba  Ba8  1  0.33333300  0.66666700  0.58876200  1
  Ba  Ba9  1  0.66666700  0.33333300  0.08876200  1
  Ba  Ba10  1  0.00000000  0.00000000  0.50000000  1
  Ba  Ba11  1  0.00000000  0.00000000  0.00000000  1
  Nd  Nd12  1  0.00000000  0.00000000  0.37357400  1
  Nd  Nd13  1  0.00000000  0.00000000  0.87357400  1
  Nd  Nd14  1  0.00000000  0.00000000  0.62642600  1
  Nd  Nd15  1  0.00000000  0.00000000  0.12642600  1
  Ti  Ti16  1  0.66666700  0.33333300  0.29575800  1
  Ti  Ti17  1  0.33333300  0.66666700  0.79575800  1
  Ti  Ti18  1  0.33333300  0.66666700  0.70424200  1
  Ti  Ti19  1  0.66666700  0.33333300  0.20424200  1
  Ti  Ti20  1  0.33333300  0.66666700  0.44740900  1
  Ti  Ti21  1  0.66666700  0.33333300  0.94740900  1
  Ti  Ti22  1  0.66666700  0.33333300  0.55259100  1
  Ti  Ti23  1  0.33333300  0.66666700  0.05259100  1
  O  O24  1  0.48148400  0.96296800  0.75000000  1
  O  O25  1  0.51851600  0.48148400  0.25000000  1
  O  O26  1  0.96296800  0.48148400  0.25000000  1
  O  O27  1  0.03703200  0.51851600  0.75000000  1
  O  O28  1  0.48148400  0.51851600  0.75000000  1
  O  O29  1  0.51851600  0.03703200  0.25000000  1
  O  O30  1  0.35642800  0.17821400  0.32904200  1
  O  O31  1  0.82178600  0.17821400  0.32904200  1
  O  O32  1  0.82178600  0.64357200  0.32904200  1
  O  O33  1  0.17821400  0.35642800  0.82904200  1
  O  O34  1  0.64357200  0.82178600  0.67095800  1
  O  O35  1  0.64357200  0.82178600  0.82904200  1
  O  O36  1  0.17821400  0.82178600  0.82904200  1
  O  O37  1  0.82178600  0.64357200  0.17095800  1
  O  O38  1  0.82178600  0.17821400  0.17095800  1
  O  O39  1  0.17821400  0.82178600  0.67095800  1
  O  O40  1  0.17821400  0.35642800  0.67095800  1
  O  O41  1  0.35642800  0.17821400  0.17095800  1
  O  O42  1  0.66018300  0.83009100  0.42511100  1
  O  O43  1  0.16990900  0.83009100  0.42511100  1
  O  O44  1  0.16990900  0.33981700  0.42511100  1
  O  O45  1  0.83009100  0.66018300  0.92511100  1
  O  O46  1  0.33981700  0.16990900  0.57488900  1
  O  O47  1  0.33981700  0.16990900  0.92511100  1
  O  O48  1  0.33333300  0.66666700  0.99423200  1
  O  O49  1  0.66666700  0.33333300  0.49423200  1
  O  O50  1  0.66666700  0.33333300  0.00576800  1
  O  O51  1  0.33333300  0.66666700  0.50576800  1
  O  O52  1  0.66018300  0.83009100  0.07488900  1
  O  O53  1  0.83009100  0.66018300  0.57488900  1
  O  O54  1  0.83009100  0.16990900  0.57488900  1
  O  O55  1  0.16990900  0.83009100  0.07488900  1
  O  O56  1  0.16990900  0.33981700  0.07488900  1
  O  O57  1  0.83009100  0.16990900  0.92511100  1
