# generated using pymatgen
data_Li5Mn3(SbO5)2
_symmetry_space_group_name_H-M   'P 1'
_cell_length_a   5.36832190
_cell_length_b   8.32531940
_cell_length_c   10.88626678
_cell_angle_alpha   101.24429019
_cell_angle_beta   100.27146292
_cell_angle_gamma   108.89968508
_symmetry_Int_Tables_number   1
_chemical_formula_structural   Li5Mn3(SbO5)2
_chemical_formula_sum   'Li10 Mn6 Sb4 O20'
_cell_volume   435.91880425
_cell_formula_units_Z   2
loop_
 _symmetry_equiv_pos_site_id
 _symmetry_equiv_pos_as_xyz
  1  'x, y, z'
loop_
 _atom_site_type_symbol
 _atom_site_label
 _atom_site_symmetry_multiplicity
 _atom_site_fract_x
 _atom_site_fract_y
 _atom_site_fract_z
 _atom_site_occupancy
  Li  Li0  1  0.50455500  0.48504500  0.24296800  1
  Li  Li1  1  0.50943300  0.51305400  0.75491200  1
  Li  Li2  1  0.86754100  0.38924300  0.11900000  1
  Li  Li3  1  0.88353700  0.39986100  0.62546500  1
  Li  Li4  1  0.11683000  0.60463300  0.37633900  1
  Li  Li5  1  0.09601500  0.59424700  0.88060400  1
  Li  Li6  1  0.28961400  0.76489500  0.17384100  1
  Li  Li7  1  0.29436100  0.80265100  0.70200800  1
  Li  Li8  1  0.70466600  0.23095000  0.30839800  1
  Li  Li9  1  0.70551500  0.23993300  0.82493300  1
  Mn  Mn10  1  0.49964000  0.00038500  0.50152700  1
  Mn  Mn11  1  0.90040300  0.89518500  0.84372300  1
  Mn  Mn12  1  0.11231200  0.11003800  0.15566400  1
  Mn  Mn13  1  0.49953100  0.00894600  0.00137700  1
  Mn  Mn14  1  0.89299400  0.88975200  0.34196200  1
  Mn  Mn15  1  0.10448600  0.10846800  0.66054400  1
  Sb  Sb16  1  0.72002700  0.69713600  0.04662700  1
  Sb  Sb17  1  0.70710200  0.69234600  0.54642700  1
  Sb  Sb18  1  0.28443100  0.30354200  0.45275100  1
  Sb  Sb19  1  0.27646000  0.30356200  0.94746000  1
  O  O20  1  0.08617500  0.84954500  0.02849800  1
  O  O21  1  0.06728800  0.82378900  0.51492400  1
  O  O22  1  0.92038100  0.16218000  0.47702100  1
  O  O23  1  0.89843600  0.16452000  0.98071800  1
  O  O24  1  0.69946200  0.91617600  0.16019700  1
  O  O25  1  0.68775100  0.91335900  0.65551700  1
  O  O26  1  0.30195000  0.08046200  0.34612700  1
  O  O27  1  0.29316000  0.02663400  0.81312400  1
  O  O28  1  0.35029900  0.55870600  0.07295200  1
  O  O29  1  0.32875000  0.54223100  0.56648400  1
  O  O30  1  0.66303100  0.45288700  0.43218800  1
  O  O31  1  0.73327500  0.48802600  0.92833100  1
  O  O32  1  0.50812100  0.24176600  0.14055000  1
  O  O33  1  0.47469400  0.24857800  0.60888400  1
  O  O34  1  0.51885800  0.75067600  0.39156000  1
  O  O35  1  0.52434700  0.75200900  0.89072600  1
  O  O36  1  0.90911000  0.65415200  0.20906600  1
  O  O37  1  0.88707400  0.64838400  0.70526000  1
  O  O38  1  0.10391900  0.34758600  0.29330000  1
  O  O39  1  0.07446900  0.34446300  0.77804600  1
