# generated using pymatgen
data_Ca2V3O8
_symmetry_space_group_name_H-M   'P 1'
_cell_length_a   6.04378101
_cell_length_b   6.04381502
_cell_length_c   10.60957000
_cell_angle_alpha   89.99973286
_cell_angle_beta   90.00031777
_cell_angle_gamma   119.99512418
_symmetry_Int_Tables_number   1
_chemical_formula_structural   Ca2V3O8
_chemical_formula_sum   'Ca4 V6 O16'
_cell_volume   335.63684729
_cell_formula_units_Z   2
loop_
 _symmetry_equiv_pos_site_id
 _symmetry_equiv_pos_as_xyz
  1  'x, y, z'
loop_
 _atom_site_type_symbol
 _atom_site_label
 _atom_site_symmetry_multiplicity
 _atom_site_fract_x
 _atom_site_fract_y
 _atom_site_fract_z
 _atom_site_occupancy
  Ca  Ca0  1  0.66665800  0.33333600  0.02592500  1
  Ca  Ca1  1  0.33332700  0.66666700  0.52592200  1
  Ca  Ca2  1  0.66667600  0.33332500  0.43154600  1
  Ca  Ca3  1  0.33332800  0.66667800  0.93154600  1
  V  V4  1  0.67306900  0.83641400  0.24581200  1
  V  V5  1  0.83653700  0.16345000  0.74584000  1
  V  V6  1  0.16336900  0.32692700  0.24581300  1
  V  V7  1  0.83652400  0.67307600  0.74581400  1
  V  V8  1  0.32692600  0.16347400  0.74581100  1
  V  V9  1  0.16355800  0.83664500  0.24583200  1
  O  O10  1  0.84668700  0.15385100  0.15388900  1
  O  O11  1  0.69288400  0.84642400  0.65389000  1
  O  O12  1  0.15358600  0.30711600  0.65389100  1
  O  O13  1  0.84615800  0.69288100  0.15388900  1
  O  O14  1  0.30712700  0.15331500  0.15388900  1
  O  O15  1  0.15358500  0.84641500  0.65388900  1
  O  O16  1  0.52340800  0.47659500  0.84920600  1
  O  O17  1  0.04683000  0.52362900  0.34917900  1
  O  O18  1  0.47680400  0.95317400  0.34917700  1
  O  O19  1  0.52341200  0.04683100  0.84917700  1
  O  O20  1  0.99999900  0.00000400  0.34412200  1
  O  O21  1  0.00000600  0.99999600  0.84412700  1
  O  O22  1  0.33333300  0.66666500  0.14522100  1
  O  O23  1  0.95317200  0.47658500  0.84917400  1
  O  O24  1  0.47637800  0.52319400  0.34919700  1
  O  O25  1  0.66666100  0.33334000  0.64522100  1
