# generated using pymatgen
data_Ca2V3O8
_symmetry_space_group_name_H-M   'P 1'
_cell_length_a   6.06596788
_cell_length_b   6.06197030
_cell_length_c   10.56379326
_cell_angle_alpha   90.02429648
_cell_angle_beta   90.01686391
_cell_angle_gamma   60.03835127
_symmetry_Int_Tables_number   1
_chemical_formula_structural   Ca2V3O8
_chemical_formula_sum   'Ca4 V6 O16'
_cell_volume   336.53644231
_cell_formula_units_Z   2
loop_
 _symmetry_equiv_pos_site_id
 _symmetry_equiv_pos_as_xyz
  1  'x, y, z'
loop_
 _atom_site_type_symbol
 _atom_site_label
 _atom_site_symmetry_multiplicity
 _atom_site_fract_x
 _atom_site_fract_y
 _atom_site_fract_z
 _atom_site_occupancy
  Ca  Ca0  1  0.33357900  0.33384500  0.02382900  1
  Ca  Ca1  1  0.66687400  0.66698600  0.52392400  1
  Ca  Ca2  1  0.33306800  0.33365400  0.43182100  1
  Ca  Ca3  1  0.66787200  0.66640400  0.93127100  1
  V  V4  1  0.83933600  0.32650900  0.24527800  1
  V  V5  1  0.15988400  0.67275900  0.74581200  1
  V  V6  1  0.32711500  0.83325800  0.24602700  1
  V  V7  1  0.83380000  0.83923700  0.24615500  1
  V  V8  1  0.67334700  0.16694800  0.74536500  1
  V  V9  1  0.16733100  0.15891300  0.74577400  1
  O  O10  1  0.00017300  0.00004800  0.34472700  1
  O  O11  1  0.99935900  0.00042500  0.84451300  1
  O  O12  1  0.66662800  0.66650600  0.14530400  1
  O  O13  1  0.33328400  0.33298700  0.64522800  1
  O  O14  1  0.68936300  0.13881300  0.15462500  1
  O  O15  1  0.85993600  0.82879500  0.65515300  1
  O  O16  1  0.82914300  0.31070500  0.65476800  1
  O  O17  1  0.17155600  0.68986300  0.15446800  1
  O  O18  1  0.13829000  0.17217600  0.15482000  1
  O  O19  1  0.30965300  0.86034500  0.65425700  1
  O  O20  1  0.04651900  0.46053200  0.84916500  1
  O  O21  1  0.53807100  0.50736700  0.34889200  1
  O  O22  1  0.50738900  0.95460100  0.34901900  1
  O  O23  1  0.49276600  0.04573700  0.84872300  1
  O  O24  1  0.46121700  0.49401400  0.84877800  1
  O  O25  1  0.95444200  0.53857700  0.34930500  1
