# generated using pymatgen
data_NaLi2MnPCO7
_symmetry_space_group_name_H-M   'P 1'
_cell_length_a   5.10554277
_cell_length_b   17.53859087
_cell_length_c   6.78358350
_cell_angle_alpha   82.81888171
_cell_angle_beta   90.61669049
_cell_angle_gamma   87.72916094
_symmetry_Int_Tables_number   1
_chemical_formula_structural   NaLi2MnPCO7
_chemical_formula_sum   'Na4 Li8 Mn4 P4 C4 O28'
_cell_volume   602.11571706
_cell_formula_units_Z   4
loop_
 _symmetry_equiv_pos_site_id
 _symmetry_equiv_pos_as_xyz
  1  'x, y, z'
loop_
 _atom_site_type_symbol
 _atom_site_label
 _atom_site_symmetry_multiplicity
 _atom_site_fract_x
 _atom_site_fract_y
 _atom_site_fract_z
 _atom_site_occupancy
  Na  Na0  1  0.24994700  0.11931700  0.52474100  1
  Na  Na1  1  0.24978700  0.61927200  0.52470600  1
  Na  Na2  1  0.75005300  0.38073200  0.47521300  1
  Na  Na3  1  0.75024700  0.88073000  0.47512400  1
  Li  Li4  1  0.73233600  0.04477600  0.17885300  1
  Li  Li5  1  0.73233700  0.54476800  0.17881200  1
  Li  Li6  1  0.26764400  0.45523000  0.82113900  1
  Li  Li7  1  0.26776200  0.95520300  0.82107600  1
  Li  Li8  1  0.22698900  0.14704500  0.06817700  1
  Li  Li9  1  0.22684600  0.64696400  0.06796400  1
  Li  Li10  1  0.77311700  0.35298700  0.93174200  1
  Li  Li11  1  0.77325400  0.85297500  0.93189400  1
  Mn  Mn12  1  0.77887100  0.67652600  0.77190600  1
  Mn  Mn13  1  0.22155000  0.82356700  0.22849100  1
  Mn  Mn14  1  0.77907900  0.17639800  0.77238400  1
  Mn  Mn15  1  0.22035000  0.32347200  0.22787800  1
  P  P16  1  0.71915500  0.20783600  0.25430500  1
  P  P17  1  0.71914800  0.70779200  0.25421100  1
  P  P18  1  0.28085700  0.29218800  0.74569000  1
  P  P19  1  0.28089500  0.79219600  0.74577200  1
  C  C20  1  0.73296700  0.01730200  0.76779600  1
  C  C21  1  0.73278300  0.51730000  0.76795000  1
  C  C22  1  0.26705900  0.48268200  0.23218000  1
  C  C23  1  0.26702000  0.98272400  0.23215100  1
  O  O24  1  0.34972700  0.05100400  0.24585600  1
  O  O25  1  0.34966800  0.55105500  0.24586400  1
  O  O26  1  0.65019000  0.44899700  0.75415600  1
  O  O27  1  0.65035800  0.94895700  0.75408200  1
  O  O28  1  0.97878900  0.03240200  0.76380800  1
  O  O29  1  0.97867300  0.53241700  0.76429300  1
  O  O30  1  0.02130100  0.46758600  0.23617900  1
  O  O31  1  0.02113400  0.96758900  0.23613500  1
  O  O32  1  0.55798500  0.07225800  0.78977700  1
  O  O33  1  0.55784800  0.57230500  0.78956300  1
  O  O34  1  0.44187300  0.42769500  0.21024900  1
  O  O35  1  0.44198400  0.92772400  0.21018100  1
  O  O36  1  0.82670600  0.15514800  0.10001600  1
  O  O37  1  0.82677400  0.65514000  0.09998900  1
  O  O38  1  0.17327700  0.34482700  0.90002000  1
  O  O39  1  0.17322300  0.84481500  0.90007700  1
  O  O40  1  0.81097200  0.17003900  0.46140500  1
  O  O41  1  0.81085100  0.67000300  0.46140100  1
  O  O42  1  0.18906200  0.33002000  0.53856400  1
  O  O43  1  0.18922300  0.82999600  0.53857700  1
  O  O44  1  0.41288700  0.21321800  0.23943000  1
  O  O45  1  0.41289900  0.71312500  0.23911700  1
  O  O46  1  0.58714000  0.28680600  0.76063200  1
  O  O47  1  0.58714800  0.78689500  0.76082800  1
  O  O48  1  0.18306700  0.20881700  0.79174200  1
  O  O49  1  0.18311700  0.70884300  0.79153700  1
  O  O50  1  0.81709800  0.29116600  0.20807800  1
  O  O51  1  0.81697400  0.79116900  0.20828900  1
