# generated using pymatgen
data_Mg13Ir3
_symmetry_space_group_name_H-M   'P 1'
_cell_length_a   9.71820297
_cell_length_b   9.71820297
_cell_length_c   9.71820275
_cell_angle_alpha   111.88062952
_cell_angle_beta   111.88062952
_cell_angle_gamma   111.88062863
_symmetry_Int_Tables_number   1
_chemical_formula_structural   Mg13Ir3
_chemical_formula_sum   'Mg26 Ir6'
_cell_volume   635.76810316
_cell_formula_units_Z   2
loop_
 _symmetry_equiv_pos_site_id
 _symmetry_equiv_pos_as_xyz
  1  'x, y, z'
loop_
 _atom_site_type_symbol
 _atom_site_label
 _atom_site_symmetry_multiplicity
 _atom_site_fract_x
 _atom_site_fract_y
 _atom_site_fract_z
 _atom_site_occupancy
  Mg  Mg0  1  0.50000000  0.00000000  0.00000000  1
  Mg  Mg1  1  0.00000000  0.50000000  0.00000000  1
  Mg  Mg2  1  0.00000000  0.00000000  0.50000000  1
  Mg  Mg3  1  0.00000000  0.50000000  0.50000000  1
  Mg  Mg4  1  0.50000000  0.00000000  0.50000000  1
  Mg  Mg5  1  0.50000000  0.50000000  0.00000000  1
  Mg  Mg6  1  0.61884900  0.88115100  0.25000000  1
  Mg  Mg7  1  0.88115100  0.25000000  0.61884900  1
  Mg  Mg8  1  0.25000000  0.61884900  0.88115100  1
  Mg  Mg9  1  0.38115100  0.11884900  0.75000000  1
  Mg  Mg10  1  0.11884900  0.75000000  0.38115100  1
  Mg  Mg11  1  0.75000000  0.38115100  0.11884900  1
  Mg  Mg12  1  0.25000000  0.25000000  0.25000000  1
  Mg  Mg13  1  0.75000000  0.75000000  0.75000000  1
  Mg  Mg14  1  0.61012300  0.40300200  0.72218000  1
  Mg  Mg15  1  0.40300200  0.72218000  0.61012300  1
  Mg  Mg16  1  0.72218000  0.61012300  0.40300200  1
  Mg  Mg17  1  0.09699800  0.88987700  0.77782000  1
  Mg  Mg18  1  0.88987700  0.77782000  0.09699800  1
  Mg  Mg19  1  0.77782000  0.09699800  0.88987700  1
  Mg  Mg20  1  0.38987700  0.59699800  0.27782000  1
  Mg  Mg21  1  0.59699800  0.27782000  0.38987700  1
  Mg  Mg22  1  0.27782000  0.38987700  0.59699800  1
  Mg  Mg23  1  0.90300200  0.11012300  0.22218000  1
  Mg  Mg24  1  0.11012300  0.22218000  0.90300200  1
  Mg  Mg25  1  0.22218000  0.90300200  0.11012300  1
  Ir  Ir26  1  0.75000000  0.92227100  0.57772900  1
  Ir  Ir27  1  0.57772900  0.75000000  0.92227100  1
  Ir  Ir28  1  0.92227100  0.57772900  0.75000000  1
  Ir  Ir29  1  0.25000000  0.07772900  0.42227100  1
  Ir  Ir30  1  0.42227100  0.25000000  0.07772900  1
  Ir  Ir31  1  0.07772900  0.42227100  0.25000000  1
