# generated using pymatgen
data_CdAu
_symmetry_space_group_name_H-M   'P 1'
_cell_length_a   8.22227163
_cell_length_b   8.22227163
_cell_length_c   6.03313300
_cell_angle_alpha   90.00000000
_cell_angle_beta   90.00000000
_cell_angle_gamma   119.99999701
_symmetry_Int_Tables_number   1
_chemical_formula_structural   CdAu
_chemical_formula_sum   'Cd9 Au9'
_cell_volume   353.22967685
_cell_formula_units_Z   9
loop_
 _symmetry_equiv_pos_site_id
 _symmetry_equiv_pos_as_xyz
  1  'x, y, z'
loop_
 _atom_site_type_symbol
 _atom_site_label
 _atom_site_symmetry_multiplicity
 _atom_site_fract_x
 _atom_site_fract_y
 _atom_site_fract_z
 _atom_site_occupancy
  Cd  Cd0  1  0.00000000  0.64621400  0.21135700  1
  Cd  Cd1  1  0.64621400  0.00000000  0.21135700  1
  Cd  Cd2  1  0.35378600  0.35378600  0.21135700  1
  Cd  Cd3  1  0.31140000  0.00000000  0.91739100  1
  Cd  Cd4  1  0.68860000  0.68860000  0.91739100  1
  Cd  Cd5  1  0.00000000  0.31140000  0.91739100  1
  Cd  Cd6  1  0.33333300  0.66666700  0.49788300  1
  Cd  Cd7  1  0.00000000  0.00000000  0.64814800  1
  Cd  Cd8  1  0.66666700  0.33333300  0.49788300  1
  Au  Au9  1  0.00000000  0.64199700  0.71124800  1
  Au  Au10  1  0.64199700  0.00000000  0.71124800  1
  Au  Au11  1  0.35800300  0.35800300  0.71124800  1
  Au  Au12  1  0.31177200  0.00000000  0.41970800  1
  Au  Au13  1  0.68822800  0.68822800  0.41970800  1
  Au  Au14  1  0.00000000  0.31177200  0.41970800  1
  Au  Au15  1  0.33333300  0.66666700  0.98676800  1
  Au  Au16  1  0.00000000  0.00000000  0.16180100  1
  Au  Au17  1  0.66666700  0.33333300  0.98676800  1
