# generated using pymatgen
data_HoCu(WO4)2
_symmetry_space_group_name_H-M   'P 1'
_cell_length_a   5.99657700
_cell_length_b   5.08136900
_cell_length_c   10.99776050
_cell_angle_alpha   65.61083791
_cell_angle_beta   90.00000000
_cell_angle_gamma   90.00000000
_symmetry_Int_Tables_number   1
_chemical_formula_structural   HoCu(WO4)2
_chemical_formula_sum   'Ho2 Cu2 W4 O16'
_cell_volume   305.20609795
_cell_formula_units_Z   2
loop_
 _symmetry_equiv_pos_site_id
 _symmetry_equiv_pos_as_xyz
  1  'x, y, z'
loop_
 _atom_site_type_symbol
 _atom_site_label
 _atom_site_symmetry_multiplicity
 _atom_site_fract_x
 _atom_site_fract_y
 _atom_site_fract_z
 _atom_site_occupancy
  Ho  Ho0  1  0.33082100  0.00000000  0.25000000  1
  Ho  Ho1  1  0.66917900  0.00000000  0.75000000  1
  Cu  Cu2  1  0.72082100  0.50000000  0.25000000  1
  Cu  Cu3  1  0.27917900  0.50000000  0.75000000  1
  W  W4  1  0.16933100  0.76278900  0.98766100  1
  W  W5  1  0.83066900  0.23721100  0.01233900  1
  W  W6  1  0.16933100  0.23721100  0.51233900  1
  W  W7  1  0.83066900  0.76278900  0.48766100  1
  O  O8  1  0.36078500  0.73050500  0.86262100  1
  O  O9  1  0.36078500  0.26949500  0.63737900  1
  O  O10  1  0.63921500  0.26949500  0.13737900  1
  O  O11  1  0.63921500  0.73050500  0.36262100  1
  O  O12  1  0.91255500  0.15981800  0.38871600  1
  O  O13  1  0.91255500  0.84018200  0.11128400  1
  O  O14  1  0.08744500  0.84018200  0.61128400  1
  O  O15  1  0.08744500  0.15981800  0.88871600  1
  O  O16  1  0.63430400  0.21487700  0.88951700  1
  O  O17  1  0.63430400  0.78512300  0.61048300  1
  O  O18  1  0.36569600  0.78512300  0.11048300  1
  O  O19  1  0.36569600  0.21487700  0.38951700  1
  O  O20  1  0.11441300  0.65843000  0.40362800  1
  O  O21  1  0.11441300  0.34157000  0.09637200  1
  O  O22  1  0.88558700  0.34157000  0.59637200  1
  O  O23  1  0.88558700  0.65843000  0.90362800  1
