# generated using pymatgen
data_SrCu3(SnO3)4
_symmetry_space_group_name_H-M   'P 1'
_cell_length_a   6.75532551
_cell_length_b   6.75532551
_cell_length_c   6.75532551
_cell_angle_alpha   109.47122063
_cell_angle_beta   109.47122063
_cell_angle_gamma   109.47122063
_symmetry_Int_Tables_number   1
_chemical_formula_structural   SrCu3(SnO3)4
_chemical_formula_sum   'Sr1 Cu3 Sn4 O12'
_cell_volume   237.31049795
_cell_formula_units_Z   1
loop_
 _symmetry_equiv_pos_site_id
 _symmetry_equiv_pos_as_xyz
  1  'x, y, z'
loop_
 _atom_site_type_symbol
 _atom_site_label
 _atom_site_symmetry_multiplicity
 _atom_site_fract_x
 _atom_site_fract_y
 _atom_site_fract_z
 _atom_site_occupancy
  Sr  Sr0  1  0.00000000  0.00000000  0.00000000  1
  Cu  Cu1  1  0.00000000  0.50000000  0.50000000  1
  Cu  Cu2  1  0.50000000  0.50000000  0.00000000  1
  Cu  Cu3  1  0.50000000  0.00000000  0.50000000  1
  Sn  Sn4  1  0.50000000  0.50000000  0.50000000  1
  Sn  Sn5  1  0.50000000  0.00000000  0.00000000  1
  Sn  Sn6  1  0.00000000  0.50000000  0.00000000  1
  Sn  Sn7  1  0.00000000  0.00000000  0.50000000  1
  O  O8  1  0.30935900  0.13798600  0.82862700  1
  O  O9  1  0.69064100  0.86201400  0.17137300  1
  O  O10  1  0.69064100  0.51926800  0.82862700  1
  O  O11  1  0.48073200  0.17137300  0.30935900  1
  O  O12  1  0.17137300  0.30935900  0.48073200  1
  O  O13  1  0.82862700  0.30935900  0.13798600  1
  O  O14  1  0.86201400  0.17137300  0.69064100  1
  O  O15  1  0.82862700  0.69064100  0.51926800  1
  O  O16  1  0.30935900  0.48073200  0.17137300  1
  O  O17  1  0.51926800  0.82862700  0.69064100  1
  O  O18  1  0.17137300  0.69064100  0.86201400  1
  O  O19  1  0.13798600  0.82862700  0.30935900  1
