# generated using pymatgen
data_RbMoAsO6
_symmetry_space_group_name_H-M   'P 1'
_cell_length_a   10.60014331
_cell_length_b   10.05071143
_cell_length_c   8.68008911
_cell_angle_alpha   68.48242634
_cell_angle_beta   61.89491690
_cell_angle_gamma   49.62265676
_symmetry_Int_Tables_number   1
_chemical_formula_structural   RbMoAsO6
_chemical_formula_sum   'Rb4 Mo4 As4 O24'
_cell_volume   618.79699082
_cell_formula_units_Z   4
loop_
 _symmetry_equiv_pos_site_id
 _symmetry_equiv_pos_as_xyz
  1  'x, y, z'
loop_
 _atom_site_type_symbol
 _atom_site_label
 _atom_site_symmetry_multiplicity
 _atom_site_fract_x
 _atom_site_fract_y
 _atom_site_fract_z
 _atom_site_occupancy
  Rb  Rb0  1  0.79794100  0.20205900  0.20205900  1
  Rb  Rb1  1  0.45205900  0.04794100  0.04794100  1
  Rb  Rb2  1  0.20205900  0.79794100  0.79794100  1
  Rb  Rb3  1  0.04794100  0.45205900  0.45205900  1
  Mo  Mo4  1  0.72122000  0.27878000  0.72122000  1
  Mo  Mo5  1  0.27878000  0.72122000  0.27878000  1
  Mo  Mo6  1  0.52878000  0.97122000  0.52878000  1
  Mo  Mo7  1  0.97122000  0.52878000  0.97122000  1
  As  As8  1  0.62942600  0.62942600  0.37057400  1
  As  As9  1  0.37057400  0.37057400  0.62942600  1
  As  As10  1  0.87942600  0.87942600  0.62057400  1
  As  As11  1  0.62057400  0.62057400  0.87942600  1
  O  O12  1  0.68222400  0.17317900  0.92807600  1
  O  O13  1  0.21652000  0.92807600  0.17317900  1
  O  O14  1  0.92807600  0.21652000  0.68222400  1
  O  O15  1  0.17317900  0.68222400  0.21652000  1
  O  O16  1  0.56777600  0.07682100  0.32192400  1
  O  O17  1  0.03348000  0.32192400  0.07682100  1
  O  O18  1  0.32192400  0.03348000  0.56777600  1
  O  O19  1  0.07682100  0.56777600  0.03348000  1
  O  O20  1  0.78614000  0.10768500  0.58539200  1
  O  O21  1  0.52078200  0.58539200  0.10768500  1
  O  O22  1  0.58539200  0.52078200  0.78614000  1
  O  O23  1  0.10768500  0.78614000  0.52078200  1
  O  O24  1  0.84301200  0.80899300  0.83950800  1
  O  O25  1  0.50848700  0.83950800  0.80899300  1
  O  O26  1  0.83950800  0.50848700  0.84301200  1
  O  O27  1  0.80899300  0.84301200  0.50848700  1
  O  O28  1  0.40698800  0.44100700  0.41049200  1
  O  O29  1  0.74151300  0.41049200  0.44100700  1
  O  O30  1  0.41049200  0.74151300  0.40698800  1
  O  O31  1  0.44100700  0.40698800  0.74151300  1
  O  O32  1  0.14231500  0.46386000  0.72921800  1
  O  O33  1  0.66460800  0.72921800  0.46386000  1
  O  O34  1  0.72921800  0.66460800  0.14231500  1
  O  O35  1  0.46386000  0.14231500  0.66460800  1
