# generated using pymatgen
data_NaMn3P3O13
_symmetry_space_group_name_H-M   'P 1'
_cell_length_a   6.26243200
_cell_length_b   7.55079600
_cell_length_c   10.46773329
_cell_angle_alpha   80.82522630
_cell_angle_beta   90.00000000
_cell_angle_gamma   90.00000000
_symmetry_Int_Tables_number   1
_chemical_formula_structural   NaMn3P3O13
_chemical_formula_sum   'Na2 Mn6 P6 O26'
_cell_volume   488.64835671
_cell_formula_units_Z   2
loop_
 _symmetry_equiv_pos_site_id
 _symmetry_equiv_pos_as_xyz
  1  'x, y, z'
loop_
 _atom_site_type_symbol
 _atom_site_label
 _atom_site_symmetry_multiplicity
 _atom_site_fract_x
 _atom_site_fract_y
 _atom_site_fract_z
 _atom_site_occupancy
  Na  Na0  1  0.75000000  0.32747700  0.20098500  1
  Na  Na1  1  0.25000000  0.67252300  0.79901500  1
  Mn  Mn2  1  0.25000000  0.63873700  0.19837100  1
  Mn  Mn3  1  0.75000000  0.36126300  0.80162900  1
  Mn  Mn4  1  0.25000000  0.23483600  0.44444500  1
  Mn  Mn5  1  0.50000000  0.00000000  0.00000000  1
  Mn  Mn6  1  0.75000000  0.76516400  0.55555500  1
  Mn  Mn7  1  0.00000000  0.00000000  0.00000000  1
  P  P8  1  0.25000000  0.78915200  0.47566500  1
  P  P9  1  0.75000000  0.21084800  0.52433500  1
  P  P10  1  0.25000000  0.25980600  0.76572300  1
  P  P11  1  0.75000000  0.74019400  0.23427700  1
  P  P12  1  0.75000000  0.68885200  0.88319300  1
  P  P13  1  0.25000000  0.31114800  0.11680700  1
  O  O14  1  0.75000000  0.64525100  0.74098600  1
  O  O15  1  0.55692600  0.25721200  0.43020200  1
  O  O16  1  0.25000000  0.20592700  0.63175600  1
  O  O17  1  0.54622600  0.79188400  0.90786000  1
  O  O18  1  0.75000000  0.34694700  0.62174200  1
  O  O19  1  0.75000000  0.12522500  0.90397100  1
  O  O20  1  0.25000000  0.65305300  0.37825800  1
  O  O21  1  0.04622600  0.20811600  0.09214000  1
  O  O22  1  0.25000000  0.97986000  0.40357500  1
  O  O23  1  0.75000000  0.02014000  0.59642500  1
  O  O24  1  0.05814900  0.37741100  0.79395300  1
  O  O25  1  0.25000000  0.87477500  0.09602900  1
  O  O26  1  0.55814900  0.62258900  0.20604700  1
  O  O27  1  0.75000000  0.49090900  0.95464500  1
  O  O28  1  0.75000000  0.79407300  0.36824400  1
  O  O29  1  0.45377400  0.20811600  0.09214000  1
  O  O30  1  0.94307400  0.25721200  0.43020200  1
  O  O31  1  0.44307400  0.74278800  0.56979800  1
  O  O32  1  0.44185100  0.37741100  0.79395300  1
  O  O33  1  0.25000000  0.35474900  0.25901400  1
  O  O34  1  0.75000000  0.91632000  0.13195600  1
  O  O35  1  0.25000000  0.08368000  0.86804400  1
  O  O36  1  0.94185100  0.62258900  0.20604700  1
  O  O37  1  0.95377400  0.79188400  0.90786000  1
  O  O38  1  0.05692600  0.74278800  0.56979800  1
  O  O39  1  0.25000000  0.50909100  0.04535500  1
