# generated using pymatgen
data_Nb3AgO8
_symmetry_space_group_name_H-M   'P 1'
_cell_length_a   7.37982543
_cell_length_b   7.37982543
_cell_length_c   7.37982543
_cell_angle_alpha   122.10176301
_cell_angle_beta   118.38023967
_cell_angle_gamma   89.61351121
_symmetry_Int_Tables_number   1
_chemical_formula_structural   Nb3AgO8
_chemical_formula_sum   'Nb6 Ag2 O16'
_cell_volume   282.78068652
_cell_formula_units_Z   2
loop_
 _symmetry_equiv_pos_site_id
 _symmetry_equiv_pos_as_xyz
  1  'x, y, z'
loop_
 _atom_site_type_symbol
 _atom_site_label
 _atom_site_symmetry_multiplicity
 _atom_site_fract_x
 _atom_site_fract_y
 _atom_site_fract_z
 _atom_site_occupancy
  Nb  Nb0  1  0.00918500  0.76684800  0.24233700  1
  Nb  Nb1  1  0.99081500  0.23315200  0.75766300  1
  Nb  Nb2  1  0.47548900  0.73315200  0.74233700  1
  Nb  Nb3  1  0.52451100  0.26684800  0.25766300  1
  Nb  Nb4  1  0.50000000  0.75000000  0.25000000  1
  Nb  Nb5  1  0.50000000  0.25000000  0.75000000  1
  Ag  Ag6  1  0.00000000  0.75000000  0.75000000  1
  Ag  Ag7  1  0.00000000  0.25000000  0.25000000  1
  O  O8  1  0.83392200  0.44235400  0.99206100  1
  O  O9  1  0.16607800  0.15813900  0.60843200  1
  O  O10  1  0.54970600  0.05764600  0.89156800  1
  O  O11  1  0.45029400  0.34186100  0.50793900  1
  O  O12  1  0.16607800  0.55764600  0.00793900  1
  O  O13  1  0.83392200  0.84186100  0.39156800  1
  O  O14  1  0.45029400  0.94235400  0.10843200  1
  O  O15  1  0.54970600  0.65813900  0.49206100  1
  O  O16  1  0.15294900  0.16597400  0.98697500  1
  O  O17  1  0.84705100  0.83402600  0.01302500  1
  O  O18  1  0.82100100  0.33402600  0.48697500  1
  O  O19  1  0.17899900  0.66597400  0.51302500  1
  O  O20  1  0.53277900  0.42478000  0.10799900  1
  O  O21  1  0.46722100  0.57522000  0.89200100  1
  O  O22  1  0.68321800  0.07522000  0.60799900  1
  O  O23  1  0.31678200  0.92478000  0.39200100  1
