# generated using pymatgen
data_Ge3Mo5
_symmetry_space_group_name_H-M   'P 1'
_cell_length_a   7.44059228
_cell_length_b   7.44059228
_cell_length_c   7.44059228
_cell_angle_alpha   96.50010294
_cell_angle_beta   96.50010294
_cell_angle_gamma   140.67737165
_symmetry_Int_Tables_number   1
_chemical_formula_structural   Ge3Mo5
_chemical_formula_sum   'Ge6 Mo10'
_cell_volume   245.81509973
_cell_formula_units_Z   2
loop_
 _symmetry_equiv_pos_site_id
 _symmetry_equiv_pos_as_xyz
  1  'x, y, z'
loop_
 _atom_site_type_symbol
 _atom_site_label
 _atom_site_symmetry_multiplicity
 _atom_site_fract_x
 _atom_site_fract_y
 _atom_site_fract_z
 _atom_site_occupancy
  Ge  Ge0  1  0.25000000  0.25000000  0.00000000  1
  Ge  Ge1  1  0.75000000  0.75000000  0.00000000  1
  Ge  Ge2  1  0.16814700  0.33185300  0.50000000  1
  Ge  Ge3  1  0.33185300  0.83185300  0.16370700  1
  Ge  Ge4  1  0.66814700  0.16814700  0.83629300  1
  Ge  Ge5  1  0.83185300  0.66814700  0.50000000  1
  Mo  Mo6  1  0.57682700  0.72984300  0.30667000  1
  Mo  Mo7  1  0.42317300  0.27015700  0.69333000  1
  Mo  Mo8  1  0.75000000  0.25000000  0.50000000  1
  Mo  Mo9  1  0.25000000  0.75000000  0.50000000  1
  Mo  Mo10  1  0.27015700  0.57682700  0.84698300  1
  Mo  Mo11  1  0.72984300  0.42317300  0.15301700  1
  Mo  Mo12  1  0.07682700  0.77015700  0.84698300  1
  Mo  Mo13  1  0.77015700  0.92317300  0.69333000  1
  Mo  Mo14  1  0.22984300  0.07682700  0.30667000  1
  Mo  Mo15  1  0.92317300  0.22984300  0.15301700  1
