# generated using pymatgen
data_Ga4BiAs3
_symmetry_space_group_name_H-M   'P 1'
_cell_length_a   5.94039500
_cell_length_b   5.94039500
_cell_length_c   5.94039500
_cell_angle_alpha   90.00000000
_cell_angle_beta   90.00000000
_cell_angle_gamma   90.00000000
_symmetry_Int_Tables_number   1
_chemical_formula_structural   Ga4BiAs3
_chemical_formula_sum   'Ga4 Bi1 As3'
_cell_volume   209.62639785
_cell_formula_units_Z   1
loop_
 _symmetry_equiv_pos_site_id
 _symmetry_equiv_pos_as_xyz
  1  'x, y, z'
loop_
 _atom_site_type_symbol
 _atom_site_label
 _atom_site_symmetry_multiplicity
 _atom_site_fract_x
 _atom_site_fract_y
 _atom_site_fract_z
 _atom_site_occupancy
  Ga  Ga0  1  0.26072100  0.26072100  0.26072100  1
  Ga  Ga1  1  0.26072100  0.73927900  0.73927900  1
  Ga  Ga2  1  0.73927900  0.26072100  0.73927900  1
  Ga  Ga3  1  0.73927900  0.73927900  0.26072100  1
  Bi  Bi4  1  0.00000000  0.00000000  0.00000000  1
  As  As5  1  0.50000000  0.50000000  0.00000000  1
  As  As6  1  0.50000000  0.00000000  0.50000000  1
  As  As7  1  0.00000000  0.50000000  0.50000000  1
