# generated using pymatgen
data_Ba5Sb4
_symmetry_space_group_name_H-M   'P 1'
_cell_length_a   9.15558200
_cell_length_b   9.19744100
_cell_length_c   18.02275000
_cell_angle_alpha   90.00000000
_cell_angle_beta   90.00000000
_cell_angle_gamma   90.00000000
_symmetry_Int_Tables_number   1
_chemical_formula_structural   Ba5Sb4
_chemical_formula_sum   'Ba20 Sb16'
_cell_volume   1517.65838508
_cell_formula_units_Z   4
loop_
 _symmetry_equiv_pos_site_id
 _symmetry_equiv_pos_as_xyz
  1  'x, y, z'
loop_
 _atom_site_type_symbol
 _atom_site_label
 _atom_site_symmetry_multiplicity
 _atom_site_fract_x
 _atom_site_fract_y
 _atom_site_fract_z
 _atom_site_occupancy
  Ba  Ba0  1  0.42350200  0.66609200  0.60323500  1
  Ba  Ba1  1  0.92350200  0.83390800  0.89676500  1
  Ba  Ba2  1  0.07649800  0.16609200  0.39676500  1
  Ba  Ba3  1  0.57649800  0.33390800  0.10323500  1
  Ba  Ba4  1  0.42350200  0.66609200  0.89676500  1
  Ba  Ba5  1  0.92350200  0.83390800  0.60323500  1
  Ba  Ba6  1  0.07649800  0.16609200  0.10323500  1
  Ba  Ba7  1  0.57649800  0.33390800  0.39676500  1
  Ba  Ba8  1  0.41344900  0.83785700  0.39540600  1
  Ba  Ba9  1  0.91344900  0.66214300  0.10459400  1
  Ba  Ba10  1  0.08655100  0.33785700  0.60459400  1
  Ba  Ba11  1  0.58655100  0.16214300  0.89540600  1
  Ba  Ba12  1  0.58655100  0.16214300  0.60459400  1
  Ba  Ba13  1  0.08655100  0.33785700  0.89540600  1
  Ba  Ba14  1  0.91344900  0.66214300  0.39540600  1
  Ba  Ba15  1  0.41344900  0.83785700  0.10459400  1
  Ba  Ba16  1  0.25381000  0.00145800  0.75000000  1
  Ba  Ba17  1  0.75381000  0.49854200  0.75000000  1
  Ba  Ba18  1  0.24619000  0.50145800  0.25000000  1
  Ba  Ba19  1  0.74619000  0.99854200  0.25000000  1
  Sb  Sb20  1  0.74744100  0.99608100  0.05193500  1
  Sb  Sb21  1  0.24744100  0.50391900  0.44806500  1
  Sb  Sb22  1  0.75255900  0.49608100  0.94806500  1
  Sb  Sb23  1  0.25255900  0.00391900  0.55193500  1
  Sb  Sb24  1  0.25255900  0.00391900  0.94806500  1
  Sb  Sb25  1  0.75255900  0.49608100  0.55193500  1
  Sb  Sb26  1  0.24744100  0.50391900  0.05193500  1
  Sb  Sb27  1  0.74744100  0.99608100  0.44806500  1
  Sb  Sb28  1  0.36725200  0.38977000  0.75000000  1
  Sb  Sb29  1  0.86725200  0.11023000  0.75000000  1
  Sb  Sb30  1  0.13274800  0.88977000  0.25000000  1
  Sb  Sb31  1  0.63274800  0.61023000  0.25000000  1
  Sb  Sb32  1  0.14092200  0.61567300  0.75000000  1
  Sb  Sb33  1  0.64092200  0.88432700  0.75000000  1
  Sb  Sb34  1  0.35907800  0.11567300  0.25000000  1
  Sb  Sb35  1  0.85907800  0.38432700  0.25000000  1
