# generated using pymatgen
data_Nb(SBr)2
_symmetry_space_group_name_H-M   'P 1'
_cell_length_a   6.65337333
_cell_length_b   6.65337333
_cell_length_c   7.18731449
_cell_angle_alpha   80.26956232
_cell_angle_beta   80.26956232
_cell_angle_gamma   119.29473836
_symmetry_Int_Tables_number   1
_chemical_formula_structural   Nb(SBr)2
_chemical_formula_sum   'Nb2 S4 Br4'
_cell_volume   261.49447982
_cell_formula_units_Z   2
loop_
 _symmetry_equiv_pos_site_id
 _symmetry_equiv_pos_as_xyz
  1  'x, y, z'
loop_
 _atom_site_type_symbol
 _atom_site_label
 _atom_site_symmetry_multiplicity
 _atom_site_fract_x
 _atom_site_fract_y
 _atom_site_fract_z
 _atom_site_occupancy
  Nb  Nb0  1  0.87397500  0.12602500  0.00000000  1
  Nb  Nb1  1  0.12602500  0.87397500  0.00000000  1
  S  S2  1  0.13538000  0.13538000  0.69793000  1
  S  S3  1  0.86462000  0.86462000  0.30207000  1
  S  S4  1  0.68118200  0.68118200  0.13084300  1
  S  S5  1  0.31881800  0.31881800  0.86915700  1
  Br  Br6  1  0.02589400  0.43425600  0.22824300  1
  Br  Br7  1  0.43425600  0.02589400  0.22824300  1
  Br  Br8  1  0.97410600  0.56574400  0.77175700  1
  Br  Br9  1  0.56574400  0.97410600  0.77175700  1
