# generated using pymatgen
data_BaV2(P2O7)2
_symmetry_space_group_name_H-M   'P 1'
_cell_length_a   7.59337531
_cell_length_b   7.59337531
_cell_length_c   9.94840188
_cell_angle_alpha   80.60776657
_cell_angle_beta   80.60776657
_cell_angle_gamma   89.41832445
_symmetry_Int_Tables_number   1
_chemical_formula_structural   BaV2(P2O7)2
_chemical_formula_sum   'Ba2 V4 P8 O28'
_cell_volume   558.26190887
_cell_formula_units_Z   2
loop_
 _symmetry_equiv_pos_site_id
 _symmetry_equiv_pos_as_xyz
  1  'x, y, z'
loop_
 _atom_site_type_symbol
 _atom_site_label
 _atom_site_symmetry_multiplicity
 _atom_site_fract_x
 _atom_site_fract_y
 _atom_site_fract_z
 _atom_site_occupancy
  Ba  Ba0  1  0.00000000  0.50000000  0.00000000  1
  Ba  Ba1  1  0.50000000  0.00000000  0.50000000  1
  V  V2  1  0.00000000  0.00000000  0.50000000  1
  V  V3  1  0.00000000  0.00000000  0.00000000  1
  V  V4  1  0.54475000  0.45525000  0.75000000  1
  V  V5  1  0.45525000  0.54475000  0.25000000  1
  P  P6  1  0.17885500  0.25944600  0.70271600  1
  P  P7  1  0.74055400  0.82114500  0.79728400  1
  P  P8  1  0.82114500  0.74055400  0.29728400  1
  P  P9  1  0.25944600  0.17885500  0.20271600  1
  P  P10  1  0.24904100  0.62433200  0.55470600  1
  P  P11  1  0.37566800  0.75095900  0.94529400  1
  P  P12  1  0.75095900  0.37566800  0.44529400  1
  P  P13  1  0.62433200  0.24904100  0.05470600  1
  O  O14  1  0.05560900  0.21456700  0.84191300  1
  O  O15  1  0.78543300  0.94439100  0.65808700  1
  O  O16  1  0.94439100  0.78543300  0.15808700  1
  O  O17  1  0.21456700  0.05560900  0.34191300  1
  O  O18  1  0.37878600  0.26001300  0.70849500  1
  O  O19  1  0.73998700  0.62121400  0.79150500  1
  O  O20  1  0.62121400  0.73998700  0.29150500  1
  O  O21  1  0.26001300  0.37878600  0.20849500  1
  O  O22  1  0.14467900  0.14656200  0.59603400  1
  O  O23  1  0.85343800  0.85532100  0.90396600  1
  O  O24  1  0.85532100  0.85343800  0.40396600  1
  O  O25  1  0.14656200  0.14467900  0.09603400  1
  O  O26  1  0.12634200  0.46590600  0.65330400  1
  O  O27  1  0.53409400  0.87365800  0.84669600  1
  O  O28  1  0.59151300  0.27069500  0.90603700  1
  O  O29  1  0.72930500  0.40848700  0.59396300  1
  O  O30  1  0.40848700  0.72930500  0.09396300  1
  O  O31  1  0.27069500  0.59151300  0.40603700  1
  O  O32  1  0.63376300  0.42780400  0.10866400  1
  O  O33  1  0.57219600  0.36623700  0.39133600  1
  O  O34  1  0.36623700  0.57219600  0.89133600  1
  O  O35  1  0.42780400  0.63376300  0.60866400  1
  O  O36  1  0.79378100  0.14605200  0.07651200  1
  O  O37  1  0.85394800  0.20621900  0.42348800  1
  O  O38  1  0.20621900  0.85394800  0.92348800  1
  O  O39  1  0.14605200  0.79378100  0.57651200  1
  O  O40  1  0.46590600  0.12634200  0.15330400  1
  O  O41  1  0.87365800  0.53409400  0.34669600  1
