# generated using pymatgen
data_SiO2
_symmetry_space_group_name_H-M   'P 1'
_cell_length_a   11.65287494
_cell_length_b   11.65287494
_cell_length_c   7.74833981
_cell_angle_alpha   80.45049349
_cell_angle_beta   80.45049349
_cell_angle_gamma   71.69414292
_symmetry_Int_Tables_number   1
_chemical_formula_structural   SiO2
_chemical_formula_sum   'Si16 O32'
_cell_volume   977.75268240
_cell_formula_units_Z   16
loop_
 _symmetry_equiv_pos_site_id
 _symmetry_equiv_pos_as_xyz
  1  'x, y, z'
loop_
 _atom_site_type_symbol
 _atom_site_label
 _atom_site_symmetry_multiplicity
 _atom_site_fract_x
 _atom_site_fract_y
 _atom_site_fract_z
 _atom_site_occupancy
  Si  Si0  1  0.95750600  0.36458400  0.22769100  1
  Si  Si1  1  0.63541600  0.04249400  0.77230900  1
  Si  Si2  1  0.04249400  0.63541600  0.77230900  1
  Si  Si3  1  0.36458400  0.95750600  0.22769100  1
  Si  Si4  1  0.86633300  0.63832800  0.12546200  1
  Si  Si5  1  0.36167200  0.13366700  0.87453800  1
  Si  Si6  1  0.13366700  0.36167200  0.87453800  1
  Si  Si7  1  0.63832800  0.86633300  0.12546200  1
  Si  Si8  1  0.87410200  0.10153500  0.80097400  1
  Si  Si9  1  0.89846500  0.12589800  0.19902600  1
  Si  Si10  1  0.12589800  0.89846500  0.19902600  1
  Si  Si11  1  0.10153500  0.87410200  0.80097400  1
  Si  Si12  1  0.03178700  0.26288800  0.59580400  1
  Si  Si13  1  0.73711200  0.96821300  0.40419600  1
  Si  Si14  1  0.96821300  0.73711200  0.40419600  1
  Si  Si15  1  0.26288800  0.03178700  0.59580400  1
  O  O16  1  0.04801700  0.33277100  0.75093100  1
  O  O17  1  0.66722900  0.95198300  0.24906900  1
  O  O18  1  0.95198300  0.66722900  0.24906900  1
  O  O19  1  0.33277100  0.04801700  0.75093100  1
  O  O20  1  0.73793300  0.11107200  0.76686600  1
  O  O21  1  0.88892800  0.26206700  0.23313400  1
  O  O22  1  0.26206700  0.88892800  0.23313400  1
  O  O23  1  0.11107200  0.73793300  0.76686600  1
  O  O24  1  0.92281300  0.65808400  0.91976900  1
  O  O25  1  0.34191600  0.07718700  0.08023100  1
  O  O26  1  0.07718700  0.34191600  0.08023100  1
  O  O27  1  0.65808400  0.92281300  0.91976900  1
  O  O28  1  0.86246500  0.49842600  0.18012800  1
  O  O29  1  0.50157400  0.13753500  0.81987200  1
  O  O30  1  0.13753500  0.50157400  0.81987200  1
  O  O31  1  0.49842600  0.86246500  0.18012800  1
  O  O32  1  0.15763000  0.15763000  0.54647600  1
  O  O33  1  0.84237000  0.84237000  0.45352400  1
  O  O34  1  0.12873900  0.87126100  0.00000000  1
  O  O35  1  0.87126100  0.12873900  0.00000000  1
  O  O36  1  0.35822600  0.99964600  0.42016300  1
  O  O37  1  0.00035400  0.64177400  0.57983700  1
  O  O38  1  0.64177400  0.00035400  0.57983700  1
  O  O39  1  0.99964600  0.35822600  0.42016300  1
  O  O40  1  0.20303100  0.92077300  0.66232400  1
  O  O41  1  0.07922700  0.79696900  0.33767600  1
  O  O42  1  0.79696900  0.07922700  0.33767600  1
  O  O43  1  0.92077300  0.20303100  0.66232400  1
  O  O44  1  0.96482900  0.96482900  0.77339100  1
  O  O45  1  0.03517100  0.03517100  0.22660900  1
  O  O46  1  0.72788600  0.72788600  0.15164200  1
  O  O47  1  0.27211400  0.27211400  0.84835800  1
