# generated using pymatgen
data_Hf5Si4
_symmetry_space_group_name_H-M   'P 1'
_cell_length_a   7.07033300
_cell_length_b   7.07033300
_cell_length_c   12.87656300
_cell_angle_alpha   90.00000000
_cell_angle_beta   90.00000000
_cell_angle_gamma   90.00000000
_symmetry_Int_Tables_number   1
_chemical_formula_structural   Hf5Si4
_chemical_formula_sum   'Hf20 Si16'
_cell_volume   643.69434617
_cell_formula_units_Z   4
loop_
 _symmetry_equiv_pos_site_id
 _symmetry_equiv_pos_as_xyz
  1  'x, y, z'
loop_
 _atom_site_type_symbol
 _atom_site_label
 _atom_site_symmetry_multiplicity
 _atom_site_fract_x
 _atom_site_fract_y
 _atom_site_fract_z
 _atom_site_occupancy
  Hf  Hf0  1  0.67543600  0.32456400  0.75000000  1
  Hf  Hf1  1  0.32456400  0.67543600  0.25000000  1
  Hf  Hf2  1  0.82456400  0.82456400  0.50000000  1
  Hf  Hf3  1  0.17543600  0.17543600  0.00000000  1
  Hf  Hf4  1  0.49615200  0.15023900  0.53461300  1
  Hf  Hf5  1  0.50384800  0.84976100  0.03461300  1
  Hf  Hf6  1  0.65023900  0.00384800  0.28461300  1
  Hf  Hf7  1  0.34976100  0.99615200  0.78461300  1
  Hf  Hf8  1  0.84976100  0.50384800  0.96538700  1
  Hf  Hf9  1  0.15023900  0.49615200  0.46538700  1
  Hf  Hf10  1  0.00384800  0.65023900  0.71538700  1
  Hf  Hf11  1  0.99615200  0.34976100  0.21538700  1
  Hf  Hf12  1  0.49987300  0.35408600  0.12644800  1
  Hf  Hf13  1  0.50012700  0.64591400  0.62644800  1
  Hf  Hf14  1  0.85408600  0.00012700  0.87644800  1
  Hf  Hf15  1  0.14591400  0.99987300  0.37644800  1
  Hf  Hf16  1  0.64591400  0.50012700  0.37355200  1
  Hf  Hf17  1  0.35408600  0.49987300  0.87355200  1
  Hf  Hf18  1  0.00012700  0.85408600  0.12355200  1
  Hf  Hf19  1  0.99987300  0.14591400  0.62355200  1
  Si  Si20  1  0.79639700  0.14718500  0.07223900  1
  Si  Si21  1  0.20360300  0.85281500  0.57223900  1
  Si  Si22  1  0.64718500  0.70360300  0.82223900  1
  Si  Si23  1  0.35281500  0.29639700  0.32223900  1
  Si  Si24  1  0.85281500  0.20360300  0.42776100  1
  Si  Si25  1  0.14718500  0.79639700  0.92776100  1
  Si  Si26  1  0.70360300  0.64718500  0.17776100  1
  Si  Si27  1  0.29639700  0.35281500  0.67776100  1
  Si  Si28  1  0.54908100  0.19843900  0.93600200  1
  Si  Si29  1  0.45091900  0.80156100  0.43600200  1
  Si  Si30  1  0.69843900  0.95091900  0.68600200  1
  Si  Si31  1  0.30156100  0.04908100  0.18600200  1
  Si  Si32  1  0.80156100  0.45091900  0.56399800  1
  Si  Si33  1  0.19843900  0.54908100  0.06399800  1
  Si  Si34  1  0.95091900  0.69843900  0.31399800  1
  Si  Si35  1  0.04908100  0.30156100  0.81399800  1
