# generated using pymatgen
data_Nb3Si
_symmetry_space_group_name_H-M   'P 1'
_cell_length_a   10.27440300
_cell_length_b   10.27440300
_cell_length_c   5.21891800
_cell_angle_alpha   90.00000000
_cell_angle_beta   90.00000000
_cell_angle_gamma   90.00000000
_symmetry_Int_Tables_number   1
_chemical_formula_structural   Nb3Si
_chemical_formula_sum   'Nb24 Si8'
_cell_volume   550.92650402
_cell_formula_units_Z   8
loop_
 _symmetry_equiv_pos_site_id
 _symmetry_equiv_pos_as_xyz
  1  'x, y, z'
loop_
 _atom_site_type_symbol
 _atom_site_label
 _atom_site_symmetry_multiplicity
 _atom_site_fract_x
 _atom_site_fract_y
 _atom_site_fract_z
 _atom_site_occupancy
  Nb  Nb0  1  0.01594500  0.85390100  0.27317700  1
  Nb  Nb1  1  0.35390100  0.48405500  0.77317700  1
  Nb  Nb2  1  0.64609900  0.51594500  0.77317700  1
  Nb  Nb3  1  0.98405500  0.14609900  0.27317700  1
  Nb  Nb4  1  0.48405500  0.64609900  0.22682300  1
  Nb  Nb5  1  0.14609900  0.01594500  0.72682300  1
  Nb  Nb6  1  0.85390100  0.98405500  0.72682300  1
  Nb  Nb7  1  0.51594500  0.35390100  0.22682300  1
  Nb  Nb8  1  0.28633900  0.80993900  0.98579200  1
  Nb  Nb9  1  0.30993900  0.21366100  0.48579200  1
  Nb  Nb10  1  0.69006100  0.78633900  0.48579200  1
  Nb  Nb11  1  0.71366100  0.19006100  0.98579200  1
  Nb  Nb12  1  0.21366100  0.69006100  0.51420800  1
  Nb  Nb13  1  0.19006100  0.28633900  0.01420800  1
  Nb  Nb14  1  0.80993900  0.71366100  0.01420800  1
  Nb  Nb15  1  0.78633900  0.30993900  0.51420800  1
  Nb  Nb16  1  0.90329700  0.41503400  0.03366000  1
  Nb  Nb17  1  0.91503400  0.59670300  0.53366000  1
  Nb  Nb18  1  0.08496600  0.40329700  0.53366000  1
  Nb  Nb19  1  0.09670300  0.58496600  0.03366000  1
  Nb  Nb20  1  0.59670300  0.08496600  0.46634000  1
  Nb  Nb21  1  0.58496600  0.90329700  0.96634000  1
  Nb  Nb22  1  0.41503400  0.09670300  0.96634000  1
  Nb  Nb23  1  0.40329700  0.91503400  0.46634000  1
  Si  Si24  1  0.52783400  0.29434500  0.72062100  1
  Si  Si25  1  0.79434500  0.97216600  0.22062100  1
  Si  Si26  1  0.20565500  0.02783400  0.22062100  1
  Si  Si27  1  0.47216600  0.70565500  0.72062100  1
  Si  Si28  1  0.97216600  0.20565500  0.77937900  1
  Si  Si29  1  0.70565500  0.52783400  0.27937900  1
  Si  Si30  1  0.29434500  0.47216600  0.27937900  1
  Si  Si31  1  0.02783400  0.79434500  0.77937900  1
