# generated using pymatgen
data_BaLu2CoO5
_symmetry_space_group_name_H-M   'P 1'
_cell_length_a   5.67057300
_cell_length_b   7.00706300
_cell_length_c   12.16111200
_cell_angle_alpha   90.00000000
_cell_angle_beta   90.00000000
_cell_angle_gamma   90.00000000
_symmetry_Int_Tables_number   1
_chemical_formula_structural   BaLu2CoO5
_chemical_formula_sum   'Ba4 Lu8 Co4 O20'
_cell_volume   483.21038132
_cell_formula_units_Z   4
loop_
 _symmetry_equiv_pos_site_id
 _symmetry_equiv_pos_as_xyz
  1  'x, y, z'
loop_
 _atom_site_type_symbol
 _atom_site_label
 _atom_site_symmetry_multiplicity
 _atom_site_fract_x
 _atom_site_fract_y
 _atom_site_fract_z
 _atom_site_occupancy
  Ba  Ba0  1  0.74999900  0.08047200  0.10104600  1
  Ba  Ba1  1  0.74999900  0.41952700  0.60104600  1
  Ba  Ba2  1  0.24999900  0.58047300  0.39895400  1
  Ba  Ba3  1  0.24999900  0.91952800  0.89895400  1
  Lu  Lu4  1  0.24999900  0.40237600  0.07434900  1
  Lu  Lu5  1  0.74999900  0.62050700  0.20848500  1
  Lu  Lu6  1  0.74999900  0.87949400  0.70848600  1
  Lu  Lu7  1  0.24999900  0.12050700  0.29151500  1
  Lu  Lu8  1  0.74999900  0.59762500  0.92565000  1
  Lu  Lu9  1  0.74999900  0.90237600  0.42565100  1
  Lu  Lu10  1  0.24999900  0.09762400  0.57434900  1
  Lu  Lu11  1  0.24999900  0.37949300  0.79151500  1
  Co  Co12  1  0.24999900  0.80856700  0.15217100  1
  Co  Co13  1  0.74999900  0.19143300  0.84782900  1
  Co  Co14  1  0.74999900  0.30856800  0.34782900  1
  Co  Co15  1  0.24999900  0.69143200  0.65217100  1
  O  O16  1  0.24999900  0.41809000  0.60388900  1
  O  O17  1  0.74999900  0.58191000  0.39611200  1
  O  O18  1  0.74999900  0.91809000  0.89611200  1
  O  O19  1  0.24999900  0.08191100  0.10388900  1
  O  O20  1  0.99860800  0.86505500  0.27523600  1
  O  O21  1  0.49860800  0.13494500  0.72476300  1
  O  O22  1  0.00139200  0.36505400  0.22476300  1
  O  O23  1  0.50139200  0.63494600  0.77523700  1
  O  O24  1  0.00139200  0.13494500  0.72476300  1
  O  O25  1  0.50139200  0.86505500  0.27523600  1
  O  O26  1  0.99860800  0.63494600  0.77523700  1
  O  O27  1  0.49860800  0.36505400  0.22476300  1
  O  O28  1  0.49939300  0.66321500  0.06585600  1
  O  O29  1  0.99939300  0.33678500  0.93414400  1
  O  O30  1  0.50060700  0.16321600  0.43414400  1
  O  O31  1  0.00060700  0.83678500  0.56585600  1
  O  O32  1  0.99939300  0.16321600  0.43414400  1
  O  O33  1  0.49939300  0.83678500  0.56585600  1
  O  O34  1  0.50060700  0.33678500  0.93414400  1
  O  O35  1  0.00060700  0.66321500  0.06585600  1
