data_image0
_chemical_formula_structural       O4Rb2U
_chemical_formula_sum              "O4 Rb2 U1"
_cell_length_a       4.40019
_cell_length_b       4.40019
_cell_length_c       7.48311
_cell_angle_alpha    107.098
_cell_angle_beta     107.098
_cell_angle_gamma    90

_space_group_name_H-M_alt    "P 1"
_space_group_IT_number       1

loop_
  _space_group_symop_operation_xyz
  'x, y, z'

loop_
  _atom_site_type_symbol
  _atom_site_label
  _atom_site_symmetry_multiplicity
  _atom_site_fract_x
  _atom_site_fract_y
  _atom_site_fract_z
  _atom_site_occupancy
  O   O1        1.0  0.50000  0.00000  0.00000  1.0000
  O   O2        1.0  0.00000  0.50000  0.00000  1.0000
  O   O3        1.0  0.14200  0.14200  0.28500  1.0000
  O   O4        1.0  0.85800  0.85800  0.71500  1.0000
  Rb  Rb1       1.0  0.65400  0.65400  0.30800  1.0000
  Rb  Rb2       1.0  0.34600  0.34600  0.69200  1.0000
  U   U1        1.0  0.00000  0.00000  0.00000  1.0000
