# generated using pymatgen
data_Yb5Si3SO12
_symmetry_space_group_name_H-M   'P 1'
_cell_length_a   9.33892226
_cell_length_b   9.33892226
_cell_length_c   7.02851000
_cell_angle_alpha   90.00000000
_cell_angle_beta   90.00000000
_cell_angle_gamma   120.00000187
_symmetry_Int_Tables_number   1
_chemical_formula_structural   Yb5Si3SO12
_chemical_formula_sum   'Yb10 Si6 S2 O24'
_cell_volume   530.86905601
_cell_formula_units_Z   2
loop_
 _symmetry_equiv_pos_site_id
 _symmetry_equiv_pos_as_xyz
  1  'x, y, z'
loop_
 _atom_site_type_symbol
 _atom_site_label
 _atom_site_symmetry_multiplicity
 _atom_site_fract_x
 _atom_site_fract_y
 _atom_site_fract_z
 _atom_site_occupancy
  Yb  Yb0  1  0.72229400  0.00777900  0.75000000  1
  Yb  Yb1  1  0.71451600  0.72229400  0.25000000  1
  Yb  Yb2  1  0.00777900  0.28548400  0.25000000  1
  Yb  Yb3  1  0.99222100  0.71451600  0.75000000  1
  Yb  Yb4  1  0.28548400  0.27770600  0.75000000  1
  Yb  Yb5  1  0.27770600  0.99222100  0.25000000  1
  Yb  Yb6  1  0.33333300  0.66666700  0.49805700  1
  Yb  Yb7  1  0.66666700  0.33333300  0.99805700  1
  Yb  Yb8  1  0.66666700  0.33333300  0.50194300  1
  Yb  Yb9  1  0.33333300  0.66666700  0.00194300  1
  Si  Si10  1  0.63298300  0.65168900  0.75000000  1
  Si  Si11  1  0.98129400  0.63298300  0.25000000  1
  Si  Si12  1  0.65168900  0.01870600  0.25000000  1
  Si  Si13  1  0.34831100  0.98129400  0.75000000  1
  Si  Si14  1  0.01870600  0.36701700  0.75000000  1
  Si  Si15  1  0.36701700  0.34831100  0.25000000  1
  S  S16  1  0.00000000  0.00000000  0.00000000  1
  S  S17  1  0.00000000  0.00000000  0.50000000  1
  O  O18  1  0.30414900  0.21947900  0.43413900  1
  O  O19  1  0.08467000  0.30414900  0.93413900  1
  O  O20  1  0.21947900  0.91533000  0.93413900  1
  O  O21  1  0.78052100  0.08467000  0.43413900  1
  O  O22  1  0.91533000  0.69585100  0.43413900  1
  O  O23  1  0.69585100  0.78052100  0.93413900  1
  O  O24  1  0.69585100  0.78052100  0.56586100  1
  O  O25  1  0.91533000  0.69585100  0.06586100  1
  O  O26  1  0.78052100  0.08467000  0.06586100  1
  O  O27  1  0.21947900  0.91533000  0.56586100  1
  O  O28  1  0.08467000  0.30414900  0.56586100  1
  O  O29  1  0.30414900  0.21947900  0.06586100  1
  O  O30  1  0.42998900  0.55610000  0.75000000  1
  O  O31  1  0.87388900  0.42998900  0.25000000  1
  O  O32  1  0.55610000  0.12611100  0.25000000  1
  O  O33  1  0.44390000  0.87388900  0.75000000  1
  O  O34  1  0.12611100  0.57001100  0.75000000  1
  O  O35  1  0.57001100  0.44390000  0.25000000  1
  O  O36  1  0.29996500  0.47830900  0.25000000  1
  O  O37  1  0.82165600  0.29996500  0.75000000  1
  O  O38  1  0.47830900  0.17834400  0.75000000  1
  O  O39  1  0.52169100  0.82165600  0.25000000  1
  O  O40  1  0.17834400  0.70003500  0.25000000  1
  O  O41  1  0.70003500  0.52169100  0.75000000  1
