# generated using pymatgen
data_Ce2(WO4)3
_symmetry_space_group_name_H-M   'P 1'
_cell_length_a   7.14006206
_cell_length_b   7.14006206
_cell_length_c   11.74061780
_cell_angle_alpha   79.08741195
_cell_angle_beta   79.08741195
_cell_angle_gamma   111.94770476
_symmetry_Int_Tables_number   1
_chemical_formula_structural   Ce2(WO4)3
_chemical_formula_sum   'Ce4 W6 O24'
_cell_volume   522.42696884
_cell_formula_units_Z   2
loop_
 _symmetry_equiv_pos_site_id
 _symmetry_equiv_pos_as_xyz
  1  'x, y, z'
loop_
 _atom_site_type_symbol
 _atom_site_label
 _atom_site_symmetry_multiplicity
 _atom_site_fract_x
 _atom_site_fract_y
 _atom_site_fract_z
 _atom_site_occupancy
  Ce  Ce0  1  0.28790000  0.04255100  0.40512700  1
  Ce  Ce1  1  0.95744900  0.71210000  0.09487300  1
  Ce  Ce2  1  0.71210000  0.95744900  0.59487300  1
  Ce  Ce3  1  0.04255100  0.28790000  0.90512700  1
  W  W4  1  0.13435800  0.86564200  0.75000000  1
  W  W5  1  0.86564200  0.13435800  0.25000000  1
  W  W6  1  0.45962100  0.25274500  0.04647700  1
  W  W7  1  0.74725500  0.54037900  0.45352300  1
  W  W8  1  0.54037900  0.74725500  0.95352300  1
  W  W9  1  0.25274500  0.45962100  0.54647700  1
  O  O10  1  0.52812500  0.60362900  0.57096400  1
  O  O11  1  0.39637100  0.47187500  0.92903600  1
  O  O12  1  0.47187500  0.39637100  0.42903600  1
  O  O13  1  0.60362900  0.52812500  0.07096400  1
  O  O14  1  0.65971900  0.23117500  0.94036100  1
  O  O15  1  0.76882500  0.34028100  0.55963900  1
  O  O16  1  0.34028100  0.76882500  0.05963900  1
  O  O17  1  0.23117500  0.65971900  0.44036100  1
  O  O18  1  0.11076800  0.45456400  0.69560500  1
  O  O19  1  0.54543600  0.88923200  0.80439500  1
  O  O20  1  0.66227700  0.08192100  0.39060900  1
  O  O21  1  0.91807900  0.33772300  0.10939100  1
  O  O22  1  0.33772300  0.91807900  0.60939100  1
  O  O23  1  0.08192100  0.66227700  0.89060900  1
  O  O24  1  0.11621700  0.20690300  0.28112600  1
  O  O25  1  0.79309700  0.88378300  0.21887400  1
  O  O26  1  0.88378300  0.79309700  0.71887400  1
  O  O27  1  0.20690300  0.11621700  0.78112600  1
  O  O28  1  0.91564400  0.81146500  0.46037000  1
  O  O29  1  0.18853500  0.08435600  0.03963000  1
  O  O30  1  0.08435600  0.18853500  0.53963000  1
  O  O31  1  0.81146500  0.91564400  0.96037000  1
  O  O32  1  0.45456400  0.11076800  0.19560500  1
  O  O33  1  0.88923200  0.54543600  0.30439500  1
