# generated using pymatgen
data_Pr4V5(Si2O11)2
_symmetry_space_group_name_H-M   'P 1'
_cell_length_a   7.36303736
_cell_length_b   7.36303736
_cell_length_c   11.18415732
_cell_angle_alpha   80.36521095
_cell_angle_beta   80.36521095
_cell_angle_gamma   45.63544241
_symmetry_Int_Tables_number   1
_chemical_formula_structural   Pr4V5(Si2O11)2
_chemical_formula_sum   'Pr4 V5 Si4 O22'
_cell_volume   426.27095834
_cell_formula_units_Z   1
loop_
 _symmetry_equiv_pos_site_id
 _symmetry_equiv_pos_as_xyz
  1  'x, y, z'
loop_
 _atom_site_type_symbol
 _atom_site_label
 _atom_site_symmetry_multiplicity
 _atom_site_fract_x
 _atom_site_fract_y
 _atom_site_fract_z
 _atom_site_occupancy
  Pr  Pr0  1  0.07332800  0.07332800  0.25114000  1
  Pr  Pr1  1  0.92667200  0.92667200  0.74886000  1
  Pr  Pr2  1  0.35625200  0.35625200  0.25635800  1
  Pr  Pr3  1  0.64374800  0.64374800  0.74364200  1
  V  V4  1  0.50000000  0.50000000  0.50000000  1
  V  V5  1  0.00000000  0.50000000  0.00000000  1
  V  V6  1  0.50000000  0.50000000  0.00000000  1
  V  V7  1  0.00000000  0.00000000  0.00000000  1
  V  V8  1  0.50000000  0.00000000  0.00000000  1
  Si  Si9  1  0.86146500  0.86146500  0.45763400  1
  Si  Si10  1  0.13853500  0.13853500  0.54236600  1
  Si  Si11  1  0.70341300  0.70341300  0.27076100  1
  Si  Si12  1  0.29658700  0.29658700  0.72923900  1
  O  O13  1  0.77859000  0.77859000  0.36822000  1
  O  O14  1  0.22141000  0.22141000  0.63178000  1
  O  O15  1  0.30589300  0.83455100  0.58762200  1
  O  O16  1  0.16544900  0.69410700  0.41237800  1
  O  O17  1  0.69410700  0.16544900  0.41237800  1
  O  O18  1  0.83455100  0.30589300  0.58762200  1
  O  O19  1  0.18712600  0.18712600  0.40041400  1
  O  O20  1  0.81287400  0.81287400  0.59958600  1
  O  O21  1  0.58803500  0.58803500  0.33730700  1
  O  O22  1  0.41196500  0.41196500  0.66269300  1
  O  O23  1  0.51150700  0.03525200  0.81146100  1
  O  O24  1  0.96474800  0.48849300  0.18853900  1
  O  O25  1  0.48849300  0.96474800  0.18853900  1
  O  O26  1  0.65006000  0.65006000  0.98279900  1
  O  O27  1  0.34994000  0.34994000  0.01720100  1
  O  O28  1  0.85727200  0.85727200  0.97623000  1
  O  O29  1  0.14272800  0.14272800  0.02377000  1
  O  O30  1  0.03525200  0.51150700  0.81146100  1
  O  O31  1  0.73621200  0.21846600  0.13060000  1
  O  O32  1  0.21846600  0.73621200  0.13060000  1
  O  O33  1  0.26378800  0.78153400  0.86940000  1
  O  O34  1  0.78153400  0.26378800  0.86940000  1
