# generated using pymatgen
data_BaLi(B3O5)3
_symmetry_space_group_name_H-M   'P 1'
_cell_length_a   8.64252444
_cell_length_b   8.64252483
_cell_length_c   8.64252432
_cell_angle_alpha   80.65567228
_cell_angle_beta   80.65567549
_cell_angle_gamma   80.65567069
_symmetry_Int_Tables_number   1
_chemical_formula_structural   BaLi(B3O5)3
_chemical_formula_sum   'Ba2 Li2 B18 O30'
_cell_volume   622.35750795
_cell_formula_units_Z   2
loop_
 _symmetry_equiv_pos_site_id
 _symmetry_equiv_pos_as_xyz
  1  'x, y, z'
loop_
 _atom_site_type_symbol
 _atom_site_label
 _atom_site_symmetry_multiplicity
 _atom_site_fract_x
 _atom_site_fract_y
 _atom_site_fract_z
 _atom_site_occupancy
  Ba  Ba0  1  0.49796200  0.49796200  0.49796200  1
  Ba  Ba1  1  0.99796200  0.99796200  0.99796200  1
  Li  Li2  1  0.24639400  0.24639400  0.24639400  1
  Li  Li3  1  0.74639400  0.74639400  0.74639400  1
  B  B4  1  0.74318200  0.60622700  0.08082900  1
  B  B5  1  0.25012400  0.68028600  0.81921600  1
  B  B6  1  0.75012400  0.31921600  0.18028600  1
  B  B7  1  0.31921600  0.18028600  0.75012400  1
  B  B8  1  0.10622700  0.24318200  0.58082900  1
  B  B9  1  0.24318200  0.58082900  0.10622700  1
  B  B10  1  0.58082900  0.10622700  0.24318200  1
  B  B11  1  0.81921600  0.25012400  0.68028600  1
  B  B12  1  0.08082900  0.74318200  0.60622700  1
  B  B13  1  0.60622700  0.08082900  0.74318200  1
  B  B14  1  0.91873400  0.25651900  0.39359800  1
  B  B15  1  0.25651900  0.39359800  0.91873400  1
  B  B16  1  0.39359800  0.91873400  0.25651900  1
  B  B17  1  0.89359800  0.75651900  0.41873400  1
  B  B18  1  0.75651900  0.41873400  0.89359800  1
  B  B19  1  0.41873400  0.89359800  0.75651900  1
  B  B20  1  0.68028600  0.81921600  0.25012400  1
  B  B21  1  0.18028600  0.75012400  0.31921600  1
  O  O22  1  0.75676500  0.75563200  0.10220100  1
  O  O23  1  0.75563200  0.10220100  0.75676500  1
  O  O24  1  0.48737600  0.20330400  0.72160800  1
  O  O25  1  0.72160800  0.48737600  0.20330400  1
  O  O26  1  0.10220100  0.75676500  0.75563200  1
  O  O27  1  0.70330400  0.98737600  0.22160800  1
  O  O28  1  0.22160800  0.70330400  0.98737600  1
  O  O29  1  0.98737600  0.22160800  0.70330400  1
  O  O30  1  0.24296000  0.24401800  0.89791900  1
  O  O31  1  0.89791900  0.24296000  0.24401800  1
  O  O32  1  0.24401800  0.89791900  0.24296000  1
  O  O33  1  0.74401800  0.74296000  0.39791900  1
  O  O34  1  0.39791900  0.74401800  0.74296000  1
  O  O35  1  0.74296000  0.39791900  0.74401800  1
  O  O36  1  0.60220100  0.25563200  0.25676500  1
  O  O37  1  0.25563200  0.25676500  0.60220100  1
  O  O38  1  0.79613000  0.27845800  0.51221300  1
  O  O39  1  0.27845800  0.51221300  0.79613000  1
  O  O40  1  0.51221300  0.79613000  0.27845800  1
  O  O41  1  0.01221300  0.77845800  0.29613000  1
  O  O42  1  0.77845800  0.29613000  0.01221300  1
  O  O43  1  0.29613000  0.01221300  0.77845800  1
  O  O44  1  0.07596000  0.24961700  0.42376700  1
  O  O45  1  0.24961700  0.42376700  0.07596000  1
  O  O46  1  0.42376700  0.07596000  0.24961700  1
  O  O47  1  0.92376700  0.74961700  0.57596000  1
  O  O48  1  0.74961700  0.57596000  0.92376700  1
  O  O49  1  0.57596000  0.92376700  0.74961700  1
  O  O50  1  0.20330400  0.72160800  0.48737600  1
  O  O51  1  0.25676500  0.60220100  0.25563200  1
