# generated using pymatgen
data_KSrVO4
_symmetry_space_group_name_H-M   'P 1'
_cell_length_a   5.96336600
_cell_length_b   7.54848400
_cell_length_c   10.11853900
_cell_angle_alpha   90.00000000
_cell_angle_beta   90.00000000
_cell_angle_gamma   90.00000000
_symmetry_Int_Tables_number   1
_chemical_formula_structural   KSrVO4
_chemical_formula_sum   'K4 Sr4 V4 O16'
_cell_volume   455.47968711
_cell_formula_units_Z   4
loop_
 _symmetry_equiv_pos_site_id
 _symmetry_equiv_pos_as_xyz
  1  'x, y, z'
loop_
 _atom_site_type_symbol
 _atom_site_label
 _atom_site_symmetry_multiplicity
 _atom_site_fract_x
 _atom_site_fract_y
 _atom_site_fract_z
 _atom_site_occupancy
  K  K0  1  0.25000000  0.15752900  0.92401100  1
  K  K1  1  0.75000000  0.84247100  0.07598900  1
  K  K2  1  0.25000000  0.65752900  0.57598900  1
  K  K3  1  0.75000000  0.34247100  0.42401100  1
  Sr  Sr4  1  0.25000000  0.00341800  0.29826400  1
  Sr  Sr5  1  0.75000000  0.99658200  0.70173600  1
  Sr  Sr6  1  0.25000000  0.50341800  0.20173600  1
  Sr  Sr7  1  0.75000000  0.49658200  0.79826400  1
  V  V8  1  0.25000000  0.72214100  0.91583800  1
  V  V9  1  0.75000000  0.27785900  0.08416200  1
  V  V10  1  0.25000000  0.22214100  0.58416200  1
  V  V11  1  0.75000000  0.77785900  0.41583800  1
  O  O12  1  0.50831900  0.21982800  0.17278000  1
  O  O13  1  0.00831900  0.78017200  0.82722000  1
  O  O14  1  0.99168100  0.71982800  0.32722000  1
  O  O15  1  0.49168100  0.28017200  0.67278000  1
  O  O16  1  0.49168100  0.78017200  0.82722000  1
  O  O17  1  0.99168100  0.21982800  0.17278000  1
  O  O18  1  0.00831900  0.28017200  0.67278000  1
  O  O19  1  0.50831900  0.71982800  0.32722000  1
  O  O20  1  0.25000000  0.82420300  0.07127600  1
  O  O21  1  0.75000000  0.17579700  0.92872400  1
  O  O22  1  0.25000000  0.32420300  0.42872400  1
  O  O23  1  0.75000000  0.67579700  0.57127600  1
  O  O24  1  0.75000000  0.50258400  0.05618800  1
  O  O25  1  0.25000000  0.49741600  0.94381200  1
  O  O26  1  0.75000000  0.00258400  0.44381200  1
  O  O27  1  0.25000000  0.99741600  0.55618800  1
