# generated using pymatgen
data_NaV3P3O13
_symmetry_space_group_name_H-M   'P 1'
_cell_length_a   6.38730600
_cell_length_b   7.47245100
_cell_length_c   10.68255805
_cell_angle_alpha   80.69431067
_cell_angle_beta   90.00000000
_cell_angle_gamma   90.00000000
_symmetry_Int_Tables_number   1
_chemical_formula_structural   NaV3P3O13
_chemical_formula_sum   'Na2 V6 P6 O26'
_cell_volume   503.15600112
_cell_formula_units_Z   2
loop_
 _symmetry_equiv_pos_site_id
 _symmetry_equiv_pos_as_xyz
  1  'x, y, z'
loop_
 _atom_site_type_symbol
 _atom_site_label
 _atom_site_symmetry_multiplicity
 _atom_site_fract_x
 _atom_site_fract_y
 _atom_site_fract_z
 _atom_site_occupancy
  Na  Na0  1  0.75000000  0.34301100  0.18441400  1
  Na  Na1  1  0.25000000  0.65698900  0.81558600  1
  V  V2  1  0.25000000  0.64358700  0.19800900  1
  V  V3  1  0.75000000  0.35641300  0.80199100  1
  V  V4  1  0.25000000  0.22545000  0.44614600  1
  V  V5  1  0.50000000  0.00000000  0.00000000  1
  V  V6  1  0.75000000  0.77455000  0.55385400  1
  V  V7  1  0.00000000  0.00000000  0.00000000  1
  P  P8  1  0.25000000  0.78014200  0.47695000  1
  P  P9  1  0.75000000  0.21985800  0.52305000  1
  P  P10  1  0.25000000  0.25573400  0.76914200  1
  P  P11  1  0.75000000  0.74426600  0.23085800  1
  P  P12  1  0.75000000  0.69158800  0.87848300  1
  P  P13  1  0.25000000  0.30841200  0.12151700  1
  O  O14  1  0.75000000  0.65030500  0.73992700  1
  O  O15  1  0.55548300  0.26768600  0.43852300  1
  O  O16  1  0.25000000  0.19382500  0.64084600  1
  O  O17  1  0.54971900  0.79599900  0.90321900  1
  O  O18  1  0.75000000  0.34445500  0.62694900  1
  O  O19  1  0.75000000  0.13785500  0.90508800  1
  O  O20  1  0.25000000  0.65554500  0.37305100  1
  O  O21  1  0.04971900  0.20400100  0.09678100  1
  O  O22  1  0.25000000  0.97984200  0.41046400  1
  O  O23  1  0.75000000  0.02015800  0.58953600  1
  O  O24  1  0.05873100  0.37319700  0.79326400  1
  O  O25  1  0.25000000  0.86214500  0.09491200  1
  O  O26  1  0.55873100  0.62680300  0.20673600  1
  O  O27  1  0.75000000  0.49323600  0.95092400  1
  O  O28  1  0.75000000  0.80617500  0.35915400  1
  O  O29  1  0.45028100  0.20400100  0.09678100  1
  O  O30  1  0.94451700  0.26768600  0.43852300  1
  O  O31  1  0.44451700  0.73231400  0.56147700  1
  O  O32  1  0.44126900  0.37319700  0.79326400  1
  O  O33  1  0.25000000  0.34969500  0.26007300  1
  O  O34  1  0.75000000  0.91609100  0.12197900  1
  O  O35  1  0.25000000  0.08390900  0.87802100  1
  O  O36  1  0.94126900  0.62680300  0.20673600  1
  O  O37  1  0.95028100  0.79599900  0.90321900  1
  O  O38  1  0.05548300  0.73231400  0.56147700  1
  O  O39  1  0.25000000  0.50676400  0.04907600  1
