# generated using pymatgen
data_CaSiO3
_symmetry_space_group_name_H-M   'P 1'
_cell_length_a   6.90945175
_cell_length_b   6.90945175
_cell_length_c   10.61770469
_cell_angle_alpha   71.70554429
_cell_angle_beta   71.70554429
_cell_angle_gamma   60.25371636
_symmetry_Int_Tables_number   1
_chemical_formula_structural   CaSiO3
_chemical_formula_sum   'Ca6 Si6 O18'
_cell_volume   410.09472876
_cell_formula_units_Z   6
loop_
 _symmetry_equiv_pos_site_id
 _symmetry_equiv_pos_as_xyz
  1  'x, y, z'
loop_
 _atom_site_type_symbol
 _atom_site_label
 _atom_site_symmetry_multiplicity
 _atom_site_fract_x
 _atom_site_fract_y
 _atom_site_fract_z
 _atom_site_occupancy
  Ca  Ca0  1  0.00000000  0.50000000  0.50000000  1
  Ca  Ca1  1  0.50000000  0.00000000  0.00000000  1
  Ca  Ca2  1  0.15072000  0.67372700  0.99900100  1
  Ca  Ca3  1  0.32627300  0.84928000  0.50099900  1
  Ca  Ca4  1  0.84928000  0.32627300  0.00099900  1
  Ca  Ca5  1  0.67372700  0.15072000  0.49900100  1
  Si  Si6  1  0.83959900  0.16040100  0.75000000  1
  Si  Si7  1  0.16040100  0.83959900  0.25000000  1
  Si  Si8  1  0.32511600  0.41921900  0.74467700  1
  Si  Si9  1  0.58078100  0.67488400  0.75532300  1
  Si  Si10  1  0.67488400  0.58078100  0.25532300  1
  Si  Si11  1  0.41921900  0.32511600  0.24467700  1
  O  O12  1  0.35793600  0.64206400  0.75000000  1
  O  O13  1  0.64206400  0.35793600  0.25000000  1
  O  O14  1  0.89337900  0.00686400  0.89473100  1
  O  O15  1  0.99313600  0.10662100  0.60526900  1
  O  O16  1  0.10662100  0.99313600  0.10526900  1
  O  O17  1  0.00686400  0.89337900  0.39473100  1
  O  O18  1  0.58211500  0.19489800  0.74751300  1
  O  O19  1  0.80510200  0.41788500  0.75248700  1
  O  O20  1  0.41788500  0.80510200  0.25248700  1
  O  O21  1  0.19489800  0.58211500  0.24751300  1
  O  O22  1  0.17074000  0.37190800  0.88796800  1
  O  O23  1  0.62809200  0.82926000  0.61203200  1
  O  O24  1  0.46778300  0.27566200  0.09661700  1
  O  O25  1  0.72433800  0.53221700  0.40338300  1
  O  O26  1  0.53221700  0.72433800  0.90338300  1
  O  O27  1  0.27566200  0.46778300  0.59661700  1
  O  O28  1  0.37190800  0.17074000  0.38796800  1
  O  O29  1  0.82926000  0.62809200  0.11203200  1
