# generated using pymatgen
data_SrC10
_symmetry_space_group_name_H-M   'P 1'
_cell_length_a   9.58137771
_cell_length_b   9.58137771
_cell_length_c   9.58137771
_cell_angle_alpha   109.47122063
_cell_angle_beta   109.47122063
_cell_angle_gamma   109.47122063
_symmetry_Int_Tables_number   1
_chemical_formula_structural   SrC10
_chemical_formula_sum   'Sr6 C60'
_cell_volume   677.11430978
_cell_formula_units_Z   6
loop_
 _symmetry_equiv_pos_site_id
 _symmetry_equiv_pos_as_xyz
  1  'x, y, z'
loop_
 _atom_site_type_symbol
 _atom_site_label
 _atom_site_symmetry_multiplicity
 _atom_site_fract_x
 _atom_site_fract_y
 _atom_site_fract_z
 _atom_site_occupancy
  Sr  Sr0  1  0.50000000  0.27244700  0.77244700  1
  Sr  Sr1  1  0.22755300  0.50000000  0.72755300  1
  Sr  Sr2  1  0.72755300  0.22755300  0.50000000  1
  Sr  Sr3  1  0.27244700  0.77244700  0.50000000  1
  Sr  Sr4  1  0.77244700  0.50000000  0.27244700  1
  Sr  Sr5  1  0.50000000  0.72755300  0.22755300  1
  C  C6  1  0.74714000  0.68144800  0.06569200  1
  C  C7  1  0.06569200  0.38424400  0.31855200  1
  C  C8  1  0.68144800  0.93430800  0.61575600  1
  C  C9  1  0.93430800  0.61575600  0.68144800  1
  C  C10  1  0.31855200  0.93430800  0.25286000  1
  C  C11  1  0.06569200  0.74714000  0.68144800  1
  C  C12  1  0.68144800  0.06569200  0.74714000  1
  C  C13  1  0.31855200  0.06569200  0.38424400  1
  C  C14  1  0.93430800  0.25286000  0.31855200  1
  C  C15  1  0.61575600  0.68144800  0.93430800  1
  C  C16  1  0.25286000  0.31855200  0.93430800  1
  C  C17  1  0.38424400  0.31855200  0.06569200  1
  C  C18  1  0.85298500  0.82819500  0.23668400  1
  C  C19  1  0.02478900  0.40848900  0.17180500  1
  C  C20  1  0.61630100  0.76331600  0.59151100  1
  C  C21  1  0.76331600  0.59151100  0.61630100  1
  C  C22  1  0.38370000  0.97521100  0.14701500  1
  C  C23  1  0.23668400  0.85298500  0.82819500  1
  C  C24  1  0.82819500  0.23668400  0.85298500  1
  C  C25  1  0.17180500  0.02478900  0.40848900  1
  C  C26  1  0.97521100  0.14701500  0.38370000  1
  C  C27  1  0.59151100  0.61630100  0.76331600  1
  C  C28  1  0.14701500  0.38369900  0.97521100  1
  C  C29  1  0.40848900  0.17180500  0.02478900  1
  C  C30  1  0.14701500  0.17180500  0.76331600  1
  C  C31  1  0.97521100  0.59151100  0.82819500  1
  C  C32  1  0.38369900  0.23668400  0.40848900  1
  C  C33  1  0.23668400  0.40848900  0.38369900  1
  C  C34  1  0.61630100  0.02478900  0.85298500  1
  C  C35  1  0.76331600  0.14701500  0.17180500  1
  C  C36  1  0.17180500  0.76331600  0.14701500  1
  C  C37  1  0.82819500  0.97521100  0.59151100  1
  C  C38  1  0.02478900  0.85298500  0.61630100  1
  C  C39  1  0.40848900  0.38369900  0.23668400  1
  C  C40  1  0.85298500  0.61630000  0.02478900  1
  C  C41  1  0.59151100  0.82819500  0.97521100  1
  C  C42  1  0.82993900  0.97578000  0.27549000  1
  C  C43  1  0.85415900  0.29971000  0.02422000  1
  C  C44  1  0.55445000  0.72451000  0.70029000  1
  C  C45  1  0.72451000  0.70029000  0.55445000  1
  C  C46  1  0.44555000  0.14584100  0.17006100  1
  C  C47  1  0.27549000  0.82993900  0.97578000  1
  C  C48  1  0.97578000  0.27549000  0.82993900  1
  C  C49  1  0.02422000  0.85415900  0.29971000  1
  C  C50  1  0.14584100  0.17006100  0.44555000  1
  C  C51  1  0.70029000  0.55445000  0.72451000  1
  C  C52  1  0.17006100  0.44555000  0.14584100  1
  C  C53  1  0.29971000  0.02422000  0.85415900  1
  C  C54  1  0.17006100  0.02422000  0.72451000  1
  C  C55  1  0.14584100  0.70029000  0.97578000  1
  C  C56  1  0.44555000  0.27549000  0.29971000  1
  C  C57  1  0.27549000  0.29971000  0.44555000  1
  C  C58  1  0.55445000  0.85415900  0.82993900  1
  C  C59  1  0.72451000  0.17006100  0.02422000  1
  C  C60  1  0.02422000  0.72451000  0.17006100  1
  C  C61  1  0.97578000  0.14584100  0.70029000  1
  C  C62  1  0.85415900  0.82993900  0.55445000  1
  C  C63  1  0.29971000  0.44555000  0.27549000  1
  C  C64  1  0.82993900  0.55445000  0.85415900  1
  C  C65  1  0.70029000  0.97578000  0.14584100  1
