# generated using pymatgen
data_Ta3Ge
_symmetry_space_group_name_H-M   'P 1'
_cell_length_a   7.80412946
_cell_length_b   7.80412946
_cell_length_c   7.80412946
_cell_angle_alpha   96.36695811
_cell_angle_beta   96.36695811
_cell_angle_gamma   141.09682636
_symmetry_Int_Tables_number   1
_chemical_formula_structural   Ta3Ge
_chemical_formula_sum   'Ta12 Ge4'
_cell_volume   281.45801991
_cell_formula_units_Z   4
loop_
 _symmetry_equiv_pos_site_id
 _symmetry_equiv_pos_as_xyz
  1  'x, y, z'
loop_
 _atom_site_type_symbol
 _atom_site_label
 _atom_site_symmetry_multiplicity
 _atom_site_fract_x
 _atom_site_fract_y
 _atom_site_fract_z
 _atom_site_occupancy
  Ta  Ta0  1  0.50158900  0.16029400  0.63233300  1
  Ta  Ta1  1  0.83970600  0.47203900  0.34129500  1
  Ta  Ta2  1  0.13074300  0.49841100  0.65870500  1
  Ta  Ta3  1  0.52796100  0.86925700  0.36766700  1
  Ta  Ta4  1  0.52491500  0.54850800  0.59495900  1
  Ta  Ta5  1  0.45149200  0.04645100  0.97640700  1
  Ta  Ta6  1  0.07004400  0.47508500  0.02359300  1
  Ta  Ta7  1  0.95354900  0.92995600  0.40504100  1
  Ta  Ta8  1  0.37121900  0.35572800  0.18242400  1
  Ta  Ta9  1  0.64427200  0.82669700  0.01549100  1
  Ta  Ta10  1  0.81120600  0.62878100  0.98450900  1
  Ta  Ta11  1  0.17330300  0.18879400  0.81757600  1
  Ge  Ge12  1  0.04252800  0.30770900  0.31650200  1
  Ge  Ge13  1  0.69229100  0.00879300  0.73481900  1
  Ge  Ge14  1  0.27397400  0.95747200  0.26518100  1
  Ge  Ge15  1  0.99120700  0.72602600  0.68349800  1
