# generated using pymatgen
data_Na2TiF6
_symmetry_space_group_name_H-M   'P 1'
_cell_length_a   9.68359228
_cell_length_b   9.68359228
_cell_length_c   4.71119700
_cell_angle_alpha   90.00000000
_cell_angle_beta   90.00000000
_cell_angle_gamma   120.00000194
_symmetry_Int_Tables_number   1
_chemical_formula_structural   Na2TiF6
_chemical_formula_sum   'Na6 Ti3 F18'
_cell_volume   382.59111439
_cell_formula_units_Z   3
loop_
 _symmetry_equiv_pos_site_id
 _symmetry_equiv_pos_as_xyz
  1  'x, y, z'
loop_
 _atom_site_type_symbol
 _atom_site_label
 _atom_site_symmetry_multiplicity
 _atom_site_fract_x
 _atom_site_fract_y
 _atom_site_fract_z
 _atom_site_occupancy
  Na  Na0  1  0.34269000  0.34269000  0.00000000  1
  Na  Na1  1  0.00000000  0.65731000  0.00000000  1
  Na  Na2  1  0.65731000  0.00000000  0.00000000  1
  Na  Na3  1  0.65731000  0.65731000  0.00000000  1
  Na  Na4  1  0.00000000  0.34269000  0.00000000  1
  Na  Na5  1  0.34269000  0.00000000  0.00000000  1
  Ti  Ti6  1  0.66666700  0.33333300  0.49902800  1
  Ti  Ti7  1  0.33333300  0.66666700  0.50097200  1
  Ti  Ti8  1  0.00000000  0.00000000  0.00000000  1
  F  F9  1  0.57320100  0.42679900  0.72962200  1
  F  F10  1  0.57320100  0.14640300  0.72962200  1
  F  F11  1  0.85359700  0.42679900  0.72962200  1
  F  F12  1  0.14640300  0.57320100  0.27037800  1
  F  F13  1  0.42679900  0.85359700  0.27037800  1
  F  F14  1  0.42679900  0.57320100  0.27037800  1
  F  F15  1  0.75962500  0.24037500  0.26979500  1
  F  F16  1  0.75962500  0.51925100  0.26979500  1
  F  F17  1  0.48074900  0.24037500  0.26979500  1
  F  F18  1  0.09554800  0.90445200  0.21532100  1
  F  F19  1  0.09554800  0.19109600  0.21532100  1
  F  F20  1  0.80890400  0.90445200  0.21532100  1
  F  F21  1  0.19109600  0.09554800  0.78467900  1
  F  F22  1  0.90445200  0.80890400  0.78467900  1
  F  F23  1  0.90445200  0.09554800  0.78467900  1
  F  F24  1  0.24037500  0.75962500  0.73020500  1
  F  F25  1  0.24037500  0.48074900  0.73020500  1
  F  F26  1  0.51925100  0.75962500  0.73020500  1
