# generated using pymatgen
data_K3BeF5
_symmetry_space_group_name_H-M   'P 1'
_cell_length_a   7.50280527
_cell_length_b   7.50280527
_cell_length_c   7.50280527
_cell_angle_alpha   122.10037136
_cell_angle_beta   122.10037136
_cell_angle_gamma   86.39898841
_symmetry_Int_Tables_number   1
_chemical_formula_structural   K3BeF5
_chemical_formula_sum   'K6 Be2 F10'
_cell_volume   288.54394857
_cell_formula_units_Z   2
loop_
 _symmetry_equiv_pos_site_id
 _symmetry_equiv_pos_as_xyz
  1  'x, y, z'
loop_
 _atom_site_type_symbol
 _atom_site_label
 _atom_site_symmetry_multiplicity
 _atom_site_fract_x
 _atom_site_fract_y
 _atom_site_fract_z
 _atom_site_occupancy
  K  K0  1  0.18167800  0.68167800  0.86335700  1
  K  K1  1  0.31832200  0.18167800  0.50000000  1
  K  K2  1  0.81832200  0.31832200  0.13664300  1
  K  K3  1  0.68167800  0.81832200  0.50000000  1
  K  K4  1  0.75000000  0.75000000  0.00000000  1
  K  K5  1  0.25000000  0.25000000  0.00000000  1
  Be  Be6  1  0.75000000  0.25000000  0.50000000  1
  Be  Be7  1  0.25000000  0.75000000  0.50000000  1
  F  F8  1  0.71212500  0.45808600  0.50000000  1
  F  F9  1  0.04191400  0.78787500  0.50000000  1
  F  F10  1  0.45808600  0.95808600  0.74596100  1
  F  F11  1  0.21212500  0.71212500  0.25403900  1
  F  F12  1  0.50000000  0.50000000  0.00000000  1
  F  F13  1  0.00000000  0.00000000  0.00000000  1
  F  F14  1  0.78787500  0.28787500  0.74596100  1
  F  F15  1  0.54191400  0.04191400  0.25403900  1
  F  F16  1  0.28787500  0.54191400  0.50000000  1
  F  F17  1  0.95808600  0.21212500  0.50000000  1
