# generated using pymatgen
data_BaAl2(SiO4)2
_symmetry_space_group_name_H-M   'P 1'
_cell_length_a   9.43422937
_cell_length_b   9.43422937
_cell_length_c   8.74930253
_cell_angle_alpha   82.19741999
_cell_angle_beta   82.19741999
_cell_angle_gamma   88.92679976
_symmetry_Int_Tables_number   1
_chemical_formula_structural   BaAl2(SiO4)2
_chemical_formula_sum   'Ba4 Al8 Si8 O32'
_cell_volume   764.37625039
_cell_formula_units_Z   4
loop_
 _symmetry_equiv_pos_site_id
 _symmetry_equiv_pos_as_xyz
  1  'x, y, z'
loop_
 _atom_site_type_symbol
 _atom_site_label
 _atom_site_symmetry_multiplicity
 _atom_site_fract_x
 _atom_site_fract_y
 _atom_site_fract_z
 _atom_site_occupancy
  Ba  Ba0  1  0.43513700  0.93592400  0.28299400  1
  Ba  Ba1  1  0.06407600  0.56486300  0.21700600  1
  Ba  Ba2  1  0.56486300  0.06407600  0.71700600  1
  Ba  Ba3  1  0.93592400  0.43513700  0.78299400  1
  Al  Al4  1  0.93380800  0.80011500  0.89143800  1
  Al  Al5  1  0.19988500  0.06619200  0.60856200  1
  Al  Al6  1  0.80011500  0.93380800  0.39143800  1
  Al  Al7  1  0.06619200  0.19988500  0.10856200  1
  Al  Al8  1  0.44878000  0.70401100  0.96484300  1
  Al  Al9  1  0.29598900  0.55122000  0.53515700  1
  Al  Al10  1  0.55122000  0.29598900  0.03515700  1
  Al  Al11  1  0.70401100  0.44878000  0.46484300  1
  Si  Si12  1  0.94066500  0.21124900  0.47379000  1
  Si  Si13  1  0.05933500  0.78875100  0.52621000  1
  Si  Si14  1  0.42778600  0.28973200  0.40241400  1
  Si  Si15  1  0.78875100  0.05933500  0.02621000  1
  Si  Si16  1  0.57221400  0.71026800  0.59758600  1
  Si  Si17  1  0.28973200  0.42778600  0.90241400  1
  Si  Si18  1  0.71026800  0.57221400  0.09758600  1
  Si  Si19  1  0.21124900  0.94066500  0.97379000  1
  O  O20  1  0.91766700  0.17628100  0.01091200  1
  O  O21  1  0.82371900  0.08233300  0.48908800  1
  O  O22  1  0.08233300  0.82371900  0.98908800  1
  O  O23  1  0.17628100  0.91766700  0.51091200  1
  O  O24  1  0.43499200  0.67677500  0.51085300  1
  O  O25  1  0.32322500  0.56500800  0.98914700  1
  O  O26  1  0.56500800  0.32322500  0.48914700  1
  O  O27  1  0.67677500  0.43499200  0.01085300  1
  O  O28  1  0.18143400  0.05301100  0.10153600  1
  O  O29  1  0.94698900  0.81856600  0.39846400  1
  O  O30  1  0.81856600  0.94698900  0.89846400  1
  O  O31  1  0.05301100  0.18143400  0.60153600  1
  O  O32  1  0.68301100  0.57586900  0.59650000  1
  O  O33  1  0.42413100  0.31698900  0.90350000  1
  O  O34  1  0.31698900  0.42413100  0.40350000  1
  O  O35  1  0.57586900  0.68301100  0.09650000  1
  O  O36  1  0.02085100  0.24871100  0.29553300  1
  O  O37  1  0.75128900  0.97914900  0.20446700  1
  O  O38  1  0.97914900  0.75128900  0.70446700  1
  O  O39  1  0.24871100  0.02085100  0.79553300  1
  O  O40  1  0.86158500  0.63745600  0.99682400  1
  O  O41  1  0.36254400  0.13841500  0.50317600  1
  O  O42  1  0.13841500  0.36254400  0.00317600  1
  O  O43  1  0.63745600  0.86158500  0.49682400  1
  O  O44  1  0.85704800  0.35686800  0.52317900  1
  O  O45  1  0.64313200  0.14295200  0.97682100  1
  O  O46  1  0.14295200  0.64313200  0.47682100  1
  O  O47  1  0.35686800  0.85704800  0.02317900  1
  O  O48  1  0.75320100  0.52637400  0.27194500  1
  O  O49  1  0.47362600  0.24679900  0.22805500  1
  O  O50  1  0.24679900  0.47362600  0.72805500  1
  O  O51  1  0.52637400  0.75320100  0.77194500  1
