# generated using pymatgen
data_Rb3MnF7
_symmetry_space_group_name_H-M   'P 1'
_cell_length_a   8.22180900
_cell_length_b   8.22180900
_cell_length_c   5.99770500
_cell_angle_alpha   90.00000000
_cell_angle_beta   90.00000000
_cell_angle_gamma   90.00000000
_symmetry_Int_Tables_number   1
_chemical_formula_structural   Rb3MnF7
_chemical_formula_sum   'Rb6 Mn2 F14'
_cell_volume   405.43372166
_cell_formula_units_Z   2
loop_
 _symmetry_equiv_pos_site_id
 _symmetry_equiv_pos_as_xyz
  1  'x, y, z'
loop_
 _atom_site_type_symbol
 _atom_site_label
 _atom_site_symmetry_multiplicity
 _atom_site_fract_x
 _atom_site_fract_y
 _atom_site_fract_z
 _atom_site_occupancy
  Rb  Rb0  1  0.19167400  0.69167400  0.50000000  1
  Rb  Rb1  1  0.69167400  0.80832600  0.50000000  1
  Rb  Rb2  1  0.30832600  0.19167400  0.50000000  1
  Rb  Rb3  1  0.80832600  0.30832600  0.50000000  1
  Rb  Rb4  1  0.50000000  0.50000000  0.00000000  1
  Rb  Rb5  1  0.00000000  0.00000000  0.00000000  1
  Mn  Mn6  1  0.00000000  0.50000000  0.00000000  1
  Mn  Mn7  1  0.50000000  0.00000000  0.00000000  1
  F  F8  1  0.38922300  0.88922300  0.77913000  1
  F  F9  1  0.61077700  0.11077700  0.77913000  1
  F  F10  1  0.11077700  0.38922300  0.77913000  1
  F  F11  1  0.88922300  0.61077700  0.77913000  1
  F  F12  1  0.38922300  0.88922300  0.22087000  1
  F  F13  1  0.88922300  0.61077700  0.22087000  1
  F  F14  1  0.11077700  0.38922300  0.22087000  1
  F  F15  1  0.61077700  0.11077700  0.22087000  1
  F  F16  1  0.00000000  0.00000000  0.50000000  1
  F  F17  1  0.50000000  0.50000000  0.50000000  1
  F  F18  1  0.84117700  0.34117700  0.00000000  1
  F  F19  1  0.34117700  0.15882300  0.00000000  1
  F  F20  1  0.65882300  0.84117700  0.00000000  1
  F  F21  1  0.15882300  0.65882300  0.00000000  1
