# generated using pymatgen
data_Na2CoP2O7
_symmetry_space_group_name_H-M   'P 1'
_cell_length_a   7.82324700
_cell_length_b   7.82324700
_cell_length_c   10.42695400
_cell_angle_alpha   90.00000000
_cell_angle_beta   90.00000000
_cell_angle_gamma   90.00000000
_symmetry_Int_Tables_number   1
_chemical_formula_structural   Na2CoP2O7
_chemical_formula_sum   'Na8 Co4 P8 O28'
_cell_volume   638.16288456
_cell_formula_units_Z   4
loop_
 _symmetry_equiv_pos_site_id
 _symmetry_equiv_pos_as_xyz
  1  'x, y, z'
loop_
 _atom_site_type_symbol
 _atom_site_label
 _atom_site_symmetry_multiplicity
 _atom_site_fract_x
 _atom_site_fract_y
 _atom_site_fract_z
 _atom_site_occupancy
  Na  Na0  1  0.19431100  0.80568900  0.50000000  1
  Na  Na1  1  0.69431100  0.69431100  0.00000000  1
  Na  Na2  1  0.30568900  0.30568900  0.00000000  1
  Na  Na3  1  0.80568900  0.19431100  0.50000000  1
  Na  Na4  1  0.14598600  0.85401400  0.00000000  1
  Na  Na5  1  0.64598600  0.64598600  0.50000000  1
  Na  Na6  1  0.35401400  0.35401400  0.50000000  1
  Na  Na7  1  0.85401400  0.14598600  0.00000000  1
  Co  Co8  1  0.00000000  0.50000000  0.75000000  1
  Co  Co9  1  0.00000000  0.50000000  0.25000000  1
  Co  Co10  1  0.50000000  0.00000000  0.75000000  1
  Co  Co11  1  0.50000000  0.00000000  0.25000000  1
  P  P12  1  0.63831300  0.36168700  0.78938800  1
  P  P13  1  0.36168700  0.63831300  0.78938800  1
  P  P14  1  0.36168700  0.63831300  0.21061200  1
  P  P15  1  0.86168700  0.86168700  0.28938800  1
  P  P16  1  0.13831300  0.13831300  0.28938800  1
  P  P17  1  0.86168700  0.86168700  0.71061200  1
  P  P18  1  0.13831300  0.13831300  0.71061200  1
  P  P19  1  0.63831300  0.36168700  0.21061200  1
  O  O20  1  0.50000000  0.50000000  0.84594900  1
  O  O21  1  0.00000000  0.00000000  0.34594900  1
  O  O22  1  0.00000000  0.00000000  0.65405100  1
  O  O23  1  0.50000000  0.50000000  0.15405100  1
  O  O24  1  0.19341300  0.58049300  0.14609800  1
  O  O25  1  0.80658700  0.41950700  0.14609800  1
  O  O26  1  0.58049300  0.19341300  0.85390200  1
  O  O27  1  0.08049300  0.30658700  0.64609800  1
  O  O28  1  0.91950700  0.69341300  0.64609800  1
  O  O29  1  0.30658700  0.08049300  0.35390200  1
  O  O30  1  0.69341300  0.91950700  0.35390200  1
  O  O31  1  0.41950700  0.80658700  0.85390200  1
  O  O32  1  0.80658700  0.41950700  0.85390200  1
  O  O33  1  0.19341300  0.58049300  0.85390200  1
  O  O34  1  0.41950700  0.80658700  0.14609800  1
  O  O35  1  0.91950700  0.69341300  0.35390200  1
  O  O36  1  0.08049300  0.30658700  0.35390200  1
  O  O37  1  0.69341300  0.91950700  0.64609800  1
  O  O38  1  0.30658700  0.08049300  0.64609800  1
  O  O39  1  0.58049300  0.19341300  0.14609800  1
  O  O40  1  0.63689500  0.36310500  0.35574500  1
  O  O41  1  0.13689500  0.13689500  0.85574500  1
  O  O42  1  0.86310500  0.86310500  0.85574500  1
  O  O43  1  0.13689500  0.13689500  0.14425500  1
  O  O44  1  0.86310500  0.86310500  0.14425500  1
  O  O45  1  0.36310500  0.63689500  0.35574500  1
  O  O46  1  0.36310500  0.63689500  0.64425500  1
  O  O47  1  0.63689500  0.36310500  0.64425500  1
