# generated using pymatgen
data_La5Si4
_symmetry_space_group_name_H-M   'P 1'
_cell_length_a   8.04439200
_cell_length_b   8.04439200
_cell_length_c   15.54728000
_cell_angle_alpha   90.00000000
_cell_angle_beta   90.00000000
_cell_angle_gamma   90.00000000
_symmetry_Int_Tables_number   1
_chemical_formula_structural   La5Si4
_chemical_formula_sum   'La20 Si16'
_cell_volume   1006.09935590
_cell_formula_units_Z   4
loop_
 _symmetry_equiv_pos_site_id
 _symmetry_equiv_pos_as_xyz
  1  'x, y, z'
loop_
 _atom_site_type_symbol
 _atom_site_label
 _atom_site_symmetry_multiplicity
 _atom_site_fract_x
 _atom_site_fract_y
 _atom_site_fract_z
 _atom_site_occupancy
  La  La0  1  0.37444500  0.47945200  0.37362400  1
  La  La1  1  0.87444500  0.02054800  0.37637600  1
  La  La2  1  0.97945200  0.12555500  0.12362400  1
  La  La3  1  0.02054800  0.87444500  0.62362400  1
  La  La4  1  0.62555500  0.52054800  0.87362400  1
  La  La5  1  0.47945200  0.37444500  0.62637600  1
  La  La6  1  0.52054800  0.62555500  0.12637600  1
  La  La7  1  0.12555500  0.97945200  0.87637600  1
  La  La8  1  0.98875500  0.62022800  0.05295800  1
  La  La9  1  0.01124500  0.37977200  0.55295800  1
  La  La10  1  0.62022800  0.98875500  0.94704200  1
  La  La11  1  0.12022800  0.51124500  0.80295800  1
  La  La12  1  0.87977200  0.48875500  0.30295800  1
  La  La13  1  0.51124500  0.12022800  0.19704200  1
  La  La14  1  0.48875500  0.87977200  0.69704200  1
  La  La15  1  0.37977200  0.01124500  0.44704200  1
  La  La16  1  0.69283600  0.69283600  0.50000000  1
  La  La17  1  0.80716400  0.19283600  0.75000000  1
  La  La18  1  0.19283600  0.80716400  0.25000000  1
  La  La19  1  0.30716400  0.30716400  0.00000000  1
  Si  Si20  1  0.07997200  0.71105500  0.44075300  1
  Si  Si21  1  0.92002800  0.28894500  0.94075300  1
  Si  Si22  1  0.71105500  0.07997200  0.55924700  1
  Si  Si23  1  0.21105600  0.42002800  0.19075300  1
  Si  Si24  1  0.78894500  0.57997200  0.69075300  1
  Si  Si25  1  0.42002800  0.21105600  0.80924700  1
  Si  Si26  1  0.57997200  0.78894500  0.30924700  1
  Si  Si27  1  0.28894500  0.92002800  0.05924700  1
  Si  Si28  1  0.82912100  0.80530500  0.79569900  1
  Si  Si29  1  0.17087900  0.19469500  0.29569900  1
  Si  Si30  1  0.80530500  0.82912100  0.20430100  1
  Si  Si31  1  0.30530500  0.67087900  0.54569900  1
  Si  Si32  1  0.69469500  0.32912100  0.04569900  1
  Si  Si33  1  0.67087900  0.30530500  0.45430100  1
  Si  Si34  1  0.32912100  0.69469500  0.95430100  1
  Si  Si35  1  0.19469500  0.17087900  0.70430100  1
