# generated using pymatgen
data_Hg2Br2N
_symmetry_space_group_name_H-M   'P 1'
_cell_length_a   7.19531338
_cell_length_b   7.19531338
_cell_length_c   6.22201900
_cell_angle_alpha   90.00000000
_cell_angle_beta   90.00000000
_cell_angle_gamma   119.99999433
_symmetry_Int_Tables_number   1
_chemical_formula_structural   Hg2Br2N
_chemical_formula_sum   'Hg4 Br4 N2'
_cell_volume   278.97251467
_cell_formula_units_Z   2
loop_
 _symmetry_equiv_pos_site_id
 _symmetry_equiv_pos_as_xyz
  1  'x, y, z'
loop_
 _atom_site_type_symbol
 _atom_site_label
 _atom_site_symmetry_multiplicity
 _atom_site_fract_x
 _atom_site_fract_y
 _atom_site_fract_z
 _atom_site_occupancy
  Hg  Hg0  1  0.00000000  0.00000000  0.50000000  1
  Hg  Hg1  1  0.49700700  0.49700700  0.00000000  1
  Hg  Hg2  1  0.00000000  0.50299300  0.00000000  1
  Hg  Hg3  1  0.50299300  0.00000000  0.00000000  1
  Br  Br4  1  0.00000000  0.00000000  0.00000000  1
  Br  Br5  1  0.36510000  0.36510000  0.50000000  1
  Br  Br6  1  0.00000000  0.63490000  0.50000000  1
  Br  Br7  1  0.63490000  0.00000000  0.50000000  1
  N  N8  1  0.33333300  0.66666700  0.01208600  1
  N  N9  1  0.66666700  0.33333300  0.98791400  1
