# generated using pymatgen
data_VO2
_symmetry_space_group_name_H-M   'P 1'
_cell_length_a   5.69298968
_cell_length_b   7.09325778
_cell_length_c   7.09514042
_cell_angle_alpha   80.73530857
_cell_angle_beta   66.34744498
_cell_angle_gamma   66.34079129
_symmetry_Int_Tables_number   1
_chemical_formula_structural   VO2
_chemical_formula_sum   'V8 O16'
_cell_volume   240.38721314
_cell_formula_units_Z   8
loop_
 _symmetry_equiv_pos_site_id
 _symmetry_equiv_pos_as_xyz
  1  'x, y, z'
loop_
 _atom_site_type_symbol
 _atom_site_label
 _atom_site_symmetry_multiplicity
 _atom_site_fract_x
 _atom_site_fract_y
 _atom_site_fract_z
 _atom_site_occupancy
  V  V0  1  0.99106900  0.50000000  0.50000000  1
  V  V1  1  0.50893100  0.50000000  0.50000000  1
  V  V2  1  0.49787900  0.00424200  0.50000000  1
  V  V3  1  0.00212100  0.99575800  0.50000000  1
  V  V4  1  0.49573800  0.50000000  0.00852400  1
  V  V5  1  0.00426200  0.50000000  0.99147600  1
  V  V6  1  0.50000000  0.00000000  0.00000000  1
  V  V7  1  0.00000000  0.00000000  0.00000000  1
  O  O8  1  0.64785400  0.50000000  0.70429300  1
  O  O9  1  0.85214600  0.50000000  0.29570700  1
  O  O10  1  0.34842400  0.50000000  0.30315100  1
  O  O11  1  0.15157600  0.50000000  0.69684900  1
  O  O12  1  0.64990900  0.70018200  0.00000000  1
  O  O13  1  0.35009100  0.29981800  0.00000000  1
  O  O14  1  0.85009000  0.29982100  0.00000000  1
  O  O15  1  0.14991000  0.70017900  0.00000000  1
  O  O16  1  0.85068400  0.99897300  0.79966500  1
  O  O17  1  0.64932100  0.00102700  0.20033500  1
  O  O18  1  0.15034400  0.99897300  0.20033500  1
  O  O19  1  0.34965100  0.00102700  0.79966500  1
  O  O20  1  0.35148900  0.79953900  0.49999700  1
  O  O21  1  0.65102500  0.20046100  0.50000300  1
  O  O22  1  0.84897200  0.79953900  0.50000300  1
  O  O23  1  0.14851400  0.20046100  0.49999700  1
