# generated using pymatgen
data_CaCu3(SnO3)4
_symmetry_space_group_name_H-M   'P 1'
_cell_length_a   6.72614045
_cell_length_b   6.72614045
_cell_length_c   6.72614045
_cell_angle_alpha   109.47122063
_cell_angle_beta   109.47122063
_cell_angle_gamma   109.47122063
_symmetry_Int_Tables_number   1
_chemical_formula_structural   CaCu3(SnO3)4
_chemical_formula_sum   'Ca1 Cu3 Sn4 O12'
_cell_volume   234.24800694
_cell_formula_units_Z   1
loop_
 _symmetry_equiv_pos_site_id
 _symmetry_equiv_pos_as_xyz
  1  'x, y, z'
loop_
 _atom_site_type_symbol
 _atom_site_label
 _atom_site_symmetry_multiplicity
 _atom_site_fract_x
 _atom_site_fract_y
 _atom_site_fract_z
 _atom_site_occupancy
  Ca  Ca0  1  0.00000000  0.00000000  0.00000000  1
  Cu  Cu1  1  0.50000000  0.00000000  0.50000000  1
  Cu  Cu2  1  0.50000000  0.50000000  0.00000000  1
  Cu  Cu3  1  0.00000000  0.50000000  0.50000000  1
  Sn  Sn4  1  0.50000000  0.50000000  0.50000000  1
  Sn  Sn5  1  0.50000000  0.00000000  0.00000000  1
  Sn  Sn6  1  0.00000000  0.50000000  0.00000000  1
  Sn  Sn7  1  0.00000000  0.00000000  0.50000000  1
  O  O8  1  0.30714200  0.13756000  0.83041700  1
  O  O9  1  0.69285800  0.86244000  0.16958300  1
  O  O10  1  0.69285800  0.52327500  0.83041700  1
  O  O11  1  0.47672500  0.16958300  0.30714200  1
  O  O12  1  0.16958300  0.30714200  0.47672500  1
  O  O13  1  0.83041700  0.30714200  0.13756000  1
  O  O14  1  0.86244000  0.16958300  0.69285800  1
  O  O15  1  0.83041700  0.69285800  0.52327500  1
  O  O16  1  0.30714200  0.47672500  0.16958300  1
  O  O17  1  0.52327500  0.83041700  0.69285800  1
  O  O18  1  0.16958300  0.69285800  0.86244000  1
  O  O19  1  0.13756000  0.83041700  0.30714200  1
