data_image0
_chemical_formula_structural       In2La2Pd4
_chemical_formula_sum              "In2 La2 Pd4"
_cell_length_a       4.68578
_cell_length_b       4.68595
_cell_length_c       9.3143
_cell_angle_alpha    90
_cell_angle_beta     90
_cell_angle_gamma    119.999

_space_group_name_H-M_alt    "P 1"
_space_group_IT_number       1

loop_
  _space_group_symop_operation_xyz
  'x, y, z'

loop_
  _atom_site_type_symbol
  _atom_site_label
  _atom_site_symmetry_multiplicity
  _atom_site_fract_x
  _atom_site_fract_y
  _atom_site_fract_z
  _atom_site_occupancy
  In  In1       1.0  0.00000  0.00000  0.00000  1.0000
  In  In2       1.0  0.00000  0.00000  0.50000  1.0000
  La  La1       1.0  0.33300  0.66700  0.25000  1.0000
  La  La2       1.0  0.66700  0.33300  0.75000  1.0000
  Pd  Pd1       1.0  0.66700  0.33300  0.07870  1.0000
  Pd  Pd2       1.0  0.66700  0.33300  0.42100  1.0000
  Pd  Pd3       1.0  0.33300  0.66700  0.57900  1.0000
  Pd  Pd4       1.0  0.33300  0.66700  0.92100  1.0000
