# generated using pymatgen
data_BaTeW2O9
_symmetry_space_group_name_H-M   'P 1'
_cell_length_a   7.60675300
_cell_length_b   5.61084500
_cell_length_c   9.06798879
_cell_angle_alpha   89.97608461
_cell_angle_beta   90.00000000
_cell_angle_gamma   90.00000000
_symmetry_Int_Tables_number   1
_chemical_formula_structural   BaTeW2O9
_chemical_formula_sum   'Ba2 Te2 W4 O18'
_cell_volume   387.02455738
_cell_formula_units_Z   2
loop_
 _symmetry_equiv_pos_site_id
 _symmetry_equiv_pos_as_xyz
  1  'x, y, z'
loop_
 _atom_site_type_symbol
 _atom_site_label
 _atom_site_symmetry_multiplicity
 _atom_site_fract_x
 _atom_site_fract_y
 _atom_site_fract_z
 _atom_site_occupancy
  Ba  Ba0  1  0.10799500  0.75822200  0.43965200  1
  Ba  Ba1  1  0.60799500  0.24177800  0.56034800  1
  Te  Te2  1  0.36287700  0.62840300  0.89964200  1
  Te  Te3  1  0.86287700  0.37159700  0.10035800  1
  W  W4  1  0.80228300  0.75905700  0.82361400  1
  W  W5  1  0.11889200  0.21907500  0.74514000  1
  W  W6  1  0.30228300  0.24094300  0.17638600  1
  W  W7  1  0.61889200  0.78092500  0.25486000  1
  O  O8  1  0.32904700  0.29266700  0.37115100  1
  O  O9  1  0.82904700  0.70733300  0.62884900  1
  O  O10  1  0.15000700  0.99773500  0.17147300  1
  O  O11  1  0.65000700  0.00226500  0.82852700  1
  O  O12  1  0.08413000  0.47147600  0.17853100  1
  O  O13  1  0.58413000  0.52852400  0.82146900  1
  O  O14  1  0.47582500  0.77538700  0.41208000  1
  O  O15  1  0.97582500  0.22461300  0.58792000  1
  O  O16  1  0.94136300  0.44099200  0.87776200  1
  O  O17  1  0.44136300  0.55900800  0.12223800  1
  O  O18  1  0.00847000  0.95538500  0.85669700  1
  O  O19  1  0.50847000  0.04461500  0.14330300  1
  O  O20  1  0.29047900  0.02845600  0.67450900  1
  O  O21  1  0.79047900  0.97154400  0.32549100  1
  O  O22  1  0.77831800  0.69673400  0.05584500  1
  O  O23  1  0.27831800  0.30326600  0.94415500  1
  O  O24  1  0.24167300  0.51868000  0.70516000  1
  O  O25  1  0.74167300  0.48132000  0.29484000  1
