# generated using pymatgen
data_Ba6Mg7F26
_symmetry_space_group_name_H-M   'P 1'
_cell_length_a   10.28876938
_cell_length_b   10.28876938
_cell_length_c   10.28876938
_cell_angle_alpha   146.55163757
_cell_angle_beta   106.48213496
_cell_angle_gamma   83.21758063
_symmetry_Int_Tables_number   1
_chemical_formula_structural   Ba6Mg7F26
_chemical_formula_sum   'Ba6 Mg7 F26'
_cell_volume   560.97119828
_cell_formula_units_Z   1
loop_
 _symmetry_equiv_pos_site_id
 _symmetry_equiv_pos_as_xyz
  1  'x, y, z'
loop_
 _atom_site_type_symbol
 _atom_site_label
 _atom_site_symmetry_multiplicity
 _atom_site_fract_x
 _atom_site_fract_y
 _atom_site_fract_z
 _atom_site_occupancy
  Ba  Ba0  1  0.64719700  0.14719700  0.50000000  1
  Ba  Ba1  1  0.35280300  0.85280300  0.50000000  1
  Ba  Ba2  1  0.38737000  0.64908300  0.73828700  1
  Ba  Ba3  1  0.91079600  0.64908300  0.26171300  1
  Ba  Ba4  1  0.08920400  0.35091700  0.73828700  1
  Ba  Ba5  1  0.61263000  0.35091700  0.26171300  1
  Mg  Mg6  1  0.00000000  0.25264300  0.25264300  1
  Mg  Mg7  1  0.26852400  0.00000000  0.26852400  1
  Mg  Mg8  1  0.00000000  0.74735700  0.74735700  1
  Mg  Mg9  1  0.73147600  0.00000000  0.73147600  1
  Mg  Mg10  1  0.22054800  0.22054800  0.00000000  1
  Mg  Mg11  1  0.77945200  0.77945200  0.00000000  1
  Mg  Mg12  1  0.50000000  0.50000000  0.00000000  1
  F  F13  1  0.12874100  0.01049500  0.65479900  1
  F  F14  1  0.87125900  0.52605800  0.88175400  1
  F  F15  1  0.64430400  0.98950500  0.11824600  1
  F  F16  1  0.35569600  0.47394200  0.34520100  1
  F  F17  1  0.87125900  0.98950500  0.34520100  1
  F  F18  1  0.12874100  0.47394200  0.11824600  1
  F  F19  1  0.35569600  0.01049500  0.88175400  1
  F  F20  1  0.64430400  0.52605800  0.65479900  1
  F  F21  1  0.61186000  0.74919700  0.36105700  1
  F  F22  1  0.38814000  0.74919700  0.13733800  1
  F  F23  1  0.61186000  0.25080300  0.86266200  1
  F  F24  1  0.38814000  0.25080300  0.63894300  1
  F  F25  1  0.83655200  0.74426300  0.58081400  1
  F  F26  1  0.16344800  0.74426300  0.90771100  1
  F  F27  1  0.83655200  0.25573700  0.09228900  1
  F  F28  1  0.16344800  0.25573700  0.41918600  1
  F  F29  1  0.91092700  0.91092700  0.00000000  1
  F  F30  1  0.08907300  0.08907300  0.00000000  1
  F  F31  1  0.62945100  0.62945100  0.00000000  1
  F  F32  1  0.91250300  0.41250300  0.50000000  1
  F  F33  1  0.84390900  0.12594500  0.71796400  1
  F  F34  1  0.15609100  0.87405500  0.28203600  1
  F  F35  1  0.59201900  0.87405500  0.71796400  1
  F  F36  1  0.40798100  0.12594500  0.28203600  1
  F  F37  1  0.08749700  0.58749700  0.50000000  1
  F  F38  1  0.37054900  0.37054900  0.00000000  1
