# generated using pymatgen
data_Ca(NiO2)4
_symmetry_space_group_name_H-M   'P 1'
_cell_length_a   5.71528976
_cell_length_b   9.89942221
_cell_length_c   6.48913373
_cell_angle_alpha   104.72941208
_cell_angle_beta   63.87147035
_cell_angle_gamma   90.00020216
_symmetry_Int_Tables_number   1
_chemical_formula_structural   Ca(NiO2)4
_chemical_formula_sum   'Ca2 Ni8 O16'
_cell_volume   316.12993693
_cell_formula_units_Z   2
loop_
 _symmetry_equiv_pos_site_id
 _symmetry_equiv_pos_as_xyz
  1  'x, y, z'
loop_
 _atom_site_type_symbol
 _atom_site_label
 _atom_site_symmetry_multiplicity
 _atom_site_fract_x
 _atom_site_fract_y
 _atom_site_fract_z
 _atom_site_occupancy
  Ca  Ca0  1  0.75000200  0.74999500  0.49999700  1
  Ca  Ca1  1  0.25000200  0.25000400  0.49999800  1
  Ni  Ni2  1  0.50001400  0.49999900  0.99999900  1
  Ni  Ni3  1  0.99999000  0.99999900  0.00000200  1
  Ni  Ni4  1  0.74999500  0.74999700  0.99999700  1
  Ni  Ni5  1  0.74999000  0.25000200  0.00000400  1
  Ni  Ni6  1  0.00000600  0.49999800  0.00000000  1
  Ni  Ni7  1  0.25000300  0.24999600  0.00000200  1
  Ni  Ni8  1  0.25000300  0.75000400  0.99999900  1
  Ni  Ni9  1  0.50000000  0.99999800  0.00000100  1
  O  O10  1  0.08576000  0.63809600  0.82851000  1
  O  O11  1  0.58573100  0.13808300  0.82852700  1
  O  O12  1  0.41424600  0.86191900  0.17147700  1
  O  O13  1  0.91425800  0.36190500  0.17149300  1
  O  O14  1  0.35647200  0.88117600  0.82007700  1
  O  O15  1  0.85646600  0.38117600  0.82007400  1
  O  O16  1  0.91003200  0.85231300  0.17991700  1
  O  O17  1  0.41002300  0.35231800  0.17992500  1
  O  O18  1  0.14353500  0.61882600  0.17992700  1
  O  O19  1  0.64353200  0.11882300  0.17992400  1
  O  O20  1  0.67653500  0.61882500  0.17992700  1
  O  O21  1  0.17654500  0.11882400  0.17992300  1
  O  O22  1  0.82345900  0.88117700  0.82007600  1
  O  O23  1  0.32346400  0.38117500  0.82007200  1
  O  O24  1  0.58997100  0.64768300  0.82007500  1
  O  O25  1  0.08997200  0.14768800  0.82008400  1
