# generated using pymatgen
data_CdSO3
_symmetry_space_group_name_H-M   'P 1'
_cell_length_a   8.33582975
_cell_length_b   8.33582975
_cell_length_c   8.33582982
_cell_angle_alpha   109.10807619
_cell_angle_beta   109.10807619
_cell_angle_gamma   109.10808203
_symmetry_Int_Tables_number   1
_chemical_formula_structural   CdSO3
_chemical_formula_sum   'Cd6 S6 O18'
_cell_volume   451.78229683
_cell_formula_units_Z   6
loop_
 _symmetry_equiv_pos_site_id
 _symmetry_equiv_pos_as_xyz
  1  'x, y, z'
loop_
 _atom_site_type_symbol
 _atom_site_label
 _atom_site_symmetry_multiplicity
 _atom_site_fract_x
 _atom_site_fract_y
 _atom_site_fract_z
 _atom_site_occupancy
  Cd  Cd0  1  0.18435300  0.35884500  0.67332500  1
  Cd  Cd1  1  0.35884500  0.67332500  0.18435300  1
  Cd  Cd2  1  0.67332500  0.18435300  0.35884500  1
  Cd  Cd3  1  0.81564700  0.64115500  0.32667500  1
  Cd  Cd4  1  0.64115500  0.32667500  0.81564700  1
  Cd  Cd5  1  0.32667500  0.81564700  0.64115500  1
  S  S6  1  0.21149400  0.02138500  0.35638500  1
  S  S7  1  0.02138500  0.35638500  0.21149400  1
  S  S8  1  0.35638500  0.21149400  0.02138500  1
  S  S9  1  0.78850600  0.97861500  0.64361500  1
  S  S10  1  0.97861500  0.64361500  0.78850600  1
  S  S11  1  0.64361500  0.78850600  0.97861500  1
  O  O12  1  0.86967300  0.12524200  0.57659300  1
  O  O13  1  0.12524200  0.57659300  0.86967300  1
  O  O14  1  0.57659300  0.86967300  0.12524200  1
  O  O15  1  0.13032700  0.87475800  0.42340700  1
  O  O16  1  0.87475800  0.42340700  0.13032700  1
  O  O17  1  0.42340700  0.13032700  0.87475800  1
  O  O18  1  0.31091200  0.36303100  0.97702200  1
  O  O19  1  0.36303100  0.97702200  0.31091200  1
  O  O20  1  0.97702200  0.31091200  0.36303100  1
  O  O21  1  0.68908800  0.63696900  0.02297800  1
  O  O22  1  0.63696900  0.02297800  0.68908800  1
  O  O23  1  0.02297800  0.68908800  0.63696900  1
  O  O24  1  0.45389400  0.65915700  0.77706900  1
  O  O25  1  0.77706900  0.45389400  0.65915700  1
  O  O26  1  0.65915700  0.77706900  0.45389400  1
  O  O27  1  0.54610600  0.34084300  0.22293100  1
  O  O28  1  0.22293100  0.54610600  0.34084300  1
  O  O29  1  0.34084300  0.22293100  0.54610600  1
