# generated using pymatgen
data_Na2Zr(MoO4)3
_symmetry_space_group_name_H-M   'P 1'
_cell_length_a   10.15289870
_cell_length_b   10.15289870
_cell_length_c   5.16865960
_cell_angle_alpha   80.67072520
_cell_angle_beta   80.67072520
_cell_angle_gamma   68.40703347
_symmetry_Int_Tables_number   1
_chemical_formula_structural   Na2Zr(MoO4)3
_chemical_formula_sum   'Na4 Zr2 Mo6 O24'
_cell_volume   485.79223182
_cell_formula_units_Z   2
loop_
 _symmetry_equiv_pos_site_id
 _symmetry_equiv_pos_as_xyz
  1  'x, y, z'
loop_
 _atom_site_type_symbol
 _atom_site_label
 _atom_site_symmetry_multiplicity
 _atom_site_fract_x
 _atom_site_fract_y
 _atom_site_fract_z
 _atom_site_occupancy
  Na  Na0  1  0.03071200  0.28645300  0.12612900  1
  Na  Na1  1  0.71354700  0.96928800  0.37387100  1
  Na  Na2  1  0.96928800  0.71354700  0.87387100  1
  Na  Na3  1  0.28645300  0.03071200  0.62612900  1
  Zr  Zr4  1  0.62408000  0.37592000  0.25000000  1
  Zr  Zr5  1  0.37592000  0.62408000  0.75000000  1
  Mo  Mo6  1  0.54999600  0.76625000  0.13479400  1
  Mo  Mo7  1  0.23375000  0.45000400  0.36520600  1
  Mo  Mo8  1  0.45000400  0.23375000  0.86520600  1
  Mo  Mo9  1  0.76625000  0.54999600  0.63479400  1
  Mo  Mo10  1  0.14043600  0.85956400  0.25000000  1
  Mo  Mo11  1  0.85956400  0.14043600  0.75000000  1
  O  O12  1  0.41918100  0.79056800  0.90585300  1
  O  O13  1  0.20943200  0.58081900  0.59414700  1
  O  O14  1  0.58081900  0.20943200  0.09414700  1
  O  O15  1  0.79056800  0.41918100  0.40585300  1
  O  O16  1  0.50049100  0.92801300  0.26355400  1
  O  O17  1  0.07198700  0.49950900  0.23644600  1
  O  O18  1  0.49950900  0.07198700  0.73644600  1
  O  O19  1  0.92801300  0.50049100  0.76355400  1
  O  O20  1  0.52652200  0.61010400  0.38422700  1
  O  O21  1  0.38989600  0.47347800  0.11577300  1
  O  O22  1  0.47347800  0.38989600  0.61577300  1
  O  O23  1  0.61010400  0.52652200  0.88422700  1
  O  O24  1  0.02482400  0.13177000  0.56958900  1
  O  O25  1  0.86823000  0.97517600  0.93041100  1
  O  O26  1  0.97517600  0.86823000  0.43041100  1
  O  O27  1  0.13177000  0.02482400  0.06958900  1
  O  O28  1  0.81549200  0.27546700  0.98285100  1
  O  O29  1  0.72453300  0.18450800  0.51714900  1
  O  O30  1  0.71213800  0.73717300  0.92105500  1
  O  O31  1  0.27546700  0.81549200  0.48285100  1
  O  O32  1  0.73717300  0.71213800  0.42105500  1
  O  O33  1  0.28786200  0.26282700  0.07894500  1
  O  O34  1  0.26282700  0.28786200  0.57894500  1
  O  O35  1  0.18450800  0.72453300  0.01714900  1
