# generated using pymatgen
data_YbV4O8
_symmetry_space_group_name_H-M   'P 1'
_cell_length_a   5.88486945
_cell_length_b   9.18727327
_cell_length_c   10.73398500
_cell_angle_alpha   90.00000000
_cell_angle_beta   90.00000000
_cell_angle_gamma   90.48270924
_symmetry_Int_Tables_number   1
_chemical_formula_structural   YbV4O8
_chemical_formula_sum   'Yb4 V16 O32'
_cell_volume   580.32200496
_cell_formula_units_Z   4
loop_
 _symmetry_equiv_pos_site_id
 _symmetry_equiv_pos_as_xyz
  1  'x, y, z'
loop_
 _atom_site_type_symbol
 _atom_site_label
 _atom_site_symmetry_multiplicity
 _atom_site_fract_x
 _atom_site_fract_y
 _atom_site_fract_z
 _atom_site_occupancy
  Yb  Yb0  1  0.63114100  0.25674800  0.84619300  1
  Yb  Yb1  1  0.86885900  0.24325200  0.34619300  1
  Yb  Yb2  1  0.36885800  0.74325100  0.15380700  1
  Yb  Yb3  1  0.13114200  0.75674900  0.65380700  1
  V  V4  1  0.12591900  0.92106200  0.39238300  1
  V  V5  1  0.37408200  0.57893800  0.89238300  1
  V  V6  1  0.87408000  0.07893900  0.60761700  1
  V  V7  1  0.62591900  0.42106100  0.10761700  1
  V  V8  1  0.13508700  0.95173100  0.88904700  1
  V  V9  1  0.36491400  0.54826900  0.38904700  1
  V  V10  1  0.86491300  0.04826900  0.11095300  1
  V  V11  1  0.63508700  0.45173100  0.61095300  1
  V  V12  1  0.61886700  0.90869000  0.40238700  1
  V  V13  1  0.88113400  0.59131000  0.90238700  1
  V  V14  1  0.12474000  0.42576000  0.61955500  1
  V  V15  1  0.11886700  0.40869000  0.09761200  1
  V  V16  1  0.62474000  0.92575900  0.88044500  1
  V  V17  1  0.87525900  0.57424100  0.38044500  1
  V  V18  1  0.37525900  0.07424100  0.11955600  1
  V  V19  1  0.38113400  0.09131000  0.59761200  1
  O  O20  1  0.12269100  0.92233600  0.07239300  1
  O  O21  1  0.37730900  0.57766400  0.57239200  1
  O  O22  1  0.87730800  0.07766400  0.92760800  1
  O  O23  1  0.62269100  0.42233600  0.42760800  1
  O  O24  1  0.14897200  0.01384800  0.71095400  1
  O  O25  1  0.35102800  0.48615200  0.21095500  1
  O  O26  1  0.85102900  0.98615200  0.28904500  1
  O  O27  1  0.64897100  0.51384700  0.78904600  1
  O  O28  1  0.11689900  0.61345300  0.02076100  1
  O  O29  1  0.38310000  0.88654700  0.52076200  1
  O  O30  1  0.88310000  0.38654700  0.97923800  1
  O  O31  1  0.61689900  0.11345300  0.47923800  1
  O  O32  1  0.13806500  0.70733500  0.34948100  1
  O  O33  1  0.36193600  0.79266500  0.84948000  1
  O  O34  1  0.86193600  0.29266500  0.65052000  1
  O  O35  1  0.63806500  0.20733500  0.15051900  1
  O  O36  1  0.62629900  0.92020200  0.07094200  1
  O  O37  1  0.87370000  0.57979700  0.57094200  1
  O  O38  1  0.37370000  0.07979700  0.92905800  1
  O  O39  1  0.12629900  0.42020200  0.42905700  1
  O  O40  1  0.10014400  0.20292600  0.15372600  1
  O  O41  1  0.39985700  0.29707400  0.65372500  1
  O  O42  1  0.89985700  0.79707500  0.84627500  1
  O  O43  1  0.60014300  0.70292500  0.34627500  1
  O  O44  1  0.12425900  0.11817300  0.48009400  1
  O  O45  1  0.37574000  0.38182700  0.98009500  1
  O  O46  1  0.62082000  0.03751200  0.72286900  1
  O  O47  1  0.62425900  0.61817400  0.01990500  1
  O  O48  1  0.12082000  0.53751200  0.77713100  1
  O  O49  1  0.37918100  0.96248800  0.27713000  1
  O  O50  1  0.87918100  0.46248800  0.22287000  1
  O  O51  1  0.87574000  0.88182600  0.51990500  1
