# generated using pymatgen
data_Sr2FeMoO6
_symmetry_space_group_name_H-M   'P 1'
_cell_length_a   5.64366096
_cell_length_b   5.64366096
_cell_length_c   5.64366096
_cell_angle_alpha   119.46693800
_cell_angle_beta   119.46693800
_cell_angle_gamma   90.92579713
_symmetry_Int_Tables_number   1
_chemical_formula_structural   Sr2FeMoO6
_chemical_formula_sum   'Sr2 Fe1 Mo1 O6'
_cell_volume   128.11251786
_cell_formula_units_Z   1
loop_
 _symmetry_equiv_pos_site_id
 _symmetry_equiv_pos_as_xyz
  1  'x, y, z'
loop_
 _atom_site_type_symbol
 _atom_site_label
 _atom_site_symmetry_multiplicity
 _atom_site_fract_x
 _atom_site_fract_y
 _atom_site_fract_z
 _atom_site_occupancy
  Sr  Sr0  1  0.25000000  0.75000000  0.50000000  1
  Sr  Sr1  1  0.75000000  0.25000000  0.50000000  1
  Fe  Fe2  1  0.00000000  0.00000000  0.00000000  1
  Mo  Mo3  1  0.50000000  0.50000000  0.00000000  1
  O  O4  1  0.25647300  0.25647300  0.00000000  1
  O  O5  1  0.74352700  0.74352700  0.00000000  1
  O  O6  1  0.77706000  0.27536900  0.05242900  1
  O  O7  1  0.22294000  0.72463100  0.94757100  1
  O  O8  1  0.27536900  0.22294000  0.49830900  1
  O  O9  1  0.72463100  0.77706000  0.50169100  1
