# generated using pymatgen
data_LaCrS2O
_symmetry_space_group_name_H-M   'P 1'
_cell_length_a   3.75736200
_cell_length_b   8.52884800
_cell_length_c   11.29895700
_cell_angle_alpha   90.00000000
_cell_angle_beta   90.00000000
_cell_angle_gamma   90.00000000
_symmetry_Int_Tables_number   1
_chemical_formula_structural   LaCrS2O
_chemical_formula_sum   'La4 Cr4 S8 O4'
_cell_volume   362.08603004
_cell_formula_units_Z   4
loop_
 _symmetry_equiv_pos_site_id
 _symmetry_equiv_pos_as_xyz
  1  'x, y, z'
loop_
 _atom_site_type_symbol
 _atom_site_label
 _atom_site_symmetry_multiplicity
 _atom_site_fract_x
 _atom_site_fract_y
 _atom_site_fract_z
 _atom_site_occupancy
  La  La0  1  0.25000100  0.54622100  0.35224000  1
  La  La1  1  0.74999900  0.45377900  0.64776000  1
  La  La2  1  0.25000100  0.04622000  0.14776000  1
  La  La3  1  0.74999900  0.95377900  0.85224000  1
  Cr  Cr4  1  0.25000100  0.66968400  0.02848000  1
  Cr  Cr5  1  0.74999900  0.33031600  0.97152000  1
  Cr  Cr6  1  0.25000100  0.16968400  0.47152000  1
  Cr  Cr7  1  0.74999900  0.83031600  0.52847900  1
  S  S8  1  0.74999900  0.24246300  0.33091200  1
  S  S9  1  0.25000100  0.75753700  0.66908800  1
  S  S10  1  0.25000100  0.25753800  0.83091200  1
  S  S11  1  0.74999900  0.74246300  0.16908800  1
  S  S12  1  0.74999900  0.59715400  0.89817300  1
  S  S13  1  0.25000100  0.40284700  0.10182700  1
  S  S14  1  0.25000100  0.90284600  0.39817300  1
  S  S15  1  0.74999900  0.09715400  0.60182700  1
  O  O16  1  0.25000100  0.88734800  0.96361800  1
  O  O17  1  0.74999900  0.11265200  0.03638200  1
  O  O18  1  0.25000100  0.38734800  0.53638200  1
  O  O19  1  0.74999900  0.61265200  0.46361800  1
