# generated using pymatgen
data_La2CoIrO6
_symmetry_space_group_name_H-M   'P 1'
_cell_length_a   5.66410300
_cell_length_b   5.51452100
_cell_length_c   9.60351992
_cell_angle_alpha   54.82511388
_cell_angle_beta   90.00000000
_cell_angle_gamma   90.00000000
_symmetry_Int_Tables_number   1
_chemical_formula_structural   La2CoIrO6
_chemical_formula_sum   'La4 Co2 Ir2 O12'
_cell_volume   245.18995515
_cell_formula_units_Z   2
loop_
 _symmetry_equiv_pos_site_id
 _symmetry_equiv_pos_as_xyz
  1  'x, y, z'
loop_
 _atom_site_type_symbol
 _atom_site_label
 _atom_site_symmetry_multiplicity
 _atom_site_fract_x
 _atom_site_fract_y
 _atom_site_fract_z
 _atom_site_occupancy
  La  La0  1  0.94322500  0.23809700  0.74936500  1
  La  La1  1  0.55677500  0.23809700  0.24936500  1
  La  La2  1  0.05677500  0.76190300  0.25063500  1
  La  La3  1  0.44322500  0.76190300  0.75063500  1
  Co  Co4  1  0.50000000  0.50000000  0.50000000  1
  Co  Co5  1  0.00000000  0.50000000  0.00000000  1
  Ir  Ir6  1  0.00000000  0.00000000  0.50000000  1
  Ir  Ir7  1  0.50000000  0.00000000  0.00000000  1
  O  O8  1  0.80252800  0.15928200  0.04648600  1
  O  O9  1  0.69747200  0.15928200  0.54648600  1
  O  O10  1  0.19747200  0.84071800  0.95351400  1
  O  O11  1  0.51883000  0.34702700  0.74279500  1
  O  O12  1  0.79074700  0.74081700  0.45294900  1
  O  O13  1  0.20925300  0.25918300  0.54705100  1
  O  O14  1  0.98117000  0.34702700  0.24279500  1
  O  O15  1  0.48117000  0.65297300  0.25720500  1
  O  O16  1  0.30252800  0.84071800  0.45351400  1
  O  O17  1  0.01883000  0.65297300  0.75720500  1
  O  O18  1  0.70925300  0.74081700  0.95294900  1
  O  O19  1  0.29074700  0.25918300  0.04705100  1
