# generated using pymatgen
data_V2Zn2O7
_symmetry_space_group_name_H-M   'P 1'
_cell_length_a   5.09547375
_cell_length_b   5.51410624
_cell_length_c   5.51410564
_cell_angle_alpha   101.14455161
_cell_angle_beta   101.47366089
_cell_angle_gamma   101.47366580
_symmetry_Int_Tables_number   1
_chemical_formula_structural   V2Zn2O7
_chemical_formula_sum   'V2 Zn2 O7'
_cell_volume   144.35999520
_cell_formula_units_Z   1
loop_
 _symmetry_equiv_pos_site_id
 _symmetry_equiv_pos_as_xyz
  1  'x, y, z'
loop_
 _atom_site_type_symbol
 _atom_site_label
 _atom_site_symmetry_multiplicity
 _atom_site_fract_x
 _atom_site_fract_y
 _atom_site_fract_z
 _atom_site_occupancy
  V  V0  1  0.90335200  0.22334300  0.22334400  1
  V  V1  1  0.09664800  0.77665600  0.77665600  1
  Zn  Zn2  1  0.50000000  0.31608000  0.68391900  1
  Zn  Zn3  1  0.50000000  0.68392100  0.31608000  1
  O  O4  1  0.22497100  0.41906600  0.41906600  1
  O  O5  1  0.77502700  0.58093400  0.58093300  1
  O  O6  1  0.29046500  0.95255500  0.61915100  1
  O  O7  1  0.70953500  0.38084900  0.04744600  1
  O  O8  1  0.00000000  0.00000000  0.00000000  1
  O  O9  1  0.70953500  0.04744700  0.38084900  1
  O  O10  1  0.29046500  0.61915000  0.95255400  1
