# generated using pymatgen
data_Na5Y(WO4)4
_symmetry_space_group_name_H-M   'P 1'
_cell_length_a   10.03547150
_cell_length_b   10.03547150
_cell_length_c   10.03547150
_cell_angle_alpha   108.88574638
_cell_angle_beta   108.88574638
_cell_angle_gamma   110.64862377
_symmetry_Int_Tables_number   1
_chemical_formula_structural   Na5Y(WO4)4
_chemical_formula_sum   'Na10 Y2 W8 O32'
_cell_volume   777.77425371
_cell_formula_units_Z   2
loop_
 _symmetry_equiv_pos_site_id
 _symmetry_equiv_pos_as_xyz
  1  'x, y, z'
loop_
 _atom_site_type_symbol
 _atom_site_label
 _atom_site_symmetry_multiplicity
 _atom_site_fract_x
 _atom_site_fract_y
 _atom_site_fract_z
 _atom_site_occupancy
  Na  Na0  1  0.01432700  0.10045300  0.67505300  1
  Na  Na1  1  0.35045300  0.17540000  0.58612600  1
  Na  Na2  1  0.58927400  0.76432700  0.41387400  1
  Na  Na3  1  0.42540000  0.33927400  0.32494700  1
  Na  Na4  1  0.23567300  0.64954700  0.82494700  1
  Na  Na5  1  0.50000000  0.50000000  0.00000000  1
  Na  Na6  1  0.66072600  0.98567300  0.08612600  1
  Na  Na7  1  0.82460000  0.41072600  0.17505300  1
  Na  Na8  1  0.75000000  0.25000000  0.50000000  1
  Na  Na9  1  0.89954700  0.57460000  0.91387400  1
  Y  Y10  1  0.00000000  0.00000000  0.00000000  1
  Y  Y11  1  0.25000000  0.75000000  0.50000000  1
  W  W12  1  0.08205000  0.30584800  0.40870100  1
  W  W13  1  0.92334900  0.83205000  0.27620200  1
  W  W14  1  0.55584800  0.64714700  0.72379800  1
  W  W15  1  0.89714700  0.67334900  0.59129900  1
  W  W16  1  0.35285300  0.07665100  0.90870100  1
  W  W17  1  0.32665100  0.91795000  0.22379800  1
  W  W18  1  0.69415200  0.10285300  0.77620200  1
  W  W19  1  0.16795000  0.44415200  0.09129900  1
  O  O20  1  0.38152300  0.49975700  0.17779100  1
  O  O21  1  0.74975700  0.07196600  0.61823400  1
  O  O22  1  0.45373200  0.13152300  0.38176600  1
  O  O23  1  0.32196600  0.20373200  0.82220900  1
  O  O24  1  0.86847700  0.25024300  0.32220900  1
  O  O25  1  0.50024300  0.67803400  0.88176600  1
  O  O26  1  0.79626800  0.61847700  0.11823400  1
  O  O27  1  0.92803400  0.54626800  0.67779100  1
  O  O28  1  0.14674500  0.24417600  0.25670300  1
  O  O29  1  0.49417600  0.73747300  0.59743100  1
  O  O30  1  0.14004200  0.89674500  0.40256900  1
  O  O31  1  0.98747300  0.89004200  0.74329700  1
  O  O32  1  0.10325500  0.50582400  0.24329700  1
  O  O33  1  0.75582400  0.01252700  0.90256900  1
  O  O34  1  0.10995800  0.85325500  0.09743100  1
  O  O35  1  0.26252700  0.85995800  0.75670300  1
  O  O36  1  0.04911500  0.22359200  0.94712400  1
  O  O37  1  0.47359200  0.02646700  0.67447600  1
  O  O38  1  0.35199100  0.79911500  0.32552400  1
  O  O39  1  0.27646700  0.10199100  0.05287600  1
  O  O40  1  0.67947300  0.57871500  0.46843000  1
  O  O41  1  0.82871500  0.86028500  0.39924200  1
  O  O42  1  0.46104300  0.42947300  0.60075800  1
  O  O43  1  0.11028500  0.21104300  0.53157000  1
  O  O44  1  0.57052700  0.17128500  0.03157000  1
  O  O45  1  0.42128500  0.88971500  0.10075800  1
  O  O46  1  0.78895700  0.32052700  0.89924200  1
  O  O47  1  0.13971500  0.53895700  0.96843000  1
  O  O48  1  0.97353300  0.64800900  0.44712400  1
  O  O49  1  0.89800900  0.95088500  0.17447600  1
  O  O50  1  0.77640800  0.72353300  0.82552400  1
  O  O51  1  0.20088500  0.52640800  0.55287600  1
