# generated using pymatgen
data_Fe3PO7
_symmetry_space_group_name_H-M   'P 1'
_cell_length_a   5.25253419
_cell_length_b   5.25253419
_cell_length_c   5.25253414
_cell_angle_alpha   101.94476388
_cell_angle_beta   101.94476388
_cell_angle_gamma   101.94476700
_symmetry_Int_Tables_number   1
_chemical_formula_structural   Fe3PO7
_chemical_formula_sum   'Fe3 P1 O7'
_cell_volume   133.89818796
_cell_formula_units_Z   1
loop_
 _symmetry_equiv_pos_site_id
 _symmetry_equiv_pos_as_xyz
  1  'x, y, z'
loop_
 _atom_site_type_symbol
 _atom_site_label
 _atom_site_symmetry_multiplicity
 _atom_site_fract_x
 _atom_site_fract_y
 _atom_site_fract_z
 _atom_site_occupancy
  Fe  Fe0  1  0.45700300  0.84681100  0.45700300  1
  Fe  Fe1  1  0.45700300  0.45700300  0.84681100  1
  Fe  Fe2  1  0.84681100  0.45700300  0.45700300  1
  P  P3  1  0.99853900  0.99853900  0.99853900  1
  O  O4  1  0.16606800  0.16606800  0.85381600  1
  O  O5  1  0.16606800  0.85381600  0.16606800  1
  O  O6  1  0.85381600  0.16606800  0.16606800  1
  O  O7  1  0.60818200  0.60818200  0.23075900  1
  O  O8  1  0.76957700  0.76957700  0.76957700  1
  O  O9  1  0.60818200  0.23075900  0.60818200  1
  O  O10  1  0.23075900  0.60818200  0.60818200  1
