# generated using pymatgen
data_ScMnO3
_symmetry_space_group_name_H-M   'P 1'
_cell_length_a   5.94047366
_cell_length_b   5.94047366
_cell_length_c   11.29346700
_cell_angle_alpha   90.00000000
_cell_angle_beta   90.00000000
_cell_angle_gamma   119.99999619
_symmetry_Int_Tables_number   1
_chemical_formula_structural   ScMnO3
_chemical_formula_sum   'Sc6 Mn6 O18'
_cell_volume   345.14380641
_cell_formula_units_Z   6
loop_
 _symmetry_equiv_pos_site_id
 _symmetry_equiv_pos_as_xyz
  1  'x, y, z'
loop_
 _atom_site_type_symbol
 _atom_site_label
 _atom_site_symmetry_multiplicity
 _atom_site_fract_x
 _atom_site_fract_y
 _atom_site_fract_z
 _atom_site_occupancy
  Sc  Sc0  1  0.00000000  0.00000000  0.27420400  1
  Sc  Sc1  1  0.00000000  0.00000000  0.77420400  1
  Sc  Sc2  1  0.33333300  0.66666700  0.23005500  1
  Sc  Sc3  1  0.66666700  0.33333300  0.73005500  1
  Sc  Sc4  1  0.33333300  0.66666700  0.73005500  1
  Sc  Sc5  1  0.66666700  0.33333300  0.23005500  1
  Mn  Mn6  1  0.33291600  0.00000000  0.00004700  1
  Mn  Mn7  1  0.33291600  0.33291600  0.50004700  1
  Mn  Mn8  1  0.00000000  0.66708400  0.50004700  1
  Mn  Mn9  1  0.00000000  0.33291600  0.00004700  1
  Mn  Mn10  1  0.66708400  0.66708400  0.00004700  1
  Mn  Mn11  1  0.66708400  0.00000000  0.50004700  1
  O  O12  1  0.66666700  0.33333300  0.02803700  1
  O  O13  1  0.33333300  0.66666700  0.52803700  1
  O  O14  1  0.66666700  0.33333300  0.52803700  1
  O  O15  1  0.33333300  0.66666700  0.02803700  1
  O  O16  1  0.00000000  0.00000000  0.96659700  1
  O  O17  1  0.00000000  0.00000000  0.46659700  1
  O  O18  1  0.36586300  0.00000000  0.83164800  1
  O  O19  1  0.36586300  0.36586300  0.33164800  1
  O  O20  1  0.00000000  0.63413700  0.33164800  1
  O  O21  1  0.00000000  0.36586300  0.83164800  1
  O  O22  1  0.63413700  0.63413700  0.83164800  1
  O  O23  1  0.63413700  0.00000000  0.33164800  1
  O  O24  1  0.30235000  0.00000000  0.16941000  1
  O  O25  1  0.30235000  0.30235000  0.66941000  1
  O  O26  1  0.00000000  0.69765000  0.66941000  1
  O  O27  1  0.00000000  0.30235000  0.16941000  1
  O  O28  1  0.69765000  0.69765000  0.16941000  1
  O  O29  1  0.69765000  0.00000000  0.66941000  1
