# generated using pymatgen
data_Sr2MnO4
_symmetry_space_group_name_H-M   'P 1'
_cell_length_a   3.86531296
_cell_length_b   3.86531309
_cell_length_c   6.85889186
_cell_angle_alpha   106.36610281
_cell_angle_beta   106.36610954
_cell_angle_gamma   89.99999078
_symmetry_Int_Tables_number   1
_chemical_formula_structural   Sr2MnO4
_chemical_formula_sum   'Sr2 Mn1 O4'
_cell_volume   93.98850064
_cell_formula_units_Z   1
loop_
 _symmetry_equiv_pos_site_id
 _symmetry_equiv_pos_as_xyz
  1  'x, y, z'
loop_
 _atom_site_type_symbol
 _atom_site_label
 _atom_site_symmetry_multiplicity
 _atom_site_fract_x
 _atom_site_fract_y
 _atom_site_fract_z
 _atom_site_occupancy
  Sr  Sr0  1  0.64381500  0.64381400  0.28762800  1
  Sr  Sr1  1  0.35618500  0.35618600  0.71237200  1
  Mn  Mn2  1  0.00000000  0.00000000  0.00000000  1
  O  O3  1  0.84358300  0.84358300  0.68716700  1
  O  O4  1  0.15641700  0.15641700  0.31283300  1
  O  O5  1  0.00000100  0.50000100  0.00000100  1
  O  O6  1  0.49999900  0.00000000  0.00000000  1
