# generated using pymatgen
data_Mg2Mo3O8
_symmetry_space_group_name_H-M   'P 1'
_cell_length_a   6.27955735
_cell_length_b   6.27955735
_cell_length_c   9.49139800
_cell_angle_alpha   90.00000000
_cell_angle_beta   90.00000000
_cell_angle_gamma   119.99999313
_symmetry_Int_Tables_number   1
_chemical_formula_structural   Mg2Mo3O8
_chemical_formula_sum   'Mg4 Mo6 O16'
_cell_volume   324.12976077
_cell_formula_units_Z   2
loop_
 _symmetry_equiv_pos_site_id
 _symmetry_equiv_pos_as_xyz
  1  'x, y, z'
loop_
 _atom_site_type_symbol
 _atom_site_label
 _atom_site_symmetry_multiplicity
 _atom_site_fract_x
 _atom_site_fract_y
 _atom_site_fract_z
 _atom_site_occupancy
  Mg  Mg0  1  0.66666700  0.33333300  0.58550300  1
  Mg  Mg1  1  0.33333300  0.66666700  0.08550300  1
  Mg  Mg2  1  0.66666700  0.33333300  0.97393500  1
  Mg  Mg3  1  0.33333300  0.66666700  0.47393500  1
  Mo  Mo4  1  0.32840800  0.16420400  0.25746700  1
  Mo  Mo5  1  0.83579600  0.67159200  0.25746700  1
  Mo  Mo6  1  0.83579600  0.16420400  0.25746700  1
  Mo  Mo7  1  0.67159200  0.83579600  0.75746700  1
  Mo  Mo8  1  0.16420400  0.32840800  0.75746700  1
  Mo  Mo9  1  0.16420400  0.83579600  0.75746700  1
  O  O10  1  0.00000000  0.00000000  0.14315400  1
  O  O11  1  0.00000000  0.00000000  0.64315400  1
  O  O12  1  0.66666700  0.33333300  0.37665100  1
  O  O13  1  0.33333300  0.66666700  0.87665100  1
  O  O14  1  0.96198300  0.48099100  0.13090900  1
  O  O15  1  0.51900900  0.03801700  0.13090900  1
  O  O16  1  0.51900900  0.48099100  0.13090900  1
  O  O17  1  0.03801700  0.51900900  0.63090900  1
  O  O18  1  0.48099100  0.96198300  0.63090900  1
  O  O19  1  0.48099100  0.51900900  0.63090900  1
  O  O20  1  0.33972200  0.16986100  0.85316100  1
  O  O21  1  0.83013900  0.66027800  0.85316100  1
  O  O22  1  0.83013900  0.16986100  0.85316100  1
  O  O23  1  0.66027800  0.83013900  0.35316100  1
  O  O24  1  0.16986100  0.33972200  0.35316100  1
  O  O25  1  0.16986100  0.83013900  0.35316100  1
