# generated using pymatgen
data_Ba(NiO2)4
_symmetry_space_group_name_H-M   'P 1'
_cell_length_a   5.73530737
_cell_length_b   5.73484773
_cell_length_c   13.22361165
_cell_angle_alpha   89.99736698
_cell_angle_beta   77.47342483
_cell_angle_gamma   119.99469509
_symmetry_Int_Tables_number   1
_chemical_formula_structural   Ba(NiO2)4
_chemical_formula_sum   'Ba2 Ni8 O16'
_cell_volume   364.68252413
_cell_formula_units_Z   2
loop_
 _symmetry_equiv_pos_site_id
 _symmetry_equiv_pos_as_xyz
  1  'x, y, z'
loop_
 _atom_site_type_symbol
 _atom_site_label
 _atom_site_symmetry_multiplicity
 _atom_site_fract_x
 _atom_site_fract_y
 _atom_site_fract_z
 _atom_site_occupancy
  Ba  Ba0  1  0.50015100  0.75007800  0.74976500  1
  Ba  Ba1  1  0.49984900  0.24992200  0.25023400  1
  Ni  Ni2  1  0.50000100  0.00000100  0.49999900  1
  Ni  Ni3  1  0.49999800  0.50000000  0.99999900  1
  Ni  Ni4  1  0.49999900  0.49999700  0.49999900  1
  Ni  Ni5  1  0.50000000  0.99999900  0.99999800  1
  Ni  Ni6  1  0.00000200  0.00000100  0.49999900  1
  Ni  Ni7  1  0.00000100  0.50000200  0.99999800  1
  Ni  Ni8  1  0.00000000  0.50000000  0.50000000  1
  Ni  Ni9  1  0.00000100  0.00000100  0.00000000  1
  O  O10  1  0.71703200  0.85851500  0.42443500  1
  O  O11  1  0.71675800  0.35837400  0.92463800  1
  O  O12  1  0.28324300  0.64162600  0.07536400  1
  O  O13  1  0.28296800  0.14148500  0.57556600  1
  O  O14  1  0.22876800  0.84911200  0.92224000  1
  O  O15  1  0.22887300  0.34904200  0.42209600  1
  O  O16  1  0.77112900  0.12016700  0.57790200  1
  O  O17  1  0.77124000  0.62035300  0.07776500  1
  O  O18  1  0.77112800  0.65095900  0.57790500  1
  O  O19  1  0.77123200  0.15088700  0.07776100  1
  O  O20  1  0.30191800  0.65095700  0.57790700  1
  O  O21  1  0.30190200  0.15094300  0.07775900  1
  O  O22  1  0.22875900  0.37964700  0.92223500  1
  O  O23  1  0.22887200  0.87983200  0.42209800  1
  O  O24  1  0.69809700  0.84905600  0.92224200  1
  O  O25  1  0.69808200  0.34904200  0.42209400  1
