# generated using pymatgen
data_Ca3MnZnO6
_symmetry_space_group_name_H-M   'P 1'
_cell_length_a   6.46117797
_cell_length_b   6.46117797
_cell_length_c   6.46117810
_cell_angle_alpha   92.02983200
_cell_angle_beta   92.02983200
_cell_angle_gamma   92.02983783
_symmetry_Int_Tables_number   1
_chemical_formula_structural   Ca3MnZnO6
_chemical_formula_sum   'Ca6 Mn2 Zn2 O12'
_cell_volume   269.21355800
_cell_formula_units_Z   2
loop_
 _symmetry_equiv_pos_site_id
 _symmetry_equiv_pos_as_xyz
  1  'x, y, z'
loop_
 _atom_site_type_symbol
 _atom_site_label
 _atom_site_symmetry_multiplicity
 _atom_site_fract_x
 _atom_site_fract_y
 _atom_site_fract_z
 _atom_site_occupancy
  Ca  Ca0  1  0.25000000  0.61318000  0.88682000  1
  Ca  Ca1  1  0.38682000  0.11318000  0.75000000  1
  Ca  Ca2  1  0.11318000  0.75000000  0.38682000  1
  Ca  Ca3  1  0.75000000  0.38682000  0.11318000  1
  Ca  Ca4  1  0.61318000  0.88682000  0.25000000  1
  Ca  Ca5  1  0.88682000  0.25000000  0.61318000  1
  Mn  Mn6  1  0.50000000  0.50000000  0.50000000  1
  Mn  Mn7  1  0.00000000  0.00000000  0.00000000  1
  Zn  Zn8  1  0.75000000  0.75000000  0.75000000  1
  Zn  Zn9  1  0.25000000  0.25000000  0.25000000  1
  O  O10  1  0.54603300  0.21535900  0.41714900  1
  O  O11  1  0.45396700  0.78464100  0.58285100  1
  O  O12  1  0.78464100  0.58285100  0.45396700  1
  O  O13  1  0.58285100  0.45396700  0.78464100  1
  O  O14  1  0.71535900  0.04603300  0.91714900  1
  O  O15  1  0.04603300  0.91714900  0.71535900  1
  O  O16  1  0.08285100  0.28464100  0.95396700  1
  O  O17  1  0.95396700  0.08285100  0.28464100  1
  O  O18  1  0.28464100  0.95396700  0.08285100  1
  O  O19  1  0.41714900  0.54603300  0.21535900  1
  O  O20  1  0.21535900  0.41714900  0.54603300  1
  O  O21  1  0.91714900  0.71535900  0.04603300  1
