# generated using pymatgen
data_MnSe2O5
_symmetry_space_group_name_H-M   'P 1'
_cell_length_a   6.00981834
_cell_length_b   7.70832130
_cell_length_c   11.06866622
_cell_angle_alpha   89.99999864
_cell_angle_beta   90.00000166
_cell_angle_gamma   72.00668049
_symmetry_Int_Tables_number   1
_chemical_formula_structural   MnSe2O5
_chemical_formula_sum   'Mn4 Se8 O20'
_cell_volume   487.68480077
_cell_formula_units_Z   4
loop_
 _symmetry_equiv_pos_site_id
 _symmetry_equiv_pos_as_xyz
  1  'x, y, z'
loop_
 _atom_site_type_symbol
 _atom_site_label
 _atom_site_symmetry_multiplicity
 _atom_site_fract_x
 _atom_site_fract_y
 _atom_site_fract_z
 _atom_site_occupancy
  Mn  Mn0  1  0.25000000  0.00000000  0.08247000  1
  Mn  Mn1  1  0.25000000  0.50000000  0.41753000  1
  Mn  Mn2  1  0.75000000  0.50000000  0.58247000  1
  Mn  Mn3  1  0.75000000  0.00000000  0.91753000  1
  Se  Se4  1  0.47509400  0.65742400  0.86072300  1
  Se  Se5  1  0.97509400  0.15742400  0.36072300  1
  Se  Se6  1  0.02490600  0.34257600  0.86072300  1
  Se  Se7  1  0.52490600  0.84257600  0.36072300  1
  Se  Se8  1  0.52490600  0.34257600  0.13927700  1
  Se  Se9  1  0.02490600  0.84257600  0.63927700  1
  Se  Se10  1  0.97509400  0.65742400  0.13927700  1
  Se  Se11  1  0.47509400  0.15742400  0.63927700  1
  O  O12  1  0.75000000  0.50000000  0.92460300  1
  O  O13  1  0.25000000  0.00000000  0.42460300  1
  O  O14  1  0.25000000  0.50000000  0.07539700  1
  O  O15  1  0.75000000  0.00000000  0.57539700  1
  O  O16  1  0.53865700  0.68867700  0.71551800  1
  O  O17  1  0.03865700  0.18867700  0.21551800  1
  O  O18  1  0.96134300  0.31132300  0.71551800  1
  O  O19  1  0.46134300  0.81132300  0.21551800  1
  O  O20  1  0.46134300  0.31132300  0.28448200  1
  O  O21  1  0.96134300  0.81132300  0.78448200  1
  O  O22  1  0.03865700  0.68867700  0.28448200  1
  O  O23  1  0.53865700  0.18867700  0.78448200  1
  O  O24  1  0.99051900  0.84959200  0.06549300  1
  O  O25  1  0.49051900  0.34959200  0.56549300  1
  O  O26  1  0.50948100  0.15040800  0.06549300  1
  O  O27  1  0.00948100  0.65040800  0.56549300  1
  O  O28  1  0.00948100  0.15040800  0.93450700  1
  O  O29  1  0.50948100  0.65040800  0.43450700  1
  O  O30  1  0.49051900  0.84959200  0.93450700  1
  O  O31  1  0.99051900  0.34959200  0.43450700  1
