# generated using pymatgen
data_Tb3Ni2
_symmetry_space_group_name_H-M   'P 1'
_cell_length_a   6.84284795
_cell_length_b   6.84284795
_cell_length_c   9.49903509
_cell_angle_alpha   74.77372338
_cell_angle_beta   74.77372338
_cell_angle_gamma   31.06420754
_symmetry_Int_Tables_number   1
_chemical_formula_structural   Tb3Ni2
_chemical_formula_sum   'Tb6 Ni4'
_cell_volume   220.81872842
_cell_formula_units_Z   2
loop_
 _symmetry_equiv_pos_site_id
 _symmetry_equiv_pos_as_xyz
  1  'x, y, z'
loop_
 _atom_site_type_symbol
 _atom_site_label
 _atom_site_symmetry_multiplicity
 _atom_site_fract_x
 _atom_site_fract_y
 _atom_site_fract_z
 _atom_site_occupancy
  Tb  Tb0  1  0.13134900  0.13134900  0.00234800  1
  Tb  Tb1  1  0.86865100  0.86865100  0.99765200  1
  Tb  Tb2  1  0.40323000  0.40323000  0.67324300  1
  Tb  Tb3  1  0.59677000  0.59677000  0.32675700  1
  Tb  Tb4  1  0.14410700  0.14410700  0.63206300  1
  Tb  Tb5  1  0.85589300  0.85589300  0.36793700  1
  Ni  Ni6  1  0.53514700  0.53514700  0.85622100  1
  Ni  Ni7  1  0.46485300  0.46485300  0.14377900  1
  Ni  Ni8  1  0.74373900  0.74373900  0.77303200  1
  Ni  Ni9  1  0.25626100  0.25626100  0.22696800  1
