# generated using pymatgen
data_BaLaMn2O6
_symmetry_space_group_name_H-M   'P 1'
_cell_length_a   3.96469600
_cell_length_b   3.96469600
_cell_length_c   7.93105200
_cell_angle_alpha   90.00000000
_cell_angle_beta   90.00000000
_cell_angle_gamma   90.00000000
_symmetry_Int_Tables_number   1
_chemical_formula_structural   BaLaMn2O6
_chemical_formula_sum   'Ba1 La1 Mn2 O6'
_cell_volume   124.66673417
_cell_formula_units_Z   1
loop_
 _symmetry_equiv_pos_site_id
 _symmetry_equiv_pos_as_xyz
  1  'x, y, z'
loop_
 _atom_site_type_symbol
 _atom_site_label
 _atom_site_symmetry_multiplicity
 _atom_site_fract_x
 _atom_site_fract_y
 _atom_site_fract_z
 _atom_site_occupancy
  Ba  Ba0  1  0.00000000  0.00000000  0.00000000  1
  La  La1  1  0.00000000  0.00000000  0.50000000  1
  Mn  Mn2  1  0.50000100  0.50000100  0.74785100  1
  Mn  Mn3  1  0.50000100  0.50000100  0.25214900  1
  O  O4  1  0.00000000  0.50000100  0.72827000  1
  O  O5  1  0.50000100  0.00000000  0.72827000  1
  O  O6  1  0.00000000  0.50000100  0.27173100  1
  O  O7  1  0.50000100  0.00000000  0.27173100  1
  O  O8  1  0.50000100  0.50000100  0.00000000  1
  O  O9  1  0.50000100  0.50000100  0.50000000  1
