# generated using pymatgen
data_Ca4Al6WO16
_symmetry_space_group_name_H-M   'P 1'
_cell_length_a   8.19278219
_cell_length_b   8.19278219
_cell_length_c   8.19278219
_cell_angle_alpha   109.47122063
_cell_angle_beta   109.47122063
_cell_angle_gamma   109.47122063
_symmetry_Int_Tables_number   1
_chemical_formula_structural   Ca4Al6WO16
_chemical_formula_sum   'Ca4 Al6 W1 O16'
_cell_volume   423.32345848
_cell_formula_units_Z   1
loop_
 _symmetry_equiv_pos_site_id
 _symmetry_equiv_pos_as_xyz
  1  'x, y, z'
loop_
 _atom_site_type_symbol
 _atom_site_label
 _atom_site_symmetry_multiplicity
 _atom_site_fract_x
 _atom_site_fract_y
 _atom_site_fract_z
 _atom_site_occupancy
  Ca  Ca0  1  0.00000000  0.00000000  0.49800500  1
  Ca  Ca1  1  0.00000000  0.49800500  0.00000000  1
  Ca  Ca2  1  0.50199500  0.50199500  0.50199500  1
  Ca  Ca3  1  0.49800500  0.00000000  0.00000000  1
  Al  Al4  1  0.50000000  0.25000000  0.75000000  1
  Al  Al5  1  0.75000000  0.25000000  0.50000000  1
  Al  Al6  1  0.75000000  0.50000000  0.25000000  1
  Al  Al7  1  0.25000000  0.50000000  0.75000000  1
  Al  Al8  1  0.25000000  0.75000000  0.50000000  1
  Al  Al9  1  0.50000000  0.75000000  0.25000000  1
  W  W10  1  0.00000000  0.00000000  0.00000000  1
  O  O11  1  0.69312100  0.30286300  0.30286300  1
  O  O12  1  0.60974200  0.60974200  0.30687900  1
  O  O13  1  0.60974200  0.30687900  0.60974200  1
  O  O14  1  0.69713700  0.00000000  0.39025800  1
  O  O15  1  0.69713700  0.39025800  0.00000000  1
  O  O16  1  0.30286300  0.69312100  0.30286300  1
  O  O17  1  0.39025800  0.00000000  0.69713700  1
  O  O18  1  0.00000000  0.69713700  0.39025800  1
  O  O19  1  0.00000000  0.39025800  0.69713700  1
  O  O20  1  0.39025800  0.69713700  0.00000000  1
  O  O21  1  0.30286300  0.30286300  0.69312100  1
  O  O22  1  0.77911700  0.77911700  0.77911700  1
  O  O23  1  0.00000000  0.00000000  0.22088300  1
  O  O24  1  0.22088300  0.00000000  0.00000000  1
  O  O25  1  0.00000000  0.22088300  0.00000000  1
  O  O26  1  0.30687900  0.60974200  0.60974200  1
