# generated using pymatgen
data_CaSi2NiO6
_symmetry_space_group_name_H-M   'P 1'
_cell_length_a   5.29502915
_cell_length_b   9.81878178
_cell_length_c   8.99332738
_cell_angle_alpha   89.99999991
_cell_angle_beta   89.99999680
_cell_angle_gamma   105.10341340
_symmetry_Int_Tables_number   1
_chemical_formula_structural   CaSi2NiO6
_chemical_formula_sum   'Ca4 Si8 Ni4 O24'
_cell_volume   451.41849806
_cell_formula_units_Z   4
loop_
 _symmetry_equiv_pos_site_id
 _symmetry_equiv_pos_as_xyz
  1  'x, y, z'
loop_
 _atom_site_type_symbol
 _atom_site_label
 _atom_site_symmetry_multiplicity
 _atom_site_fract_x
 _atom_site_fract_y
 _atom_site_fract_z
 _atom_site_occupancy
  Ca  Ca0  1  0.25000000  0.50000000  0.20298600  1
  Ca  Ca1  1  0.75000000  0.00000000  0.70298600  1
  Ca  Ca2  1  0.75000200  0.50000100  0.79701400  1
  Ca  Ca3  1  0.25000100  0.00000000  0.29701400  1
  Si  Si4  1  0.55959600  0.28699600  0.09297500  1
  Si  Si5  1  0.05959500  0.78699500  0.59297600  1
  Si  Si6  1  0.94040400  0.71300500  0.09297600  1
  Si  Si7  1  0.44040300  0.21300500  0.59297500  1
  Si  Si8  1  0.05959500  0.28699500  0.90702500  1
  Si  Si9  1  0.55959500  0.78699500  0.40702500  1
  Si  Si10  1  0.44040500  0.71300500  0.90702500  1
  Si  Si11  1  0.94040500  0.21300400  0.40702400  1
  Ni  Ni12  1  0.24999900  0.00000000  0.90856100  1
  Ni  Ni13  1  0.74999900  0.00000100  0.09143800  1
  Ni  Ni14  1  0.75000000  0.50000000  0.40856100  1
  Ni  Ni15  1  0.24999900  0.50000100  0.59143800  1
  O  O16  1  0.85794800  0.35090000  0.01861700  1
  O  O17  1  0.35794700  0.85089900  0.51861700  1
  O  O18  1  0.64205300  0.64910000  0.01861900  1
  O  O19  1  0.14205200  0.14910000  0.51861900  1
  O  O20  1  0.14205400  0.64910100  0.98138200  1
  O  O21  1  0.64205400  0.14910100  0.48138200  1
  O  O22  1  0.35794600  0.35089900  0.98138200  1
  O  O23  1  0.85794600  0.85089900  0.48138200  1
  O  O24  1  0.54087800  0.36143400  0.24995800  1
  O  O25  1  0.04087800  0.86143400  0.74995800  1
  O  O26  1  0.95912100  0.63856500  0.24995800  1
  O  O27  1  0.45912100  0.13856500  0.74995800  1
  O  O28  1  0.45912200  0.63856600  0.75004200  1
  O  O29  1  0.95912200  0.13856600  0.25004200  1
  O  O30  1  0.04087800  0.36143400  0.75004300  1
  O  O31  1  0.54087800  0.86143400  0.25004200  1
  O  O32  1  0.97356300  0.11577900  0.91279700  1
  O  O33  1  0.47356300  0.61577900  0.41279700  1
  O  O34  1  0.52643600  0.88422000  0.91279700  1
  O  O35  1  0.02643600  0.38422000  0.41279700  1
  O  O36  1  0.47356300  0.11577900  0.08720300  1
  O  O37  1  0.97356200  0.61577900  0.58720300  1
  O  O38  1  0.02643800  0.88422100  0.08720300  1
  O  O39  1  0.52643800  0.38422100  0.58720300  1
