# generated using pymatgen
data_Ba2Na(NiO2)3
_symmetry_space_group_name_H-M   'P 1'
_cell_length_a   9.32411661
_cell_length_b   8.44780248
_cell_length_c   7.03395371
_cell_angle_alpha   73.42480729
_cell_angle_beta   60.26953490
_cell_angle_gamma   46.30565781
_symmetry_Int_Tables_number   1
_chemical_formula_structural   Ba2Na(NiO2)3
_chemical_formula_sum   'Ba4 Na2 Ni6 O12'
_cell_volume   346.41544218
_cell_formula_units_Z   2
loop_
 _symmetry_equiv_pos_site_id
 _symmetry_equiv_pos_as_xyz
  1  'x, y, z'
loop_
 _atom_site_type_symbol
 _atom_site_label
 _atom_site_symmetry_multiplicity
 _atom_site_fract_x
 _atom_site_fract_y
 _atom_site_fract_z
 _atom_site_occupancy
  Ba  Ba0  1  0.25000000  0.25000000  0.25000000  1
  Ba  Ba1  1  0.75000000  0.75000000  0.75000000  1
  Ba  Ba2  1  0.76506100  0.23493900  0.76506100  1
  Ba  Ba3  1  0.23493900  0.76506100  0.23493900  1
  Na  Na4  1  0.33595500  0.33595500  0.66404500  1
  Na  Na5  1  0.66404500  0.66404500  0.33595500  1
  Ni  Ni6  1  0.28781000  0.00221700  0.71219000  1
  Ni  Ni7  1  0.99778300  0.71219000  0.00221700  1
  Ni  Ni8  1  0.00221700  0.28781000  0.99778300  1
  Ni  Ni9  1  0.71219000  0.99778300  0.28781000  1
  Ni  Ni10  1  0.70058200  0.29941800  0.29941800  1
  Ni  Ni11  1  0.29941800  0.70058200  0.70058200  1
  O  O12  1  0.70130800  0.48747100  0.07798600  1
  O  O13  1  0.73323500  0.07798600  0.48747100  1
  O  O14  1  0.07798600  0.73323500  0.70130800  1
  O  O15  1  0.48747100  0.70130800  0.73323500  1
  O  O16  1  0.29869200  0.51252900  0.92201400  1
  O  O17  1  0.26676500  0.92201400  0.51252900  1
  O  O18  1  0.30488700  0.08150700  0.91849300  1
  O  O19  1  0.51252900  0.29869200  0.26676500  1
  O  O20  1  0.08150700  0.30488700  0.69511300  1
  O  O21  1  0.91849300  0.69511300  0.30488700  1
  O  O22  1  0.69511300  0.91849300  0.08150700  1
  O  O23  1  0.92201400  0.26676500  0.29869200  1
