# generated using pymatgen
data_PbS
_symmetry_space_group_name_H-M   'P 1'
_cell_length_a   7.96486250
_cell_length_b   7.96486250
_cell_length_c   4.06992800
_cell_angle_alpha   90.00000000
_cell_angle_beta   90.00000000
_cell_angle_gamma   91.18234491
_symmetry_Int_Tables_number   1
_chemical_formula_structural   PbS
_chemical_formula_sum   'Pb4 S4'
_cell_volume   258.13733163
_cell_formula_units_Z   4
loop_
 _symmetry_equiv_pos_site_id
 _symmetry_equiv_pos_as_xyz
  1  'x, y, z'
loop_
 _atom_site_type_symbol
 _atom_site_label
 _atom_site_symmetry_multiplicity
 _atom_site_fract_x
 _atom_site_fract_y
 _atom_site_fract_z
 _atom_site_occupancy
  Pb  Pb0  1  0.66311200  0.33914900  0.00000000  1
  Pb  Pb1  1  0.33914900  0.66311200  0.00000000  1
  Pb  Pb2  1  0.13738700  0.13738700  0.50000000  1
  Pb  Pb3  1  0.82373100  0.82373100  0.00000000  1
  S  S4  1  0.77482200  0.11785200  0.50000000  1
  S  S5  1  0.11785200  0.77482200  0.50000000  1
  S  S6  1  0.31089600  0.31089600  0.00000000  1
  S  S7  1  0.63725100  0.63725100  0.50000000  1
