# generated using pymatgen
data_SrV10O15
_symmetry_space_group_name_H-M   'P 1'
_cell_length_a   7.89121304
_cell_length_b   7.89121360
_cell_length_c   9.57821500
_cell_angle_alpha   90.00000000
_cell_angle_beta   90.00000000
_cell_angle_gamma   96.44357245
_symmetry_Int_Tables_number   1
_chemical_formula_structural   SrV10O15
_chemical_formula_sum   'Sr2 V20 O30'
_cell_volume   592.67955777
_cell_formula_units_Z   2
loop_
 _symmetry_equiv_pos_site_id
 _symmetry_equiv_pos_as_xyz
  1  'x, y, z'
loop_
 _atom_site_type_symbol
 _atom_site_label
 _atom_site_symmetry_multiplicity
 _atom_site_fract_x
 _atom_site_fract_y
 _atom_site_fract_z
 _atom_site_occupancy
  Sr  Sr0  1  0.50000000  0.50000000  0.50000000  1
  Sr  Sr1  1  0.00000000  0.00000000  0.00000000  1
  V  V2  1  0.81905000  0.81905100  0.63030700  1
  V  V3  1  0.68094900  0.68094900  0.13030700  1
  V  V4  1  0.31905000  0.31905000  0.86969300  1
  V  V5  1  0.18094900  0.18095000  0.36969400  1
  V  V6  1  0.04178000  0.79067800  0.35390900  1
  V  V7  1  0.45822000  0.70932200  0.85390900  1
  V  V8  1  0.29067800  0.54178100  0.14609100  1
  V  V9  1  0.20932200  0.95821900  0.64609200  1
  V  V10  1  0.95821900  0.20932300  0.64609200  1
  V  V11  1  0.54178100  0.29067700  0.14609100  1
  V  V12  1  0.70932300  0.45821900  0.85390900  1
  V  V13  1  0.91898900  0.40706200  0.11878500  1
  V  V14  1  0.40706300  0.91898800  0.11878500  1
  V  V15  1  0.09293800  0.58101200  0.61878500  1
  V  V16  1  0.41898800  0.90706200  0.38121500  1
  V  V17  1  0.08101200  0.59293700  0.88121600  1
  V  V18  1  0.59293700  0.08101100  0.88121600  1
  V  V19  1  0.90706200  0.41898900  0.38121500  1
  V  V20  1  0.58101200  0.09293800  0.61878500  1
  V  V21  1  0.79067800  0.04178100  0.35390900  1
  O  O22  1  0.00000000  0.00000000  0.50000000  1
  O  O23  1  0.50000000  0.50000000  0.00000000  1
  O  O24  1  0.24071400  0.75928500  0.50000000  1
  O  O25  1  0.25928600  0.74071400  0.00000000  1
  O  O26  1  0.75928600  0.24071400  0.50000000  1
  O  O27  1  0.74071400  0.25928600  0.00000000  1
  O  O28  1  0.64732700  0.64732700  0.73373300  1
  O  O29  1  0.85267300  0.85267300  0.23373300  1
  O  O30  1  0.14732700  0.14732600  0.76626700  1
  O  O31  1  0.35267300  0.35267300  0.26626700  1
  O  O32  1  0.57229500  0.07229500  0.25000000  1
  O  O33  1  0.92770400  0.42770500  0.75000000  1
  O  O34  1  0.42770500  0.92770400  0.75000000  1
  O  O35  1  0.07229500  0.57229500  0.25000000  1
  O  O36  1  0.71238900  0.46553200  0.24341500  1
  O  O37  1  0.78761000  0.03446800  0.74341500  1
  O  O38  1  0.96553200  0.21239000  0.25658500  1
  O  O39  1  0.53446800  0.28761000  0.75658500  1
  O  O40  1  0.28761000  0.53446800  0.75658500  1
  O  O41  1  0.21239000  0.96553200  0.25658500  1
  O  O42  1  0.03446800  0.78761100  0.74341500  1
  O  O43  1  0.46553200  0.71239000  0.24341500  1
  O  O44  1  0.10956900  0.35864100  0.50701500  1
  O  O45  1  0.39043000  0.14135800  0.00701400  1
  O  O46  1  0.85864200  0.60956900  0.99298500  1
  O  O47  1  0.64135800  0.89043100  0.49298600  1
  O  O48  1  0.35864200  0.10957000  0.50701500  1
  O  O49  1  0.60956900  0.85864200  0.99298500  1
  O  O50  1  0.14135800  0.39043000  0.00701400  1
  O  O51  1  0.89043000  0.64135800  0.49298600  1
