# generated using pymatgen
data_CaV3O7
_symmetry_space_group_name_H-M   'P 1'
_cell_length_a   5.37956100
_cell_length_b   10.44776400
_cell_length_c   10.90659500
_cell_angle_alpha   90.00000000
_cell_angle_beta   90.00000000
_cell_angle_gamma   90.00000000
_symmetry_Int_Tables_number   1
_chemical_formula_structural   CaV3O7
_chemical_formula_sum   'Ca4 V12 O28'
_cell_volume   612.99845080
_cell_formula_units_Z   4
loop_
 _symmetry_equiv_pos_site_id
 _symmetry_equiv_pos_as_xyz
  1  'x, y, z'
loop_
 _atom_site_type_symbol
 _atom_site_label
 _atom_site_symmetry_multiplicity
 _atom_site_fract_x
 _atom_site_fract_y
 _atom_site_fract_z
 _atom_site_occupancy
  Ca  Ca0  1  0.68067500  0.75000000  0.07888900  1
  Ca  Ca1  1  0.18067500  0.25000000  0.42111100  1
  Ca  Ca2  1  0.31932500  0.25000000  0.92111100  1
  Ca  Ca3  1  0.81932500  0.75000000  0.57888900  1
  V  V4  1  0.30160800  0.02428300  0.68822500  1
  V  V5  1  0.80160800  0.97571700  0.81177500  1
  V  V6  1  0.69839200  0.52428300  0.31177500  1
  V  V7  1  0.19839200  0.47571700  0.18822500  1
  V  V8  1  0.30969000  0.75000000  0.78379700  1
  V  V9  1  0.80969000  0.25000000  0.71620300  1
  V  V10  1  0.69031000  0.25000000  0.21620300  1
  V  V11  1  0.19031000  0.75000000  0.28379700  1
  V  V12  1  0.80160800  0.52428300  0.81177500  1
  V  V13  1  0.30160800  0.47571700  0.68822500  1
  V  V14  1  0.19839200  0.02428300  0.18822500  1
  V  V15  1  0.69839200  0.97571700  0.31177500  1
  O  O16  1  0.93265300  0.11919400  0.27832800  1
  O  O17  1  0.43265300  0.88080600  0.22167200  1
  O  O18  1  0.06734700  0.61919400  0.72167200  1
  O  O19  1  0.56734700  0.38080600  0.77832800  1
  O  O20  1  0.06734700  0.88080600  0.72167200  1
  O  O21  1  0.56734700  0.11919400  0.77832800  1
  O  O22  1  0.93265300  0.38080600  0.27832800  1
  O  O23  1  0.43265300  0.61919400  0.22167200  1
  O  O24  1  0.45737300  0.11870200  0.28304100  1
  O  O25  1  0.95737300  0.88129800  0.21695900  1
  O  O26  1  0.54262700  0.61870200  0.71695900  1
  O  O27  1  0.04262700  0.38129800  0.78304100  1
  O  O28  1  0.54262700  0.88129800  0.71695900  1
  O  O29  1  0.04262700  0.11870200  0.78304100  1
  O  O30  1  0.45737300  0.38129800  0.28304100  1
  O  O31  1  0.95737300  0.61870200  0.21695900  1
  O  O32  1  0.17580200  0.75000000  0.43596800  1
  O  O33  1  0.67580200  0.25000000  0.06403200  1
  O  O34  1  0.82419800  0.25000000  0.56403200  1
  O  O35  1  0.32419800  0.75000000  0.93596800  1
  O  O36  1  0.21700700  0.42278200  0.04509100  1
  O  O37  1  0.71700700  0.57721800  0.45490900  1
  O  O38  1  0.78299300  0.92278200  0.95490900  1
  O  O39  1  0.28299300  0.07721800  0.54509100  1
  O  O40  1  0.78299300  0.57721800  0.95490900  1
  O  O41  1  0.28299300  0.42278200  0.54509100  1
  O  O42  1  0.21700700  0.07721800  0.04509100  1
  O  O43  1  0.71700700  0.92278200  0.45490900  1
