# generated using pymatgen
data_NdCu6
_symmetry_space_group_name_H-M   'P 1'
_cell_length_a   10.14019000
_cell_length_b   5.06530000
_cell_length_c   8.08955779
_cell_angle_alpha   88.86943824
_cell_angle_beta   90.00000000
_cell_angle_gamma   90.00000000
_symmetry_Int_Tables_number   1
_chemical_formula_structural   NdCu6
_chemical_formula_sum   'Nd4 Cu24'
_cell_volume   415.42391527
_cell_formula_units_Z   4
loop_
 _symmetry_equiv_pos_site_id
 _symmetry_equiv_pos_as_xyz
  1  'x, y, z'
loop_
 _atom_site_type_symbol
 _atom_site_label
 _atom_site_symmetry_multiplicity
 _atom_site_fract_x
 _atom_site_fract_y
 _atom_site_fract_z
 _atom_site_occupancy
  Nd  Nd0  1  0.93622100  0.25703100  0.23935300  1
  Nd  Nd1  1  0.43622100  0.74296900  0.26064700  1
  Nd  Nd2  1  0.06377900  0.74296900  0.76064700  1
  Nd  Nd3  1  0.56377900  0.25703100  0.73935300  1
  Cu  Cu4  1  0.30778800  0.50372900  0.93382800  1
  Cu  Cu5  1  0.80778800  0.49627100  0.56617200  1
  Cu  Cu6  1  0.69221200  0.49627100  0.06617200  1
  Cu  Cu7  1  0.19221200  0.50372900  0.43382800  1
  Cu  Cu8  1  0.81058200  0.00683000  0.56292500  1
  Cu  Cu9  1  0.31058200  0.99317000  0.93707500  1
  Cu  Cu10  1  0.18941800  0.99317000  0.43707500  1
  Cu  Cu11  1  0.68941800  0.00683000  0.06292500  1
  Cu  Cu12  1  0.85750300  0.24510400  0.85266200  1
  Cu  Cu13  1  0.35750300  0.75489600  0.64733800  1
  Cu  Cu14  1  0.14249700  0.75489600  0.14733800  1
  Cu  Cu15  1  0.64249700  0.24510400  0.35266200  1
  Cu  Cu16  1  0.24440100  0.24960200  0.18288000  1
  Cu  Cu17  1  0.74440100  0.75039800  0.31712000  1
  Cu  Cu18  1  0.75559900  0.75039800  0.81712000  1
  Cu  Cu19  1  0.25559900  0.24960200  0.68288000  1
  Cu  Cu20  1  0.40324200  0.23281400  0.43747200  1
  Cu  Cu21  1  0.90324200  0.76718600  0.06252800  1
  Cu  Cu22  1  0.59675800  0.76718600  0.56252800  1
  Cu  Cu23  1  0.09675800  0.23281400  0.93747200  1
  Cu  Cu24  1  0.48363400  0.24996000  0.09877100  1
  Cu  Cu25  1  0.98363400  0.75004000  0.40122900  1
  Cu  Cu26  1  0.51636600  0.75004000  0.90122900  1
  Cu  Cu27  1  0.01636600  0.24996000  0.59877100  1
