# generated using pymatgen
data_AlWO4
_symmetry_space_group_name_H-M   'P 1'
_cell_length_a   5.46270533
_cell_length_b   5.46270533
_cell_length_c   4.63107032
_cell_angle_alpha   88.00711698
_cell_angle_beta   88.00711698
_cell_angle_gamma   64.28263086
_symmetry_Int_Tables_number   1
_chemical_formula_structural   AlWO4
_chemical_formula_sum   'Al2 W2 O8'
_cell_volume   124.40243358
_cell_formula_units_Z   2
loop_
 _symmetry_equiv_pos_site_id
 _symmetry_equiv_pos_as_xyz
  1  'x, y, z'
loop_
 _atom_site_type_symbol
 _atom_site_label
 _atom_site_symmetry_multiplicity
 _atom_site_fract_x
 _atom_site_fract_y
 _atom_site_fract_z
 _atom_site_occupancy
  Al  Al0  1  0.73976000  0.73976000  0.48991400  1
  Al  Al1  1  0.26024000  0.26024000  0.51008600  1
  W  W2  1  0.22888500  0.77111500  0.00000000  1
  W  W3  1  0.77111500  0.22888500  0.00000000  1
  O  O4  1  0.40287000  0.40287000  0.80008400  1
  O  O5  1  0.59713000  0.59713000  0.19991600  1
  O  O6  1  0.11526700  0.11526700  0.22219500  1
  O  O7  1  0.88473300  0.88473300  0.77780500  1
  O  O8  1  0.60317100  0.09321500  0.30478600  1
  O  O9  1  0.90678500  0.39682900  0.69521400  1
  O  O10  1  0.39682900  0.90678500  0.69521400  1
  O  O11  1  0.09321500  0.60317100  0.30478600  1
