# generated using pymatgen
data_Ca2FeWO6
_symmetry_space_group_name_H-M   'P 1'
_cell_length_a   5.63073947
_cell_length_b   5.63073947
_cell_length_c   5.63073947
_cell_angle_alpha   119.94201227
_cell_angle_beta   118.16152641
_cell_angle_gamma   91.65710285
_symmetry_Int_Tables_number   1
_chemical_formula_structural   Ca2FeWO6
_chemical_formula_sum   'Ca2 Fe1 W1 O6'
_cell_volume   127.94949790
_cell_formula_units_Z   1
loop_
 _symmetry_equiv_pos_site_id
 _symmetry_equiv_pos_as_xyz
  1  'x, y, z'
loop_
 _atom_site_type_symbol
 _atom_site_label
 _atom_site_symmetry_multiplicity
 _atom_site_fract_x
 _atom_site_fract_y
 _atom_site_fract_z
 _atom_site_occupancy
  Ca  Ca0  1  0.29105600  0.74960300  0.54145300  1
  Ca  Ca1  1  0.79185000  0.25039700  0.54145300  1
  Fe  Fe2  1  0.48245300  0.50000000  0.98245300  1
  W  W3  1  0.97650000  0.00000000  0.97650000  1
  O  O4  1  0.71681300  0.75377000  0.96304300  1
  O  O5  1  0.20927300  0.24623000  0.96304300  1
  O  O6  1  0.19967100  0.25258600  0.45225800  1
  O  O7  1  0.19967100  0.74741400  0.94708500  1
  O  O8  1  0.72235600  0.23070100  0.95305700  1
  O  O9  1  0.72235600  0.76929900  0.49165400  1
