# generated using pymatgen
data_InSb
_symmetry_space_group_name_H-M   'P 1'
_cell_length_a   3.04146300
_cell_length_b   3.13941700
_cell_length_c   6.14685000
_cell_angle_alpha   90.00000000
_cell_angle_beta   90.00000000
_cell_angle_gamma   90.00000000
_symmetry_Int_Tables_number   1
_chemical_formula_structural   InSb
_chemical_formula_sum   'In1 Sb1'
_cell_volume   58.69270945
_cell_formula_units_Z   1
loop_
 _symmetry_equiv_pos_site_id
 _symmetry_equiv_pos_as_xyz
  1  'x, y, z'
loop_
 _atom_site_type_symbol
 _atom_site_label
 _atom_site_symmetry_multiplicity
 _atom_site_fract_x
 _atom_site_fract_y
 _atom_site_fract_z
 _atom_site_occupancy
  In  In0  1  0.00000000  0.00247700  0.00000000  1
  Sb  Sb1  1  0.00000000  0.74752300  0.50000000  1
