# generated using pymatgen
data_YbMnGe
_symmetry_space_group_name_H-M   'P 1'
_cell_length_a   4.23664300
_cell_length_b   7.19543600
_cell_length_c   7.61825900
_cell_angle_alpha   90.00000000
_cell_angle_beta   90.00000000
_cell_angle_gamma   90.00000000
_symmetry_Int_Tables_number   1
_chemical_formula_structural   YbMnGe
_chemical_formula_sum   'Yb4 Mn4 Ge4'
_cell_volume   232.23876743
_cell_formula_units_Z   4
loop_
 _symmetry_equiv_pos_site_id
 _symmetry_equiv_pos_as_xyz
  1  'x, y, z'
loop_
 _atom_site_type_symbol
 _atom_site_label
 _atom_site_symmetry_multiplicity
 _atom_site_fract_x
 _atom_site_fract_y
 _atom_site_fract_z
 _atom_site_occupancy
  Yb  Yb0  1  0.75000000  0.98962100  0.68344900  1
  Yb  Yb1  1  0.25000000  0.01037900  0.31655100  1
  Yb  Yb2  1  0.25000000  0.51037900  0.18344900  1
  Yb  Yb3  1  0.75000000  0.48962100  0.81655100  1
  Mn  Mn4  1  0.75000000  0.87044800  0.05704800  1
  Mn  Mn5  1  0.25000000  0.62955200  0.55704800  1
  Mn  Mn6  1  0.75000000  0.37044800  0.44295200  1
  Mn  Mn7  1  0.25000000  0.12955200  0.94295200  1
  Ge  Ge8  1  0.75000000  0.21323400  0.11193600  1
  Ge  Ge9  1  0.25000000  0.78676600  0.88806400  1
  Ge  Ge10  1  0.25000000  0.28676600  0.61193600  1
  Ge  Ge11  1  0.75000000  0.71323400  0.38806400  1
