# generated using pymatgen
data_Pr2Fe2S2O3
_symmetry_space_group_name_H-M   'P 1'
_cell_length_a   9.46621977
_cell_length_b   9.46621977
_cell_length_c   9.46621977
_cell_angle_alpha   155.13843066
_cell_angle_beta   155.13843066
_cell_angle_gamma   35.44699028
_symmetry_Int_Tables_number   1
_chemical_formula_structural   Pr2Fe2S2O3
_chemical_formula_sum   'Pr2 Fe2 S2 O3'
_cell_volume   149.76087500
_cell_formula_units_Z   1
loop_
 _symmetry_equiv_pos_site_id
 _symmetry_equiv_pos_as_xyz
  1  'x, y, z'
loop_
 _atom_site_type_symbol
 _atom_site_label
 _atom_site_symmetry_multiplicity
 _atom_site_fract_x
 _atom_site_fract_y
 _atom_site_fract_z
 _atom_site_occupancy
  Pr  Pr0  1  0.31655000  0.31655000  0.00000000  1
  Pr  Pr1  1  0.68345000  0.68345000  0.00000000  1
  Fe  Fe2  1  0.50000000  0.00000000  0.50000000  1
  Fe  Fe3  1  0.00000000  0.50000000  0.50000000  1
  S  S4  1  0.90440500  0.90440500  0.00000000  1
  S  S5  1  0.09559500  0.09559500  0.00000000  1
  O  O6  1  0.25000000  0.75000000  0.50000000  1
  O  O7  1  0.75000000  0.25000000  0.50000000  1
  O  O8  1  0.50000000  0.50000000  0.00000000  1
