# generated using pymatgen
data_UMnSe3
_symmetry_space_group_name_H-M   'P 1'
_cell_length_a   5.81540086
_cell_length_b   5.81540086
_cell_length_c   9.16261600
_cell_angle_alpha   90.00000000
_cell_angle_beta   90.00000000
_cell_angle_gamma   140.74442646
_symmetry_Int_Tables_number   1
_chemical_formula_structural   UMnSe3
_chemical_formula_sum   'U2 Mn2 Se6'
_cell_volume   196.07941043
_cell_formula_units_Z   2
loop_
 _symmetry_equiv_pos_site_id
 _symmetry_equiv_pos_as_xyz
  1  'x, y, z'
loop_
 _atom_site_type_symbol
 _atom_site_label
 _atom_site_symmetry_multiplicity
 _atom_site_fract_x
 _atom_site_fract_y
 _atom_site_fract_z
 _atom_site_occupancy
  U  U0  1  0.78050200  0.21949800  0.25000000  1
  U  U1  1  0.21949800  0.78050200  0.75000000  1
  Mn  Mn2  1  0.00000000  0.00000000  0.50000000  1
  Mn  Mn3  1  0.00000000  0.00000000  0.00000000  1
  Se  Se4  1  0.92243000  0.07757000  0.75000000  1
  Se  Se5  1  0.07757000  0.92243000  0.25000000  1
  Se  Se6  1  0.63599200  0.36400800  0.96217200  1
  Se  Se7  1  0.36400800  0.63599200  0.03782800  1
  Se  Se8  1  0.36400800  0.63599200  0.46217200  1
  Se  Se9  1  0.63599200  0.36400800  0.53782800  1
