data_image0
_chemical_formula_structural       Cu2P4Sm2
_chemical_formula_sum              "Cu2 P4 Sm2"
_cell_length_a       3.77259
_cell_length_b       3.77259
_cell_length_c       10.2372
_cell_angle_alpha    100.618
_cell_angle_beta     100.618
_cell_angle_gamma    90

_space_group_name_H-M_alt    "P 1"
_space_group_IT_number       1

loop_
  _space_group_symop_operation_xyz
  'x, y, z'

loop_
  _atom_site_type_symbol
  _atom_site_label
  _atom_site_symmetry_multiplicity
  _atom_site_fract_x
  _atom_site_fract_y
  _atom_site_fract_z
  _atom_site_occupancy
  Cu  Cu1       1.0  0.75000  0.25000  0.50000  1.0000
  Cu  Cu2       1.0  0.25000  0.75000  0.50000  1.0000
  P   P1        1.0  0.50000  0.00000  0.00000  1.0000
  P   P2        1.0  0.00000  0.50000  0.00000  1.0000
  P   P3        1.0  0.67500  0.67500  0.35000  1.0000
  P   P4        1.0  0.32500  0.32500  0.65000  1.0000
  Sm  Sm1       1.0  0.11600  0.11600  0.23200  1.0000
  Sm  Sm2       1.0  0.88400  0.88400  0.76800  1.0000
