# generated using pymatgen
data_GdTiGe
_symmetry_space_group_name_H-M   'P 1'
_cell_length_a   8.36609802
_cell_length_b   8.36609802
_cell_length_c   8.36609802
_cell_angle_alpha   151.79462019
_cell_angle_beta   151.79462019
_cell_angle_gamma   40.31330132
_symmetry_Int_Tables_number   1
_chemical_formula_structural   GdTiGe
_chemical_formula_sum   'Gd2 Ti2 Ge2'
_cell_volume   130.54223983
_cell_formula_units_Z   2
loop_
 _symmetry_equiv_pos_site_id
 _symmetry_equiv_pos_as_xyz
  1  'x, y, z'
loop_
 _atom_site_type_symbol
 _atom_site_label
 _atom_site_symmetry_multiplicity
 _atom_site_fract_x
 _atom_site_fract_y
 _atom_site_fract_z
 _atom_site_occupancy
  Gd  Gd0  1  0.67543400  0.67543400  0.00000000  1
  Gd  Gd1  1  0.32456600  0.32456600  0.00000000  1
  Ti  Ti2  1  0.50000000  0.00000000  0.50000000  1
  Ti  Ti3  1  0.00000000  0.50000000  0.50000000  1
  Ge  Ge4  1  0.11959400  0.11959400  0.00000000  1
  Ge  Ge5  1  0.88040600  0.88040600  0.00000000  1
