# generated using pymatgen
data_BaGdAuSe3
_symmetry_space_group_name_H-M   'P 1'
_cell_length_a   7.49363218
_cell_length_b   7.49363218
_cell_length_c   10.84506800
_cell_angle_alpha   90.00000000
_cell_angle_beta   90.00000000
_cell_angle_gamma   146.81103471
_symmetry_Int_Tables_number   1
_chemical_formula_structural   BaGdAuSe3
_chemical_formula_sum   'Ba2 Gd2 Au2 Se6'
_cell_volume   333.36764736
_cell_formula_units_Z   2
loop_
 _symmetry_equiv_pos_site_id
 _symmetry_equiv_pos_as_xyz
  1  'x, y, z'
loop_
 _atom_site_type_symbol
 _atom_site_label
 _atom_site_symmetry_multiplicity
 _atom_site_fract_x
 _atom_site_fract_y
 _atom_site_fract_z
 _atom_site_occupancy
  Ba  Ba0  1  0.75217500  0.24782500  0.25000000  1
  Ba  Ba1  1  0.24782500  0.75217500  0.75000000  1
  Gd  Gd2  1  0.00000000  0.00000000  0.50000000  1
  Gd  Gd3  1  0.00000000  0.00000000  0.00000000  1
  Au  Au4  1  0.53525800  0.46474200  0.75000000  1
  Au  Au5  1  0.46474200  0.53525800  0.25000000  1
  Se  Se6  1  0.07894500  0.92105500  0.25000000  1
  Se  Se7  1  0.92105500  0.07894500  0.75000000  1
  Se  Se8  1  0.63793000  0.36207000  0.55090300  1
  Se  Se9  1  0.63793000  0.36207000  0.94909700  1
  Se  Se10  1  0.36207000  0.63793000  0.05090300  1
  Se  Se11  1  0.36207000  0.63793000  0.44909700  1
