# generated using pymatgen
data_NaPr2OsO6
_symmetry_space_group_name_H-M   'P 1'
_cell_length_a   6.01225400
_cell_length_b   5.60208500
_cell_length_c   9.75332335
_cell_angle_alpha   55.87280608
_cell_angle_beta   90.00000000
_cell_angle_gamma   90.00000000
_symmetry_Int_Tables_number   1
_chemical_formula_structural   NaPr2OsO6
_chemical_formula_sum   'Na2 Pr4 Os2 O12'
_cell_volume   271.93304691
_cell_formula_units_Z   2
loop_
 _symmetry_equiv_pos_site_id
 _symmetry_equiv_pos_as_xyz
  1  'x, y, z'
loop_
 _atom_site_type_symbol
 _atom_site_label
 _atom_site_symmetry_multiplicity
 _atom_site_fract_x
 _atom_site_fract_y
 _atom_site_fract_z
 _atom_site_occupancy
  Na  Na0  1  0.50000000  0.00000000  0.50000000  1
  Na  Na1  1  0.00000000  0.00000000  0.00000000  1
  Pr  Pr2  1  0.42956900  0.77373300  0.24657100  1
  Pr  Pr3  1  0.07043100  0.77373300  0.74657100  1
  Pr  Pr4  1  0.92956900  0.22626700  0.25342900  1
  Pr  Pr5  1  0.57043100  0.22626700  0.75342900  1
  Os  Os6  1  0.00000000  0.50000000  0.50000000  1
  Os  Os7  1  0.50000000  0.50000000  0.00000000  1
  O  O8  1  0.71922100  0.73231400  0.43188200  1
  O  O9  1  0.21922100  0.26768600  0.06811800  1
  O  O10  1  0.28077900  0.26768600  0.56811800  1
  O  O11  1  0.78077900  0.73231400  0.93188200  1
  O  O12  1  0.04961200  0.61208600  0.26946900  1
  O  O13  1  0.54961200  0.38791400  0.23053100  1
  O  O14  1  0.95038800  0.38791400  0.73053100  1
  O  O15  1  0.45038800  0.61208600  0.76946900  1
  O  O16  1  0.32672300  0.84350600  0.94858100  1
  O  O17  1  0.82672300  0.15649400  0.55141900  1
  O  O18  1  0.67327700  0.15649400  0.05141900  1
  O  O19  1  0.17327700  0.84350600  0.44858100  1
