# generated using pymatgen
data_In6WO12
_symmetry_space_group_name_H-M   'P 1'
_cell_length_a   6.34693642
_cell_length_b   6.34693642
_cell_length_c   6.34693687
_cell_angle_alpha   99.12456035
_cell_angle_beta   99.12456035
_cell_angle_gamma   99.12455872
_symmetry_Int_Tables_number   1
_chemical_formula_structural   In6WO12
_chemical_formula_sum   'In6 W1 O12'
_cell_volume   244.78096169
_cell_formula_units_Z   1
loop_
 _symmetry_equiv_pos_site_id
 _symmetry_equiv_pos_as_xyz
  1  'x, y, z'
loop_
 _atom_site_type_symbol
 _atom_site_label
 _atom_site_symmetry_multiplicity
 _atom_site_fract_x
 _atom_site_fract_y
 _atom_site_fract_z
 _atom_site_occupancy
  In  In0  1  0.85978800  0.39557200  0.67623800  1
  In  In1  1  0.67623800  0.85978800  0.39557200  1
  In  In2  1  0.39557200  0.67623800  0.85978800  1
  In  In3  1  0.14021200  0.60442800  0.32376200  1
  In  In4  1  0.32376200  0.14021200  0.60442800  1
  In  In5  1  0.60442800  0.32376200  0.14021200  1
  W  W6  1  0.00000000  0.00000000  0.00000000  1
  O  O7  1  0.59522100  0.17596300  0.41397400  1
  O  O8  1  0.41397400  0.59522100  0.17596300  1
  O  O9  1  0.17596300  0.41397400  0.59522100  1
  O  O10  1  0.40477900  0.82403700  0.58602600  1
  O  O11  1  0.58602600  0.40477900  0.82403700  1
  O  O12  1  0.82403700  0.58602600  0.40477900  1
  O  O13  1  0.04162600  0.70419100  0.89714000  1
  O  O14  1  0.29580900  0.10286000  0.95837400  1
  O  O15  1  0.10286000  0.95837400  0.29580900  1
  O  O16  1  0.95837400  0.29580900  0.10286000  1
  O  O17  1  0.70419100  0.89714000  0.04162600  1
  O  O18  1  0.89714000  0.04162600  0.70419100  1
