# generated using pymatgen
data_Sr2EuCu3(PbO4)2
_symmetry_space_group_name_H-M   'P 1'
_cell_length_a   3.84361300
_cell_length_b   3.84361300
_cell_length_c   16.12272400
_cell_angle_alpha   90.00000000
_cell_angle_beta   90.00000000
_cell_angle_gamma   90.00000000
_symmetry_Int_Tables_number   1
_chemical_formula_structural   Sr2EuCu3(PbO4)2
_chemical_formula_sum   'Sr2 Eu1 Cu3 Pb2 O8'
_cell_volume   238.18682024
_cell_formula_units_Z   1
loop_
 _symmetry_equiv_pos_site_id
 _symmetry_equiv_pos_as_xyz
  1  'x, y, z'
loop_
 _atom_site_type_symbol
 _atom_site_label
 _atom_site_symmetry_multiplicity
 _atom_site_fract_x
 _atom_site_fract_y
 _atom_site_fract_z
 _atom_site_occupancy
  Sr  Sr0  1  0.00000000  0.00000000  0.77782100  1
  Sr  Sr1  1  0.00000000  0.00000000  0.22217900  1
  Eu  Eu2  1  0.00000000  0.00000000  0.00000000  1
  Cu  Cu3  1  0.00000000  0.00000000  0.50000000  1
  Cu  Cu4  1  0.50000000  0.50000000  0.89105800  1
  Cu  Cu5  1  0.50000000  0.50000000  0.10894200  1
  Pb  Pb6  1  0.50000000  0.50000000  0.38809100  1
  Pb  Pb7  1  0.50000000  0.50000000  0.61190900  1
  O  O8  1  0.00000000  0.50000000  0.90253000  1
  O  O9  1  0.50000000  0.00000000  0.09747000  1
  O  O10  1  0.00000000  0.50000000  0.09747000  1
  O  O11  1  0.50000000  0.00000000  0.90253000  1
  O  O12  1  0.00000000  0.00000000  0.38470600  1
  O  O13  1  0.50000000  0.50000000  0.74707700  1
  O  O14  1  0.50000000  0.50000000  0.25292300  1
  O  O15  1  0.00000000  0.00000000  0.61529400  1
