# generated using pymatgen
data_TaMnSi
_symmetry_space_group_name_H-M   'P 1'
_cell_length_a   6.40731513
_cell_length_b   6.40731513
_cell_length_c   3.47673100
_cell_angle_alpha   90.00000000
_cell_angle_beta   90.00000000
_cell_angle_gamma   120.00001168
_symmetry_Int_Tables_number   1
_chemical_formula_structural   TaMnSi
_chemical_formula_sum   'Ta3 Mn3 Si3'
_cell_volume   123.61006631
_cell_formula_units_Z   3
loop_
 _symmetry_equiv_pos_site_id
 _symmetry_equiv_pos_as_xyz
  1  'x, y, z'
loop_
 _atom_site_type_symbol
 _atom_site_label
 _atom_site_symmetry_multiplicity
 _atom_site_fract_x
 _atom_site_fract_y
 _atom_site_fract_z
 _atom_site_occupancy
  Ta  Ta0  1  0.41061600  0.00000000  0.50000000  1
  Ta  Ta1  1  0.00000000  0.41061600  0.50000000  1
  Ta  Ta2  1  0.58938400  0.58938400  0.50000000  1
  Mn  Mn3  1  0.75353200  0.00000000  0.00000000  1
  Mn  Mn4  1  0.00000000  0.75353200  0.00000000  1
  Mn  Mn5  1  0.24646800  0.24646800  0.00000000  1
  Si  Si6  1  0.33333300  0.66666700  0.00000000  1
  Si  Si7  1  0.66666700  0.33333300  0.00000000  1
  Si  Si8  1  0.00000000  0.00000000  0.50000000  1
