# generated using pymatgen
data_TiCuSn
_symmetry_space_group_name_H-M   'P 1'
_cell_length_a   4.41776636
_cell_length_b   4.41776636
_cell_length_c   6.03812000
_cell_angle_alpha   90.00000000
_cell_angle_beta   90.00000000
_cell_angle_gamma   120.00000540
_symmetry_Int_Tables_number   1
_chemical_formula_structural   TiCuSn
_chemical_formula_sum   'Ti2 Cu2 Sn2'
_cell_volume   102.05583389
_cell_formula_units_Z   2
loop_
 _symmetry_equiv_pos_site_id
 _symmetry_equiv_pos_as_xyz
  1  'x, y, z'
loop_
 _atom_site_type_symbol
 _atom_site_label
 _atom_site_symmetry_multiplicity
 _atom_site_fract_x
 _atom_site_fract_y
 _atom_site_fract_z
 _atom_site_occupancy
  Ti  Ti0  1  0.00000000  0.00000000  0.99997000  1
  Ti  Ti1  1  0.00000000  0.00000000  0.49997000  1
  Cu  Cu2  1  0.33333300  0.66666700  0.77702600  1
  Cu  Cu3  1  0.66666700  0.33333300  0.27702600  1
  Sn  Sn4  1  0.33333300  0.66666700  0.24500400  1
  Sn  Sn5  1  0.66666700  0.33333300  0.74500400  1
