# generated using pymatgen
data_CoSn2
_symmetry_space_group_name_H-M   'P 1'
_cell_length_a   5.27576034
_cell_length_b   5.27576034
_cell_length_c   5.27576034
_cell_angle_alpha   105.59487423
_cell_angle_beta   105.59487423
_cell_angle_gamma   117.53773466
_symmetry_Int_Tables_number   1
_chemical_formula_structural   CoSn2
_chemical_formula_sum   'Co2 Sn4'
_cell_volume   111.33794025
_cell_formula_units_Z   2
loop_
 _symmetry_equiv_pos_site_id
 _symmetry_equiv_pos_as_xyz
  1  'x, y, z'
loop_
 _atom_site_type_symbol
 _atom_site_label
 _atom_site_symmetry_multiplicity
 _atom_site_fract_x
 _atom_site_fract_y
 _atom_site_fract_z
 _atom_site_occupancy
  Co  Co0  1  0.75000000  0.75000000  0.00000000  1
  Co  Co1  1  0.25000000  0.25000000  0.00000000  1
  Sn  Sn2  1  0.66615000  0.16615000  0.83230000  1
  Sn  Sn3  1  0.33385000  0.83385000  0.16770000  1
  Sn  Sn4  1  0.83385000  0.66615000  0.50000000  1
  Sn  Sn5  1  0.16615000  0.33385000  0.50000000  1
