# generated using pymatgen
data_SmGePt
_symmetry_space_group_name_H-M   'P 1'
_cell_length_a   4.43917000
_cell_length_b   7.20483800
_cell_length_c   7.70077400
_cell_angle_alpha   90.00000000
_cell_angle_beta   90.00000000
_cell_angle_gamma   90.00000000
_symmetry_Int_Tables_number   1
_chemical_formula_structural   SmGePt
_chemical_formula_sum   'Sm4 Ge4 Pt4'
_cell_volume   246.29771065
_cell_formula_units_Z   4
loop_
 _symmetry_equiv_pos_site_id
 _symmetry_equiv_pos_as_xyz
  1  'x, y, z'
loop_
 _atom_site_type_symbol
 _atom_site_label
 _atom_site_symmetry_multiplicity
 _atom_site_fract_x
 _atom_site_fract_y
 _atom_site_fract_z
 _atom_site_occupancy
  Sm  Sm0  1  0.75000000  0.99661200  0.29350900  1
  Sm  Sm1  1  0.25000000  0.00338800  0.70649100  1
  Sm  Sm2  1  0.25000000  0.50338800  0.79350900  1
  Sm  Sm3  1  0.75000000  0.49661200  0.20649100  1
  Ge  Ge4  1  0.75000000  0.80651700  0.91177400  1
  Ge  Ge5  1  0.25000000  0.69348300  0.41177400  1
  Ge  Ge6  1  0.25000000  0.19348300  0.08822600  1
  Ge  Ge7  1  0.75000000  0.30651700  0.58822600  1
  Pt  Pt8  1  0.75000000  0.20405200  0.91618000  1
  Pt  Pt9  1  0.25000000  0.29594800  0.41618000  1
  Pt  Pt10  1  0.25000000  0.79594800  0.08382000  1
  Pt  Pt11  1  0.75000000  0.70405200  0.58382000  1
