# generated using pymatgen
data_Na2CoGeO4
_symmetry_space_group_name_H-M   'P 1'
_cell_length_a   6.25639500
_cell_length_b   8.47180649
_cell_length_c   8.47170594
_cell_angle_alpha   80.30135640
_cell_angle_beta   89.99988176
_cell_angle_gamma   89.99933316
_symmetry_Int_Tables_number   1
_chemical_formula_structural   Na2CoGeO4
_chemical_formula_sum   'Na8 Co4 Ge4 O16'
_cell_volume   442.60784024
_cell_formula_units_Z   4
loop_
 _symmetry_equiv_pos_site_id
 _symmetry_equiv_pos_as_xyz
  1  'x, y, z'
loop_
 _atom_site_type_symbol
 _atom_site_label
 _atom_site_symmetry_multiplicity
 _atom_site_fract_x
 _atom_site_fract_y
 _atom_site_fract_z
 _atom_site_occupancy
  Na  Na0  1  0.33448500  0.86999800  0.37909500  1
  Na  Na1  1  0.33448500  0.36999700  0.87909600  1
  Na  Na2  1  0.33449200  0.12090300  0.62999600  1
  Na  Na3  1  0.33449200  0.62090200  0.12999600  1
  Na  Na4  1  0.66551100  0.37000800  0.37909300  1
  Na  Na5  1  0.66551100  0.87000800  0.87909400  1
  Na  Na6  1  0.66550600  0.12090300  0.13000100  1
  Na  Na7  1  0.66550700  0.62090400  0.63000100  1
  Co  Co8  1  0.14822500  0.99840700  0.00158200  1
  Co  Co9  1  0.85177200  0.49841700  0.00157400  1
  Co  Co10  1  0.14822800  0.49841100  0.50158000  1
  Co  Co11  1  0.85177200  0.99841800  0.50157500  1
  Ge  Ge12  1  0.84801000  0.75017400  0.24983100  1
  Ge  Ge13  1  0.84801400  0.25017500  0.74982900  1
  Ge  Ge14  1  0.15198800  0.75017600  0.74982500  1
  Ge  Ge15  1  0.15199100  0.25017600  0.24982600  1
  O  O16  1  0.12697800  0.91243700  0.58755500  1
  O  O17  1  0.12698100  0.41243900  0.08755500  1
  O  O18  1  0.87302700  0.91243700  0.08755700  1
  O  O19  1  0.87302300  0.41243700  0.58755700  1
  O  O20  1  0.10386400  0.17958100  0.82043100  1
  O  O21  1  0.10387000  0.67957700  0.32043300  1
  O  O22  1  0.89613200  0.17958400  0.32042900  1
  O  O23  1  0.89613200  0.67958600  0.82042900  1
  O  O24  1  0.69925800  0.09495400  0.67648600  1
  O  O25  1  0.69925600  0.59495600  0.17648600  1
  O  O26  1  0.30074500  0.09495300  0.17648800  1
  O  O27  1  0.30074300  0.59495100  0.67648800  1
  O  O28  1  0.30075900  0.32353200  0.40502600  1
  O  O29  1  0.30075900  0.82353300  0.90502800  1
  O  O30  1  0.69924200  0.82353400  0.40502700  1
  O  O31  1  0.69924200  0.32353300  0.90503000  1
