data_image0
_chemical_formula_structural       Al2C2W4
_chemical_formula_sum              "Al2 C2 W4"
_cell_length_a       3.01029
_cell_length_b       3.01027
_cell_length_c       13.6685
_cell_angle_alpha    90
_cell_angle_beta     90
_cell_angle_gamma    120

_space_group_name_H-M_alt    "P 1"
_space_group_IT_number       1

loop_
  _space_group_symop_operation_xyz
  'x, y, z'

loop_
  _atom_site_type_symbol
  _atom_site_label
  _atom_site_symmetry_multiplicity
  _atom_site_fract_x
  _atom_site_fract_y
  _atom_site_fract_z
  _atom_site_occupancy
  Al  Al1       1.0  0.66700  0.33300  0.25000  1.0000
  Al  Al2       1.0  0.33300  0.66700  0.75000  1.0000
  C   C1        1.0  0.00000  0.00000  0.00000  1.0000
  C   C2        1.0  0.00000  0.00000  0.50000  1.0000
  W   W1        1.0  0.33300  0.66700  0.09060  1.0000
  W   W2        1.0  0.33300  0.66700  0.40900  1.0000
  W   W3        1.0  0.66700  0.33300  0.59100  1.0000
  W   W4        1.0  0.66700  0.33300  0.90900  1.0000
