# generated using pymatgen
data_CeAl
_symmetry_space_group_name_H-M   'P 1'
_cell_length_a   5.99084325
_cell_length_b   5.99084325
_cell_length_c   5.37226800
_cell_angle_alpha   90.00000000
_cell_angle_beta   90.00000000
_cell_angle_gamma   102.72998094
_symmetry_Int_Tables_number   1
_chemical_formula_structural   CeAl
_chemical_formula_sum   'Ce4 Al4'
_cell_volume   188.07235325
_cell_formula_units_Z   4
loop_
 _symmetry_equiv_pos_site_id
 _symmetry_equiv_pos_as_xyz
  1  'x, y, z'
loop_
 _atom_site_type_symbol
 _atom_site_label
 _atom_site_symmetry_multiplicity
 _atom_site_fract_x
 _atom_site_fract_y
 _atom_site_fract_z
 _atom_site_occupancy
  Ce  Ce0  1  0.98631000  0.36862600  0.25000000  1
  Ce  Ce1  1  0.01369000  0.63137400  0.75000000  1
  Ce  Ce2  1  0.36862600  0.98631000  0.25000000  1
  Ce  Ce3  1  0.63137400  0.01369000  0.75000000  1
  Al  Al4  1  0.82641000  0.82641000  0.25000000  1
  Al  Al5  1  0.17359000  0.17359000  0.75000000  1
  Al  Al6  1  0.50000000  0.50000000  0.00000000  1
  Al  Al7  1  0.50000000  0.50000000  0.50000000  1
