# generated using pymatgen
data_V(PO3)3
_symmetry_space_group_name_H-M   'P 1'
_cell_length_a   7.48248781
_cell_length_b   7.48248781
_cell_length_c   9.62300523
_cell_angle_alpha   57.37460699
_cell_angle_beta   57.37460699
_cell_angle_gamma   51.98911634
_symmetry_Int_Tables_number   1
_chemical_formula_structural   V(PO3)3
_chemical_formula_sum   'V2 P6 O18'
_cell_volume   339.65002953
_cell_formula_units_Z   2
loop_
 _symmetry_equiv_pos_site_id
 _symmetry_equiv_pos_as_xyz
  1  'x, y, z'
loop_
 _atom_site_type_symbol
 _atom_site_label
 _atom_site_symmetry_multiplicity
 _atom_site_fract_x
 _atom_site_fract_y
 _atom_site_fract_z
 _atom_site_occupancy
  V  V0  1  0.49419200  0.01161300  0.39498000  1
  V  V1  1  0.01161300  0.49419200  0.89498000  1
  P  P2  1  0.29000900  0.49274100  0.07001800  1
  P  P3  1  0.49274100  0.29000900  0.57001800  1
  P  P4  1  0.05359200  0.94114100  0.15801500  1
  P  P5  1  0.94114100  0.05359200  0.65801500  1
  P  P6  1  0.52666800  0.69939100  0.22027300  1
  P  P7  1  0.69939100  0.52666800  0.72027300  1
  O  O8  1  0.41345100  0.33214300  0.20595300  1
  O  O9  1  0.33214300  0.41345100  0.70595300  1
  O  O10  1  0.46657100  0.56651100  0.88454500  1
  O  O11  1  0.56651100  0.46657100  0.38454500  1
  O  O12  1  0.74744900  0.10429100  0.59907800  1
  O  O13  1  0.10429100  0.74744900  0.09907800  1
  O  O14  1  0.67517300  0.62109800  0.06083100  1
  O  O15  1  0.62109800  0.67517300  0.56083100  1
  O  O16  1  0.81076300  0.24966300  0.74871700  1
  O  O17  1  0.24966300  0.81076300  0.24871700  1
  O  O18  1  0.07802600  0.14622700  0.99802600  1
  O  O19  1  0.14622700  0.07802600  0.49802600  1
  O  O20  1  0.82099600  0.98835200  0.30137300  1
  O  O21  1  0.98835200  0.82099600  0.80137300  1
  O  O22  1  0.56533500  0.86567700  0.23043800  1
  O  O23  1  0.86567700  0.56533500  0.73043800  1
  O  O24  1  0.40872000  0.16020600  0.56075400  1
  O  O25  1  0.16020600  0.40872000  0.06075400  1
