# generated using pymatgen
data_VO2
_symmetry_space_group_name_H-M   'P 1'
_cell_length_a   3.85210828
_cell_length_b   6.36554426
_cell_length_c   6.36660608
_cell_angle_alpha   84.74218947
_cell_angle_beta   107.60927944
_cell_angle_gamma   107.61233086
_symmetry_Int_Tables_number   1
_chemical_formula_structural   VO2
_chemical_formula_sum   'V4 O8'
_cell_volume   141.82395416
_cell_formula_units_Z   4
loop_
 _symmetry_equiv_pos_site_id
 _symmetry_equiv_pos_as_xyz
  1  'x, y, z'
loop_
 _atom_site_type_symbol
 _atom_site_label
 _atom_site_symmetry_multiplicity
 _atom_site_fract_x
 _atom_site_fract_y
 _atom_site_fract_z
 _atom_site_occupancy
  V  V0  1  0.00282100  0.29920700  0.70643600  1
  V  V1  1  0.99717900  0.70079300  0.29356400  1
  V  V2  1  0.29635600  0.29351300  0.29920000  1
  V  V3  1  0.70364400  0.70648700  0.70080000  1
  O  O4  1  0.84475000  0.00243300  0.68706600  1
  O  O5  1  0.15761300  0.31284100  0.00238400  1
  O  O6  1  0.15525000  0.99756700  0.31293400  1
  O  O7  1  0.84238700  0.68715900  0.99761600  1
  O  O8  1  0.49855500  0.64763000  0.34948000  1
  O  O9  1  0.50144500  0.35237000  0.65052000  1
  O  O10  1  0.85092500  0.34954000  0.35231000  1
  O  O11  1  0.14907500  0.65046000  0.64769000  1
