# generated using pymatgen
data_Y(CO2)3
_symmetry_space_group_name_H-M   'P 1'
_cell_length_a   6.21578247
_cell_length_b   6.21578247
_cell_length_c   6.21578263
_cell_angle_alpha   115.53557215
_cell_angle_beta   115.53557215
_cell_angle_gamma   115.53558801
_symmetry_Int_Tables_number   1
_chemical_formula_structural   Y(CO2)3
_chemical_formula_sum   'Y1 C3 O6'
_cell_volume   127.60370004
_cell_formula_units_Z   1
loop_
 _symmetry_equiv_pos_site_id
 _symmetry_equiv_pos_as_xyz
  1  'x, y, z'
loop_
 _atom_site_type_symbol
 _atom_site_label
 _atom_site_symmetry_multiplicity
 _atom_site_fract_x
 _atom_site_fract_y
 _atom_site_fract_z
 _atom_site_occupancy
  Y  Y0  1  0.00049400  0.00049400  0.00049400  1
  C  C1  1  0.61839800  0.16088700  0.61839800  1
  C  C2  1  0.61839800  0.61839800  0.16088700  1
  C  C3  1  0.16088700  0.61839800  0.61839800  1
  O  O4  1  0.87719400  0.26887100  0.87719400  1
  O  O5  1  0.87719400  0.87719400  0.26887100  1
  O  O6  1  0.26887100  0.87719400  0.87719400  1
  O  O7  1  0.58367600  0.33271000  0.58367600  1
  O  O8  1  0.58367600  0.58367600  0.33271000  1
  O  O9  1  0.33271000  0.58367600  0.58367600  1
