# generated using pymatgen
data_SmGeRu
_symmetry_space_group_name_H-M   'P 1'
_cell_length_a   4.53130600
_cell_length_b   7.21553300
_cell_length_c   7.21641600
_cell_angle_alpha   90.00000000
_cell_angle_beta   90.00000000
_cell_angle_gamma   90.00000000
_symmetry_Int_Tables_number   1
_chemical_formula_structural   SmGeRu
_chemical_formula_sum   'Sm4 Ge4 Ru4'
_cell_volume   235.94640748
_cell_formula_units_Z   4
loop_
 _symmetry_equiv_pos_site_id
 _symmetry_equiv_pos_as_xyz
  1  'x, y, z'
loop_
 _atom_site_type_symbol
 _atom_site_label
 _atom_site_symmetry_multiplicity
 _atom_site_fract_x
 _atom_site_fract_y
 _atom_site_fract_z
 _atom_site_occupancy
  Sm  Sm0  1  0.25000000  0.18825800  0.97936900  1
  Sm  Sm1  1  0.75000000  0.81174200  0.02063100  1
  Sm  Sm2  1  0.75000000  0.68825800  0.52063100  1
  Sm  Sm3  1  0.25000000  0.31174200  0.47936900  1
  Ge  Ge4  1  0.25000000  0.89398100  0.30273300  1
  Ge  Ge5  1  0.75000000  0.10601900  0.69726700  1
  Ge  Ge6  1  0.75000000  0.39398100  0.19726700  1
  Ge  Ge7  1  0.25000000  0.60601900  0.80273300  1
  Ru  Ru8  1  0.25000000  0.56690300  0.15149700  1
  Ru  Ru9  1  0.75000000  0.43309700  0.84850300  1
  Ru  Ru10  1  0.75000000  0.06690300  0.34850300  1
  Ru  Ru11  1  0.25000000  0.93309700  0.65149700  1
