# generated using pymatgen
data_U(CoP)2
_symmetry_space_group_name_H-M   'P 1'
_cell_length_a   4.21087400
_cell_length_b   4.21087400
_cell_length_c   8.30296900
_cell_angle_alpha   90.00000000
_cell_angle_beta   90.00000000
_cell_angle_gamma   90.00000000
_symmetry_Int_Tables_number   1
_chemical_formula_structural   U(CoP)2
_chemical_formula_sum   'U2 Co4 P4'
_cell_volume   147.22376141
_cell_formula_units_Z   2
loop_
 _symmetry_equiv_pos_site_id
 _symmetry_equiv_pos_as_xyz
  1  'x, y, z'
loop_
 _atom_site_type_symbol
 _atom_site_label
 _atom_site_symmetry_multiplicity
 _atom_site_fract_x
 _atom_site_fract_y
 _atom_site_fract_z
 _atom_site_occupancy
  U  U0  1  0.00000000  0.50000000  0.78211600  1
  U  U1  1  0.50000000  0.00000000  0.21788400  1
  Co  Co2  1  0.00000000  0.50000000  0.15103600  1
  Co  Co3  1  0.50000000  0.50000000  0.00000000  1
  Co  Co4  1  0.00000000  0.00000000  0.00000000  1
  Co  Co5  1  0.50000000  0.00000000  0.84896400  1
  P  P6  1  0.50000000  0.50000000  0.50000000  1
  P  P7  1  0.00000000  0.00000000  0.50000000  1
  P  P8  1  0.50000000  0.00000000  0.59988400  1
  P  P9  1  0.00000000  0.50000000  0.40011600  1
