# generated using pymatgen
data_PbO2
_symmetry_space_group_name_H-M   'P 1'
_cell_length_a   5.10077100
_cell_length_b   5.57847300
_cell_length_c   6.07261600
_cell_angle_alpha   90.00000000
_cell_angle_beta   90.00000000
_cell_angle_gamma   90.00000000
_symmetry_Int_Tables_number   1
_chemical_formula_structural   PbO2
_chemical_formula_sum   'Pb4 O8'
_cell_volume   172.79333275
_cell_formula_units_Z   4
loop_
 _symmetry_equiv_pos_site_id
 _symmetry_equiv_pos_as_xyz
  1  'x, y, z'
loop_
 _atom_site_type_symbol
 _atom_site_label
 _atom_site_symmetry_multiplicity
 _atom_site_fract_x
 _atom_site_fract_y
 _atom_site_fract_z
 _atom_site_occupancy
  Pb  Pb0  1  0.50000000  0.75000000  0.17594200  1
  Pb  Pb1  1  0.00000000  0.25000000  0.32405800  1
  Pb  Pb2  1  0.50000000  0.25000000  0.82405800  1
  Pb  Pb3  1  0.00000000  0.75000000  0.67594200  1
  O  O4  1  0.26659100  0.42770400  0.09645700  1
  O  O5  1  0.76659100  0.57229600  0.40354300  1
  O  O6  1  0.23340900  0.92770400  0.40354300  1
  O  O7  1  0.73340900  0.07229600  0.09645700  1
  O  O8  1  0.26659100  0.92770400  0.90354300  1
  O  O9  1  0.76659100  0.07229600  0.59645700  1
  O  O10  1  0.23340900  0.42770400  0.59645700  1
  O  O11  1  0.73340900  0.57229600  0.90354300  1
