# generated using pymatgen
data_Yb(NdS2)2
_symmetry_space_group_name_H-M   'P 1'
_cell_length_a   7.83980912
_cell_length_b   7.83980912
_cell_length_c   12.41945300
_cell_angle_alpha   90.00000000
_cell_angle_beta   90.00000000
_cell_angle_gamma   148.56671495
_symmetry_Int_Tables_number   1
_chemical_formula_structural   Yb(NdS2)2
_chemical_formula_sum   'Yb2 Nd4 S8'
_cell_volume   398.08173876
_cell_formula_units_Z   2
loop_
 _symmetry_equiv_pos_site_id
 _symmetry_equiv_pos_as_xyz
  1  'x, y, z'
loop_
 _atom_site_type_symbol
 _atom_site_label
 _atom_site_symmetry_multiplicity
 _atom_site_fract_x
 _atom_site_fract_y
 _atom_site_fract_z
 _atom_site_occupancy
  Yb  Yb0  1  0.92732900  0.07267100  0.75000000  1
  Yb  Yb1  1  0.07267100  0.92732900  0.25000000  1
  Nd  Nd2  1  0.40783400  0.07421800  0.89745300  1
  Nd  Nd3  1  0.92578200  0.59216600  0.60254700  1
  Nd  Nd4  1  0.59216600  0.92578200  0.39745300  1
  Nd  Nd5  1  0.07421800  0.40783400  0.10254700  1
  S  S6  1  0.31898500  0.20659600  0.63148500  1
  S  S7  1  0.95051200  0.55004400  0.38249900  1
  S  S8  1  0.55004400  0.95051200  0.61750100  1
  S  S9  1  0.04948800  0.44995600  0.88249900  1
  S  S10  1  0.79340400  0.68101500  0.86851500  1
  S  S11  1  0.68101500  0.79340400  0.13148500  1
  S  S12  1  0.20659600  0.31898500  0.36851500  1
  S  S13  1  0.44995600  0.04948800  0.11750100  1
