# generated using pymatgen
data_YbCeSe3
_symmetry_space_group_name_H-M   'P 1'
_cell_length_a   7.22466572
_cell_length_b   7.22466572
_cell_length_c   9.66128000
_cell_angle_alpha   90.00000000
_cell_angle_beta   90.00000000
_cell_angle_gamma   147.56307421
_symmetry_Int_Tables_number   1
_chemical_formula_structural   YbCeSe3
_chemical_formula_sum   'Yb2 Ce2 Se6'
_cell_volume   270.48011175
_cell_formula_units_Z   2
loop_
 _symmetry_equiv_pos_site_id
 _symmetry_equiv_pos_as_xyz
  1  'x, y, z'
loop_
 _atom_site_type_symbol
 _atom_site_label
 _atom_site_symmetry_multiplicity
 _atom_site_fract_x
 _atom_site_fract_y
 _atom_site_fract_z
 _atom_site_occupancy
  Yb  Yb0  1  0.00000000  0.00000000  0.00000000  1
  Yb  Yb1  1  0.00000000  0.00000000  0.50000000  1
  Ce  Ce2  1  0.24866000  0.75134000  0.75000000  1
  Ce  Ce3  1  0.75134000  0.24866000  0.25000000  1
  Se  Se4  1  0.10593900  0.89406100  0.25000000  1
  Se  Se5  1  0.89406100  0.10593900  0.75000000  1
  Se  Se6  1  0.64969100  0.35030900  0.57014100  1
  Se  Se7  1  0.35030900  0.64969100  0.42985900  1
  Se  Se8  1  0.64969100  0.35030900  0.92985900  1
  Se  Se9  1  0.35030900  0.64969100  0.07014100  1
