# generated using pymatgen
data_Na2FeNiF7
_symmetry_space_group_name_H-M   'P 1'
_cell_length_a   7.39679489
_cell_length_b   7.39679489
_cell_length_c   7.39679489
_cell_angle_alpha   120.92134701
_cell_angle_beta   118.60241870
_cell_angle_gamma   90.42457528
_symmetry_Int_Tables_number   1
_chemical_formula_structural   Na2FeNiF7
_chemical_formula_sum   'Na4 Fe2 Ni2 F14'
_cell_volume   287.04019961
_cell_formula_units_Z   2
loop_
 _symmetry_equiv_pos_site_id
 _symmetry_equiv_pos_as_xyz
  1  'x, y, z'
loop_
 _atom_site_type_symbol
 _atom_site_label
 _atom_site_symmetry_multiplicity
 _atom_site_fract_x
 _atom_site_fract_y
 _atom_site_fract_z
 _atom_site_occupancy
  Na  Na0  1  0.50000000  0.50000000  0.00000000  1
  Na  Na1  1  0.00000000  0.00000000  0.00000000  1
  Na  Na2  1  0.50000000  0.00000000  0.00000000  1
  Na  Na3  1  0.50000000  0.50000000  0.50000000  1
  Fe  Fe4  1  0.00000000  0.50000000  0.50000000  1
  Fe  Fe5  1  0.50000000  0.00000000  0.50000000  1
  Ni  Ni6  1  0.00000000  0.00000000  0.50000000  1
  Ni  Ni7  1  0.00000000  0.50000000  0.00000000  1
  F  F8  1  0.94712000  0.58395900  0.76291200  1
  F  F9  1  0.05288000  0.81579200  0.63683900  1
  F  F10  1  0.67895300  0.91604100  0.36316100  1
  F  F11  1  0.32104700  0.68420800  0.23708800  1
  F  F12  1  0.05288000  0.41604100  0.23708800  1
  F  F13  1  0.94712000  0.18420800  0.36316100  1
  F  F14  1  0.32104700  0.08395900  0.63683900  1
  F  F15  1  0.67895300  0.31579200  0.76291200  1
  F  F16  1  0.10289500  0.25000000  0.85289500  1
  F  F17  1  0.89710500  0.75000000  0.14710500  1
  F  F18  1  0.36113800  0.09128600  0.26985100  1
  F  F19  1  0.63886200  0.90871400  0.73014900  1
  F  F20  1  0.67856500  0.40871400  0.26985100  1
  F  F21  1  0.32143500  0.59128600  0.73014900  1
