# generated using pymatgen
data_NpSi
_symmetry_space_group_name_H-M   'P 1'
_cell_length_a   2.57272800
_cell_length_b   5.47006000
_cell_length_c   9.53907000
_cell_angle_alpha   90.00000000
_cell_angle_beta   90.00000000
_cell_angle_gamma   90.00000000
_symmetry_Int_Tables_number   1
_chemical_formula_structural   NpSi
_chemical_formula_sum   'Np4 Si4'
_cell_volume   134.24310817
_cell_formula_units_Z   4
loop_
 _symmetry_equiv_pos_site_id
 _symmetry_equiv_pos_as_xyz
  1  'x, y, z'
loop_
 _atom_site_type_symbol
 _atom_site_label
 _atom_site_symmetry_multiplicity
 _atom_site_fract_x
 _atom_site_fract_y
 _atom_site_fract_z
 _atom_site_occupancy
  Np  Np0  1  0.25000000  0.43299700  0.72934200  1
  Np  Np1  1  0.75000000  0.56700300  0.27065800  1
  Np  Np2  1  0.75000000  0.93299700  0.77065800  1
  Np  Np3  1  0.25000000  0.06700300  0.22934200  1
  Si  Si4  1  0.25000000  0.80422600  0.50936500  1
  Si  Si5  1  0.75000000  0.19577400  0.49063500  1
  Si  Si6  1  0.75000000  0.30422600  0.99063500  1
  Si  Si7  1  0.25000000  0.69577400  0.00936500  1
