# generated using pymatgen
data_Nd(GePt)2
_symmetry_space_group_name_H-M   'P 1'
_cell_length_a   5.91008704
_cell_length_b   5.91008704
_cell_length_c   5.91008704
_cell_angle_alpha   136.08680386
_cell_angle_beta   136.08680386
_cell_angle_gamma   63.84616363
_symmetry_Int_Tables_number   1
_chemical_formula_structural   Nd(GePt)2
_chemical_formula_sum   'Nd1 Ge2 Pt2'
_cell_volume   97.98202752
_cell_formula_units_Z   1
loop_
 _symmetry_equiv_pos_site_id
 _symmetry_equiv_pos_as_xyz
  1  'x, y, z'
loop_
 _atom_site_type_symbol
 _atom_site_label
 _atom_site_symmetry_multiplicity
 _atom_site_fract_x
 _atom_site_fract_y
 _atom_site_fract_z
 _atom_site_occupancy
  Nd  Nd0  1  0.00000000  0.00000000  0.00000000  1
  Ge  Ge1  1  0.37417100  0.37417100  0.00000000  1
  Ge  Ge2  1  0.62582900  0.62582900  0.00000000  1
  Pt  Pt3  1  0.75000000  0.25000000  0.50000000  1
  Pt  Pt4  1  0.25000000  0.75000000  0.50000000  1
