# generated using pymatgen
data_Fe2GeS4
_symmetry_space_group_name_H-M   'P 1'
_cell_length_a   5.59987000
_cell_length_b   6.77453200
_cell_length_c   11.69167100
_cell_angle_alpha   90.00000000
_cell_angle_beta   90.00000000
_cell_angle_gamma   90.00000000
_symmetry_Int_Tables_number   1
_chemical_formula_structural   Fe2GeS4
_chemical_formula_sum   'Fe8 Ge4 S16'
_cell_volume   443.54105948
_cell_formula_units_Z   4
loop_
 _symmetry_equiv_pos_site_id
 _symmetry_equiv_pos_as_xyz
  1  'x, y, z'
loop_
 _atom_site_type_symbol
 _atom_site_label
 _atom_site_symmetry_multiplicity
 _atom_site_fract_x
 _atom_site_fract_y
 _atom_site_fract_z
 _atom_site_occupancy
  Fe  Fe0  1  0.00000000  0.00000000  0.00000000  1
  Fe  Fe1  1  0.50000000  0.00000000  0.50000000  1
  Fe  Fe2  1  0.00000000  0.50000000  0.00000000  1
  Fe  Fe3  1  0.50000000  0.50000000  0.50000000  1
  Fe  Fe4  1  0.99906800  0.75000000  0.73065600  1
  Fe  Fe5  1  0.49906800  0.25000000  0.76934400  1
  Fe  Fe6  1  0.00093200  0.25000000  0.26934400  1
  Fe  Fe7  1  0.50093200  0.75000000  0.23065600  1
  Ge  Ge8  1  0.94147700  0.75000000  0.40694900  1
  Ge  Ge9  1  0.44147700  0.25000000  0.09305100  1
  Ge  Ge10  1  0.05852300  0.25000000  0.59305100  1
  Ge  Ge11  1  0.55852300  0.75000000  0.90694900  1
  S  S12  1  0.75433900  0.75000000  0.07607700  1
  S  S13  1  0.25433900  0.25000000  0.42392300  1
  S  S14  1  0.24566100  0.25000000  0.92392300  1
  S  S15  1  0.74566100  0.75000000  0.57607700  1
  S  S16  1  0.15298100  0.75000000  0.90523800  1
  S  S17  1  0.65298100  0.25000000  0.59476200  1
  S  S18  1  0.84701900  0.25000000  0.09476200  1
  S  S19  1  0.34701900  0.75000000  0.40523800  1
  S  S20  1  0.24089800  0.50930000  0.16787200  1
  S  S21  1  0.74089800  0.49070000  0.33212800  1
  S  S22  1  0.75910200  0.00930000  0.83212800  1
  S  S23  1  0.25910200  0.99070000  0.66787200  1
  S  S24  1  0.74089800  0.00930000  0.33212800  1
  S  S25  1  0.24089800  0.99070000  0.16787200  1
  S  S26  1  0.25910200  0.50930000  0.66787200  1
  S  S27  1  0.75910200  0.49070000  0.83212800  1
