# generated using pymatgen
data_EuAl
_symmetry_space_group_name_H-M   'P 1'
_cell_length_a   6.64492830
_cell_length_b   6.64492830
_cell_length_c   4.67049800
_cell_angle_alpha   90.00000000
_cell_angle_beta   90.00000000
_cell_angle_gamma   143.48064340
_symmetry_Int_Tables_number   1
_chemical_formula_structural   EuAl
_chemical_formula_sum   'Eu2 Al2'
_cell_volume   122.72402700
_cell_formula_units_Z   2
loop_
 _symmetry_equiv_pos_site_id
 _symmetry_equiv_pos_as_xyz
  1  'x, y, z'
loop_
 _atom_site_type_symbol
 _atom_site_label
 _atom_site_symmetry_multiplicity
 _atom_site_fract_x
 _atom_site_fract_y
 _atom_site_fract_z
 _atom_site_occupancy
  Eu  Eu0  1  0.34851300  0.65148700  0.75000000  1
  Eu  Eu1  1  0.65148700  0.34851300  0.25000000  1
  Al  Al2  1  0.06038600  0.93961400  0.75000000  1
  Al  Al3  1  0.93961400  0.06038600  0.25000000  1
