# generated using pymatgen
data_LaYbS3
_symmetry_space_group_name_H-M   'P 1'
_cell_length_a   7.16716400
_cell_length_b   7.76352900
_cell_length_c   8.96841000
_cell_angle_alpha   90.00000000
_cell_angle_beta   90.00000000
_cell_angle_gamma   90.00000000
_symmetry_Int_Tables_number   1
_chemical_formula_structural   LaYbS3
_chemical_formula_sum   'La4 Yb4 S12'
_cell_volume   499.02462394
_cell_formula_units_Z   4
loop_
 _symmetry_equiv_pos_site_id
 _symmetry_equiv_pos_as_xyz
  1  'x, y, z'
loop_
 _atom_site_type_symbol
 _atom_site_label
 _atom_site_symmetry_multiplicity
 _atom_site_fract_x
 _atom_site_fract_y
 _atom_site_fract_z
 _atom_site_occupancy
  La  La0  1  0.52101500  0.40239300  0.75000000  1
  La  La1  1  0.47898500  0.59760700  0.25000000  1
  La  La2  1  0.02101500  0.09760700  0.25000000  1
  La  La3  1  0.97898500  0.90239300  0.75000000  1
  Yb  Yb4  1  0.00000000  0.50000000  0.00000000  1
  Yb  Yb5  1  0.00000000  0.50000000  0.50000000  1
  Yb  Yb6  1  0.50000000  0.00000000  0.50000000  1
  Yb  Yb7  1  0.50000000  0.00000000  0.00000000  1
  S  S8  1  0.81515200  0.19236700  0.58357800  1
  S  S9  1  0.18484800  0.80763300  0.08357800  1
  S  S10  1  0.31515200  0.30763300  0.08357800  1
  S  S11  1  0.68484800  0.69236700  0.58357800  1
  S  S12  1  0.81515200  0.19236700  0.91642200  1
  S  S13  1  0.18484800  0.80763300  0.41642200  1
  S  S14  1  0.31515200  0.30763300  0.41642200  1
  S  S15  1  0.68484800  0.69236700  0.91642200  1
  S  S16  1  0.81320700  0.41083100  0.25000000  1
  S  S17  1  0.18679300  0.58916900  0.75000000  1
  S  S18  1  0.31320700  0.08916900  0.75000000  1
  S  S19  1  0.68679300  0.91083100  0.25000000  1
