# generated using pymatgen
data_RbIn5S8
_symmetry_space_group_name_H-M   'P 1'
_cell_length_a   9.85152872
_cell_length_b   9.85152872
_cell_length_c   9.39676487
_cell_angle_alpha   77.98746318
_cell_angle_beta   77.98746318
_cell_angle_gamma   22.99290251
_symmetry_Int_Tables_number   1
_chemical_formula_structural   RbIn5S8
_chemical_formula_sum   'Rb1 In5 S8'
_cell_volume   348.10796112
_cell_formula_units_Z   1
loop_
 _symmetry_equiv_pos_site_id
 _symmetry_equiv_pos_as_xyz
  1  'x, y, z'
loop_
 _atom_site_type_symbol
 _atom_site_label
 _atom_site_symmetry_multiplicity
 _atom_site_fract_x
 _atom_site_fract_y
 _atom_site_fract_z
 _atom_site_occupancy
  Rb  Rb0  1  0.50000000  0.50000000  0.50000000  1
  In  In1  1  0.28828500  0.28828500  0.33917300  1
  In  In2  1  0.35253400  0.35253400  0.91889600  1
  In  In3  1  0.64746600  0.64746600  0.08110400  1
  In  In4  1  0.71171500  0.71171500  0.66082700  1
  In  In5  1  0.00000000  0.00000000  0.00000000  1
  S  S6  1  0.16585700  0.16585700  0.52037100  1
  S  S7  1  0.07366700  0.07366700  0.20723100  1
  S  S8  1  0.92633300  0.92633300  0.79276900  1
  S  S9  1  0.41625500  0.41625500  0.12965300  1
  S  S10  1  0.58374500  0.58374500  0.87034700  1
  S  S11  1  0.23628400  0.23628400  0.84733900  1
  S  S12  1  0.76371600  0.76371600  0.15266100  1
  S  S13  1  0.83414300  0.83414300  0.47962900  1
