# generated using pymatgen
data_Yb2AlB6
_symmetry_space_group_name_H-M   'P 1'
_cell_length_a   3.57951400
_cell_length_b   9.34643400
_cell_length_c   11.52510200
_cell_angle_alpha   90.00000000
_cell_angle_beta   90.00000000
_cell_angle_gamma   90.00000000
_symmetry_Int_Tables_number   1
_chemical_formula_structural   Yb2AlB6
_chemical_formula_sum   'Yb8 Al4 B24'
_cell_volume   385.58025532
_cell_formula_units_Z   4
loop_
 _symmetry_equiv_pos_site_id
 _symmetry_equiv_pos_as_xyz
  1  'x, y, z'
loop_
 _atom_site_type_symbol
 _atom_site_label
 _atom_site_symmetry_multiplicity
 _atom_site_fract_x
 _atom_site_fract_y
 _atom_site_fract_z
 _atom_site_occupancy
  Yb  Yb0  1  0.00000000  0.04868400  0.61445400  1
  Yb  Yb1  1  0.00000000  0.95131600  0.38554600  1
  Yb  Yb2  1  0.00000000  0.54868400  0.88554600  1
  Yb  Yb3  1  0.00000000  0.45131600  0.11445400  1
  Yb  Yb4  1  0.00000000  0.66542700  0.59145400  1
  Yb  Yb5  1  0.00000000  0.33457300  0.40854600  1
  Yb  Yb6  1  0.00000000  0.16542700  0.90854600  1
  Yb  Yb7  1  0.00000000  0.83457300  0.09145400  1
  Al  Al8  1  0.00000000  0.35693600  0.67920200  1
  Al  Al9  1  0.00000000  0.64306400  0.32079800  1
  Al  Al10  1  0.00000000  0.85693600  0.82079800  1
  Al  Al11  1  0.00000000  0.14306400  0.17920200  1
  B  B12  1  0.50000000  0.36279900  0.96216400  1
  B  B13  1  0.50000000  0.63720100  0.03783600  1
  B  B14  1  0.50000000  0.86279900  0.53783600  1
  B  B15  1  0.50000000  0.13720100  0.46216400  1
  B  B16  1  0.50000000  0.01474600  0.78263800  1
  B  B17  1  0.50000000  0.98525400  0.21736200  1
  B  B18  1  0.50000000  0.51474600  0.71736200  1
  B  B19  1  0.50000000  0.48525400  0.28263800  1
  B  B20  1  0.50000000  0.35909000  0.81469700  1
  B  B21  1  0.50000000  0.64091000  0.18530300  1
  B  B22  1  0.50000000  0.85909000  0.68530300  1
  B  B23  1  0.50000000  0.14091000  0.31469700  1
  B  B24  1  0.50000000  0.05134200  0.06635500  1
  B  B25  1  0.50000000  0.94865800  0.93364500  1
  B  B26  1  0.50000000  0.55134200  0.43364500  1
  B  B27  1  0.50000000  0.44865800  0.56635500  1
  B  B28  1  0.50000000  0.24723500  0.07645500  1
  B  B29  1  0.50000000  0.75276500  0.92354500  1
  B  B30  1  0.50000000  0.74723500  0.42354500  1
  B  B31  1  0.50000000  0.25276500  0.57645500  1
  B  B32  1  0.50000000  0.30116100  0.23070100  1
  B  B33  1  0.50000000  0.69883900  0.76929900  1
  B  B34  1  0.50000000  0.80116100  0.26929900  1
  B  B35  1  0.50000000  0.19883900  0.73070100  1
