# generated using pymatgen
data_NaMnO2
_symmetry_space_group_name_H-M   'P 1'
_cell_length_a   2.92115500
_cell_length_b   4.87641500
_cell_length_c   6.42223500
_cell_angle_alpha   90.00000000
_cell_angle_beta   90.00000000
_cell_angle_gamma   90.00000000
_symmetry_Int_Tables_number   1
_chemical_formula_structural   NaMnO2
_chemical_formula_sum   'Na2 Mn2 O4'
_cell_volume   91.48322231
_cell_formula_units_Z   2
loop_
 _symmetry_equiv_pos_site_id
 _symmetry_equiv_pos_as_xyz
  1  'x, y, z'
loop_
 _atom_site_type_symbol
 _atom_site_label
 _atom_site_symmetry_multiplicity
 _atom_site_fract_x
 _atom_site_fract_y
 _atom_site_fract_z
 _atom_site_occupancy
  Na  Na0  1  0.25000100  0.24999900  0.12327900  1
  Na  Na1  1  0.74999900  0.74999900  0.87672000  1
  Mn  Mn2  1  0.25000100  0.24999900  0.62459400  1
  Mn  Mn3  1  0.74999900  0.74999900  0.37540700  1
  O  O4  1  0.74999900  0.24999900  0.41805900  1
  O  O5  1  0.25000100  0.74999900  0.58194100  1
  O  O6  1  0.74999900  0.24999900  0.82833600  1
  O  O7  1  0.25000100  0.74999900  0.17166500  1
