# generated using pymatgen
data_OsN2
_symmetry_space_group_name_H-M   'P 1'
_cell_length_a   2.70135000
_cell_length_b   4.14582800
_cell_length_c   4.95327500
_cell_angle_alpha   90.00000000
_cell_angle_beta   90.00000000
_cell_angle_gamma   90.00000000
_symmetry_Int_Tables_number   1
_chemical_formula_structural   OsN2
_chemical_formula_sum   'Os2 N4'
_cell_volume   55.47337353
_cell_formula_units_Z   2
loop_
 _symmetry_equiv_pos_site_id
 _symmetry_equiv_pos_as_xyz
  1  'x, y, z'
loop_
 _atom_site_type_symbol
 _atom_site_label
 _atom_site_symmetry_multiplicity
 _atom_site_fract_x
 _atom_site_fract_y
 _atom_site_fract_z
 _atom_site_occupancy
  Os  Os0  1  0.50000000  0.50000000  0.50000000  1
  Os  Os1  1  0.00000000  0.00000000  0.00000000  1
  N  N2  1  0.50000000  0.37341000  0.90429900  1
  N  N3  1  0.50000000  0.62659000  0.09570100  1
  N  N4  1  0.00000000  0.12659000  0.40429900  1
  N  N5  1  0.00000000  0.87341000  0.59570100  1
