# generated using pymatgen
data_In2CoS4
_symmetry_space_group_name_H-M   'P 1'
_cell_length_a   7.50241709
_cell_length_b   7.50241709
_cell_length_c   7.50241709
_cell_angle_alpha   60.00000000
_cell_angle_beta   60.00000000
_cell_angle_gamma   60.00000000
_symmetry_Int_Tables_number   1
_chemical_formula_structural   In2CoS4
_chemical_formula_sum   'In4 Co2 S8'
_cell_volume   298.59918383
_cell_formula_units_Z   2
loop_
 _symmetry_equiv_pos_site_id
 _symmetry_equiv_pos_as_xyz
  1  'x, y, z'
loop_
 _atom_site_type_symbol
 _atom_site_label
 _atom_site_symmetry_multiplicity
 _atom_site_fract_x
 _atom_site_fract_y
 _atom_site_fract_z
 _atom_site_occupancy
  In  In0  1  0.62500000  0.12500000  0.12500000  1
  In  In1  1  0.12500000  0.12500000  0.12500000  1
  In  In2  1  0.12500000  0.62500000  0.12500000  1
  In  In3  1  0.12500000  0.12500000  0.62500000  1
  Co  Co4  1  0.50000000  0.50000000  0.50000000  1
  Co  Co5  1  0.75000000  0.75000000  0.75000000  1
  S  S6  1  0.37432000  0.37432000  0.37432000  1
  S  S7  1  0.37296100  0.87568000  0.87568000  1
  S  S8  1  0.87568000  0.87568000  0.37296100  1
  S  S9  1  0.87568000  0.37296100  0.87568000  1
  S  S10  1  0.37432000  0.37432000  0.87703900  1
  S  S11  1  0.37432000  0.87703900  0.37432000  1
  S  S12  1  0.87568000  0.87568000  0.87568000  1
  S  S13  1  0.87703900  0.37432000  0.37432000  1
