data_image0
_chemical_formula_structural       Ga4Pd2Tm2
_chemical_formula_sum              "Ga4 Pd2 Tm2"
_cell_length_a       4.39091
_cell_length_b       5.48252
_cell_length_c       6.62424
_cell_angle_alpha    90
_cell_angle_beta     90
_cell_angle_gamma    66.3939

_space_group_name_H-M_alt    "P 1"
_space_group_IT_number       1

loop_
  _space_group_symop_operation_xyz
  'x, y, z'

loop_
  _atom_site_type_symbol
  _atom_site_label
  _atom_site_symmetry_multiplicity
  _atom_site_fract_x
  _atom_site_fract_y
  _atom_site_fract_z
  _atom_site_occupancy
  Ga  Ga1       1.0  0.37200  0.25600  0.05230  1.0000
  Ga  Ga2       1.0  0.37200  0.25600  0.44800  1.0000
  Ga  Ga3       1.0  0.62800  0.74400  0.55200  1.0000
  Ga  Ga4       1.0  0.62800  0.74400  0.94800  1.0000
  Pd  Pd1       1.0  0.79900  0.40200  0.25000  1.0000
  Pd  Pd2       1.0  0.20100  0.59800  0.75000  1.0000
  Tm  Tm1       1.0  0.08740  0.82500  0.25000  1.0000
  Tm  Tm2       1.0  0.91300  0.17500  0.75000  1.0000
