# generated using pymatgen
data_FePb2(CN)6
_symmetry_space_group_name_H-M   'P 1'
_cell_length_a   7.14527107
_cell_length_b   7.14527107
_cell_length_c   5.81097300
_cell_angle_alpha   90.00000000
_cell_angle_beta   90.00000000
_cell_angle_gamma   119.99999143
_symmetry_Int_Tables_number   1
_chemical_formula_structural   FePb2(CN)6
_chemical_formula_sum   'Fe1 Pb2 C6 N6'
_cell_volume   256.93125947
_cell_formula_units_Z   1
loop_
 _symmetry_equiv_pos_site_id
 _symmetry_equiv_pos_as_xyz
  1  'x, y, z'
loop_
 _atom_site_type_symbol
 _atom_site_label
 _atom_site_symmetry_multiplicity
 _atom_site_fract_x
 _atom_site_fract_y
 _atom_site_fract_z
 _atom_site_occupancy
  Fe  Fe0  1  0.00000000  0.00000000  0.00000000  1
  Pb  Pb1  1  0.66666700  0.33333300  0.43660300  1
  Pb  Pb2  1  0.33333300  0.66666700  0.56339700  1
  C  C3  1  0.23606300  0.18513600  0.81515000  1
  C  C4  1  0.81486400  0.05092700  0.81515000  1
  C  C5  1  0.94907300  0.76393700  0.81515000  1
  C  C6  1  0.05092700  0.23606300  0.18485000  1
  C  C7  1  0.76393700  0.81486400  0.18485000  1
  C  C8  1  0.18513600  0.94907300  0.18485000  1
  N  N9  1  0.69214800  0.07664800  0.70111300  1
  N  N10  1  0.38450000  0.30785200  0.70111300  1
  N  N11  1  0.92335200  0.61550000  0.70111300  1
  N  N12  1  0.30785200  0.92335200  0.29888700  1
  N  N13  1  0.07664800  0.38450000  0.29888700  1
  N  N14  1  0.61550000  0.69214800  0.29888700  1
