# generated using pymatgen
data_RhF3
_symmetry_space_group_name_H-M   'P 1'
_cell_length_a   5.01440242
_cell_length_b   5.01440242
_cell_length_c   7.31985600
_cell_angle_alpha   90.00000000
_cell_angle_beta   90.00000000
_cell_angle_gamma   120.00000552
_symmetry_Int_Tables_number   1
_chemical_formula_structural   RhF3
_chemical_formula_sum   'Rh3 F9'
_cell_volume   159.39383268
_cell_formula_units_Z   3
loop_
 _symmetry_equiv_pos_site_id
 _symmetry_equiv_pos_as_xyz
  1  'x, y, z'
loop_
 _atom_site_type_symbol
 _atom_site_label
 _atom_site_symmetry_multiplicity
 _atom_site_fract_x
 _atom_site_fract_y
 _atom_site_fract_z
 _atom_site_occupancy
  Rh  Rh0  1  0.66666700  0.33333300  0.33943200  1
  Rh  Rh1  1  0.33333300  0.66666700  0.66056800  1
  Rh  Rh2  1  0.00000000  0.00000000  0.00000000  1
  F  F3  1  0.66617300  0.96424100  0.82182500  1
  F  F4  1  0.03575900  0.70193200  0.82182500  1
  F  F5  1  0.29806800  0.33382700  0.82182500  1
  F  F6  1  0.65311400  0.65311400  0.50000000  1
  F  F7  1  0.34688600  0.00000000  0.50000000  1
  F  F8  1  0.00000000  0.34688600  0.50000000  1
  F  F9  1  0.96424100  0.66617300  0.17817500  1
  F  F10  1  0.33382700  0.29806800  0.17817500  1
  F  F11  1  0.70193200  0.03575900  0.17817500  1
