# generated using pymatgen
data_SmSnPt
_symmetry_space_group_name_H-M   'P 1'
_cell_length_a   4.61687600
_cell_length_b   7.38493700
_cell_length_c   8.10256400
_cell_angle_alpha   90.00000000
_cell_angle_beta   90.00000000
_cell_angle_gamma   90.00000000
_symmetry_Int_Tables_number   1
_chemical_formula_structural   SmSnPt
_chemical_formula_sum   'Sm4 Sn4 Pt4'
_cell_volume   276.25966146
_cell_formula_units_Z   4
loop_
 _symmetry_equiv_pos_site_id
 _symmetry_equiv_pos_as_xyz
  1  'x, y, z'
loop_
 _atom_site_type_symbol
 _atom_site_label
 _atom_site_symmetry_multiplicity
 _atom_site_fract_x
 _atom_site_fract_y
 _atom_site_fract_z
 _atom_site_occupancy
  Sm  Sm0  1  0.75000000  0.48878500  0.80349100  1
  Sm  Sm1  1  0.25000000  0.01121500  0.30349100  1
  Sm  Sm2  1  0.75000000  0.98878500  0.69650900  1
  Sm  Sm3  1  0.25000000  0.51121500  0.19650900  1
  Sn  Sn4  1  0.25000000  0.67849900  0.58400400  1
  Sn  Sn5  1  0.25000000  0.17849900  0.91599600  1
  Sn  Sn6  1  0.75000000  0.32150100  0.41599600  1
  Sn  Sn7  1  0.75000000  0.82150100  0.08400400  1
  Pt  Pt8  1  0.25000000  0.78707700  0.90930400  1
  Pt  Pt9  1  0.25000000  0.28707700  0.59069600  1
  Pt  Pt10  1  0.75000000  0.71292300  0.40930400  1
  Pt  Pt11  1  0.75000000  0.21292300  0.09069600  1
