# generated using pymatgen
data_URhS3
_symmetry_space_group_name_H-M   'P 1'
_cell_length_a   6.08346900
_cell_length_b   7.10613100
_cell_length_c   8.45104700
_cell_angle_alpha   90.00000000
_cell_angle_beta   90.00000000
_cell_angle_gamma   90.00000000
_symmetry_Int_Tables_number   1
_chemical_formula_structural   URhS3
_chemical_formula_sum   'U4 Rh4 S12'
_cell_volume   365.33815036
_cell_formula_units_Z   4
loop_
 _symmetry_equiv_pos_site_id
 _symmetry_equiv_pos_as_xyz
  1  'x, y, z'
loop_
 _atom_site_type_symbol
 _atom_site_label
 _atom_site_symmetry_multiplicity
 _atom_site_fract_x
 _atom_site_fract_y
 _atom_site_fract_z
 _atom_site_occupancy
  U  U0  1  0.43395000  0.12537100  0.75000000  1
  U  U1  1  0.93395000  0.37462900  0.25000000  1
  U  U2  1  0.56605000  0.87462900  0.25000000  1
  U  U3  1  0.06605000  0.62537100  0.75000000  1
  Rh  Rh4  1  0.50000000  0.50000000  0.00000000  1
  Rh  Rh5  1  0.00000000  0.00000000  0.00000000  1
  Rh  Rh6  1  0.00000000  0.00000000  0.50000000  1
  Rh  Rh7  1  0.50000000  0.50000000  0.50000000  1
  S  S8  1  0.65656800  0.17910800  0.05428000  1
  S  S9  1  0.84343200  0.67910800  0.44572000  1
  S  S10  1  0.84343200  0.67910800  0.05428000  1
  S  S11  1  0.16528100  0.05709800  0.25000000  1
  S  S12  1  0.15656800  0.32089200  0.55428000  1
  S  S13  1  0.33471900  0.55709800  0.25000000  1
  S  S14  1  0.83471900  0.94290200  0.75000000  1
  S  S15  1  0.15656800  0.32089200  0.94572000  1
  S  S16  1  0.34343200  0.82089200  0.94572000  1
  S  S17  1  0.65656800  0.17910800  0.44572000  1
  S  S18  1  0.66528100  0.44290200  0.75000000  1
  S  S19  1  0.34343200  0.82089200  0.55428000  1
