# generated using pymatgen
data_CeIn2Ir
_symmetry_space_group_name_H-M   'P 1'
_cell_length_a   5.50637279
_cell_length_b   5.50637279
_cell_length_c   8.22432700
_cell_angle_alpha   90.00000000
_cell_angle_beta   90.00000000
_cell_angle_gamma   133.05066882
_symmetry_Int_Tables_number   1
_chemical_formula_structural   CeIn2Ir
_chemical_formula_sum   'Ce2 In4 Ir2'
_cell_volume   182.22190906
_cell_formula_units_Z   2
loop_
 _symmetry_equiv_pos_site_id
 _symmetry_equiv_pos_as_xyz
  1  'x, y, z'
loop_
 _atom_site_type_symbol
 _atom_site_label
 _atom_site_symmetry_multiplicity
 _atom_site_fract_x
 _atom_site_fract_y
 _atom_site_fract_z
 _atom_site_occupancy
  Ce  Ce0  1  0.93159500  0.06840500  0.75000000  1
  Ce  Ce1  1  0.06840500  0.93159500  0.25000000  1
  In  In2  1  0.64360800  0.35639200  0.54991900  1
  In  In3  1  0.35639200  0.64360800  0.45008100  1
  In  In4  1  0.64360800  0.35639200  0.95008100  1
  In  In5  1  0.35639200  0.64360800  0.04991900  1
  Ir  Ir6  1  0.78329400  0.21670600  0.25000000  1
  Ir  Ir7  1  0.21670600  0.78329400  0.75000000  1
