# generated using pymatgen
data_Ce(SnRh)2
_symmetry_space_group_name_H-M   'P 1'
_cell_length_a   4.51695400
_cell_length_b   4.51695400
_cell_length_c   10.71218700
_cell_angle_alpha   90.00000000
_cell_angle_beta   90.00000000
_cell_angle_gamma   90.00000000
_symmetry_Int_Tables_number   1
_chemical_formula_structural   Ce(SnRh)2
_chemical_formula_sum   'Ce2 Sn4 Rh4'
_cell_volume   218.55939561
_cell_formula_units_Z   2
loop_
 _symmetry_equiv_pos_site_id
 _symmetry_equiv_pos_as_xyz
  1  'x, y, z'
loop_
 _atom_site_type_symbol
 _atom_site_label
 _atom_site_symmetry_multiplicity
 _atom_site_fract_x
 _atom_site_fract_y
 _atom_site_fract_z
 _atom_site_occupancy
  Ce  Ce0  1  0.00000000  0.50000000  0.24703200  1
  Ce  Ce1  1  0.50000000  0.00000000  0.75296800  1
  Sn  Sn2  1  0.00000000  0.00000000  0.50000000  1
  Sn  Sn3  1  0.50000000  0.50000000  0.50000000  1
  Sn  Sn4  1  0.00000000  0.50000000  0.87215300  1
  Sn  Sn5  1  0.50000000  0.00000000  0.12784700  1
  Rh  Rh6  1  0.00000000  0.00000000  0.00000000  1
  Rh  Rh7  1  0.50000000  0.50000000  0.00000000  1
  Rh  Rh8  1  0.00000000  0.50000000  0.63235000  1
  Rh  Rh9  1  0.50000000  0.00000000  0.36765000  1
