# generated using pymatgen
data_Ca2MnGaO5
_symmetry_space_group_name_H-M   'P 1'
_cell_length_a   5.40702084
_cell_length_b   5.63315408
_cell_length_c   8.46366360
_cell_angle_alpha   109.43902371
_cell_angle_beta   108.57319423
_cell_angle_gamma   89.99991108
_symmetry_Int_Tables_number   1
_chemical_formula_structural   Ca2MnGaO5
_chemical_formula_sum   'Ca4 Mn2 Ga2 O10'
_cell_volume   228.80907731
_cell_formula_units_Z   2
loop_
 _symmetry_equiv_pos_site_id
 _symmetry_equiv_pos_as_xyz
  1  'x, y, z'
loop_
 _atom_site_type_symbol
 _atom_site_label
 _atom_site_symmetry_multiplicity
 _atom_site_fract_x
 _atom_site_fract_y
 _atom_site_fract_z
 _atom_site_occupancy
  Ca  Ca0  1  0.61155400  0.13687700  0.21956900  1
  Ca  Ca1  1  0.39162200  0.86322600  0.78043200  1
  Ca  Ca2  1  0.11162000  0.58271400  0.21957200  1
  Ca  Ca3  1  0.89167000  0.41719400  0.78043800  1
  Mn  Mn4  1  0.98712600  0.99958600  0.00009900  1
  Mn  Mn5  1  0.48716000  0.50050200  0.00011300  1
  Ga  Ga6  1  0.27737500  0.18322400  0.49995900  1
  Ga  Ga7  1  0.77740300  0.81681900  0.49999200  1
  O  O8  1  0.62962100  0.12666600  0.49996500  1
  O  O9  1  0.12961700  0.87335100  0.49994600  1
  O  O10  1  0.30003000  0.43139700  0.71165600  1
  O  O11  1  0.58973400  0.56796500  0.28837000  1
  O  O12  1  0.80015000  0.78027700  0.71170200  1
  O  O13  1  0.08974200  0.22030300  0.28827800  1
  O  O14  1  0.25788000  0.76515300  0.03005500  1
  O  O15  1  0.22093800  0.22512300  0.96994300  1
  O  O16  1  0.72089500  0.24475700  0.96989600  1
  O  O17  1  0.75786400  0.76487100  0.03002000  1
