# generated using pymatgen
data_Sr4V3O10
_symmetry_space_group_name_H-M   'P 1'
_cell_length_a   14.36597661
_cell_length_b   14.36597661
_cell_length_c   14.36597661
_cell_angle_alpha   164.40131023
_cell_angle_beta   164.40131023
_cell_angle_gamma   22.12909973
_symmetry_Int_Tables_number   1
_chemical_formula_structural   Sr4V3O10
_chemical_formula_sum   'Sr4 V3 O10'
_cell_volume   214.34013628
_cell_formula_units_Z   1
loop_
 _symmetry_equiv_pos_site_id
 _symmetry_equiv_pos_as_xyz
  1  'x, y, z'
loop_
 _atom_site_type_symbol
 _atom_site_label
 _atom_site_symmetry_multiplicity
 _atom_site_fract_x
 _atom_site_fract_y
 _atom_site_fract_z
 _atom_site_occupancy
  Sr  Sr0  1  0.70245400  0.70245400  0.00000000  1
  Sr  Sr1  1  0.29754600  0.29754600  0.00000000  1
  Sr  Sr2  1  0.56851400  0.56851400  0.00000000  1
  Sr  Sr3  1  0.43148600  0.43148600  0.00000000  1
  V  V4  1  0.86082600  0.86082600  0.00000000  1
  V  V5  1  0.13917400  0.13917400  0.00000000  1
  V  V6  1  0.00000000  0.00000000  0.00000000  1
  O  O7  1  0.79092600  0.79092600  0.00000000  1
  O  O8  1  0.20907400  0.20907400  0.00000000  1
  O  O9  1  0.36161300  0.86161300  0.50000000  1
  O  O10  1  0.86161300  0.36161300  0.50000000  1
  O  O11  1  0.63838700  0.13838700  0.50000000  1
  O  O12  1  0.13838700  0.63838700  0.50000000  1
  O  O13  1  0.93132300  0.93132300  0.00000000  1
  O  O14  1  0.00000000  0.50000000  0.50000000  1
  O  O15  1  0.06867700  0.06867700  0.00000000  1
  O  O16  1  0.50000000  0.00000000  0.50000000  1
