# generated using pymatgen
data_Dy2AlGe2
_symmetry_space_group_name_H-M   'P 1'
_cell_length_a   7.01876400
_cell_length_b   7.01876400
_cell_length_c   4.31424500
_cell_angle_alpha   90.00000000
_cell_angle_beta   90.00000000
_cell_angle_gamma   90.00000000
_symmetry_Int_Tables_number   1
_chemical_formula_structural   Dy2AlGe2
_chemical_formula_sum   'Dy4 Al2 Ge4'
_cell_volume   212.53285890
_cell_formula_units_Z   2
loop_
 _symmetry_equiv_pos_site_id
 _symmetry_equiv_pos_as_xyz
  1  'x, y, z'
loop_
 _atom_site_type_symbol
 _atom_site_label
 _atom_site_symmetry_multiplicity
 _atom_site_fract_x
 _atom_site_fract_y
 _atom_site_fract_z
 _atom_site_occupancy
  Dy  Dy0  1  0.32372800  0.82372800  0.50000000  1
  Dy  Dy1  1  0.82372800  0.67627200  0.50000000  1
  Dy  Dy2  1  0.17627200  0.32372800  0.50000000  1
  Dy  Dy3  1  0.67627200  0.17627200  0.50000000  1
  Al  Al4  1  0.50000000  0.50000000  0.00000000  1
  Al  Al5  1  0.00000000  0.00000000  0.00000000  1
  Ge  Ge6  1  0.87060600  0.37060600  0.00000000  1
  Ge  Ge7  1  0.37060600  0.12939400  0.00000000  1
  Ge  Ge8  1  0.12939400  0.62939400  0.00000000  1
  Ge  Ge9  1  0.62939400  0.87060600  0.00000000  1
