# generated using pymatgen
data_K3Fe5F15
_symmetry_space_group_name_H-M   'P 1'
_cell_length_a   12.89793400
_cell_length_b   12.89793400
_cell_length_c   4.05592500
_cell_angle_alpha   90.00000000
_cell_angle_beta   90.00000000
_cell_angle_gamma   90.00000000
_symmetry_Int_Tables_number   1
_chemical_formula_structural   K3Fe5F15
_chemical_formula_sum   'K6 Fe10 F30'
_cell_volume   674.73030440
_cell_formula_units_Z   2
loop_
 _symmetry_equiv_pos_site_id
 _symmetry_equiv_pos_as_xyz
  1  'x, y, z'
loop_
 _atom_site_type_symbol
 _atom_site_label
 _atom_site_symmetry_multiplicity
 _atom_site_fract_x
 _atom_site_fract_y
 _atom_site_fract_z
 _atom_site_occupancy
  K  K0  1  0.67534900  0.82465100  0.50000000  1
  K  K1  1  0.32465100  0.17534900  0.50000000  1
  K  K2  1  0.17534900  0.67534900  0.50000000  1
  K  K3  1  0.82465100  0.32465100  0.50000000  1
  K  K4  1  0.50000000  0.50000000  0.50000000  1
  K  K5  1  0.00000000  0.00000000  0.50000000  1
  Fe  Fe6  1  0.28713400  0.42333300  0.00000000  1
  Fe  Fe7  1  0.71286600  0.57666700  0.00000000  1
  Fe  Fe8  1  0.78713400  0.07666700  0.00000000  1
  Fe  Fe9  1  0.21286600  0.92333300  0.00000000  1
  Fe  Fe10  1  0.57666700  0.28713400  0.00000000  1
  Fe  Fe11  1  0.42333300  0.71286600  0.00000000  1
  Fe  Fe12  1  0.07666700  0.21286600  0.00000000  1
  Fe  Fe13  1  0.92333300  0.78713400  0.00000000  1
  Fe  Fe14  1  0.50000000  0.00000000  0.00000000  1
  Fe  Fe15  1  0.00000000  0.50000000  0.00000000  1
  F  F16  1  0.43001300  0.35862200  0.00000000  1
  F  F17  1  0.56998700  0.64137800  0.00000000  1
  F  F18  1  0.93001300  0.14137800  0.00000000  1
  F  F19  1  0.06998700  0.85862200  0.00000000  1
  F  F20  1  0.64137800  0.43001300  0.00000000  1
  F  F21  1  0.35862200  0.56998700  0.00000000  1
  F  F22  1  0.14137800  0.06998700  0.00000000  1
  F  F23  1  0.85862200  0.93001300  0.00000000  1
  F  F24  1  0.49268700  0.15248800  0.00000000  1
  F  F25  1  0.50731300  0.84751200  0.00000000  1
  F  F26  1  0.99268700  0.34751200  0.00000000  1
  F  F27  1  0.00731300  0.65248800  0.00000000  1
  F  F28  1  0.84751200  0.49268700  0.00000000  1
  F  F29  1  0.15248800  0.50731300  0.00000000  1
  F  F30  1  0.34751200  0.00731300  0.00000000  1
  F  F31  1  0.65248800  0.99268700  0.00000000  1
  F  F32  1  0.00000000  0.50000000  0.50000000  1
  F  F33  1  0.50000000  0.00000000  0.50000000  1
  F  F34  1  0.92375100  0.79087400  0.50000000  1
  F  F35  1  0.07624900  0.20912600  0.50000000  1
  F  F36  1  0.42375100  0.70912600  0.50000000  1
  F  F37  1  0.57624900  0.29087400  0.50000000  1
  F  F38  1  0.72344200  0.22344200  0.00000000  1
  F  F39  1  0.27655800  0.77655800  0.00000000  1
  F  F40  1  0.22344200  0.27655800  0.00000000  1
  F  F41  1  0.77655800  0.72344200  0.00000000  1
  F  F42  1  0.20912600  0.92375100  0.50000000  1
  F  F43  1  0.79087400  0.07624900  0.50000000  1
  F  F44  1  0.70912600  0.57624900  0.50000000  1
  F  F45  1  0.29087400  0.42375100  0.50000000  1
