# generated using pymatgen
data_CeZn(BO2)5
_symmetry_space_group_name_H-M   'P 1'
_cell_length_a   7.68110100
_cell_length_b   8.84800600
_cell_length_c   12.72868710
_cell_angle_alpha   48.59938676
_cell_angle_beta   90.00000000
_cell_angle_gamma   90.00000000
_symmetry_Int_Tables_number   1
_chemical_formula_structural   CeZn(BO2)5
_chemical_formula_sum   'Ce4 Zn4 B20 O40'
_cell_volume   648.89431806
_cell_formula_units_Z   4
loop_
 _symmetry_equiv_pos_site_id
 _symmetry_equiv_pos_as_xyz
  1  'x, y, z'
loop_
 _atom_site_type_symbol
 _atom_site_label
 _atom_site_symmetry_multiplicity
 _atom_site_fract_x
 _atom_site_fract_y
 _atom_site_fract_z
 _atom_site_occupancy
  Ce  Ce0  1  0.31585600  0.94623600  0.73787700  1
  Ce  Ce1  1  0.68414400  0.05376400  0.26212300  1
  Ce  Ce2  1  0.81585600  0.05376400  0.76212300  1
  Ce  Ce3  1  0.18414400  0.94623600  0.23787700  1
  Zn  Zn4  1  0.58790000  0.51291600  0.87706300  1
  Zn  Zn5  1  0.91210000  0.51291600  0.37706300  1
  Zn  Zn6  1  0.41210000  0.48708400  0.12293700  1
  Zn  Zn7  1  0.08790000  0.48708400  0.62293700  1
  B  B8  1  0.40274300  0.15434100  0.99706100  1
  B  B9  1  0.82703800  0.90620300  0.10837500  1
  B  B10  1  0.96720300  0.27068200  0.94673900  1
  B  B11  1  0.32703800  0.09379700  0.39162500  1
  B  B12  1  0.17296200  0.09379700  0.89162500  1
  B  B13  1  0.90274300  0.84565900  0.50293900  1
  B  B14  1  0.53279700  0.27068200  0.44673900  1
  B  B15  1  0.67296200  0.90620300  0.60837500  1
  B  B16  1  0.59725700  0.84565900  0.00293900  1
  B  B17  1  0.58111800  0.64805300  0.26423000  1
  B  B18  1  0.03279700  0.72931800  0.05326100  1
  B  B19  1  0.68477100  0.48643300  0.58542400  1
  B  B20  1  0.09725700  0.15434100  0.49706100  1
  B  B21  1  0.41888200  0.35194700  0.73577000  1
  B  B22  1  0.31522900  0.51356700  0.41457600  1
  B  B23  1  0.81522900  0.48643300  0.08542400  1
  B  B24  1  0.46720300  0.72931800  0.55326100  1
  B  B25  1  0.18477100  0.51356700  0.91457600  1
  B  B26  1  0.08111800  0.35194700  0.23577000  1
  B  B27  1  0.91888200  0.64805300  0.76423000  1
  O  O28  1  0.04213000  0.11576700  0.61384100  1
  O  O29  1  0.97490600  0.76919300  0.14499600  1
  O  O30  1  0.21616500  0.20945500  0.26345400  1
  O  O31  1  0.46338900  0.31669700  0.86571900  1
  O  O32  1  0.45787000  0.11576700  0.11384100  1
  O  O33  1  0.95787000  0.88423300  0.38615900  1
  O  O34  1  0.52509400  0.76919300  0.64499600  1
  O  O35  1  0.65402500  0.43405500  0.06853400  1
  O  O36  1  0.89331100  0.08611500  0.08354900  1
  O  O37  1  0.02509400  0.23080700  0.85500400  1
  O  O38  1  0.22372700  0.02849600  0.51240800  1
  O  O39  1  0.08258700  0.67556300  0.81069300  1
  O  O40  1  0.28383500  0.20945500  0.76345400  1
  O  O41  1  0.10668900  0.91388500  0.91645100  1
  O  O42  1  0.72372700  0.97150400  0.98759200  1
  O  O43  1  0.53661100  0.68330300  0.13428100  1
  O  O44  1  0.58258700  0.32443700  0.68930700  1
  O  O45  1  0.91741300  0.32443700  0.18930700  1
  O  O46  1  0.84802500  0.44338900  0.86977100  1
  O  O47  1  0.39331100  0.91388500  0.41645100  1
  O  O48  1  0.34802500  0.55661100  0.63022900  1
  O  O49  1  0.03661100  0.31669700  0.36571900  1
  O  O50  1  0.15402500  0.56594500  0.43146600  1
  O  O51  1  0.54213000  0.88423300  0.88615900  1
  O  O52  1  0.41741300  0.67556300  0.31069300  1
  O  O53  1  0.60668900  0.08611500  0.58354900  1
  O  O54  1  0.47490600  0.23080700  0.35500400  1
  O  O55  1  0.62588500  0.67986900  0.50977200  1
  O  O56  1  0.65197500  0.44338900  0.36977100  1
  O  O57  1  0.34597500  0.56594500  0.93146600  1
  O  O58  1  0.78383500  0.79054500  0.73654600  1
  O  O59  1  0.37411500  0.32013100  0.49022800  1
  O  O60  1  0.84597500  0.43405500  0.56853400  1
  O  O61  1  0.71616500  0.79054500  0.23654600  1
  O  O62  1  0.15197500  0.55661100  0.13022900  1
  O  O63  1  0.87411500  0.67986900  0.00977200  1
  O  O64  1  0.12588500  0.32013100  0.99022800  1
  O  O65  1  0.27627300  0.02849600  0.01240800  1
  O  O66  1  0.77627300  0.97150400  0.48759200  1
  O  O67  1  0.96338900  0.68330300  0.63428100  1
