# generated using pymatgen
data_Sc(US2)3
_symmetry_space_group_name_H-M   'P 1'
_cell_length_a   3.77200500
_cell_length_b   13.32969100
_cell_length_c   16.39112900
_cell_angle_alpha   90.00000000
_cell_angle_beta   90.00000000
_cell_angle_gamma   90.00000000
_symmetry_Int_Tables_number   1
_chemical_formula_structural   Sc(US2)3
_chemical_formula_sum   'Sc4 U12 S24'
_cell_volume   824.14041117
_cell_formula_units_Z   4
loop_
 _symmetry_equiv_pos_site_id
 _symmetry_equiv_pos_as_xyz
  1  'x, y, z'
loop_
 _atom_site_type_symbol
 _atom_site_label
 _atom_site_symmetry_multiplicity
 _atom_site_fract_x
 _atom_site_fract_y
 _atom_site_fract_z
 _atom_site_occupancy
  Sc  Sc0  1  0.50000000  0.00000000  0.00000000  1
  Sc  Sc1  1  0.00000000  0.50000000  0.50000000  1
  Sc  Sc2  1  0.50000000  0.00000000  0.50000000  1
  Sc  Sc3  1  0.00000000  0.50000000  0.00000000  1
  U  U4  1  0.50000000  0.55080400  0.28327000  1
  U  U5  1  0.50000000  0.44919600  0.71673000  1
  U  U6  1  0.00000000  0.94919600  0.78327000  1
  U  U7  1  0.00000000  0.05080400  0.21673000  1
  U  U8  1  0.50000000  0.25055500  0.90113100  1
  U  U9  1  0.50000000  0.74944500  0.09886900  1
  U  U10  1  0.00000000  0.24944500  0.40113100  1
  U  U11  1  0.00000000  0.75055500  0.59886900  1
  U  U12  1  0.50000000  0.67906700  0.84889800  1
  U  U13  1  0.50000000  0.32093300  0.15110200  1
  U  U14  1  0.00000000  0.82093300  0.34889800  1
  U  U15  1  0.00000000  0.17906700  0.65110200  1
  S  S16  1  0.50000000  0.59260100  0.57850800  1
  S  S17  1  0.50000000  0.40739900  0.42149200  1
  S  S18  1  0.00000000  0.90739900  0.07850800  1
  S  S19  1  0.00000000  0.09260100  0.92149200  1
  S  S20  1  0.50000000  0.87402800  0.89071600  1
  S  S21  1  0.50000000  0.12597200  0.10928400  1
  S  S22  1  0.00000000  0.62597200  0.39071600  1
  S  S23  1  0.00000000  0.37402800  0.60928400  1
  S  S24  1  0.50000000  0.90045700  0.24611600  1
  S  S25  1  0.50000000  0.09954300  0.75388400  1
  S  S26  1  0.00000000  0.59954300  0.74611600  1
  S  S27  1  0.00000000  0.40045700  0.25388400  1
  S  S28  1  0.50000000  0.80990900  0.47574300  1
  S  S29  1  0.50000000  0.19009100  0.52425700  1
  S  S30  1  0.00000000  0.69009100  0.97574300  1
  S  S31  1  0.00000000  0.30990900  0.02425700  1
  S  S32  1  0.50000000  0.52476100  0.10639800  1
  S  S33  1  0.50000000  0.47523900  0.89360200  1
  S  S34  1  0.00000000  0.97523900  0.60639800  1
  S  S35  1  0.00000000  0.02476100  0.39360200  1
  S  S36  1  0.50000000  0.81475500  0.71123400  1
  S  S37  1  0.50000000  0.18524500  0.28876600  1
  S  S38  1  0.00000000  0.68524500  0.21123400  1
  S  S39  1  0.00000000  0.31475500  0.78876600  1
