# generated using pymatgen
data_Ta2CrO6
_symmetry_space_group_name_H-M   'P 1'
_cell_length_a   4.85058400
_cell_length_b   9.70104900
_cell_length_c   9.22265800
_cell_angle_alpha   90.00036947
_cell_angle_beta   90.00026040
_cell_angle_gamma   89.99931489
_symmetry_Int_Tables_number   1
_chemical_formula_structural   Ta2CrO6
_chemical_formula_sum   'Ta8 Cr4 O24'
_cell_volume   433.97911741
_cell_formula_units_Z   4
loop_
 _symmetry_equiv_pos_site_id
 _symmetry_equiv_pos_as_xyz
  1  'x, y, z'
loop_
 _atom_site_type_symbol
 _atom_site_label
 _atom_site_symmetry_multiplicity
 _atom_site_fract_x
 _atom_site_fract_y
 _atom_site_fract_z
 _atom_site_occupancy
  Ta  Ta0  1  0.50007000  0.25000400  0.16750500  1
  Ta  Ta1  1  0.50009600  0.75002900  0.16750100  1
  Ta  Ta2  1  0.00007900  0.99996900  0.66748400  1
  Ta  Ta3  1  0.00009500  0.50000300  0.66748500  1
  Ta  Ta4  1  0.50007400  0.25000500  0.83249200  1
  Ta  Ta5  1  0.50008900  0.75002500  0.83249700  1
  Ta  Ta6  1  0.00007900  0.99996400  0.33251900  1
  Ta  Ta7  1  0.00008800  0.50000300  0.33251300  1
  Cr  Cr8  1  0.49989200  0.75014900  0.49999400  1
  Cr  Cr9  1  0.99977500  0.49981900  0.99999600  1
  Cr  Cr10  1  0.49956100  0.25027900  0.50000200  1
  Cr  Cr11  1  0.99957700  0.99972900  0.00002900  1
  O  O12  1  0.31631900  0.15812800  0.00000000  1
  O  O13  1  0.31636000  0.65815000  0.99999900  1
  O  O14  1  0.18374900  0.40817700  0.49999900  1
  O  O15  1  0.18372800  0.90811000  0.50000000  1
  O  O16  1  0.81630500  0.09184700  0.49999800  1
  O  O17  1  0.81632500  0.59190600  0.49999900  1
  O  O18  1  0.68369600  0.34184500  0.00000000  1
  O  O19  1  0.68373200  0.84184200  0.99999900  1
  O  O20  1  0.29623100  0.14809300  0.32353800  1
  O  O21  1  0.29619800  0.64811100  0.32354900  1
  O  O22  1  0.20385100  0.39812700  0.82353000  1
  O  O23  1  0.20379400  0.89810400  0.82356700  1
  O  O24  1  0.79621200  0.10187600  0.82352600  1
  O  O25  1  0.79621400  0.60192300  0.82350900  1
  O  O26  1  0.79621800  0.10187400  0.17646600  1
  O  O27  1  0.79621300  0.60192400  0.17649400  1
  O  O28  1  0.20384800  0.39813000  0.17646500  1
  O  O29  1  0.20380100  0.89809800  0.17644000  1
  O  O30  1  0.70381900  0.35189800  0.32357300  1
  O  O31  1  0.70384300  0.85188300  0.32356400  1
  O  O32  1  0.29623000  0.14809400  0.67645600  1
  O  O33  1  0.29618500  0.64810600  0.67646100  1
  O  O34  1  0.70381900  0.35189800  0.67642700  1
  O  O35  1  0.70383300  0.85187700  0.67642400  1
