# generated using pymatgen
data_Np3Si2
_symmetry_space_group_name_H-M   'P 1'
_cell_length_a   7.03957200
_cell_length_b   7.03957200
_cell_length_c   3.84480600
_cell_angle_alpha   90.00000000
_cell_angle_beta   90.00000000
_cell_angle_gamma   90.00000000
_symmetry_Int_Tables_number   1
_chemical_formula_structural   Np3Si2
_chemical_formula_sum   'Np6 Si4'
_cell_volume   190.53156803
_cell_formula_units_Z   2
loop_
 _symmetry_equiv_pos_site_id
 _symmetry_equiv_pos_as_xyz
  1  'x, y, z'
loop_
 _atom_site_type_symbol
 _atom_site_label
 _atom_site_symmetry_multiplicity
 _atom_site_fract_x
 _atom_site_fract_y
 _atom_site_fract_z
 _atom_site_occupancy
  Np  Np0  1  0.50000000  0.50000000  0.00000000  1
  Np  Np1  1  0.00000000  0.00000000  0.00000000  1
  Np  Np2  1  0.68421700  0.18421700  0.50000000  1
  Np  Np3  1  0.31578300  0.81578300  0.50000000  1
  Np  Np4  1  0.18421700  0.31578300  0.50000000  1
  Np  Np5  1  0.81578300  0.68421700  0.50000000  1
  Si  Si6  1  0.11635100  0.61635100  0.00000000  1
  Si  Si7  1  0.88364900  0.38364900  0.00000000  1
  Si  Si8  1  0.61635100  0.88364900  0.00000000  1
  Si  Si9  1  0.38364900  0.11635100  0.00000000  1
