# generated using pymatgen
data_NaPWO6
_symmetry_space_group_name_H-M   'P 1'
_cell_length_a   12.16318900
_cell_length_b   6.45321500
_cell_length_c   13.73319428
_cell_angle_alpha   63.13139972
_cell_angle_beta   90.00000000
_cell_angle_gamma   90.00000000
_symmetry_Int_Tables_number   1
_chemical_formula_structural   NaPWO6
_chemical_formula_sum   'Na8 P8 W8 O48'
_cell_volume   961.57260960
_cell_formula_units_Z   8
loop_
 _symmetry_equiv_pos_site_id
 _symmetry_equiv_pos_as_xyz
  1  'x, y, z'
loop_
 _atom_site_type_symbol
 _atom_site_label
 _atom_site_symmetry_multiplicity
 _atom_site_fract_x
 _atom_site_fract_y
 _atom_site_fract_z
 _atom_site_occupancy
  Na  Na0  1  0.81773300  0.11250700  0.84775600  1
  Na  Na1  1  0.31773300  0.88749300  0.65224400  1
  Na  Na2  1  0.18226700  0.88749300  0.15224400  1
  Na  Na3  1  0.68226700  0.11250700  0.34775600  1
  Na  Na4  1  0.70793200  0.56845800  0.87795300  1
  Na  Na5  1  0.20793200  0.43154200  0.62204700  1
  Na  Na6  1  0.29206800  0.43154200  0.12204700  1
  Na  Na7  1  0.79206800  0.56845800  0.37795300  1
  P  P8  1  0.95946100  0.13406500  0.62275700  1
  P  P9  1  0.45946100  0.86593500  0.87724300  1
  P  P10  1  0.04053900  0.86593500  0.37724300  1
  P  P11  1  0.54053900  0.13406500  0.12275700  1
  P  P12  1  0.61444700  0.68367300  0.56270400  1
  P  P13  1  0.11444700  0.31632700  0.93729600  1
  P  P14  1  0.38555300  0.31632700  0.43729600  1
  P  P15  1  0.88555300  0.68367300  0.06270400  1
  W  W16  1  0.89701900  0.64189500  0.61164600  1
  W  W17  1  0.39701900  0.35810500  0.88835400  1
  W  W18  1  0.10298100  0.35810500  0.38835400  1
  W  W19  1  0.60298100  0.64189500  0.11164600  1
  W  W20  1  0.60285300  0.11536100  0.63017600  1
  W  W21  1  0.10285300  0.88463900  0.86982400  1
  W  W22  1  0.39714700  0.88463900  0.36982400  1
  W  W23  1  0.89714700  0.11536100  0.13017600  1
  O  O24  1  0.83110500  0.51644900  0.74222200  1
  O  O25  1  0.33110500  0.48355100  0.75777800  1
  O  O26  1  0.16889500  0.48355100  0.25777800  1
  O  O27  1  0.66889500  0.51644900  0.24222200  1
  O  O28  1  0.53837200  0.40478300  0.85732900  1
  O  O29  1  0.03837200  0.59521700  0.64267100  1
  O  O30  1  0.46162800  0.59521700  0.14267100  1
  O  O31  1  0.96162800  0.40478300  0.35732900  1
  O  O32  1  0.70646800  0.01998200  0.73253500  1
  O  O33  1  0.20646800  0.98001800  0.76746500  1
  O  O34  1  0.29353200  0.98001800  0.26746500  1
  O  O35  1  0.79353200  0.01998200  0.23253500  1
  O  O36  1  0.67600600  0.22633900  0.50438500  1
  O  O37  1  0.17600600  0.77366100  0.99561500  1
  O  O38  1  0.32399400  0.77366100  0.49561500  1
  O  O39  1  0.82399400  0.22633900  0.00438500  1
  O  O40  1  0.56978300  0.79597800  0.93852900  1
  O  O41  1  0.73740700  0.71184300  0.53104500  1
  O  O42  1  0.06978300  0.20402200  0.56147100  1
  O  O43  1  0.93021700  0.79597800  0.43852900  1
  O  O44  1  0.97729000  0.01678200  0.74687800  1
  O  O45  1  0.47729000  0.98321800  0.75312200  1
  O  O46  1  0.02271000  0.98321800  0.25312200  1
  O  O47  1  0.52271000  0.01678200  0.24687800  1
  O  O48  1  0.58189200  0.42485500  0.62834600  1
  O  O49  1  0.08189200  0.57514500  0.87165400  1
  O  O50  1  0.41810800  0.57514500  0.37165400  1
  O  O51  1  0.91810800  0.42485500  0.12834600  1
  O  O52  1  0.58510600  0.79721300  0.63785400  1
  O  O53  1  0.08510600  0.20278700  0.86214600  1
  O  O54  1  0.41489400  0.20278700  0.36214600  1
  O  O55  1  0.91489400  0.79721300  0.13785400  1
  O  O56  1  0.60578300  0.96882200  0.08907300  1
  O  O57  1  0.10578300  0.03117800  0.41092700  1
  O  O58  1  0.39421700  0.03117800  0.91092700  1
  O  O59  1  0.89421700  0.96882200  0.58907300  1
  O  O60  1  0.61635300  0.35048900  0.09025900  1
  O  O61  1  0.11635300  0.64951100  0.40974100  1
  O  O62  1  0.38364700  0.64951100  0.90974100  1
  O  O63  1  0.88364700  0.35048900  0.59025900  1
  O  O64  1  0.55169500  0.80580000  0.45448500  1
  O  O65  1  0.05169500  0.19420000  0.04551500  1
  O  O66  1  0.44830500  0.19420000  0.54551500  1
  O  O67  1  0.94830500  0.80580000  0.95448500  1
  O  O68  1  0.76259300  0.71184300  0.03104500  1
  O  O69  1  0.26259300  0.28815700  0.46895500  1
  O  O70  1  0.23740700  0.28815700  0.96895500  1
  O  O71  1  0.43021700  0.20402200  0.06147100  1
