# generated using pymatgen
data_Na2TiCr(PO4)3
_symmetry_space_group_name_H-M   'P 1'
_cell_length_a   9.87969400
_cell_length_b   9.87969400
_cell_length_c   9.87969400
_cell_angle_alpha   90.00000000
_cell_angle_beta   90.00000000
_cell_angle_gamma   90.00000000
_symmetry_Int_Tables_number   1
_chemical_formula_structural   Na2TiCr(PO4)3
_chemical_formula_sum   'Na8 Ti4 Cr4 P12 O48'
_cell_volume   964.34066476
_cell_formula_units_Z   4
loop_
 _symmetry_equiv_pos_site_id
 _symmetry_equiv_pos_as_xyz
  1  'x, y, z'
loop_
 _atom_site_type_symbol
 _atom_site_label
 _atom_site_symmetry_multiplicity
 _atom_site_fract_x
 _atom_site_fract_y
 _atom_site_fract_z
 _atom_site_occupancy
  Na  Na0  1  0.93072000  0.93072000  0.93072000  1
  Na  Na1  1  0.35055600  0.85055600  0.64944400  1
  Na  Na2  1  0.14944400  0.14944400  0.14944400  1
  Na  Na3  1  0.06928000  0.43072000  0.56928000  1
  Na  Na4  1  0.85055600  0.64944400  0.35055600  1
  Na  Na5  1  0.43072000  0.56928000  0.06928000  1
  Na  Na6  1  0.56928000  0.06928000  0.43072000  1
  Na  Na7  1  0.64944400  0.35055600  0.85055600  1
  Ti  Ti8  1  0.11019100  0.61019100  0.88980900  1
  Ti  Ti9  1  0.61019100  0.88980900  0.11019100  1
  Ti  Ti10  1  0.88980900  0.11019100  0.61019100  1
  Ti  Ti11  1  0.38980900  0.38980900  0.38980900  1
  Cr  Cr12  1  0.33706300  0.16293700  0.83706300  1
  Cr  Cr13  1  0.16293700  0.83706300  0.33706300  1
  Cr  Cr14  1  0.83706300  0.33706300  0.16293700  1
  Cr  Cr15  1  0.66293700  0.66293700  0.66293700  1
  P  P16  1  0.79116900  0.62064300  0.97518800  1
  P  P17  1  0.87935700  0.02481200  0.29116900  1
  P  P18  1  0.37935700  0.47518800  0.70883100  1
  P  P19  1  0.47518800  0.70883100  0.37935700  1
  P  P20  1  0.29116900  0.87935700  0.02481200  1
  P  P21  1  0.12064300  0.52481200  0.20883100  1
  P  P22  1  0.62064300  0.97518800  0.79116900  1
  P  P23  1  0.20883100  0.12064300  0.52481200  1
  P  P24  1  0.97518800  0.79116900  0.62064300  1
  P  P25  1  0.52481200  0.20883100  0.12064300  1
  P  P26  1  0.70883100  0.37935700  0.47518800  1
  P  P27  1  0.02481200  0.29116900  0.87935700  1
  O  O28  1  0.94483300  0.26632000  0.00971000  1
  O  O29  1  0.44483300  0.23368000  0.99029000  1
  O  O30  1  0.05516700  0.76632000  0.49029000  1
  O  O31  1  0.23368000  0.99029000  0.44483300  1
  O  O32  1  0.49029000  0.05516700  0.76632000  1
  O  O33  1  0.99029000  0.44483300  0.23368000  1
  O  O34  1  0.26632000  0.00971000  0.94483300  1
  O  O35  1  0.00971000  0.94483300  0.26632000  1
  O  O36  1  0.76632000  0.49029000  0.05516700  1
  O  O37  1  0.73368000  0.50971000  0.55516700  1
  O  O38  1  0.50971000  0.55516700  0.73368000  1
  O  O39  1  0.55516700  0.73368000  0.50971000  1
  O  O40  1  0.01703000  0.43997400  0.82731300  1
  O  O41  1  0.51703000  0.06002600  0.17268700  1
  O  O42  1  0.98297000  0.93997400  0.67268700  1
  O  O43  1  0.06002600  0.17268700  0.51703000  1
  O  O44  1  0.67268700  0.98297000  0.93997400  1
  O  O45  1  0.17268700  0.51703000  0.06002600  1
  O  O46  1  0.76906900  0.95575400  0.20125300  1
  O  O47  1  0.43997400  0.82731300  0.01703000  1
  O  O48  1  0.93997400  0.67268700  0.98297000  1
  O  O49  1  0.56002600  0.32731300  0.48297000  1
  O  O50  1  0.32731300  0.48297000  0.56002600  1
  O  O51  1  0.48297000  0.56002600  0.32731300  1
  O  O52  1  0.04424600  0.70125300  0.73093100  1
  O  O53  1  0.54424600  0.79874700  0.26906900  1
  O  O54  1  0.95575400  0.20125300  0.76906900  1
  O  O55  1  0.79874700  0.26906900  0.54424600  1
  O  O56  1  0.59438300  0.82801000  0.75089500  1
  O  O57  1  0.75089500  0.59438300  0.82801000  1
  O  O58  1  0.82801000  0.75089500  0.59438300  1
  O  O59  1  0.67199000  0.24910500  0.09438300  1
  O  O60  1  0.25089500  0.90561700  0.17199000  1
  O  O61  1  0.17199000  0.25089500  0.90561700  1
  O  O62  1  0.74910500  0.40561700  0.32801000  1
  O  O63  1  0.24910500  0.09438300  0.67199000  1
  O  O64  1  0.32801000  0.74910500  0.40561700  1
  O  O65  1  0.09438300  0.67199000  0.24910500  1
  O  O66  1  0.40561700  0.32801000  0.74910500  1
  O  O67  1  0.90561700  0.17199000  0.25089500  1
  O  O68  1  0.45575400  0.29874700  0.23093100  1
  O  O69  1  0.23093100  0.45575400  0.29874700  1
  O  O70  1  0.29874700  0.23093100  0.45575400  1
  O  O71  1  0.20125300  0.76906900  0.95575400  1
  O  O72  1  0.73093100  0.04424600  0.70125300  1
  O  O73  1  0.70125300  0.73093100  0.04424600  1
  O  O74  1  0.26906900  0.54424600  0.79874700  1
  O  O75  1  0.82731300  0.01703000  0.43997400  1
