# generated using pymatgen
data_PtN4(ClO)2
_symmetry_space_group_name_H-M   'P 1'
_cell_length_a   6.78707227
_cell_length_b   6.78707227
_cell_length_c   5.66139281
_cell_angle_alpha   83.84598608
_cell_angle_beta   83.84598608
_cell_angle_gamma   42.29543519
_symmetry_Int_Tables_number   1
_chemical_formula_structural   PtN4(ClO)2
_chemical_formula_sum   'Pt1 N4 Cl2 O2'
_cell_volume   174.33529915
_cell_formula_units_Z   1
loop_
 _symmetry_equiv_pos_site_id
 _symmetry_equiv_pos_as_xyz
  1  'x, y, z'
loop_
 _atom_site_type_symbol
 _atom_site_label
 _atom_site_symmetry_multiplicity
 _atom_site_fract_x
 _atom_site_fract_y
 _atom_site_fract_z
 _atom_site_occupancy
  Pt  Pt0  1  0.00000000  0.00000000  0.00000000  1
  N  N1  1  0.86165600  0.30377500  0.74110700  1
  N  N2  1  0.30377500  0.86165600  0.74110700  1
  N  N3  1  0.13834400  0.69622500  0.25889300  1
  N  N4  1  0.69622500  0.13834400  0.25889300  1
  Cl  Cl5  1  0.31148800  0.31148800  0.11945400  1
  Cl  Cl6  1  0.68851200  0.68851200  0.88054600  1
  O  O7  1  0.86330800  0.86330800  0.36908300  1
  O  O8  1  0.13669200  0.13669200  0.63091700  1
