# generated using pymatgen
data_YTl5Cu2(NO2)12
_symmetry_space_group_name_H-M   'P 1'
_cell_length_a   10.87818900
_cell_length_b   10.87818900
_cell_length_c   10.87818900
_cell_angle_alpha   90.00000000
_cell_angle_beta   90.00000000
_cell_angle_gamma   90.00000000
_symmetry_Int_Tables_number   1
_chemical_formula_structural   YTl5Cu2(NO2)12
_chemical_formula_sum   'Y2 Tl10 Cu4 N24 O48'
_cell_volume   1287.27045093
_cell_formula_units_Z   2
loop_
 _symmetry_equiv_pos_site_id
 _symmetry_equiv_pos_as_xyz
  1  'x, y, z'
loop_
 _atom_site_type_symbol
 _atom_site_label
 _atom_site_symmetry_multiplicity
 _atom_site_fract_x
 _atom_site_fract_y
 _atom_site_fract_z
 _atom_site_occupancy
  Y  Y0  1  0.50000000  0.50000000  0.50000000  1
  Y  Y1  1  0.00000000  0.00000000  0.00000000  1
  Tl  Tl2  1  0.50000000  0.00000000  0.00000000  1
  Tl  Tl3  1  0.00000000  0.50000000  0.00000000  1
  Tl  Tl4  1  0.00000000  0.00000000  0.50000000  1
  Tl  Tl5  1  0.50000000  0.50000000  0.00000000  1
  Tl  Tl6  1  0.50000000  0.00000000  0.50000000  1
  Tl  Tl7  1  0.00000000  0.50000000  0.50000000  1
  Tl  Tl8  1  0.25000000  0.75000000  0.25000000  1
  Tl  Tl9  1  0.75000000  0.25000000  0.25000000  1
  Tl  Tl10  1  0.25000000  0.25000000  0.75000000  1
  Tl  Tl11  1  0.75000000  0.75000000  0.75000000  1
  Cu  Cu12  1  0.75000000  0.25000000  0.75000000  1
  Cu  Cu13  1  0.25000000  0.75000000  0.75000000  1
  Cu  Cu14  1  0.75000000  0.75000000  0.25000000  1
  Cu  Cu15  1  0.25000000  0.25000000  0.25000000  1
  N  N16  1  0.24314200  0.05497100  0.23913000  1
  N  N17  1  0.55497100  0.73913000  0.25685800  1
  N  N18  1  0.55497100  0.26087000  0.74314200  1
  N  N19  1  0.44502900  0.73913000  0.74314200  1
  N  N20  1  0.26087000  0.74314200  0.55497100  1
  N  N21  1  0.74314200  0.44502900  0.73913000  1
  N  N22  1  0.74314200  0.55497100  0.26087000  1
  N  N23  1  0.73913000  0.25685800  0.55497100  1
  N  N24  1  0.25685800  0.55497100  0.73913000  1
  N  N25  1  0.73913000  0.74314200  0.44502900  1
  N  N26  1  0.26087000  0.25685800  0.44502900  1
  N  N27  1  0.25685800  0.44502900  0.26087000  1
  N  N28  1  0.44502900  0.26087000  0.25685800  1
  N  N29  1  0.94502900  0.76087000  0.24314200  1
  N  N30  1  0.94502900  0.23913000  0.75685800  1
  N  N31  1  0.05497100  0.76087000  0.75685800  1
  N  N32  1  0.05497100  0.23913000  0.24314200  1
  N  N33  1  0.23913000  0.75685800  0.94502900  1
  N  N34  1  0.23913000  0.24314200  0.05497100  1
  N  N35  1  0.76087000  0.75685800  0.05497100  1
  N  N36  1  0.24314200  0.94502900  0.76087000  1
  N  N37  1  0.76087000  0.24314200  0.94502900  1
  N  N38  1  0.75685800  0.94502900  0.23913000  1
  N  N39  1  0.75685800  0.05497100  0.76087000  1
  O  O40  1  0.49667700  0.83814400  0.24615600  1
  O  O41  1  0.33814400  0.74615600  0.00332300  1
  O  O42  1  0.99667700  0.66185600  0.74615600  1
  O  O43  1  0.00332300  0.33814400  0.74615600  1
  O  O44  1  0.00332300  0.66185600  0.25384400  1
  O  O45  1  0.50332300  0.16185600  0.24615600  1
  O  O46  1  0.24615600  0.50332300  0.16185600  1
  O  O47  1  0.16185600  0.24615600  0.50332300  1
  O  O48  1  0.83814400  0.75384400  0.50332300  1
  O  O49  1  0.24615600  0.49667700  0.83814400  1
  O  O50  1  0.83814400  0.24615600  0.49667700  1
  O  O51  1  0.75384400  0.49667700  0.16185600  1
  O  O52  1  0.75384400  0.50332300  0.83814400  1
  O  O53  1  0.16185600  0.75384400  0.49667700  1
  O  O54  1  0.50332300  0.83814400  0.75384400  1
  O  O55  1  0.49667700  0.16185600  0.75384400  1
  O  O56  1  0.99642300  0.14509500  0.20573000  1
  O  O57  1  0.20573000  0.99642300  0.14509500  1
  O  O58  1  0.14509500  0.20573000  0.99642300  1
  O  O59  1  0.85490500  0.79427000  0.99642300  1
  O  O60  1  0.20573000  0.00357700  0.85490500  1
  O  O61  1  0.85490500  0.20573000  0.00357700  1
  O  O62  1  0.79427000  0.00357700  0.14509500  1
  O  O63  1  0.79427000  0.99642300  0.85490500  1
  O  O64  1  0.14509500  0.79427000  0.00357700  1
  O  O65  1  0.99642300  0.85490500  0.79427000  1
  O  O66  1  0.00357700  0.14509500  0.79427000  1
  O  O67  1  0.00357700  0.85490500  0.20573000  1
  O  O68  1  0.50357700  0.35490500  0.29427000  1
  O  O69  1  0.29427000  0.50357700  0.35490500  1
  O  O70  1  0.35490500  0.29427000  0.50357700  1
  O  O71  1  0.64509500  0.70573000  0.50357700  1
  O  O72  1  0.29427000  0.49642300  0.64509500  1
  O  O73  1  0.64509500  0.29427000  0.49642300  1
  O  O74  1  0.70573000  0.49642300  0.35490500  1
  O  O75  1  0.70573000  0.50357700  0.64509500  1
  O  O76  1  0.35490500  0.70573000  0.49642300  1
  O  O77  1  0.50357700  0.64509500  0.70573000  1
  O  O78  1  0.49642300  0.35490500  0.70573000  1
  O  O79  1  0.49642300  0.64509500  0.29427000  1
  O  O80  1  0.99667700  0.33814400  0.25384400  1
  O  O81  1  0.25384400  0.99667700  0.33814400  1
  O  O82  1  0.74615600  0.99667700  0.66185600  1
  O  O83  1  0.66185600  0.74615600  0.99667700  1
  O  O84  1  0.25384400  0.00332300  0.66185600  1
  O  O85  1  0.66185600  0.25384400  0.00332300  1
  O  O86  1  0.74615600  0.00332300  0.33814400  1
  O  O87  1  0.33814400  0.25384400  0.99667700  1
