# generated using pymatgen
data_TlVO3
_symmetry_space_group_name_H-M   'P 1'
_cell_length_a   5.30566900
_cell_length_b   5.92083600
_cell_length_c   11.35166200
_cell_angle_alpha   90.00000000
_cell_angle_beta   90.00000000
_cell_angle_gamma   90.00000000
_symmetry_Int_Tables_number   1
_chemical_formula_structural   TlVO3
_chemical_formula_sum   'Tl4 V4 O12'
_cell_volume   356.60106488
_cell_formula_units_Z   4
loop_
 _symmetry_equiv_pos_site_id
 _symmetry_equiv_pos_as_xyz
  1  'x, y, z'
loop_
 _atom_site_type_symbol
 _atom_site_label
 _atom_site_symmetry_multiplicity
 _atom_site_fract_x
 _atom_site_fract_y
 _atom_site_fract_z
 _atom_site_occupancy
  Tl  Tl0  1  0.07903600  0.75000000  0.90402600  1
  Tl  Tl1  1  0.07903600  0.25000000  0.59597400  1
  Tl  Tl2  1  0.92096400  0.25000000  0.09597400  1
  Tl  Tl3  1  0.92096400  0.75000000  0.40402600  1
  V  V4  1  0.54164000  0.75000000  0.66890900  1
  V  V5  1  0.54164000  0.25000000  0.83109100  1
  V  V6  1  0.45836000  0.25000000  0.33109100  1
  V  V7  1  0.45836000  0.75000000  0.16890900  1
  O  O8  1  0.57031200  0.50000000  0.25000000  1
  O  O9  1  0.42968800  0.00000000  0.75000000  1
  O  O10  1  0.42968800  0.50000000  0.75000000  1
  O  O11  1  0.57031200  0.00000000  0.25000000  1
  O  O12  1  0.42708900  0.75000000  0.53188600  1
  O  O13  1  0.42708900  0.25000000  0.96811400  1
  O  O14  1  0.57291100  0.25000000  0.46811400  1
  O  O15  1  0.57291100  0.75000000  0.03188600  1
  O  O16  1  0.14157200  0.75000000  0.16227300  1
  O  O17  1  0.14157200  0.25000000  0.33772700  1
  O  O18  1  0.85842800  0.25000000  0.83772700  1
  O  O19  1  0.85842800  0.75000000  0.66227300  1
