# generated using pymatgen
data_U2N3
_symmetry_space_group_name_H-M   'P 1'
_cell_length_a   9.23474758
_cell_length_b   9.23474758
_cell_length_c   9.23474758
_cell_angle_alpha   109.47122063
_cell_angle_beta   109.47122063
_cell_angle_gamma   109.47122063
_symmetry_Int_Tables_number   1
_chemical_formula_structural   U2N3
_chemical_formula_sum   'U16 N24'
_cell_volume   606.25201645
_cell_formula_units_Z   8
loop_
 _symmetry_equiv_pos_site_id
 _symmetry_equiv_pos_as_xyz
  1  'x, y, z'
loop_
 _atom_site_type_symbol
 _atom_site_label
 _atom_site_symmetry_multiplicity
 _atom_site_fract_x
 _atom_site_fract_y
 _atom_site_fract_z
 _atom_site_occupancy
  U  U0  1  0.50000000  0.50000000  0.50000000  1
  U  U1  1  0.00000000  0.50000000  0.00000000  1
  U  U2  1  0.00000000  0.00000000  0.50000000  1
  U  U3  1  0.50000000  0.00000000  0.00000000  1
  U  U4  1  0.22859500  0.97859500  0.25000000  1
  U  U5  1  0.52140500  0.75000000  0.27140500  1
  U  U6  1  0.75000000  0.27140500  0.52140500  1
  U  U7  1  0.97859500  0.25000000  0.22859500  1
  U  U8  1  0.25000000  0.22859500  0.97859500  1
  U  U9  1  0.27140500  0.52140500  0.75000000  1
  U  U10  1  0.77140500  0.02140500  0.75000000  1
  U  U11  1  0.47859500  0.25000000  0.72859500  1
  U  U12  1  0.25000000  0.72859500  0.47859500  1
  U  U13  1  0.02140500  0.75000000  0.77140500  1
  U  U14  1  0.75000000  0.77140500  0.02140500  1
  U  U15  1  0.72859500  0.47859500  0.25000000  1
  N  N16  1  0.76262400  0.52879100  0.52527800  1
  N  N17  1  0.97120900  0.73383300  0.99648700  1
  N  N18  1  0.76616700  0.73737600  0.26265400  1
  N  N19  1  0.23734600  0.97472200  0.50351300  1
  N  N20  1  0.73383300  0.99648700  0.97120900  1
  N  N21  1  0.26265400  0.76616700  0.73737600  1
  N  N22  1  0.97472200  0.50351300  0.23734600  1
  N  N23  1  0.52527800  0.76262400  0.52879100  1
  N  N24  1  0.52879100  0.52527800  0.76262400  1
  N  N25  1  0.99648700  0.97120900  0.73383300  1
  N  N26  1  0.73737600  0.26265400  0.76616700  1
  N  N27  1  0.50351300  0.23734600  0.97472200  1
  N  N28  1  0.23737600  0.47120900  0.47472200  1
  N  N29  1  0.02879100  0.26616700  0.00351300  1
  N  N30  1  0.23383300  0.26262400  0.73734600  1
  N  N31  1  0.76265400  0.02527800  0.49648700  1
  N  N32  1  0.26616700  0.00351300  0.02879100  1
  N  N33  1  0.73734600  0.23383300  0.26262400  1
  N  N34  1  0.02527800  0.49648700  0.76265400  1
  N  N35  1  0.47472200  0.23737600  0.47120900  1
  N  N36  1  0.47120900  0.47472200  0.23737600  1
  N  N37  1  0.00351300  0.02879100  0.26616700  1
  N  N38  1  0.26262400  0.73734600  0.23383300  1
  N  N39  1  0.49648700  0.76265400  0.02527800  1
