data_image0
_chemical_formula_structural       Ce2Cu2Si4
_chemical_formula_sum              "Ce2 Cu2 Si4"
_cell_length_a       4.22668
_cell_length_b       4.10424
_cell_length_c       8.7772
_cell_angle_alpha    90
_cell_angle_beta     76.0676
_cell_angle_gamma    90

_space_group_name_H-M_alt    "P 1"
_space_group_IT_number       1

loop_
  _space_group_symop_operation_xyz
  'x, y, z'

loop_
  _atom_site_type_symbol
  _atom_site_label
  _atom_site_symmetry_multiplicity
  _atom_site_fract_x
  _atom_site_fract_y
  _atom_site_fract_z
  _atom_site_occupancy
  Ce  Ce1       1.0  0.89600  0.25000  0.20800  1.0000
  Ce  Ce2       1.0  0.10400  0.75000  0.79200  1.0000
  Cu  Cu1       1.0  0.32400  0.75000  0.35200  1.0000
  Cu  Cu2       1.0  0.67600  0.25000  0.64800  1.0000
  Si  Si1       1.0  0.46300  0.75000  0.07400  1.0000
  Si  Si2       1.0  0.75200  0.75000  0.49700  1.0000
  Si  Si3       1.0  0.24800  0.25000  0.50300  1.0000
  Si  Si4       1.0  0.53700  0.25000  0.92600  1.0000
