# generated using pymatgen
data_Ba2Ca2Cu3HgO8
_symmetry_space_group_name_H-M   'P 1'
_cell_length_a   3.89268200
_cell_length_b   3.89268200
_cell_length_c   16.24844400
_cell_angle_alpha   90.00000000
_cell_angle_beta   90.00000000
_cell_angle_gamma   90.00000000
_symmetry_Int_Tables_number   1
_chemical_formula_structural   Ba2Ca2Cu3HgO8
_chemical_formula_sum   'Ba2 Ca2 Cu3 Hg1 O8'
_cell_volume   246.21223571
_cell_formula_units_Z   1
loop_
 _symmetry_equiv_pos_site_id
 _symmetry_equiv_pos_as_xyz
  1  'x, y, z'
loop_
 _atom_site_type_symbol
 _atom_site_label
 _atom_site_symmetry_multiplicity
 _atom_site_fract_x
 _atom_site_fract_y
 _atom_site_fract_z
 _atom_site_occupancy
  Ba  Ba0  1  0.50000000  0.50000000  0.81608300  1
  Ba  Ba1  1  0.50000000  0.50000000  0.18391700  1
  Ca  Ca2  1  0.50000000  0.50000000  0.59907100  1
  Ca  Ca3  1  0.50000000  0.50000000  0.40092900  1
  Cu  Cu4  1  0.00000000  0.00000000  0.69191800  1
  Cu  Cu5  1  0.00000000  0.00000000  0.30808200  1
  Cu  Cu6  1  0.00000000  0.00000000  0.50000000  1
  Hg  Hg7  1  0.00000000  0.00000000  0.00000000  1
  O  O8  1  0.50000000  0.00000000  0.50000000  1
  O  O9  1  0.00000000  0.50000000  0.50000000  1
  O  O10  1  0.00000000  0.00000000  0.87627100  1
  O  O11  1  0.00000000  0.00000000  0.12372900  1
  O  O12  1  0.50000000  0.00000000  0.30369500  1
  O  O13  1  0.50000000  0.00000000  0.69630500  1
  O  O14  1  0.00000000  0.50000000  0.30369500  1
  O  O15  1  0.00000000  0.50000000  0.69630500  1
