# generated using pymatgen
data_ZrCu
_symmetry_space_group_name_H-M   'P 1'
_cell_length_a   5.32613812
_cell_length_b   5.32613812
_cell_length_c   5.28213010
_cell_angle_alpha   82.36124073
_cell_angle_beta   82.36124073
_cell_angle_gamma   103.63770870
_symmetry_Int_Tables_number   1
_chemical_formula_structural   ZrCu
_chemical_formula_sum   'Zr4 Cu4'
_cell_volume   142.21080348
_cell_formula_units_Z   4
loop_
 _symmetry_equiv_pos_site_id
 _symmetry_equiv_pos_as_xyz
  1  'x, y, z'
loop_
 _atom_site_type_symbol
 _atom_site_label
 _atom_site_symmetry_multiplicity
 _atom_site_fract_x
 _atom_site_fract_y
 _atom_site_fract_z
 _atom_site_occupancy
  Zr  Zr0  1  0.91392300  0.91392300  0.97919000  1
  Zr  Zr1  1  0.41441100  0.41441100  0.03374400  1
  Zr  Zr2  1  0.82599900  0.25572100  0.40749100  1
  Zr  Zr3  1  0.25572100  0.82599900  0.40749100  1
  Cu  Cu4  1  0.70606900  0.70606900  0.54203700  1
  Cu  Cu5  1  0.30406600  0.30406600  0.56869300  1
  Cu  Cu6  1  0.45146700  0.95182300  0.85291000  1
  Cu  Cu7  1  0.95182300  0.45146700  0.85291000  1
