# generated using pymatgen
data_CoB4O7
_symmetry_space_group_name_H-M   'P 1'
_cell_length_a   8.31080700
_cell_length_b   8.77091200
_cell_length_c   13.87953500
_cell_angle_alpha   90.00000000
_cell_angle_beta   90.00000000
_cell_angle_gamma   90.00000000
_symmetry_Int_Tables_number   1
_chemical_formula_structural   CoB4O7
_chemical_formula_sum   'Co8 B32 O56'
_cell_volume   1011.72589761
_cell_formula_units_Z   8
loop_
 _symmetry_equiv_pos_site_id
 _symmetry_equiv_pos_as_xyz
  1  'x, y, z'
loop_
 _atom_site_type_symbol
 _atom_site_label
 _atom_site_symmetry_multiplicity
 _atom_site_fract_x
 _atom_site_fract_y
 _atom_site_fract_z
 _atom_site_occupancy
  Co  Co0  1  0.61102000  0.12647300  0.37935700  1
  Co  Co1  1  0.11102000  0.37352700  0.62064300  1
  Co  Co2  1  0.38898000  0.62647300  0.12064300  1
  Co  Co3  1  0.88898000  0.87352700  0.87935700  1
  Co  Co4  1  0.38898000  0.87352700  0.62064300  1
  Co  Co5  1  0.88898000  0.62647300  0.37935700  1
  Co  Co6  1  0.61102000  0.37352700  0.87935700  1
  Co  Co7  1  0.11102000  0.12647300  0.12064300  1
  B  B8  1  0.16311300  0.14315800  0.46184300  1
  B  B9  1  0.66311300  0.35684300  0.53815700  1
  B  B10  1  0.83688700  0.64315700  0.03815700  1
  B  B11  1  0.33688700  0.85684200  0.96184400  1
  B  B12  1  0.83688700  0.85684200  0.53815700  1
  B  B13  1  0.33688700  0.64315700  0.46184300  1
  B  B14  1  0.16311300  0.35684300  0.96184400  1
  B  B15  1  0.66311300  0.14315800  0.03815700  1
  B  B16  1  0.97023500  0.08503200  0.33225000  1
  B  B17  1  0.47023500  0.41496700  0.66775000  1
  B  B18  1  0.02976500  0.58503300  0.16775000  1
  B  B19  1  0.52976500  0.91496800  0.83225000  1
  B  B20  1  0.02976500  0.91496800  0.66775000  1
  B  B21  1  0.52976500  0.58503300  0.33225000  1
  B  B22  1  0.97023500  0.41496700  0.83225000  1
  B  B23  1  0.47023500  0.08503200  0.16775000  1
  B  B24  1  0.02574100  0.35237700  0.27004200  1
  B  B25  1  0.52574100  0.14762400  0.72995900  1
  B  B26  1  0.97425900  0.85237700  0.22995900  1
  B  B27  1  0.47425900  0.64762300  0.77004100  1
  B  B28  1  0.97425900  0.64762300  0.72995900  1
  B  B29  1  0.47425900  0.85237700  0.27004200  1
  B  B30  1  0.02574100  0.14762400  0.77004100  1
  B  B31  1  0.52574100  0.35237700  0.22995900  1
  B  B32  1  0.91355800  0.30055700  0.43690200  1
  B  B33  1  0.41355800  0.19944300  0.56309800  1
  B  B34  1  0.08644200  0.80055700  0.06309800  1
  B  B35  1  0.58644200  0.69944300  0.93690200  1
  B  B36  1  0.08644200  0.69944300  0.56309800  1
  B  B37  1  0.58644200  0.80055700  0.43690200  1
  B  B38  1  0.91355800  0.19944300  0.93690200  1
  B  B39  1  0.41355800  0.30055700  0.06309800  1
  O  O40  1  0.11706400  0.05721100  0.38576600  1
  O  O41  1  0.61706400  0.44278800  0.61423300  1
  O  O42  1  0.88293600  0.55721200  0.11423300  1
  O  O43  1  0.38293600  0.94278900  0.88576700  1
  O  O44  1  0.88293600  0.94278900  0.61423300  1
  O  O45  1  0.38293600  0.55721200  0.38576600  1
  O  O46  1  0.11706400  0.44278800  0.88576700  1
  O  O47  1  0.61706400  0.05721100  0.11423300  1
  O  O48  1  0.06181300  0.26026200  0.49589200  1
  O  O49  1  0.56181300  0.23973700  0.50410800  1
  O  O50  1  0.93818700  0.76026200  0.00410800  1
  O  O51  1  0.43818700  0.73973800  0.99589200  1
  O  O52  1  0.93818700  0.73973800  0.50410800  1
  O  O53  1  0.43818700  0.76026200  0.49589200  1
  O  O54  1  0.06181300  0.23973700  0.99589200  1
  O  O55  1  0.56181300  0.26026200  0.00410800  1
  O  O56  1  0.01712100  0.19727200  0.24932700  1
  O  O57  1  0.51712100  0.30272900  0.75067300  1
  O  O58  1  0.98287900  0.69727200  0.25067300  1
  O  O59  1  0.48287900  0.80272800  0.74932700  1
  O  O60  1  0.98287900  0.80272800  0.75067300  1
  O  O61  1  0.48287900  0.69727200  0.24932700  1
  O  O62  1  0.01712100  0.30272900  0.74932700  1
  O  O63  1  0.51712100  0.19727200  0.25067300  1
  O  O64  1  0.96722200  0.40812500  0.35718900  1
  O  O65  1  0.46722200  0.09187500  0.64281200  1
  O  O66  1  0.03277800  0.90812600  0.14281200  1
  O  O67  1  0.53277800  0.59187500  0.85718800  1
  O  O68  1  0.03277800  0.59187500  0.64281200  1
  O  O69  1  0.53277800  0.90812600  0.35718900  1
  O  O70  1  0.96722200  0.09187500  0.85718800  1
  O  O71  1  0.46722200  0.40812500  0.14281200  1
  O  O72  1  0.80885200  0.38582700  0.49689500  1
  O  O73  1  0.30885200  0.11417300  0.50310500  1
  O  O74  1  0.19114800  0.88582700  0.00310500  1
  O  O75  1  0.69114800  0.61417200  0.99689500  1
  O  O76  1  0.19114800  0.61417200  0.50310500  1
  O  O77  1  0.69114800  0.88582700  0.49689500  1
  O  O78  1  0.80885200  0.11417300  0.99689500  1
  O  O79  1  0.30885200  0.38582700  0.00310500  1
  O  O80  1  0.84796000  0.16338700  0.39160300  1
  O  O81  1  0.34796000  0.33661300  0.60839700  1
  O  O82  1  0.15204000  0.66338700  0.10839800  1
  O  O83  1  0.65204000  0.83661300  0.89160300  1
  O  O84  1  0.15204000  0.83661300  0.60839700  1
  O  O85  1  0.65204000  0.66338700  0.39160300  1
  O  O86  1  0.84796000  0.33661300  0.89160300  1
  O  O87  1  0.34796000  0.16338700  0.10839800  1
  O  O88  1  0.59469500  0.44532500  0.29589300  1
  O  O89  1  0.09469500  0.05467600  0.70410600  1
  O  O90  1  0.40530500  0.94532400  0.20410700  1
  O  O91  1  0.90530500  0.55467500  0.79589400  1
  O  O92  1  0.40530500  0.55467500  0.70410600  1
  O  O93  1  0.90530500  0.94532400  0.29589300  1
  O  O94  1  0.59469500  0.05467600  0.79589400  1
  O  O95  1  0.09469500  0.44532500  0.20410700  1
