# generated using pymatgen
data_Na2MoO4
_symmetry_space_group_name_H-M   'P 1'
_cell_length_a   8.35857270
_cell_length_b   7.21036003
_cell_length_c   6.24871898
_cell_angle_alpha   76.41233378
_cell_angle_beta   56.98068123
_cell_angle_gamma   46.60698500
_symmetry_Int_Tables_number   1
_chemical_formula_structural   Na2MoO4
_chemical_formula_sum   'Na4 Mo2 O8'
_cell_volume   223.37114930
_cell_formula_units_Z   2
loop_
 _symmetry_equiv_pos_site_id
 _symmetry_equiv_pos_as_xyz
  1  'x, y, z'
loop_
 _atom_site_type_symbol
 _atom_site_label
 _atom_site_symmetry_multiplicity
 _atom_site_fract_x
 _atom_site_fract_y
 _atom_site_fract_z
 _atom_site_occupancy
  Na  Na0  1  0.81885600  0.18114400  0.81885600  1
  Na  Na1  1  0.18114400  0.81885600  0.18114400  1
  Na  Na2  1  0.06885600  0.43114400  0.06885600  1
  Na  Na3  1  0.43114400  0.06885600  0.43114400  1
  Mo  Mo4  1  0.50000000  0.50000000  0.50000000  1
  Mo  Mo5  1  0.75000000  0.75000000  0.75000000  1
  O  O6  1  0.77214000  0.88332700  0.93189900  1
  O  O7  1  0.41263300  0.93189900  0.88332700  1
  O  O8  1  0.93189900  0.41263300  0.77214000  1
  O  O9  1  0.88332700  0.77214000  0.41263300  1
  O  O10  1  0.47786000  0.36667300  0.31810100  1
  O  O11  1  0.83736700  0.31810100  0.36667300  1
  O  O12  1  0.36667300  0.47786000  0.83736700  1
  O  O13  1  0.31810100  0.83736700  0.47786000  1
