# generated using pymatgen
data_CdNCl3
_symmetry_space_group_name_H-M   'P 1'
_cell_length_a   7.51150245
_cell_length_b   7.51150245
_cell_length_c   7.40240700
_cell_angle_alpha   90.00000000
_cell_angle_beta   90.00000000
_cell_angle_gamma   94.29612324
_symmetry_Int_Tables_number   1
_chemical_formula_structural   CdNCl3
_chemical_formula_sum   'Cd2 N2 Cl6'
_cell_volume   416.49001167
_cell_formula_units_Z   2
loop_
 _symmetry_equiv_pos_site_id
 _symmetry_equiv_pos_as_xyz
  1  'x, y, z'
loop_
 _atom_site_type_symbol
 _atom_site_label
 _atom_site_symmetry_multiplicity
 _atom_site_fract_x
 _atom_site_fract_y
 _atom_site_fract_z
 _atom_site_occupancy
  Cd  Cd0  1  0.00000000  0.00000000  0.00000000  1
  Cd  Cd1  1  0.00000000  0.00000000  0.50000000  1
  N  N2  1  0.48170600  0.48170600  0.25000000  1
  N  N3  1  0.51829400  0.51829400  0.75000000  1
  Cl  Cl4  1  0.86332000  0.17901500  0.75000000  1
  Cl  Cl5  1  0.17901500  0.86332000  0.75000000  1
  Cl  Cl6  1  0.67616300  0.67616300  0.75000000  1
  Cl  Cl7  1  0.13668000  0.82098500  0.25000000  1
  Cl  Cl8  1  0.82098500  0.13668000  0.25000000  1
  Cl  Cl9  1  0.32383700  0.32383700  0.25000000  1
