# generated using pymatgen
data_Sr2Cu3(BrO2)2
_symmetry_space_group_name_H-M   'P 1'
_cell_length_a   7.88278039
_cell_length_b   7.88278039
_cell_length_c   7.88278039
_cell_angle_alpha   139.01882299
_cell_angle_beta   139.01882299
_cell_angle_gamma   59.34615183
_symmetry_Int_Tables_number   1
_chemical_formula_structural   Sr2Cu3(BrO2)2
_chemical_formula_sum   'Sr2 Cu3 Br2 O4'
_cell_volume   208.60229811
_cell_formula_units_Z   1
loop_
 _symmetry_equiv_pos_site_id
 _symmetry_equiv_pos_as_xyz
  1  'x, y, z'
loop_
 _atom_site_type_symbol
 _atom_site_label
 _atom_site_symmetry_multiplicity
 _atom_site_fract_x
 _atom_site_fract_y
 _atom_site_fract_z
 _atom_site_occupancy
  Sr  Sr0  1  0.36939100  0.36939100  0.00000000  1
  Sr  Sr1  1  0.63060900  0.63060900  0.00000000  1
  Cu  Cu2  1  0.50000000  0.00000000  0.50000000  1
  Cu  Cu3  1  0.00000000  0.00000000  0.00000000  1
  Cu  Cu4  1  0.00000000  0.50000000  0.50000000  1
  Br  Br5  1  0.75000000  0.25000000  0.50000000  1
  Br  Br6  1  0.25000000  0.75000000  0.50000000  1
  O  O7  1  0.75017200  0.75017200  0.50034300  1
  O  O8  1  0.24982800  0.24982800  0.49965700  1
  O  O9  1  0.24982800  0.75017200  0.00000000  1
  O  O10  1  0.75017200  0.24982800  0.00000000  1
