# generated using pymatgen
data_NpBr3
_symmetry_space_group_name_H-M   'P 1'
_cell_length_a   7.98807176
_cell_length_b   7.98807176
_cell_length_c   4.43653400
_cell_angle_alpha   90.00000000
_cell_angle_beta   90.00000000
_cell_angle_gamma   119.99999800
_symmetry_Int_Tables_number   1
_chemical_formula_structural   NpBr3
_chemical_formula_sum   'Np2 Br6'
_cell_volume   245.16494341
_cell_formula_units_Z   2
loop_
 _symmetry_equiv_pos_site_id
 _symmetry_equiv_pos_as_xyz
  1  'x, y, z'
loop_
 _atom_site_type_symbol
 _atom_site_label
 _atom_site_symmetry_multiplicity
 _atom_site_fract_x
 _atom_site_fract_y
 _atom_site_fract_z
 _atom_site_occupancy
  Np  Np0  1  0.66666700  0.33333300  0.75000000  1
  Np  Np1  1  0.33333300  0.66666700  0.25000000  1
  Br  Br2  1  0.61115000  0.69734500  0.75000000  1
  Br  Br3  1  0.91380500  0.61115000  0.25000000  1
  Br  Br4  1  0.38885000  0.30265500  0.25000000  1
  Br  Br5  1  0.08619500  0.38885000  0.75000000  1
  Br  Br6  1  0.30265500  0.91380500  0.75000000  1
  Br  Br7  1  0.69734500  0.08619500  0.25000000  1
