# generated using pymatgen
data_SbSI
_symmetry_space_group_name_H-M   'P 1'
_cell_length_a   3.67518200
_cell_length_b   12.23694400
_cell_length_c   16.13526300
_cell_angle_alpha   90.00000000
_cell_angle_beta   90.00000000
_cell_angle_gamma   90.00000000
_symmetry_Int_Tables_number   1
_chemical_formula_structural   SbSI
_chemical_formula_sum   'Sb4 S4 I4'
_cell_volume   725.65112358
_cell_formula_units_Z   4
loop_
 _symmetry_equiv_pos_site_id
 _symmetry_equiv_pos_as_xyz
  1  'x, y, z'
loop_
 _atom_site_type_symbol
 _atom_site_label
 _atom_site_symmetry_multiplicity
 _atom_site_fract_x
 _atom_site_fract_y
 _atom_site_fract_z
 _atom_site_occupancy
  Sb  Sb0  1  0.25000000  0.31283900  0.36401000  1
  Sb  Sb1  1  0.75000000  0.81283900  0.13599000  1
  Sb  Sb2  1  0.75000000  0.68716100  0.63599000  1
  Sb  Sb3  1  0.25000000  0.18716100  0.86401000  1
  S  S4  1  0.25000000  0.92883500  0.07581500  1
  S  S5  1  0.75000000  0.07116500  0.92418500  1
  S  S6  1  0.25000000  0.57116500  0.57581500  1
  S  S7  1  0.75000000  0.42883500  0.42418500  1
  I  I8  1  0.75000000  0.31747700  0.21207800  1
  I  I9  1  0.25000000  0.68252300  0.78792200  1
  I  I10  1  0.25000000  0.81747700  0.28792200  1
  I  I11  1  0.75000000  0.18252300  0.71207800  1
