# generated using pymatgen
data_NaMnBi
_symmetry_space_group_name_H-M   'P 1'
_cell_length_a   4.52487000
_cell_length_b   4.52487000
_cell_length_c   7.78542500
_cell_angle_alpha   90.00000000
_cell_angle_beta   90.00000000
_cell_angle_gamma   90.00000000
_symmetry_Int_Tables_number   1
_chemical_formula_structural   NaMnBi
_chemical_formula_sum   'Na2 Mn2 Bi2'
_cell_volume   159.40228334
_cell_formula_units_Z   2
loop_
 _symmetry_equiv_pos_site_id
 _symmetry_equiv_pos_as_xyz
  1  'x, y, z'
loop_
 _atom_site_type_symbol
 _atom_site_label
 _atom_site_symmetry_multiplicity
 _atom_site_fract_x
 _atom_site_fract_y
 _atom_site_fract_z
 _atom_site_occupancy
  Na  Na0  1  0.00000000  0.50000000  0.65151700  1
  Na  Na1  1  0.50000000  0.00000000  0.34848300  1
  Mn  Mn2  1  0.50000000  0.50000000  0.00000000  1
  Mn  Mn3  1  0.00000000  0.00000000  0.00000000  1
  Bi  Bi4  1  0.00000000  0.50000000  0.22545200  1
  Bi  Bi5  1  0.50000000  0.00000000  0.77454800  1
