# generated using pymatgen
data_TiClO
_symmetry_space_group_name_H-M   'P 1'
_cell_length_a   3.26893500
_cell_length_b   3.97447900
_cell_length_c   8.20957200
_cell_angle_alpha   90.00000000
_cell_angle_beta   90.00000000
_cell_angle_gamma   90.00000000
_symmetry_Int_Tables_number   1
_chemical_formula_structural   TiClO
_chemical_formula_sum   'Ti2 Cl2 O2'
_cell_volume   106.66133321
_cell_formula_units_Z   2
loop_
 _symmetry_equiv_pos_site_id
 _symmetry_equiv_pos_as_xyz
  1  'x, y, z'
loop_
 _atom_site_type_symbol
 _atom_site_label
 _atom_site_symmetry_multiplicity
 _atom_site_fract_x
 _atom_site_fract_y
 _atom_site_fract_z
 _atom_site_occupancy
  Ti  Ti0  1  0.50000000  0.00000000  0.10286800  1
  Ti  Ti1  1  0.00000000  0.50000000  0.89713200  1
  Cl  Cl2  1  0.50000000  0.50000000  0.68107000  1
  Cl  Cl3  1  0.00000000  0.00000000  0.31893000  1
  O  O4  1  0.00000000  0.00000000  0.93775200  1
  O  O5  1  0.50000000  0.50000000  0.06224800  1
