# generated using pymatgen
data_LaAlO3
_symmetry_space_group_name_H-M   'P 1'
_cell_length_a   5.39873490
_cell_length_b   5.39873490
_cell_length_c   5.39873490
_cell_angle_alpha   119.94667171
_cell_angle_beta   119.78173404
_cell_angle_gamma   90.23542800
_symmetry_Int_Tables_number   1
_chemical_formula_structural   LaAlO3
_chemical_formula_sum   'La2 Al2 O6'
_cell_volume   111.49269830
_cell_formula_units_Z   2
loop_
 _symmetry_equiv_pos_site_id
 _symmetry_equiv_pos_as_xyz
  1  'x, y, z'
loop_
 _atom_site_type_symbol
 _atom_site_label
 _atom_site_symmetry_multiplicity
 _atom_site_fract_x
 _atom_site_fract_y
 _atom_site_fract_z
 _atom_site_occupancy
  La  La0  1  0.75098000  0.75000000  0.00098000  1
  La  La1  1  0.24902000  0.25000000  0.99902000  1
  Al  Al2  1  0.50000000  0.00000000  0.50000000  1
  Al  Al3  1  0.00000000  0.50000000  0.50000000  1
  O  O4  1  0.77057700  0.77057700  0.50000000  1
  O  O5  1  0.77057700  0.27057700  0.00000000  1
  O  O6  1  0.22942300  0.22942300  0.50000000  1
  O  O7  1  0.22942300  0.72942300  0.00000000  1
  O  O8  1  0.29013400  0.75000000  0.54013400  1
  O  O9  1  0.70986600  0.25000000  0.45986600  1
