# generated using pymatgen
data_TeI
_symmetry_space_group_name_H-M   'P 1'
_cell_length_a   8.41461000
_cell_length_b   8.82415888
_cell_length_c   10.18074354
_cell_angle_alpha   103.28085015
_cell_angle_beta   89.87203929
_cell_angle_gamma   104.02203564
_symmetry_Int_Tables_number   1
_chemical_formula_structural   TeI
_chemical_formula_sum   'Te8 I8'
_cell_volume   712.65591269
_cell_formula_units_Z   8
loop_
 _symmetry_equiv_pos_site_id
 _symmetry_equiv_pos_as_xyz
  1  'x, y, z'
loop_
 _atom_site_type_symbol
 _atom_site_label
 _atom_site_symmetry_multiplicity
 _atom_site_fract_x
 _atom_site_fract_y
 _atom_site_fract_z
 _atom_site_occupancy
  Te  Te0  1  0.19012300  0.75891400  0.18134100  1
  Te  Te1  1  0.80987700  0.24108600  0.81865900  1
  Te  Te2  1  0.48820500  0.00533300  0.19846400  1
  Te  Te3  1  0.51179500  0.99466700  0.80153600  1
  Te  Te4  1  0.31411400  0.25073100  0.28023200  1
  Te  Te5  1  0.68588600  0.74926900  0.71976800  1
  Te  Te6  1  0.01309700  0.00425000  0.19704300  1
  Te  Te7  1  0.98690300  0.99575000  0.80295700  1
  I  I8  1  0.17942700  0.70745200  0.44121600  1
  I  I9  1  0.82057300  0.29254800  0.55878400  1
  I  I10  1  0.31934000  0.28795600  0.55911700  1
  I  I11  1  0.68066000  0.71204400  0.44088300  1
  I  I12  1  0.82359000  0.27263900  0.18658900  1
  I  I13  1  0.17641000  0.72736100  0.81341100  1
  I  I14  1  0.68566700  0.73049600  0.08655700  1
  I  I15  1  0.31433300  0.26950400  0.91344300  1
