# generated using pymatgen
data_Nb2Se3
_symmetry_space_group_name_H-M   'P 1'
_cell_length_a   3.46735400
_cell_length_b   6.63692900
_cell_length_c   9.31098510
_cell_angle_alpha   75.84675360
_cell_angle_beta   90.00000000
_cell_angle_gamma   90.00000000
_symmetry_Int_Tables_number   1
_chemical_formula_structural   Nb2Se3
_chemical_formula_sum   'Nb4 Se6'
_cell_volume   207.76569358
_cell_formula_units_Z   2
loop_
 _symmetry_equiv_pos_site_id
 _symmetry_equiv_pos_as_xyz
  1  'x, y, z'
loop_
 _atom_site_type_symbol
 _atom_site_label
 _atom_site_symmetry_multiplicity
 _atom_site_fract_x
 _atom_site_fract_y
 _atom_site_fract_z
 _atom_site_occupancy
  Nb  Nb0  1  0.25000000  0.88593300  0.63533900  1
  Nb  Nb1  1  0.75000000  0.11406700  0.36466100  1
  Nb  Nb2  1  0.25000000  0.68116800  0.00189300  1
  Nb  Nb3  1  0.75000000  0.31883200  0.99810700  1
  Se  Se4  1  0.25000000  0.27110800  0.51298000  1
  Se  Se5  1  0.75000000  0.72889200  0.48702000  1
  Se  Se6  1  0.25000000  0.02796700  0.15680700  1
  Se  Se7  1  0.75000000  0.97203300  0.84319300  1
  Se  Se8  1  0.75000000  0.52371800  0.20310500  1
  Se  Se9  1  0.25000000  0.47628200  0.79689500  1
