# generated using pymatgen
data_WCl3
_symmetry_space_group_name_H-M   'P 1'
_cell_length_a   9.63583771
_cell_length_b   9.63583771
_cell_length_c   9.63583770
_cell_angle_alpha   110.51912560
_cell_angle_beta   110.51912560
_cell_angle_gamma   110.51912289
_symmetry_Int_Tables_number   1
_chemical_formula_structural   WCl3
_chemical_formula_sum   'W6 Cl18'
_cell_volume   660.65690418
_cell_formula_units_Z   6
loop_
 _symmetry_equiv_pos_site_id
 _symmetry_equiv_pos_as_xyz
  1  'x, y, z'
loop_
 _atom_site_type_symbol
 _atom_site_label
 _atom_site_symmetry_multiplicity
 _atom_site_fract_x
 _atom_site_fract_y
 _atom_site_fract_z
 _atom_site_occupancy
  W  W0  1  0.14736000  0.02428700  0.23121900  1
  W  W1  1  0.02428700  0.23121900  0.14736000  1
  W  W2  1  0.23121900  0.14736000  0.02428700  1
  W  W3  1  0.85264000  0.97571300  0.76878100  1
  W  W4  1  0.97571300  0.76878100  0.85264000  1
  W  W5  1  0.76878100  0.85264000  0.97571300  1
  Cl  Cl6  1  0.31140500  0.04146600  0.49783300  1
  Cl  Cl7  1  0.04146600  0.49783300  0.31140500  1
  Cl  Cl8  1  0.49783300  0.31140500  0.04146600  1
  Cl  Cl9  1  0.68859500  0.95853400  0.50216700  1
  Cl  Cl10  1  0.95853400  0.50216700  0.68859500  1
  Cl  Cl11  1  0.50216700  0.68859500  0.95853400  1
  Cl  Cl12  1  0.56258600  0.80512300  0.70663500  1
  Cl  Cl13  1  0.70663500  0.56258600  0.80512300  1
  Cl  Cl14  1  0.80512300  0.70663500  0.56258600  1
  Cl  Cl15  1  0.43741400  0.19487700  0.29336500  1
  Cl  Cl16  1  0.29336500  0.43741400  0.19487700  1
  Cl  Cl17  1  0.19487700  0.29336500  0.43741400  1
  Cl  Cl18  1  0.90264700  0.85255800  0.23729600  1
  Cl  Cl19  1  0.23729600  0.90264700  0.85255800  1
  Cl  Cl20  1  0.85255800  0.23729600  0.90264700  1
  Cl  Cl21  1  0.09735300  0.14744200  0.76270400  1
  Cl  Cl22  1  0.76270400  0.09735300  0.14744200  1
  Cl  Cl23  1  0.14744200  0.76270400  0.09735300  1
