data_image0
_chemical_formula_structural       H64Mg16N32
_chemical_formula_sum              "H64 Mg16 N32"
_cell_length_a       9.96638
_cell_length_b       9.96638
_cell_length_c       12.1678
_cell_angle_alpha    114.176
_cell_angle_beta     114.176
_cell_angle_gamma    90

_space_group_name_H-M_alt    "P 1"
_space_group_IT_number       1

loop_
  _space_group_symop_operation_xyz
  'x, y, z'

loop_
  _atom_site_type_symbol
  _atom_site_label
  _atom_site_symmetry_multiplicity
  _atom_site_fract_x
  _atom_site_fract_y
  _atom_site_fract_z
  _atom_site_occupancy
  H   H1        1.0  0.08060  0.21700  0.05360  1.0000
  H   H2        1.0  0.97300  0.33700  0.05360  1.0000
  H   H3        1.0  0.47300  0.71700  0.05360  1.0000
  H   H4        1.0  0.58100  0.83700  0.05360  1.0000
  H   H5        1.0  0.33700  0.07230  0.05460  1.0000
  H   H6        1.0  0.71700  0.48200  0.05460  1.0000
  H   H7        1.0  0.21700  0.57200  0.05460  1.0000
  H   H8        1.0  0.83700  0.98200  0.05460  1.0000
  H   H9        1.0  0.30300  0.27200  0.19200  1.0000
  H   H10       1.0  0.89000  0.42000  0.19200  1.0000
  H   H11       1.0  0.39000  0.77200  0.19200  1.0000
  H   H12       1.0  0.80300  0.92000  0.19200  1.0000
  H   H13       1.0  0.55600  0.03980  0.19600  1.0000
  H   H14       1.0  0.05580  0.15600  0.19600  1.0000
  H   H15       1.0  0.14000  0.54000  0.19600  1.0000
  H   H16       1.0  0.64000  0.65600  0.19600  1.0000
  H   H17       1.0  0.96000  0.36000  0.30400  1.0000
  H   H18       1.0  0.34400  0.44400  0.30400  1.0000
  H   H19       1.0  0.84400  0.86000  0.30400  1.0000
  H   H20       1.0  0.46000  0.94400  0.30400  1.0000
  H   H21       1.0  0.72800  0.11000  0.30800  1.0000
  H   H22       1.0  0.22800  0.19700  0.30800  1.0000
  H   H23       1.0  0.07950  0.61000  0.30800  1.0000
  H   H24       1.0  0.58000  0.69700  0.30800  1.0000
  H   H25       1.0  0.42800  0.16300  0.44500  1.0000
  H   H26       1.0  0.92800  0.28300  0.44500  1.0000
  H   H27       1.0  0.51800  0.66300  0.44500  1.0000
  H   H28       1.0  0.01770  0.78300  0.44500  1.0000
  H   H29       1.0  0.78300  0.02700  0.44600  1.0000
  H   H30       1.0  0.28300  0.41900  0.44600  1.0000
  H   H31       1.0  0.16300  0.52700  0.44600  1.0000
  H   H32       1.0  0.66300  0.91900  0.44600  1.0000
  H   H33       1.0  0.33700  0.08060  0.55400  1.0000
  H   H34       1.0  0.83700  0.47300  0.55400  1.0000
  H   H35       1.0  0.71700  0.58100  0.55400  1.0000
  H   H36       1.0  0.21700  0.97300  0.55400  1.0000
  H   H37       1.0  0.98200  0.21700  0.55500  1.0000
  H   H38       1.0  0.48200  0.33700  0.55500  1.0000
  H   H39       1.0  0.07230  0.71700  0.55500  1.0000
  H   H40       1.0  0.57200  0.83700  0.55500  1.0000
  H   H41       1.0  0.42000  0.30300  0.69200  1.0000
  H   H42       1.0  0.92000  0.39000  0.69200  1.0000
  H   H43       1.0  0.77200  0.80300  0.69200  1.0000
  H   H44       1.0  0.27200  0.89000  0.69200  1.0000
  H   H45       1.0  0.54000  0.05580  0.69600  1.0000
  H   H46       1.0  0.15600  0.14000  0.69600  1.0000
  H   H47       1.0  0.65600  0.55600  0.69600  1.0000
  H   H48       1.0  0.03980  0.64000  0.69600  1.0000
  H   H49       1.0  0.36000  0.34400  0.80400  1.0000
  H   H50       1.0  0.86000  0.46000  0.80400  1.0000
  H   H51       1.0  0.94400  0.84400  0.80400  1.0000
  H   H52       1.0  0.44400  0.96000  0.80400  1.0000
  H   H53       1.0  0.19700  0.07950  0.80800  1.0000
  H   H54       1.0  0.61000  0.22800  0.80800  1.0000
  H   H55       1.0  0.11000  0.58000  0.80800  1.0000
  H   H56       1.0  0.69700  0.72800  0.80800  1.0000
  H   H57       1.0  0.16300  0.01770  0.94500  1.0000
  H   H58       1.0  0.78300  0.42800  0.94500  1.0000
  H   H59       1.0  0.28300  0.51800  0.94500  1.0000
  H   H60       1.0  0.66300  0.92800  0.94500  1.0000
  H   H61       1.0  0.41900  0.16300  0.94600  1.0000
  H   H62       1.0  0.52700  0.28300  0.94600  1.0000
  H   H63       1.0  0.02700  0.66300  0.94600  1.0000
  H   H64       1.0  0.91900  0.78300  0.94600  1.0000
  Mg  Mg1       1.0  0.69100  0.19500  0.12500  1.0000
  Mg  Mg2       1.0  0.43400  0.43000  0.12500  1.0000
  Mg  Mg3       1.0  0.93400  0.69500  0.12500  1.0000
  Mg  Mg4       1.0  0.19100  0.93000  0.12500  1.0000
  Mg  Mg5       1.0  0.06990  0.06560  0.37500  1.0000
  Mg  Mg6       1.0  0.57000  0.30900  0.37500  1.0000
  Mg  Mg7       1.0  0.80500  0.56600  0.37500  1.0000
  Mg  Mg8       1.0  0.30500  0.80900  0.37500  1.0000
  Mg  Mg9       1.0  0.69500  0.19100  0.62500  1.0000
  Mg  Mg10      1.0  0.19500  0.43400  0.62500  1.0000
  Mg  Mg11      1.0  0.43000  0.69100  0.62500  1.0000
  Mg  Mg12      1.0  0.93000  0.93400  0.62500  1.0000
  Mg  Mg13      1.0  0.80900  0.06990  0.87500  1.0000
  Mg  Mg14      1.0  0.06560  0.30500  0.87500  1.0000
  Mg  Mg15      1.0  0.56600  0.57000  0.87500  1.0000
  Mg  Mg16      1.0  0.30900  0.80500  0.87500  1.0000
  N   N1        1.0  0.75000  0.01860  0.00000  1.0000
  N   N2        1.0  0.25000  0.48100  0.00000  1.0000
  N   N3        1.0  0.75000  0.51900  0.00000  1.0000
  N   N4        1.0  0.25000  0.98100  0.00000  1.0000
  N   N5        1.0  0.50500  0.25500  0.01100  1.0000
  N   N6        1.0  0.00550  0.75500  0.01100  1.0000
  N   N7        1.0  0.13500  0.11200  0.25000  1.0000
  N   N8        1.0  0.63500  0.13800  0.25000  1.0000
  N   N9        1.0  0.61500  0.61200  0.25000  1.0000
  N   N10       1.0  0.11500  0.63800  0.25000  1.0000
  N   N11       1.0  0.38800  0.36500  0.25000  1.0000
  N   N12       1.0  0.86200  0.38500  0.25000  1.0000
  N   N13       1.0  0.36200  0.86500  0.25000  1.0000
  N   N14       1.0  0.88800  0.88500  0.25000  1.0000
  N   N15       1.0  0.74500  0.49500  0.48900  1.0000
  N   N16       1.0  0.24500  0.99500  0.48900  1.0000
  N   N17       1.0  0.01860  0.25000  0.50000  1.0000
  N   N18       1.0  0.51900  0.25000  0.50000  1.0000
  N   N19       1.0  0.48100  0.75000  0.50000  1.0000
  N   N20       1.0  0.98100  0.75000  0.50000  1.0000
  N   N21       1.0  0.75500  0.00550  0.51100  1.0000
  N   N22       1.0  0.25500  0.50500  0.51100  1.0000
  N   N23       1.0  0.11200  0.11500  0.75000  1.0000
  N   N24       1.0  0.63800  0.13500  0.75000  1.0000
  N   N25       1.0  0.13800  0.61500  0.75000  1.0000
  N   N26       1.0  0.61200  0.63500  0.75000  1.0000
  N   N27       1.0  0.88500  0.36200  0.75000  1.0000
  N   N28       1.0  0.38500  0.38800  0.75000  1.0000
  N   N29       1.0  0.36500  0.86200  0.75000  1.0000
  N   N30       1.0  0.86500  0.88800  0.75000  1.0000
  N   N31       1.0  0.99500  0.24500  0.98900  1.0000
  N   N32       1.0  0.49500  0.74500  0.98900  1.0000
