# generated using pymatgen
data_CsYbS2
_symmetry_space_group_name_H-M   'P 1'
_cell_length_a   4.24647679
_cell_length_b   4.24647679
_cell_length_c   15.71902700
_cell_angle_alpha   90.00000000
_cell_angle_beta   90.00000000
_cell_angle_gamma   120.00001224
_symmetry_Int_Tables_number   1
_chemical_formula_structural   CsYbS2
_chemical_formula_sum   'Cs2 Yb2 S4'
_cell_volume   245.47866151
_cell_formula_units_Z   2
loop_
 _symmetry_equiv_pos_site_id
 _symmetry_equiv_pos_as_xyz
  1  'x, y, z'
loop_
 _atom_site_type_symbol
 _atom_site_label
 _atom_site_symmetry_multiplicity
 _atom_site_fract_x
 _atom_site_fract_y
 _atom_site_fract_z
 _atom_site_occupancy
  Cs  Cs0  1  0.33333300  0.66666700  0.25000000  1
  Cs  Cs1  1  0.66666700  0.33333300  0.75000000  1
  Yb  Yb2  1  0.00000000  0.00000000  0.50000000  1
  Yb  Yb3  1  0.00000000  0.00000000  0.00000000  1
  S  S4  1  0.33333300  0.66666700  0.90968500  1
  S  S5  1  0.66666700  0.33333300  0.09031500  1
  S  S6  1  0.66666700  0.33333300  0.40968500  1
  S  S7  1  0.33333300  0.66666700  0.59031500  1
