# generated using pymatgen
data_Nb2C
_symmetry_space_group_name_H-M   'P 1'
_cell_length_a   3.14792027
_cell_length_b   3.14792027
_cell_length_c   5.00682300
_cell_angle_alpha   90.00000000
_cell_angle_beta   90.00000000
_cell_angle_gamma   120.00000566
_symmetry_Int_Tables_number   1
_chemical_formula_structural   Nb2C
_chemical_formula_sum   'Nb2 C1'
_cell_volume   42.96752056
_cell_formula_units_Z   1
loop_
 _symmetry_equiv_pos_site_id
 _symmetry_equiv_pos_as_xyz
  1  'x, y, z'
loop_
 _atom_site_type_symbol
 _atom_site_label
 _atom_site_symmetry_multiplicity
 _atom_site_fract_x
 _atom_site_fract_y
 _atom_site_fract_z
 _atom_site_occupancy
  Nb  Nb0  1  0.66666700  0.33333300  0.74997300  1
  Nb  Nb1  1  0.33333300  0.66666700  0.25002700  1
  C  C2  1  0.00000000  0.00000000  0.00000000  1
