# generated using pymatgen
data_Hg6S4IBr2Cl
_symmetry_space_group_name_H-M   'P 1'
_cell_length_a   9.70192400
_cell_length_b   13.24384100
_cell_length_c   13.33467500
_cell_angle_alpha   90.00000000
_cell_angle_beta   90.00000000
_cell_angle_gamma   90.00000000
_symmetry_Int_Tables_number   1
_chemical_formula_structural   Hg6S4IBr2Cl
_chemical_formula_sum   'Hg24 S16 I4 Br8 Cl4'
_cell_volume   1713.38224308
_cell_formula_units_Z   4
loop_
 _symmetry_equiv_pos_site_id
 _symmetry_equiv_pos_as_xyz
  1  'x, y, z'
loop_
 _atom_site_type_symbol
 _atom_site_label
 _atom_site_symmetry_multiplicity
 _atom_site_fract_x
 _atom_site_fract_y
 _atom_site_fract_z
 _atom_site_occupancy
  Hg  Hg0  1  0.48553200  0.65345400  0.88268700  1
  Hg  Hg1  1  0.98553200  0.34654600  0.11731300  1
  Hg  Hg2  1  0.51446800  0.15345400  0.61731300  1
  Hg  Hg3  1  0.01446800  0.84654600  0.38268700  1
  Hg  Hg4  1  0.51446800  0.34654600  0.11731300  1
  Hg  Hg5  1  0.01446800  0.65345400  0.88268700  1
  Hg  Hg6  1  0.48553200  0.84654600  0.38268700  1
  Hg  Hg7  1  0.98553200  0.15345400  0.61731300  1
  Hg  Hg8  1  0.25000000  0.52772500  0.69192100  1
  Hg  Hg9  1  0.75000000  0.47227500  0.30807900  1
  Hg  Hg10  1  0.75000000  0.02772500  0.80807900  1
  Hg  Hg11  1  0.25000000  0.97227500  0.19192100  1
  Hg  Hg12  1  0.49272100  0.61983800  0.15434700  1
  Hg  Hg13  1  0.99272100  0.38016200  0.84565300  1
  Hg  Hg14  1  0.50727900  0.11983800  0.34565300  1
  Hg  Hg15  1  0.00727900  0.88016200  0.65434700  1
  Hg  Hg16  1  0.50727900  0.38016200  0.84565300  1
  Hg  Hg17  1  0.00727900  0.61983800  0.15434700  1
  Hg  Hg18  1  0.49272100  0.88016200  0.65434700  1
  Hg  Hg19  1  0.99272100  0.11983800  0.34565300  1
  Hg  Hg20  1  0.25000000  0.19969200  0.97640700  1
  Hg  Hg21  1  0.75000000  0.80030800  0.02359300  1
  Hg  Hg22  1  0.75000000  0.69969200  0.52359300  1
  Hg  Hg23  1  0.25000000  0.30030800  0.47640700  1
  S  S24  1  0.99725500  0.03340700  0.75653900  1
  S  S25  1  0.49725500  0.96659300  0.24346100  1
  S  S26  1  0.50274500  0.46659300  0.25653900  1
  S  S27  1  0.49725500  0.53340700  0.74346100  1
  S  S28  1  0.99725500  0.46659300  0.25653900  1
  S  S29  1  0.50274500  0.03340700  0.75653900  1
  S  S30  1  0.00274500  0.96659300  0.24346100  1
  S  S31  1  0.00112700  0.25904100  0.46684000  1
  S  S32  1  0.50112700  0.74095900  0.53316000  1
  S  S33  1  0.99887300  0.75904100  0.03316000  1
  S  S34  1  0.49887300  0.24095900  0.96684000  1
  S  S35  1  0.99887300  0.74095900  0.53316000  1
  S  S36  1  0.49887300  0.25904100  0.46684000  1
  S  S37  1  0.00112700  0.24095900  0.96684000  1
  S  S38  1  0.50112700  0.75904100  0.03316000  1
  S  S39  1  0.00274500  0.53340700  0.74346100  1
  I  I40  1  0.75000000  0.49256600  0.99169100  1
  I  I41  1  0.25000000  0.50743400  0.00830900  1
  I  I42  1  0.75000000  0.00743400  0.49169100  1
  I  I43  1  0.25000000  0.99256600  0.50830900  1
  Br  Br44  1  0.25000000  0.72880700  0.27012700  1
  Br  Br45  1  0.75000000  0.78221400  0.78432500  1
  Br  Br46  1  0.75000000  0.27119300  0.72987300  1
  Br  Br47  1  0.75000000  0.71778600  0.28432500  1
  Br  Br48  1  0.75000000  0.22880700  0.22987300  1
  Br  Br49  1  0.25000000  0.28221400  0.71567500  1
  Br  Br50  1  0.25000000  0.21778600  0.21567500  1
  Br  Br51  1  0.25000000  0.77119300  0.77012700  1
  Cl  Cl52  1  0.25000000  0.99882600  0.99716400  1
  Cl  Cl53  1  0.25000000  0.50117400  0.49716400  1
  Cl  Cl54  1  0.75000000  0.49882600  0.50283600  1
  Cl  Cl55  1  0.75000000  0.00117400  0.00283600  1
