# generated using pymatgen
data_VBiPbO5
_symmetry_space_group_name_H-M   'P 1'
_cell_length_a   5.83127900
_cell_length_b   7.32071482
_cell_length_c   7.33337714
_cell_angle_alpha   106.19895397
_cell_angle_beta   97.96347315
_cell_angle_gamma   112.39291009
_symmetry_Int_Tables_number   1
_chemical_formula_structural   VBiPbO5
_chemical_formula_sum   'V2 Bi2 Pb2 O10'
_cell_volume   267.18235887
_cell_formula_units_Z   2
loop_
 _symmetry_equiv_pos_site_id
 _symmetry_equiv_pos_as_xyz
  1  'x, y, z'
loop_
 _atom_site_type_symbol
 _atom_site_label
 _atom_site_symmetry_multiplicity
 _atom_site_fract_x
 _atom_site_fract_y
 _atom_site_fract_z
 _atom_site_occupancy
  V  V0  1  0.34303700  0.64833400  0.34824800  1
  V  V1  1  0.65696300  0.35166600  0.65175200  1
  Bi  Bi2  1  0.90940600  0.96787300  0.74646000  1
  Bi  Bi3  1  0.09059400  0.03212700  0.25354000  1
  Pb  Pb4  1  0.68292000  0.31302500  0.11137100  1
  Pb  Pb5  1  0.31708000  0.68697500  0.88862900  1
  O  O6  1  0.24173700  0.02296700  0.99736900  1
  O  O7  1  0.86592400  0.28331100  0.78595300  1
  O  O8  1  0.84341600  0.62157400  0.69843600  1
  O  O9  1  0.54497600  0.20356900  0.39490300  1
  O  O10  1  0.75826300  0.97703300  0.00263100  1
  O  O11  1  0.45502400  0.79643100  0.60509700  1
  O  O12  1  0.60577500  0.67846200  0.26030200  1
  O  O13  1  0.39422500  0.32153800  0.73969800  1
  O  O14  1  0.13407600  0.71668900  0.21404700  1
  O  O15  1  0.15658400  0.37842600  0.30156400  1
