# generated using pymatgen
data_Sr2InI5
_symmetry_space_group_name_H-M   'P 1'
_cell_length_a   10.06203584
_cell_length_b   10.06203584
_cell_length_c   10.06203584
_cell_angle_alpha   125.54083194
_cell_angle_beta   125.54083194
_cell_angle_gamma   80.64413373
_symmetry_Int_Tables_number   1
_chemical_formula_structural   Sr2InI5
_chemical_formula_sum   'Sr4 In2 I10'
_cell_volume   650.43213070
_cell_formula_units_Z   2
loop_
 _symmetry_equiv_pos_site_id
 _symmetry_equiv_pos_as_xyz
  1  'x, y, z'
loop_
 _atom_site_type_symbol
 _atom_site_label
 _atom_site_symmetry_multiplicity
 _atom_site_fract_x
 _atom_site_fract_y
 _atom_site_fract_z
 _atom_site_occupancy
  Sr  Sr0  1  0.84397500  0.34397500  0.18795000  1
  Sr  Sr1  1  0.34397500  0.15602500  0.50000000  1
  Sr  Sr2  1  0.15602500  0.65602500  0.81205000  1
  Sr  Sr3  1  0.65602500  0.84397500  0.50000000  1
  In  In4  1  0.25000000  0.25000000  0.00000000  1
  In  In5  1  0.75000000  0.75000000  0.00000000  1
  I  I6  1  0.50000000  0.50000000  0.00000000  1
  I  I7  1  0.00000000  0.00000000  0.00000000  1
  I  I8  1  0.51271400  0.01271400  0.80125800  1
  I  I9  1  0.01271400  0.21145600  0.50000000  1
  I  I10  1  0.71145600  0.51271400  0.50000000  1
  I  I11  1  0.98728600  0.78854400  0.50000000  1
  I  I12  1  0.28854400  0.48728600  0.50000000  1
  I  I13  1  0.78854400  0.28854400  0.80125800  1
  I  I14  1  0.48728600  0.98728600  0.19874200  1
  I  I15  1  0.21145600  0.71145600  0.19874200  1
