# generated using pymatgen
data_KH3(CO2)2
_symmetry_space_group_name_H-M   'P 1'
_cell_length_a   7.55441500
_cell_length_b   7.63724000
_cell_length_c   17.95619300
_cell_angle_alpha   90.00000000
_cell_angle_beta   90.00000000
_cell_angle_gamma   90.00000000
_symmetry_Int_Tables_number   1
_chemical_formula_structural   KH3(CO2)2
_chemical_formula_sum   'K8 H24 C16 O32'
_cell_volume   1035.98040784
_cell_formula_units_Z   8
loop_
 _symmetry_equiv_pos_site_id
 _symmetry_equiv_pos_as_xyz
  1  'x, y, z'
loop_
 _atom_site_type_symbol
 _atom_site_label
 _atom_site_symmetry_multiplicity
 _atom_site_fract_x
 _atom_site_fract_y
 _atom_site_fract_z
 _atom_site_occupancy
  K  K0  1  0.71572500  0.06378000  0.03647800  1
  K  K1  1  0.21572500  0.93622000  0.46352200  1
  K  K2  1  0.78427500  0.56378000  0.96352200  1
  K  K3  1  0.28427500  0.43622000  0.53647800  1
  K  K4  1  0.28427500  0.93622000  0.96352200  1
  K  K5  1  0.78427500  0.06378000  0.53647800  1
  K  K6  1  0.21572500  0.43622000  0.03647800  1
  K  K7  1  0.71572500  0.56378000  0.46352200  1
  H  H8  1  0.94886500  0.43032000  0.27192400  1
  H  H9  1  0.44886500  0.56968000  0.22807600  1
  H  H10  1  0.55113500  0.93032000  0.72807600  1
  H  H11  1  0.05113500  0.06968000  0.77192400  1
  H  H12  1  0.05113500  0.56968000  0.72807600  1
  H  H13  1  0.55113500  0.43032000  0.77192400  1
  H  H14  1  0.44886500  0.06968000  0.27192400  1
  H  H15  1  0.94886500  0.93032000  0.22807600  1
  H  H16  1  0.74188500  0.31256600  0.19921200  1
  H  H17  1  0.24188500  0.68743400  0.30078800  1
  H  H18  1  0.75811500  0.81256600  0.80078800  1
  H  H19  1  0.25811500  0.18743400  0.69921200  1
  H  H20  1  0.25811500  0.68743400  0.80078800  1
  H  H21  1  0.75811500  0.31256600  0.69921200  1
  H  H22  1  0.24188500  0.18743400  0.19921200  1
  H  H23  1  0.74188500  0.81256600  0.30078800  1
  H  H24  1  0.62766000  0.24789000  0.34332700  1
  H  H25  1  0.12766000  0.75211000  0.15667300  1
  H  H26  1  0.87234000  0.74789000  0.65667300  1
  H  H27  1  0.37234000  0.25211000  0.84332700  1
  H  H28  1  0.37234000  0.75211000  0.65667300  1
  H  H29  1  0.87234000  0.24789000  0.84332700  1
  H  H30  1  0.12766000  0.25211000  0.34332700  1
  H  H31  1  0.62766000  0.74789000  0.15667300  1
  C  C32  1  0.85389000  0.37342400  0.16861300  1
  C  C33  1  0.35389000  0.62657600  0.33138700  1
  C  C34  1  0.64611000  0.87342400  0.83138700  1
  C  C35  1  0.14611000  0.12657600  0.66861300  1
  C  C36  1  0.14611000  0.62657600  0.83138700  1
  C  C37  1  0.64611000  0.37342400  0.66861300  1
  C  C38  1  0.35389000  0.12657600  0.16861300  1
  C  C39  1  0.85389000  0.87342400  0.33138700  1
  C  C40  1  0.52393800  0.18371400  0.37766700  1
  C  C41  1  0.02393800  0.81628600  0.12233300  1
  C  C42  1  0.97606200  0.68371400  0.62233300  1
  C  C43  1  0.47606200  0.31628600  0.87766700  1
  C  C44  1  0.47606200  0.81628600  0.62233300  1
  C  C45  1  0.97606200  0.18371400  0.87766700  1
  C  C46  1  0.02393800  0.31628600  0.37766700  1
  C  C47  1  0.52393800  0.68371400  0.12233300  1
  O  O48  1  0.85653200  0.37334600  0.09941500  1
  O  O49  1  0.35653200  0.62665400  0.40058500  1
  O  O50  1  0.64346800  0.87334600  0.90058500  1
  O  O51  1  0.14346800  0.12665400  0.59941500  1
  O  O52  1  0.14346800  0.62665400  0.90058500  1
  O  O53  1  0.64346800  0.37334600  0.59941500  1
  O  O54  1  0.35653200  0.12665400  0.09941500  1
  O  O55  1  0.85653200  0.87334600  0.40058500  1
  O  O56  1  0.97803900  0.44181200  0.20970600  1
  O  O57  1  0.47803900  0.55818800  0.29029400  1
  O  O58  1  0.52196100  0.94181200  0.79029400  1
  O  O59  1  0.02196100  0.05818800  0.70970600  1
  O  O60  1  0.02196100  0.55818800  0.79029400  1
  O  O61  1  0.52196100  0.44181200  0.70970600  1
  O  O62  1  0.47803900  0.05818800  0.20970600  1
  O  O63  1  0.97803900  0.94181200  0.29029400  1
  O  O64  1  0.51593700  0.21712600  0.44592700  1
  O  O65  1  0.01593700  0.78287400  0.05407300  1
  O  O66  1  0.98406300  0.71712600  0.55407300  1
  O  O67  1  0.48406300  0.28287400  0.94592700  1
  O  O68  1  0.48406300  0.78287400  0.55407300  1
  O  O69  1  0.98406300  0.21712600  0.94592700  1
  O  O70  1  0.01593700  0.28287400  0.44592700  1
  O  O71  1  0.51593700  0.71712600  0.05407300  1
  O  O72  1  0.91821300  0.42149300  0.34319400  1
  O  O73  1  0.41821300  0.57850700  0.15680600  1
  O  O74  1  0.58178700  0.92149300  0.65680600  1
  O  O75  1  0.08178700  0.07850700  0.84319400  1
  O  O76  1  0.08178700  0.57850700  0.65680600  1
  O  O77  1  0.58178700  0.42149300  0.84319400  1
  O  O78  1  0.41821300  0.07850700  0.34319400  1
  O  O79  1  0.91821300  0.92149300  0.15680600  1
