# generated using pymatgen
data_CoH8(BrO2)2
_symmetry_space_group_name_H-M   'P 1'
_cell_length_a   7.59581800
_cell_length_b   6.12238700
_cell_length_c   8.65241397
_cell_angle_alpha   69.72182153
_cell_angle_beta   90.00000000
_cell_angle_gamma   90.00000000
_symmetry_Int_Tables_number   1
_chemical_formula_structural   CoH8(BrO2)2
_chemical_formula_sum   'Co2 H16 Br4 O8'
_cell_volume   377.43761502
_cell_formula_units_Z   2
loop_
 _symmetry_equiv_pos_site_id
 _symmetry_equiv_pos_as_xyz
  1  'x, y, z'
loop_
 _atom_site_type_symbol
 _atom_site_label
 _atom_site_symmetry_multiplicity
 _atom_site_fract_x
 _atom_site_fract_y
 _atom_site_fract_z
 _atom_site_occupancy
  Co  Co0  1  0.00000000  0.00000000  0.00000000  1
  Co  Co1  1  0.50000000  0.00000000  0.50000000  1
  H  H2  1  0.70169000  0.63117900  0.49663800  1
  H  H3  1  0.20169000  0.36882100  0.00336200  1
  H  H4  1  0.29831000  0.36882100  0.50336200  1
  H  H5  1  0.79831000  0.63117900  0.99663800  1
  H  H6  1  0.68228400  0.61652700  0.67945600  1
  H  H7  1  0.18228400  0.38347300  0.82054400  1
  H  H8  1  0.31771600  0.38347300  0.32054400  1
  H  H9  1  0.81771600  0.61652700  0.17945600  1
  H  H10  1  0.57101400  0.10931200  0.16723700  1
  H  H11  1  0.07101400  0.89068800  0.33276300  1
  H  H12  1  0.42898600  0.89068800  0.83276300  1
  H  H13  1  0.92898600  0.10931200  0.66723700  1
  H  H14  1  0.43135600  0.90400000  0.21490000  1
  H  H15  1  0.93135600  0.09600000  0.28510000  1
  H  H16  1  0.06864400  0.90400000  0.71490000  1
  H  H17  1  0.56864400  0.09600000  0.78510000  1
  Br  Br18  1  0.23010100  0.69871400  0.57580700  1
  Br  Br19  1  0.73010100  0.30128600  0.92419300  1
  Br  Br20  1  0.26989900  0.69871400  0.07580700  1
  Br  Br21  1  0.76989900  0.30128600  0.42419300  1
  O  O22  1  0.68380600  0.72846000  0.56543000  1
  O  O23  1  0.18380600  0.27154000  0.93457000  1
  O  O24  1  0.31619400  0.27154000  0.43457000  1
  O  O25  1  0.81619400  0.72846000  0.06543000  1
  O  O26  1  0.49797500  0.00835300  0.25859800  1
  O  O27  1  0.99797500  0.99164700  0.24140200  1
  O  O28  1  0.50202500  0.99164700  0.74140200  1
  O  O29  1  0.00202500  0.00835300  0.75859800  1
