# generated using pymatgen
data_CrHO2
_symmetry_space_group_name_H-M   'P 1'
_cell_length_a   3.04076400
_cell_length_b   4.36961500
_cell_length_c   4.94854300
_cell_angle_alpha   90.00000000
_cell_angle_beta   90.00000000
_cell_angle_gamma   90.00000000
_symmetry_Int_Tables_number   1
_chemical_formula_structural   CrHO2
_chemical_formula_sum   'Cr2 H2 O4'
_cell_volume   65.75113242
_cell_formula_units_Z   2
loop_
 _symmetry_equiv_pos_site_id
 _symmetry_equiv_pos_as_xyz
  1  'x, y, z'
loop_
 _atom_site_type_symbol
 _atom_site_label
 _atom_site_symmetry_multiplicity
 _atom_site_fract_x
 _atom_site_fract_y
 _atom_site_fract_z
 _atom_site_occupancy
  Cr  Cr0  1  0.50000100  0.26340400  0.48453200  1
  Cr  Cr1  1  0.00000000  0.73659700  0.98453300  1
  H  H2  1  0.50000100  0.20911500  0.96821800  1
  H  H3  1  0.00000000  0.79088500  0.46821700  1
  O  O4  1  0.00000000  0.51440600  0.62856500  1
  O  O5  1  0.50000100  0.48559400  0.12856300  1
  O  O6  1  0.50000100  0.01254300  0.84158500  1
  O  O7  1  0.00000000  0.98745700  0.34158600  1
