# generated using pymatgen
data_K3H(SO4)2
_symmetry_space_group_name_H-M   'P 1'
_cell_length_a   8.04213337
_cell_length_b   8.04213337
_cell_length_c   9.94820016
_cell_angle_alpha   78.01880622
_cell_angle_beta   78.01880622
_cell_angle_gamma   42.09751603
_symmetry_Int_Tables_number   1
_chemical_formula_structural   K3H(SO4)2
_chemical_formula_sum   'K6 H2 S4 O16'
_cell_volume   420.53192601
_cell_formula_units_Z   2
loop_
 _symmetry_equiv_pos_site_id
 _symmetry_equiv_pos_as_xyz
  1  'x, y, z'
loop_
 _atom_site_type_symbol
 _atom_site_label
 _atom_site_symmetry_multiplicity
 _atom_site_fract_x
 _atom_site_fract_y
 _atom_site_fract_z
 _atom_site_occupancy
  K  K0  1  0.75292300  0.24707700  0.25000000  1
  K  K1  1  0.24707700  0.75292300  0.75000000  1
  K  K2  1  0.03695300  0.57801400  0.15230300  1
  K  K3  1  0.42198600  0.96304700  0.34769700  1
  K  K4  1  0.96304700  0.42198600  0.84769700  1
  K  K5  1  0.57801400  0.03695300  0.65230300  1
  H  H6  1  0.50000000  0.50000000  0.50000000  1
  H  H7  1  0.50000000  0.50000000  0.00000000  1
  S  S8  1  0.83952500  0.39222900  0.53701700  1
  S  S9  1  0.60777100  0.16047500  0.96298300  1
  S  S10  1  0.16047500  0.60777100  0.46298300  1
  S  S11  1  0.39222900  0.83952500  0.03701700  1
  O  O12  1  0.67643000  0.63207500  0.59683300  1
  O  O13  1  0.36792500  0.32357000  0.90316700  1
  O  O14  1  0.32357000  0.36792500  0.40316700  1
  O  O15  1  0.63207500  0.67643000  0.09683300  1
  O  O16  1  0.06853700  0.18553700  0.60850800  1
  O  O17  1  0.81446300  0.93146300  0.89149200  1
  O  O18  1  0.93146300  0.81446300  0.39149200  1
  O  O19  1  0.18553700  0.06853700  0.10850800  1
  O  O20  1  0.33169100  0.69072000  0.05824900  1
  O  O21  1  0.30928000  0.66830900  0.44175100  1
  O  O22  1  0.66830900  0.30928000  0.94175100  1
  O  O23  1  0.69072000  0.33169100  0.55824900  1
  O  O24  1  0.41288100  0.89232700  0.88600200  1
  O  O25  1  0.10767300  0.58711900  0.61399800  1
  O  O26  1  0.58711900  0.10767300  0.11399800  1
  O  O27  1  0.89232700  0.41288100  0.38600200  1
