# generated using pymatgen
data_Mn(HO)2
_symmetry_space_group_name_H-M   'P 1'
_cell_length_a   4.82067874
_cell_length_b   6.73903720
_cell_length_c   5.84098202
_cell_angle_alpha   90.03592565
_cell_angle_beta   89.39034159
_cell_angle_gamma   90.96290465
_symmetry_Int_Tables_number   1
_chemical_formula_structural   Mn(HO)2
_chemical_formula_sum   'Mn4 H8 O8'
_cell_volume   189.71686977
_cell_formula_units_Z   4
loop_
 _symmetry_equiv_pos_site_id
 _symmetry_equiv_pos_as_xyz
  1  'x, y, z'
loop_
 _atom_site_type_symbol
 _atom_site_label
 _atom_site_symmetry_multiplicity
 _atom_site_fract_x
 _atom_site_fract_y
 _atom_site_fract_z
 _atom_site_occupancy
  Mn  Mn0  1  0.97808700  0.73304200  0.45509700  1
  Mn  Mn1  1  0.97776100  0.98461000  0.95494900  1
  Mn  Mn2  1  0.97815200  0.23293300  0.45529400  1
  Mn  Mn3  1  0.97761800  0.48476300  0.95516300  1
  H  H4  1  0.55074100  0.23088200  0.79354200  1
  H  H5  1  0.55149800  0.48042700  0.29443100  1
  H  H6  1  0.55076300  0.73091400  0.79355800  1
  H  H7  1  0.55148000  0.98049800  0.29438900  1
  H  H8  1  0.40447800  0.23934200  0.12053500  1
  H  H9  1  0.40493800  0.48813800  0.62135000  1
  H  H10  1  0.40437700  0.73944300  0.12058000  1
  H  H11  1  0.40507900  0.98804700  0.62119400  1
  O  O12  1  0.75276100  0.23059200  0.79066600  1
  O  O13  1  0.75358500  0.48104100  0.29152000  1
  O  O14  1  0.75280300  0.73060200  0.79064600  1
  O  O15  1  0.75357700  0.98103800  0.29149400  1
  O  O16  1  0.20241700  0.23857500  0.11950000  1
  O  O17  1  0.20288300  0.48639800  0.62010600  1
  O  O18  1  0.20233700  0.73881400  0.11941700  1
  O  O19  1  0.20308900  0.98630600  0.61929200  1
