# generated using pymatgen
data_NdP2H9O10
_symmetry_space_group_name_H-M   'P 1'
_cell_length_a   7.34310900
_cell_length_b   10.15835200
_cell_length_c   11.79699900
_cell_angle_alpha   90.00000000
_cell_angle_beta   90.00000000
_cell_angle_gamma   90.00000000
_symmetry_Int_Tables_number   1
_chemical_formula_structural   NdP2H9O10
_chemical_formula_sum   'Nd4 P8 H36 O40'
_cell_volume   879.98399851
_cell_formula_units_Z   4
loop_
 _symmetry_equiv_pos_site_id
 _symmetry_equiv_pos_as_xyz
  1  'x, y, z'
loop_
 _atom_site_type_symbol
 _atom_site_label
 _atom_site_symmetry_multiplicity
 _atom_site_fract_x
 _atom_site_fract_y
 _atom_site_fract_z
 _atom_site_occupancy
  Nd  Nd0  1  0.75000000  0.24330100  0.25000000  1
  Nd  Nd1  1  0.75000000  0.25669900  0.75000000  1
  Nd  Nd2  1  0.25000000  0.75669900  0.75000000  1
  Nd  Nd3  1  0.25000000  0.74330100  0.25000000  1
  P  P4  1  0.91286600  0.53129600  0.42918100  1
  P  P5  1  0.91286600  0.96870400  0.57081900  1
  P  P6  1  0.58713400  0.53129600  0.07081900  1
  P  P7  1  0.58713400  0.96870400  0.92918100  1
  P  P8  1  0.08713400  0.46870400  0.57081900  1
  P  P9  1  0.08713400  0.03129600  0.42918100  1
  P  P10  1  0.41286600  0.46870400  0.92918100  1
  P  P11  1  0.41286600  0.03129600  0.07081900  1
  H  H12  1  0.55517100  0.94467900  0.25613700  1
  H  H13  1  0.55517100  0.55532100  0.74386300  1
  H  H14  1  0.94482900  0.94467900  0.24386300  1
  H  H15  1  0.94482900  0.55532100  0.75613700  1
  H  H16  1  0.44482900  0.05532100  0.74386300  1
  H  H17  1  0.44482900  0.44467900  0.25613700  1
  H  H18  1  0.05517100  0.05532100  0.75613700  1
  H  H19  1  0.05517100  0.44467900  0.24386300  1
  H  H20  1  0.53758600  0.62935700  0.42985100  1
  H  H21  1  0.53758600  0.87064300  0.57014900  1
  H  H22  1  0.96241400  0.62935700  0.07014900  1
  H  H23  1  0.96241400  0.87064300  0.92985100  1
  H  H24  1  0.46241400  0.37064300  0.57014900  1
  H  H25  1  0.46241400  0.12935700  0.42985100  1
  H  H26  1  0.03758600  0.37064300  0.92985100  1
  H  H27  1  0.03758600  0.12935700  0.07014900  1
  H  H28  1  0.62826300  0.85338900  0.35382000  1
  H  H29  1  0.62826300  0.64661100  0.64618000  1
  H  H30  1  0.87173700  0.85338900  0.14618000  1
  H  H31  1  0.87173700  0.64661100  0.85382000  1
  H  H32  1  0.37173700  0.14661100  0.64618000  1
  H  H33  1  0.37173700  0.35338900  0.35382000  1
  H  H34  1  0.12826300  0.14661100  0.85382000  1
  H  H35  1  0.12826300  0.35338900  0.14618000  1
  H  H36  1  0.80091600  0.75000000  0.50000000  1
  H  H37  1  0.69908400  0.75000000  0.00000000  1
  H  H38  1  0.19908400  0.25000000  0.50000000  1
  H  H39  1  0.30091600  0.25000000  0.00000000  1
  H  H40  1  0.34040900  0.62086300  0.48604200  1
  H  H41  1  0.34040900  0.87913700  0.51395800  1
  H  H42  1  0.15959100  0.62086300  0.01395800  1
  H  H43  1  0.15959100  0.87913700  0.98604200  1
  H  H44  1  0.65959100  0.37913700  0.51395800  1
  H  H45  1  0.65959100  0.12086300  0.48604200  1
  H  H46  1  0.84040900  0.37913700  0.98604200  1
  H  H47  1  0.84040900  0.12086300  0.01395800  1
  O  O48  1  0.40583900  0.63308800  0.41307800  1
  O  O49  1  0.40583900  0.86691200  0.58692200  1
  O  O50  1  0.09416100  0.63308800  0.08692200  1
  O  O51  1  0.09416100  0.86691200  0.91307800  1
  O  O52  1  0.59416100  0.36691200  0.58692200  1
  O  O53  1  0.59416100  0.13308800  0.41307800  1
  O  O54  1  0.90583900  0.36691200  0.91307800  1
  O  O55  1  0.90583900  0.13308800  0.08692200  1
  O  O56  1  0.19522000  0.90777100  0.39529400  1
  O  O57  1  0.19522000  0.59222900  0.60470600  1
  O  O58  1  0.30478000  0.90777100  0.10470600  1
  O  O59  1  0.30478000  0.59222900  0.89529400  1
  O  O60  1  0.80478000  0.09222900  0.60470600  1
  O  O61  1  0.80478000  0.40777100  0.39529400  1
  O  O62  1  0.69522000  0.09222900  0.89529400  1
  O  O63  1  0.69522000  0.40777100  0.10470600  1
  O  O64  1  0.55059500  0.85387200  0.28666400  1
  O  O65  1  0.55059500  0.64612800  0.71333600  1
  O  O66  1  0.94940500  0.85387200  0.21333600  1
  O  O67  1  0.94940500  0.64612800  0.78666400  1
  O  O68  1  0.44940500  0.14612800  0.71333600  1
  O  O69  1  0.44940500  0.35387200  0.28666400  1
  O  O70  1  0.05059500  0.14612800  0.78666400  1
  O  O71  1  0.05059500  0.35387200  0.21333600  1
  O  O72  1  0.72379100  0.63535600  0.02216800  1
  O  O73  1  0.72379100  0.86464400  0.97783200  1
  O  O74  1  0.77620900  0.63535600  0.47783200  1
  O  O75  1  0.77620900  0.86464400  0.52216800  1
  O  O76  1  0.27620900  0.36464400  0.97783200  1
  O  O77  1  0.27620900  0.13535600  0.02216800  1
  O  O78  1  0.22379100  0.36464400  0.52216800  1
  O  O79  1  0.22379100  0.13535600  0.47783200  1
  O  O80  1  0.46524100  0.58575400  0.16532000  1
  O  O81  1  0.46524100  0.91424600  0.83468000  1
  O  O82  1  0.03475900  0.58575400  0.33468000  1
  O  O83  1  0.03475900  0.91424600  0.66532000  1
  O  O84  1  0.53475900  0.41424600  0.83468000  1
  O  O85  1  0.53475900  0.08575400  0.16532000  1
  O  O86  1  0.96524100  0.41424600  0.66532000  1
  O  O87  1  0.96524100  0.08575400  0.33468000  1
