# generated using pymatgen
data_CrH36C12S6(ClO2)3
_symmetry_space_group_name_H-M   'P 1'
_cell_length_a   9.58761728
_cell_length_b   9.58761728
_cell_length_c   9.58761639
_cell_angle_alpha   68.16299303
_cell_angle_beta   68.16299303
_cell_angle_gamma   68.16299425
_symmetry_Int_Tables_number   1
_chemical_formula_structural   CrH36C12S6(ClO2)3
_chemical_formula_sum   'Cr1 H36 C12 S6 Cl3 O6'
_cell_volume   730.93593491
_cell_formula_units_Z   1
loop_
 _symmetry_equiv_pos_site_id
 _symmetry_equiv_pos_as_xyz
  1  'x, y, z'
loop_
 _atom_site_type_symbol
 _atom_site_label
 _atom_site_symmetry_multiplicity
 _atom_site_fract_x
 _atom_site_fract_y
 _atom_site_fract_z
 _atom_site_occupancy
  Cr  Cr0  1  0.50000000  0.50000000  0.50000000  1
  H  H1  1  0.19901100  0.40254200  0.92549600  1
  H  H2  1  0.92549600  0.19901100  0.40254200  1
  H  H3  1  0.40254200  0.92549600  0.19901100  1
  H  H4  1  0.80098900  0.59745800  0.07450400  1
  H  H5  1  0.07450400  0.80098900  0.59745800  1
  H  H6  1  0.59745800  0.07450400  0.80098900  1
  H  H7  1  0.07321600  0.28879400  0.95519000  1
  H  H8  1  0.95519000  0.07321600  0.28879400  1
  H  H9  1  0.28879400  0.95519000  0.07321600  1
  H  H10  1  0.92678400  0.71120600  0.04481000  1
  H  H11  1  0.04481000  0.92678400  0.71120600  1
  H  H12  1  0.71120600  0.04481000  0.92678400  1
  H  H13  1  0.02760500  0.49450900  0.84940000  1
  H  H14  1  0.84940000  0.02760500  0.49450900  1
  H  H15  1  0.49450900  0.84940000  0.02760500  1
  H  H16  1  0.35913400  0.00957300  0.56671200  1
  H  H17  1  0.97239500  0.50549100  0.15060000  1
  H  H18  1  0.50549100  0.15060000  0.97239500  1
  H  H19  1  0.99042700  0.43328800  0.64086600  1
  H  H20  1  0.64086600  0.99042700  0.43328800  1
  H  H21  1  0.43328800  0.64086600  0.99042700  1
  H  H22  1  0.00957300  0.56671200  0.35913400  1
  H  H23  1  0.69818000  0.47530800  0.86549500  1
  H  H24  1  0.47530800  0.86549500  0.69818000  1
  H  H25  1  0.86549500  0.69818000  0.47530800  1
  H  H26  1  0.30182000  0.52469200  0.13450500  1
  H  H27  1  0.52469200  0.13450500  0.30182000  1
  H  H28  1  0.13450500  0.30182000  0.52469200  1
  H  H29  1  0.77570300  0.27058500  0.95807400  1
  H  H30  1  0.27058500  0.95807400  0.77570300  1
  H  H31  1  0.95807400  0.77570300  0.27058500  1
  H  H32  1  0.22429700  0.72941500  0.04192600  1
  H  H33  1  0.72941500  0.04192600  0.22429700  1
  H  H34  1  0.04192600  0.22429700  0.72941500  1
  H  H35  1  0.56671200  0.35913400  0.00957300  1
  H  H36  1  0.15060000  0.97239500  0.50549100  1
  C  C37  1  0.08365200  0.32360800  0.64102800  1
  C  C38  1  0.64102800  0.08365200  0.32360800  1
  C  C39  1  0.32360800  0.64102800  0.08365200  1
  C  C40  1  0.91634800  0.67639200  0.35897200  1
  C  C41  1  0.61246500  0.12411900  0.87906000  1
  C  C42  1  0.12411900  0.87906000  0.61246500  1
  C  C43  1  0.87906000  0.61246500  0.12411900  1
  C  C44  1  0.38753500  0.87588100  0.12094000  1
  C  C45  1  0.87588100  0.12094000  0.38753500  1
  C  C46  1  0.12094000  0.38753500  0.87588100  1
  C  C47  1  0.35897200  0.91634800  0.67639200  1
  C  C48  1  0.67639200  0.35897200  0.91634800  1
  S  S49  1  0.23576200  0.33369300  0.69879200  1
  S  S50  1  0.69879200  0.23576200  0.33369300  1
  S  S51  1  0.33369300  0.69879200  0.23576200  1
  S  S52  1  0.76423800  0.66630700  0.30120800  1
  S  S53  1  0.30120800  0.76423800  0.66630700  1
  S  S54  1  0.66630700  0.30120800  0.76423800  1
  Cl  Cl55  1  0.25342400  0.25342400  0.25342400  1
  Cl  Cl56  1  0.74657600  0.74657600  0.74657600  1
  Cl  Cl57  1  0.00000000  0.00000000  0.00000000  1
  O  O58  1  0.27934100  0.48528700  0.58189300  1
  O  O59  1  0.58189300  0.27934100  0.48528700  1
  O  O60  1  0.48528700  0.58189300  0.27934100  1
  O  O61  1  0.72065900  0.51471300  0.41810700  1
  O  O62  1  0.41810700  0.72065900  0.51471300  1
  O  O63  1  0.51471300  0.41810700  0.72065900  1
