# generated using pymatgen
data_TbAg3H6C6(N2O)3
_symmetry_space_group_name_H-M   'P 1'
_cell_length_a   6.77564861
_cell_length_b   6.77564861
_cell_length_c   18.43071900
_cell_angle_alpha   90.00000000
_cell_angle_beta   90.00000000
_cell_angle_gamma   120.00000596
_symmetry_Int_Tables_number   1
_chemical_formula_structural   TbAg3H6C6(N2O)3
_chemical_formula_sum   'Tb2 Ag6 H12 C12 N12 O6'
_cell_volume   732.78173141
_cell_formula_units_Z   2
loop_
 _symmetry_equiv_pos_site_id
 _symmetry_equiv_pos_as_xyz
  1  'x, y, z'
loop_
 _atom_site_type_symbol
 _atom_site_label
 _atom_site_symmetry_multiplicity
 _atom_site_fract_x
 _atom_site_fract_y
 _atom_site_fract_z
 _atom_site_occupancy
  Tb  Tb0  1  0.00000000  0.00000000  0.75000000  1
  Tb  Tb1  1  0.00000000  0.00000000  0.25000000  1
  Ag  Ag2  1  0.50000000  0.00000000  0.50000000  1
  Ag  Ag3  1  0.50000000  0.50000000  0.50000000  1
  Ag  Ag4  1  0.00000000  0.50000000  0.00000000  1
  Ag  Ag5  1  0.00000000  0.50000000  0.50000000  1
  Ag  Ag6  1  0.50000000  0.00000000  0.00000000  1
  Ag  Ag7  1  0.50000000  0.50000000  0.00000000  1
  H  H8  1  0.44648100  0.44648100  0.79246800  1
  H  H9  1  0.55351900  0.00000000  0.79246800  1
  H  H10  1  0.00000000  0.55351900  0.79246800  1
  H  H11  1  0.00000000  0.44648100  0.29246800  1
  H  H12  1  0.55351900  0.00000000  0.70753200  1
  H  H13  1  0.55351900  0.55351900  0.29246800  1
  H  H14  1  0.44648100  0.00000000  0.29246800  1
  H  H15  1  0.55351900  0.55351900  0.20753200  1
  H  H16  1  0.00000000  0.44648100  0.20753200  1
  H  H17  1  0.00000000  0.55351900  0.70753200  1
  H  H18  1  0.44648100  0.44648100  0.70753200  1
  H  H19  1  0.44648100  0.00000000  0.20753200  1
  C  C20  1  0.65367200  0.65367200  0.90366300  1
  C  C21  1  0.34632800  0.00000000  0.90366300  1
  C  C22  1  0.00000000  0.34632800  0.90366300  1
  C  C23  1  0.00000000  0.65367200  0.40366300  1
  C  C24  1  0.34632800  0.00000000  0.59633700  1
  C  C25  1  0.65367200  0.00000000  0.40366300  1
  C  C26  1  0.00000000  0.65367200  0.09633700  1
  C  C27  1  0.34632800  0.34632800  0.09633700  1
  C  C28  1  0.65367200  0.00000000  0.09633700  1
  C  C29  1  0.65367200  0.65367200  0.59633700  1
  C  C30  1  0.00000000  0.34632800  0.59633700  1
  C  C31  1  0.34632800  0.34632800  0.40366300  1
  N  N32  1  0.74362600  0.74362600  0.84932500  1
  N  N33  1  0.74362600  0.74362600  0.65067500  1
  N  N34  1  0.00000000  0.25637400  0.84932500  1
  N  N35  1  0.00000000  0.74362600  0.34932500  1
  N  N36  1  0.25637400  0.00000000  0.65067500  1
  N  N37  1  0.25637400  0.25637400  0.34932500  1
  N  N38  1  0.74362600  0.00000000  0.34932500  1
  N  N39  1  0.25637400  0.25637400  0.15067500  1
  N  N40  1  0.74362600  0.00000000  0.15067500  1
  N  N41  1  0.00000000  0.25637400  0.65067500  1
  N  N42  1  0.00000000  0.74362600  0.15067500  1
  N  N43  1  0.25637400  0.00000000  0.84932500  1
  O  O44  1  0.63980400  0.63980400  0.25000000  1
  O  O45  1  0.00000000  0.36019600  0.25000000  1
  O  O46  1  0.00000000  0.63980400  0.75000000  1
  O  O47  1  0.36019600  0.36019600  0.75000000  1
  O  O48  1  0.36019600  0.00000000  0.25000000  1
  O  O49  1  0.63980400  0.00000000  0.75000000  1
