# generated using pymatgen
data_H3CSO4F3
_symmetry_space_group_name_H-M   'P 1'
_cell_length_a   10.11395200
_cell_length_b   6.10785800
_cell_length_c   9.77451886
_cell_angle_alpha   80.76136250
_cell_angle_beta   90.00000000
_cell_angle_gamma   90.00000000
_symmetry_Int_Tables_number   1
_chemical_formula_structural   H3CSO4F3
_chemical_formula_sum   'H12 C4 S4 O16 F12'
_cell_volume   595.98424703
_cell_formula_units_Z   4
loop_
 _symmetry_equiv_pos_site_id
 _symmetry_equiv_pos_as_xyz
  1  'x, y, z'
loop_
 _atom_site_type_symbol
 _atom_site_label
 _atom_site_symmetry_multiplicity
 _atom_site_fract_x
 _atom_site_fract_y
 _atom_site_fract_z
 _atom_site_occupancy
  H  H0  1  0.91352900  0.53162200  0.31292000  1
  H  H1  1  0.41352900  0.46837800  0.18708000  1
  H  H2  1  0.08647100  0.46837800  0.68708000  1
  H  H3  1  0.58647100  0.53162200  0.81292000  1
  H  H4  1  0.94758000  0.59604400  0.72639900  1
  H  H5  1  0.44758000  0.40395600  0.77360100  1
  H  H6  1  0.93498700  0.49581300  0.14820300  1
  H  H7  1  0.55242000  0.59604400  0.22639900  1
  H  H8  1  0.06501300  0.50418700  0.85179700  1
  H  H9  1  0.56501300  0.49581300  0.64820300  1
  H  H10  1  0.05242000  0.40395600  0.27360100  1
  H  H11  1  0.43498700  0.50418700  0.35179700  1
  C  C12  1  0.73059900  0.00604700  0.49822300  1
  C  C13  1  0.76940100  0.00604700  0.99822300  1
  C  C14  1  0.26940100  0.99395300  0.50177700  1
  C  C15  1  0.23059900  0.99395300  0.00177700  1
  S  S16  1  0.73282700  0.70166400  0.02412000  1
  S  S17  1  0.23282700  0.29833600  0.47588000  1
  S  S18  1  0.26717300  0.29833600  0.97588000  1
  S  S19  1  0.76717300  0.70166400  0.52412000  1
  O  O20  1  0.13978400  0.40137900  0.99890600  1
  O  O21  1  0.62929900  0.68097600  0.92338800  1
  O  O22  1  0.12929900  0.31902400  0.57661200  1
  O  O23  1  0.37070100  0.31902400  0.07661200  1
  O  O24  1  0.63978400  0.59862100  0.50109400  1
  O  O25  1  0.69038500  0.65195400  0.16954000  1
  O  O26  1  0.87070100  0.68097600  0.42338800  1
  O  O27  1  0.36021600  0.40137900  0.49890600  1
  O  O28  1  0.54548100  0.43494400  0.74878600  1
  O  O29  1  0.86021600  0.59862100  0.00109400  1
  O  O30  1  0.80961500  0.65195400  0.66954000  1
  O  O31  1  0.30961500  0.34804600  0.83046000  1
  O  O32  1  0.95451900  0.43494400  0.24878600  1
  O  O33  1  0.45451900  0.56505600  0.25121400  1
  O  O34  1  0.04548100  0.56505600  0.75121400  1
  O  O35  1  0.19038500  0.34804600  0.33046000  1
  F  F36  1  0.80930400  0.07775500  0.86673800  1
  F  F37  1  0.16008200  0.88004000  0.47567400  1
  F  F38  1  0.33991800  0.88004000  0.97567400  1
  F  F39  1  0.83991800  0.11996000  0.52432600  1
  F  F40  1  0.66008200  0.11996000  0.02432600  1
  F  F41  1  0.30930400  0.92224500  0.63326200  1
  F  F42  1  0.19069600  0.92224500  0.13326200  1
  F  F43  1  0.86657100  0.04590700  0.08609600  1
  F  F44  1  0.69069600  0.07775500  0.36673800  1
  F  F45  1  0.63342900  0.04590700  0.58609600  1
  F  F46  1  0.13342900  0.95409300  0.91390400  1
  F  F47  1  0.36657100  0.95409300  0.41390400  1
