# generated using pymatgen
data_Mg3P4H48(NO15)2
_symmetry_space_group_name_H-M   'P 1'
_cell_length_a   17.70827324
_cell_length_b   17.70827324
_cell_length_c   6.18963173
_cell_angle_alpha   88.81701221
_cell_angle_beta   88.81701221
_cell_angle_gamma   22.96805340
_symmetry_Int_Tables_number   1
_chemical_formula_structural   Mg3P4H48(NO15)2
_chemical_formula_sum   'Mg3 P4 H48 N2 O30'
_cell_volume   757.23022114
_cell_formula_units_Z   1
loop_
 _symmetry_equiv_pos_site_id
 _symmetry_equiv_pos_as_xyz
  1  'x, y, z'
loop_
 _atom_site_type_symbol
 _atom_site_label
 _atom_site_symmetry_multiplicity
 _atom_site_fract_x
 _atom_site_fract_y
 _atom_site_fract_z
 _atom_site_occupancy
  Mg  Mg0  1  0.50000000  0.50000000  0.00000000  1
  Mg  Mg1  1  0.16685100  0.16685100  0.24759400  1
  Mg  Mg2  1  0.83314900  0.83314900  0.75240600  1
  P  P3  1  0.70449000  0.70449000  0.62500800  1
  P  P4  1  0.29551000  0.29551000  0.37499200  1
  P  P5  1  0.04827900  0.04827900  0.65126500  1
  P  P6  1  0.95172100  0.95172100  0.34873500  1
  H  H7  1  0.58776800  0.58776800  0.94670700  1
  H  H8  1  0.41223200  0.41223200  0.05329300  1
  H  H9  1  0.49646000  0.25971100  0.91730700  1
  H  H10  1  0.74028900  0.50354000  0.08269300  1
  H  H11  1  0.50354000  0.74028900  0.08269300  1
  H  H12  1  0.25971100  0.49646000  0.91730700  1
  H  H13  1  0.63390700  0.63390700  0.84553700  1
  H  H14  1  0.36609300  0.36609300  0.15446300  1
  H  H15  1  0.33931200  0.57019100  0.35105700  1
  H  H16  1  0.42980900  0.66068800  0.64894300  1
  H  H17  1  0.66068800  0.42980900  0.64894300  1
  H  H18  1  0.57019100  0.33931200  0.35105700  1
  H  H19  1  0.78888900  0.29388000  0.27947500  1
  H  H20  1  0.70612000  0.21111000  0.72052500  1
  H  H21  1  0.21111000  0.70612000  0.72052500  1
  H  H22  1  0.29388000  0.78888900  0.27947500  1
  H  H23  1  0.22731400  0.86356300  0.03670500  1
  H  H24  1  0.13643700  0.77268600  0.96329500  1
  H  H25  1  0.77268600  0.13643700  0.96329500  1
  H  H26  1  0.86356300  0.22731400  0.03670500  1
  H  H27  1  0.09953500  0.69359600  0.58574700  1
  H  H28  1  0.90046500  0.30640400  0.41425300  1
  H  H29  1  0.96638600  0.56781600  0.79758900  1
  H  H30  1  0.69359600  0.09953500  0.58574700  1
  H  H31  1  0.18021400  0.53558600  0.56036100  1
  H  H32  1  0.46441400  0.81978600  0.43963900  1
  H  H33  1  0.81978600  0.46441400  0.43963900  1
  H  H34  1  0.53558600  0.18021400  0.56036100  1
  H  H35  1  0.11282800  0.11282800  0.91446600  1
  H  H36  1  0.88717200  0.88717200  0.08553400  1
  H  H37  1  0.15524900  0.15524900  0.80347600  1
  H  H38  1  0.84475100  0.84475100  0.19652400  1
  H  H39  1  0.53545000  0.04890800  0.99786100  1
  H  H40  1  0.95109200  0.46455000  0.00213900  1
  H  H41  1  0.46455000  0.95109200  0.00213900  1
  H  H42  1  0.04890800  0.53545000  0.99786100  1
  H  H43  1  0.56781600  0.96638600  0.79758900  1
  H  H44  1  0.03361400  0.43218400  0.20241100  1
  H  H45  1  0.43218400  0.03361400  0.20241100  1
  H  H46  1  0.99204400  0.99204400  0.31929800  1
  H  H47  1  0.00795600  0.00795600  0.68070200  1
  H  H48  1  0.27907300  0.27907300  0.58458600  1
  H  H49  1  0.72092700  0.72092700  0.41541400  1
  H  H50  1  0.91304200  0.68110000  0.37511400  1
  H  H51  1  0.31890000  0.08695800  0.62488600  1
  H  H52  1  0.08695800  0.31890000  0.62488600  1
  H  H53  1  0.68110000  0.91304200  0.37511400  1
  H  H54  1  0.30640400  0.90046500  0.41425300  1
  N  N55  1  0.61653100  0.61653100  0.98763500  1
  N  N56  1  0.38346900  0.38346900  0.01236500  1
  O  O57  1  0.53844400  0.53844400  0.73573500  1
  O  O58  1  0.46155600  0.46155600  0.26426500  1
  O  O59  1  0.32365400  0.74725400  0.12835400  1
  O  O60  1  0.25274600  0.67634600  0.87164600  1
  O  O61  1  0.67634600  0.25274600  0.87164600  1
  O  O62  1  0.74725400  0.32365400  0.12835400  1
  O  O63  1  0.09642700  0.64472500  0.65514800  1
  O  O64  1  0.35527500  0.90357300  0.34485200  1
  O  O65  1  0.90357300  0.35527500  0.34485200  1
  O  O66  1  0.64472500  0.09642700  0.65514800  1
  O  O67  1  0.14108800  0.14108800  0.94402500  1
  O  O68  1  0.85891200  0.85891200  0.05597500  1
  O  O69  1  0.58283000  0.00571600  0.84534100  1
  O  O70  1  0.99428400  0.41717000  0.15465900  1
  O  O71  1  0.41717000  0.99428400  0.15465900  1
  O  O72  1  0.00571600  0.58283000  0.84534100  1
  O  O73  1  0.18926600  0.18926600  0.56979000  1
  O  O74  1  0.81073400  0.81073400  0.43021000  1
  O  O75  1  0.09898900  0.46402300  0.26248400  1
  O  O76  1  0.53597700  0.90101100  0.73751600  1
  O  O77  1  0.90101100  0.53597700  0.73751600  1
  O  O78  1  0.46402300  0.09898900  0.26248400  1
  O  O79  1  0.66011500  0.66011500  0.59784900  1
  O  O80  1  0.33988500  0.33988500  0.40215100  1
  O  O81  1  0.06469100  0.06469100  0.88142900  1
  O  O82  1  0.93530900  0.93530900  0.11857100  1
  O  O83  1  0.12312700  0.75899800  0.47545100  1
  O  O84  1  0.24100200  0.87687300  0.52454900  1
  O  O85  1  0.87687300  0.24100200  0.52454900  1
  O  O86  1  0.75899800  0.12312700  0.47545100  1
