# generated using pymatgen
data_KCrH18N6(ClO2)4
_symmetry_space_group_name_H-M   'P 1'
_cell_length_a   10.11396409
_cell_length_b   10.11396409
_cell_length_c   10.11396360
_cell_angle_alpha   41.31912970
_cell_angle_beta   41.31912970
_cell_angle_gamma   41.31912880
_symmetry_Int_Tables_number   1
_chemical_formula_structural   KCrH18N6(ClO2)4
_chemical_formula_sum   'K1 Cr1 H18 N6 Cl4 O8'
_cell_volume   407.41639590
_cell_formula_units_Z   1
loop_
 _symmetry_equiv_pos_site_id
 _symmetry_equiv_pos_as_xyz
  1  'x, y, z'
loop_
 _atom_site_type_symbol
 _atom_site_label
 _atom_site_symmetry_multiplicity
 _atom_site_fract_x
 _atom_site_fract_y
 _atom_site_fract_z
 _atom_site_occupancy
  K  K0  1  0.50000000  0.50000000  0.50000000  1
  Cr  Cr1  1  0.00000000  0.00000000  0.00000000  1
  H  H2  1  0.97285000  0.20226200  0.63291700  1
  H  H3  1  0.02715000  0.36708300  0.79773800  1
  H  H4  1  0.79773800  0.02715000  0.36708300  1
  H  H5  1  0.36708300  0.79773800  0.02715000  1
  H  H6  1  0.02715000  0.79773800  0.36708300  1
  H  H7  1  0.36708300  0.02715000  0.79773800  1
  H  H8  1  0.79773800  0.36708300  0.02715000  1
  H  H9  1  0.97285000  0.63291700  0.20226200  1
  H  H10  1  0.20226200  0.97285000  0.63291700  1
  H  H11  1  0.63291700  0.20226200  0.97285000  1
  H  H12  1  0.81035000  0.81035000  0.43594600  1
  H  H13  1  0.43594600  0.81035000  0.81035000  1
  H  H14  1  0.81035000  0.43594600  0.81035000  1
  H  H15  1  0.18965000  0.56405400  0.18965000  1
  H  H16  1  0.18965000  0.18965000  0.56405400  1
  H  H17  1  0.56405400  0.18965000  0.18965000  1
  H  H18  1  0.63291700  0.97285000  0.20226200  1
  H  H19  1  0.20226200  0.63291700  0.97285000  1
  N  N20  1  0.89916800  0.32758400  0.89916800  1
  N  N21  1  0.67241600  0.10083200  0.10083200  1
  N  N22  1  0.32758400  0.89916800  0.89916800  1
  N  N23  1  0.89916800  0.89916800  0.32758400  1
  N  N24  1  0.10083200  0.67241600  0.10083200  1
  N  N25  1  0.10083200  0.10083200  0.67241600  1
  Cl  Cl26  1  0.81486000  0.81486000  0.81486000  1
  Cl  Cl27  1  0.18514000  0.18514000  0.18514000  1
  Cl  Cl28  1  0.37814800  0.37814800  0.37814800  1
  Cl  Cl29  1  0.62185200  0.62185200  0.62185200  1
  O  O30  1  0.86735200  0.86735200  0.86735200  1
  O  O31  1  0.98011400  0.31477800  0.31477800  1
  O  O32  1  0.13264800  0.13264800  0.13264800  1
  O  O33  1  0.31477800  0.31477800  0.98011400  1
  O  O34  1  0.31477800  0.98011400  0.31477800  1
  O  O35  1  0.68522200  0.01988600  0.68522200  1
  O  O36  1  0.01988600  0.68522200  0.68522200  1
  O  O37  1  0.68522200  0.68522200  0.01988600  1
