# generated using pymatgen
data_Na2CaH10C2O11
_symmetry_space_group_name_H-M   'P 1'
_cell_length_a   8.25928848
_cell_length_b   8.25928848
_cell_length_c   11.28662229
_cell_angle_alpha   57.41871539
_cell_angle_beta   57.41871539
_cell_angle_gamma   55.65909483
_symmetry_Int_Tables_number   1
_chemical_formula_structural   Na2CaH10C2O11
_chemical_formula_sum   'Na4 Ca2 H20 C4 O22'
_cell_volume   504.27553377
_cell_formula_units_Z   2
loop_
 _symmetry_equiv_pos_site_id
 _symmetry_equiv_pos_as_xyz
  1  'x, y, z'
loop_
 _atom_site_type_symbol
 _atom_site_label
 _atom_site_symmetry_multiplicity
 _atom_site_fract_x
 _atom_site_fract_y
 _atom_site_fract_z
 _atom_site_occupancy
  Na  Na0  1  0.10251900  0.72144900  0.48631400  1
  Na  Na1  1  0.27855100  0.89748100  0.01368600  1
  Na  Na2  1  0.89748100  0.27855100  0.51368600  1
  Na  Na3  1  0.72144900  0.10251900  0.98631400  1
  Ca  Ca4  1  0.19312200  0.80687800  0.75000000  1
  Ca  Ca5  1  0.80687800  0.19312200  0.25000000  1
  H  H6  1  0.23911900  0.40770200  0.75071200  1
  H  H7  1  0.59229800  0.76088100  0.74928800  1
  H  H8  1  0.76088100  0.59229800  0.24928800  1
  H  H9  1  0.40770200  0.23911900  0.25071200  1
  H  H10  1  0.21992600  0.34909300  0.91810600  1
  H  H11  1  0.65090700  0.78007400  0.58189400  1
  H  H12  1  0.27449400  0.49324800  0.04735800  1
  H  H13  1  0.50675200  0.72550600  0.45264200  1
  H  H14  1  0.72550600  0.50675200  0.95264200  1
  H  H15  1  0.49324800  0.27449400  0.54735800  1
  H  H16  1  0.08684400  0.70586100  0.07402000  1
  H  H17  1  0.34909300  0.21992600  0.41810600  1
  H  H18  1  0.91315600  0.29413900  0.92598000  1
  H  H19  1  0.70586100  0.08684400  0.57402000  1
  H  H20  1  0.52882800  0.34975300  0.77017600  1
  H  H21  1  0.65024700  0.47117200  0.72982400  1
  H  H22  1  0.47117200  0.65024700  0.22982400  1
  H  H23  1  0.34975300  0.52882800  0.27017600  1
  H  H24  1  0.78007400  0.65090700  0.08189400  1
  H  H25  1  0.29413900  0.91315600  0.42598000  1
  C  C26  1  0.78738100  0.83505700  0.81654600  1
  C  C27  1  0.83505700  0.78738100  0.31654600  1
  C  C28  1  0.16494300  0.21261900  0.68345400  1
  C  C29  1  0.21261900  0.16494300  0.18345400  1
  O  O30  1  0.89118900  0.89766600  0.67488500  1
  O  O31  1  0.77982200  0.35258100  0.00006300  1
  O  O32  1  0.35258100  0.77982200  0.50006300  1
  O  O33  1  0.22017800  0.64741900  0.99993700  1
  O  O34  1  0.44293900  0.26271900  0.31181700  1
  O  O35  1  0.73728100  0.55706100  0.18818300  1
  O  O36  1  0.55706100  0.73728100  0.68818300  1
  O  O37  1  0.26271900  0.44293900  0.81181700  1
  O  O38  1  0.64741900  0.22017800  0.49993700  1
  O  O39  1  0.10233400  0.10881100  0.82511500  1
  O  O40  1  0.10881100  0.10233400  0.32511500  1
  O  O41  1  0.89766600  0.89118900  0.17488500  1
  O  O42  1  0.63598600  0.78175000  0.86434800  1
  O  O43  1  0.21825000  0.36401400  0.63565200  1
  O  O44  1  0.36401400  0.21825000  0.13565200  1
  O  O45  1  0.78175000  0.63598600  0.36434800  1
  O  O46  1  0.17786900  0.15815200  0.58849100  1
  O  O47  1  0.67191800  0.32808200  0.75000000  1
  O  O48  1  0.15815200  0.17786900  0.08849100  1
  O  O49  1  0.84184800  0.82213100  0.91150900  1
  O  O50  1  0.32808200  0.67191800  0.25000000  1
  O  O51  1  0.82213100  0.84184800  0.41150900  1
