# generated using pymatgen
data_KCrH18N6(ClO2)4
_symmetry_space_group_name_H-M   'P 1'
_cell_length_a   10.15109677
_cell_length_b   10.15109677
_cell_length_c   10.15109685
_cell_angle_alpha   41.22322624
_cell_angle_beta   41.22322624
_cell_angle_gamma   41.22322038
_symmetry_Int_Tables_number   1
_chemical_formula_structural   KCrH18N6(ClO2)4
_chemical_formula_sum   'K1 Cr1 H18 N6 Cl4 O8'
_cell_volume   410.27437761
_cell_formula_units_Z   1
loop_
 _symmetry_equiv_pos_site_id
 _symmetry_equiv_pos_as_xyz
  1  'x, y, z'
loop_
 _atom_site_type_symbol
 _atom_site_label
 _atom_site_symmetry_multiplicity
 _atom_site_fract_x
 _atom_site_fract_y
 _atom_site_fract_z
 _atom_site_occupancy
  K  K0  1  0.50000000  0.50000000  0.50000000  1
  Cr  Cr1  1  0.00000000  0.00000000  0.00000000  1
  H  H2  1  0.76059700  0.36642100  0.04240200  1
  H  H3  1  0.23940300  0.63357900  0.95759800  1
  H  H4  1  0.95759800  0.23940300  0.63357900  1
  H  H5  1  0.63357900  0.95759800  0.23940300  1
  H  H6  1  0.00567100  0.36273000  0.84170900  1
  H  H7  1  0.84170900  0.00567100  0.36273000  1
  H  H8  1  0.36273000  0.84170900  0.00567100  1
  H  H9  1  0.99432900  0.63727000  0.15829100  1
  H  H10  1  0.15829100  0.99432900  0.63727000  1
  H  H11  1  0.63727000  0.15829100  0.99432900  1
  H  H12  1  0.82714000  0.43516100  0.79721900  1
  H  H13  1  0.36642100  0.04240200  0.76059700  1
  H  H14  1  0.43516100  0.79721900  0.82714000  1
  H  H15  1  0.17286000  0.56483900  0.20278100  1
  H  H16  1  0.20278100  0.17286000  0.56483900  1
  H  H17  1  0.56483900  0.20278100  0.17286000  1
  H  H18  1  0.04240200  0.76059700  0.36642100  1
  H  H19  1  0.79721900  0.82714000  0.43516100  1
  N  N20  1  0.32625000  0.91019100  0.88924300  1
  N  N21  1  0.08980900  0.11075700  0.67375000  1
  N  N22  1  0.91019100  0.88924300  0.32625000  1
  N  N23  1  0.88924300  0.32625000  0.91019100  1
  N  N24  1  0.11075700  0.67375000  0.08980900  1
  N  N25  1  0.67375000  0.08980900  0.11075700  1
  Cl  Cl26  1  0.81498700  0.81498700  0.81498700  1
  Cl  Cl27  1  0.18501300  0.18501300  0.18501300  1
  Cl  Cl28  1  0.37743600  0.37743600  0.37743600  1
  Cl  Cl29  1  0.62256400  0.62256400  0.62256400  1
  O  O30  1  0.86731300  0.86731300  0.86731300  1
  O  O31  1  0.98080700  0.32776700  0.30039500  1
  O  O32  1  0.13268700  0.13268700  0.13268700  1
  O  O33  1  0.32776700  0.30039500  0.98080700  1
  O  O34  1  0.30039500  0.98080700  0.32776700  1
  O  O35  1  0.01919300  0.67223300  0.69960500  1
  O  O36  1  0.67223300  0.69960500  0.01919300  1
  O  O37  1  0.69960500  0.01919300  0.67223300  1
