# generated using pymatgen
data_CoH4(CO3)2
_symmetry_space_group_name_H-M   'P 1'
_cell_length_a   6.85893680
_cell_length_b   8.13115237
_cell_length_c   10.38669023
_cell_angle_alpha   106.31537085
_cell_angle_beta   103.49572195
_cell_angle_gamma   96.89310485
_symmetry_Int_Tables_number   1
_chemical_formula_structural   CoH4(CO3)2
_chemical_formula_sum   'Co4 H16 C8 O24'
_cell_volume   529.80166019
_cell_formula_units_Z   4
loop_
 _symmetry_equiv_pos_site_id
 _symmetry_equiv_pos_as_xyz
  1  'x, y, z'
loop_
 _atom_site_type_symbol
 _atom_site_label
 _atom_site_symmetry_multiplicity
 _atom_site_fract_x
 _atom_site_fract_y
 _atom_site_fract_z
 _atom_site_occupancy
  Co  Co0  1  0.66532600  0.25000000  0.91532600  1
  Co  Co1  1  0.83467400  0.75000000  0.58467400  1
  Co  Co2  1  0.16532600  0.25000000  0.41532600  1
  Co  Co3  1  0.33467400  0.75000000  0.08467400  1
  H  H4  1  0.92158400  0.35908800  0.57970700  1
  H  H5  1  0.42158400  0.35908800  0.07970700  1
  H  H6  1  0.47922400  0.14091200  0.32110200  1
  H  H7  1  0.97922400  0.14091200  0.82110200  1
  H  H8  1  0.52077600  0.85908800  0.67889800  1
  H  H9  1  0.02077600  0.85908800  0.17889800  1
  H  H10  1  0.07841600  0.64091200  0.42029300  1
  H  H11  1  0.57841600  0.64091200  0.92029300  1
  H  H12  1  0.85085700  0.14784900  0.50880100  1
  H  H13  1  0.35085700  0.14784900  0.00880100  1
  H  H14  1  0.51384900  0.35215100  0.35590400  1
  H  H15  1  0.01384900  0.35215100  0.85590400  1
  H  H16  1  0.14914300  0.85215100  0.49119900  1
  H  H17  1  0.64914300  0.85215100  0.99119900  1
  H  H18  1  0.48615100  0.64784900  0.64409600  1
  H  H19  1  0.98615100  0.64784900  0.14409600  1
  C  C20  1  0.11064100  0.85209800  0.85975800  1
  C  C21  1  0.61064100  0.85209800  0.35975800  1
  C  C22  1  0.88935900  0.14790200  0.14024200  1
  C  C23  1  0.38935900  0.14790200  0.64024200  1
  C  C24  1  0.94173200  0.35209800  0.19084900  1
  C  C25  1  0.44173200  0.35209800  0.69084900  1
  C  C26  1  0.05826800  0.64790200  0.80915100  1
  C  C27  1  0.55826800  0.64790200  0.30915100  1
  O  O28  1  0.06281800  0.42739100  0.31202900  1
  O  O29  1  0.56281800  0.42739100  0.81202900  1
  O  O30  1  0.02706000  0.92739100  0.77627200  1
  O  O31  1  0.52706000  0.92739100  0.27627200  1
  O  O32  1  0.97294000  0.07260900  0.22372800  1
  O  O33  1  0.47294000  0.07260900  0.72372800  1
  O  O34  1  0.93718200  0.57260900  0.68797100  1
  O  O35  1  0.43718200  0.57260900  0.18797100  1
  O  O36  1  0.91897300  0.25695900  0.49955000  1
  O  O37  1  0.41897300  0.25695900  0.99955000  1
  O  O38  1  0.41135900  0.24304100  0.33078200  1
  O  O39  1  0.91135900  0.24304100  0.83078200  1
  O  O40  1  0.58864100  0.75695900  0.66921800  1
  O  O41  1  0.08864100  0.75695900  0.16921800  1
  O  O42  1  0.08102700  0.74304100  0.50045000  1
  O  O43  1  0.58102700  0.74304100  0.00045000  1
  O  O44  1  0.26686600  0.07122600  0.51946800  1
  O  O45  1  0.76686600  0.07122600  0.01946800  1
  O  O46  1  0.36015600  0.42877400  0.60755400  1
  O  O47  1  0.86015600  0.42877400  0.10755400  1
  O  O48  1  0.73313400  0.92877400  0.48053200  1
  O  O49  1  0.23313400  0.92877400  0.98053200  1
  O  O50  1  0.63984400  0.57122600  0.39244600  1
  O  O51  1  0.13984400  0.57122600  0.89244600  1
