# generated using pymatgen
data_V3H4NO8
_symmetry_space_group_name_H-M   'P 1'
_cell_length_a   8.58215500
_cell_length_b   5.09855300
_cell_length_c   8.05296867
_cell_angle_alpha   83.56886832
_cell_angle_beta   90.00000000
_cell_angle_gamma   90.00000000
_symmetry_Int_Tables_number   1
_chemical_formula_structural   V3H4NO8
_chemical_formula_sum   'V6 H8 N2 O16'
_cell_volume   350.15291079
_cell_formula_units_Z   2
loop_
 _symmetry_equiv_pos_site_id
 _symmetry_equiv_pos_as_xyz
  1  'x, y, z'
loop_
 _atom_site_type_symbol
 _atom_site_label
 _atom_site_symmetry_multiplicity
 _atom_site_fract_x
 _atom_site_fract_y
 _atom_site_fract_z
 _atom_site_occupancy
  V  V0  1  0.25000000  0.42299800  0.42665300  1
  V  V1  1  0.75000000  0.57700200  0.57334700  1
  V  V2  1  0.05499600  0.93789200  0.32038700  1
  V  V3  1  0.55499600  0.06210800  0.67961300  1
  V  V4  1  0.94500400  0.06210800  0.67961300  1
  V  V5  1  0.44500400  0.93789200  0.32038700  1
  H  H6  1  0.34644100  0.54467400  0.87373600  1
  H  H7  1  0.84644100  0.45532600  0.12626400  1
  H  H8  1  0.65355900  0.45532600  0.12626400  1
  H  H9  1  0.15355900  0.54467400  0.87373600  1
  H  H10  1  0.75000000  0.49974300  0.94325700  1
  H  H11  1  0.25000000  0.50025700  0.05674300  1
  H  H12  1  0.75000000  0.74267900  0.06876300  1
  H  H13  1  0.25000000  0.25732100  0.93123700  1
  N  N14  1  0.25000000  0.45876500  0.93422300  1
  N  N15  1  0.75000000  0.54123500  0.06577700  1
  O  O16  1  0.56313100  0.06440200  0.17377500  1
  O  O17  1  0.25000000  0.61009900  0.57759100  1
  O  O18  1  0.06313100  0.93559800  0.82622500  1
  O  O19  1  0.89904500  0.38993400  0.72304200  1
  O  O20  1  0.60095500  0.38993400  0.72304200  1
  O  O21  1  0.10095500  0.61006600  0.27695800  1
  O  O22  1  0.75000000  0.38990100  0.42240900  1
  O  O23  1  0.08793800  0.17933300  0.49488200  1
  O  O24  1  0.41206200  0.17933300  0.49488200  1
  O  O25  1  0.91206200  0.82066700  0.50511800  1
  O  O26  1  0.25000000  0.07928600  0.24928100  1
  O  O27  1  0.75000000  0.92071400  0.75071900  1
  O  O28  1  0.43686900  0.93559800  0.82622500  1
  O  O29  1  0.93686900  0.06440200  0.17377500  1
  O  O30  1  0.39904500  0.61006600  0.27695800  1
  O  O31  1  0.58793800  0.82066700  0.50511800  1
