# generated using pymatgen
data_GaH4NF4
_symmetry_space_group_name_H-M   'P 1'
_cell_length_a   7.52432500
_cell_length_b   7.52432500
_cell_length_c   7.52432500
_cell_angle_alpha   138.19657076
_cell_angle_beta   138.19657076
_cell_angle_gamma   60.60207441
_symmetry_Int_Tables_number   1
_chemical_formula_structural   GaH4NF4
_chemical_formula_sum   'Ga2 H8 N2 F8'
_cell_volume   187.25552969
_cell_formula_units_Z   2
loop_
 _symmetry_equiv_pos_site_id
 _symmetry_equiv_pos_as_xyz
  1  'x, y, z'
loop_
 _atom_site_type_symbol
 _atom_site_label
 _atom_site_symmetry_multiplicity
 _atom_site_fract_x
 _atom_site_fract_y
 _atom_site_fract_z
 _atom_site_occupancy
  Ga  Ga0  1  0.50000000  0.50000000  0.00000000  1
  Ga  Ga1  1  0.00000000  0.00000000  0.00000000  1
  H  H2  1  0.81314500  0.09375900  0.50000000  1
  H  H3  1  0.18685500  0.90624100  0.50000000  1
  H  H4  1  0.40624100  0.68685500  0.50000000  1
  H  H5  1  0.68685500  0.18685500  0.28061300  1
  H  H6  1  0.90624100  0.40624100  0.71938700  1
  H  H7  1  0.09375900  0.59375900  0.28061300  1
  H  H8  1  0.31314500  0.81314500  0.71938700  1
  H  H9  1  0.59375900  0.31314500  0.50000000  1
  N  N10  1  0.75000000  0.25000000  0.50000000  1
  N  N11  1  0.25000000  0.75000000  0.50000000  1
  F  F12  1  0.19039000  0.69039000  0.88078100  1
  F  F13  1  0.85641400  0.85641400  0.00000000  1
  F  F14  1  0.35641400  0.35641400  0.00000000  1
  F  F15  1  0.14358600  0.14358600  0.00000000  1
  F  F16  1  0.30961000  0.19039000  0.50000000  1
  F  F17  1  0.69039000  0.80961000  0.50000000  1
  F  F18  1  0.80961000  0.30961000  0.11921900  1
  F  F19  1  0.64358600  0.64358600  0.00000000  1
