# generated using pymatgen
data_KH18RuN6(ClO2)4
_symmetry_space_group_name_H-M   'P 1'
_cell_length_a   10.12632716
_cell_length_b   10.12632716
_cell_length_c   10.12632735
_cell_angle_alpha   41.42625378
_cell_angle_beta   41.42625378
_cell_angle_gamma   41.42625303
_symmetry_Int_Tables_number   1
_chemical_formula_structural   KH18RuN6(ClO2)4
_chemical_formula_sum   'K1 H18 Ru1 N6 Cl4 O8'
_cell_volume   410.73903997
_cell_formula_units_Z   1
loop_
 _symmetry_equiv_pos_site_id
 _symmetry_equiv_pos_as_xyz
  1  'x, y, z'
loop_
 _atom_site_type_symbol
 _atom_site_label
 _atom_site_symmetry_multiplicity
 _atom_site_fract_x
 _atom_site_fract_y
 _atom_site_fract_z
 _atom_site_occupancy
  K  K0  1  0.50000000  0.50000000  0.50000000  1
  H  H1  1  0.36291600  0.80153900  0.03004200  1
  H  H2  1  0.96995800  0.19846100  0.63708400  1
  H  H3  1  0.63708400  0.96995800  0.19846100  1
  H  H4  1  0.19846100  0.63708400  0.96995800  1
  H  H5  1  0.03004200  0.36291600  0.80153900  1
  H  H6  1  0.80153900  0.03004200  0.36291600  1
  H  H7  1  0.36291600  0.03004200  0.80153900  1
  H  H8  1  0.56179400  0.18840700  0.18840700  1
  H  H9  1  0.18840700  0.18840700  0.56179400  1
  H  H10  1  0.18840700  0.56179400  0.18840700  1
  H  H11  1  0.81159300  0.43820600  0.81159300  1
  H  H12  1  0.03004200  0.80153900  0.36291600  1
  H  H13  1  0.81159300  0.81159300  0.43820600  1
  H  H14  1  0.63708400  0.19846100  0.96995800  1
  H  H15  1  0.19846100  0.96995800  0.63708400  1
  H  H16  1  0.96995800  0.63708400  0.19846100  1
  H  H17  1  0.80153900  0.36291600  0.03004200  1
  H  H18  1  0.43820600  0.81159300  0.81159300  1
  Ru  Ru19  1  0.00000000  0.00000000  0.00000000  1
  N  N20  1  0.90074600  0.90074600  0.32655500  1
  N  N21  1  0.67344500  0.09925400  0.09925400  1
  N  N22  1  0.32655500  0.90074600  0.90074600  1
  N  N23  1  0.90074600  0.32655500  0.90074600  1
  N  N24  1  0.09925400  0.67344500  0.09925400  1
  N  N25  1  0.09925400  0.09925400  0.67344500  1
  Cl  Cl26  1  0.81476600  0.81476600  0.81476600  1
  Cl  Cl27  1  0.18523400  0.18523400  0.18523400  1
  Cl  Cl28  1  0.62318200  0.62318200  0.62318200  1
  Cl  Cl29  1  0.37681800  0.37681800  0.37681800  1
  O  O30  1  0.68556600  0.68556600  0.01898800  1
  O  O31  1  0.01898800  0.68556600  0.68556600  1
  O  O32  1  0.68556600  0.01898800  0.68556600  1
  O  O33  1  0.31443400  0.98101200  0.31443400  1
  O  O34  1  0.86723700  0.86723700  0.86723700  1
  O  O35  1  0.98101200  0.31443400  0.31443400  1
  O  O36  1  0.31443400  0.31443400  0.98101200  1
  O  O37  1  0.13276300  0.13276300  0.13276300  1
