# generated using pymatgen
data_CaAl2Si3O10
_symmetry_space_group_name_H-M   'P 1'
_cell_length_a   8.05935230
_cell_length_b   9.68325264
_cell_length_c   9.76276848
_cell_angle_alpha   75.87057900
_cell_angle_beta   79.81424429
_cell_angle_gamma   98.73722581
_symmetry_Int_Tables_number   1
_chemical_formula_structural   CaAl2Si3O10
_chemical_formula_sum   'Ca2 Al4 Si6 O20'
_cell_volume   711.84970860
_cell_formula_units_Z   2
loop_
 _symmetry_equiv_pos_site_id
 _symmetry_equiv_pos_as_xyz
  1  'x, y, z'
loop_
 _atom_site_type_symbol
 _atom_site_label
 _atom_site_symmetry_multiplicity
 _atom_site_fract_x
 _atom_site_fract_y
 _atom_site_fract_z
 _atom_site_occupancy
  Ca  Ca0  1  0.38346900  0.27878200  0.80928300  1
  Ca  Ca1  1  0.88040000  0.18185700  0.72349800  1
  Al  Al2  1  0.72087300  0.73924600  0.98303900  1
  Al  Al3  1  0.21282900  0.01547900  0.25821500  1
  Al  Al4  1  0.62277400  0.15208800  0.07586000  1
  Al  Al5  1  0.12957600  0.92183400  0.84988400  1
  Si  Si6  1  0.96351100  0.01089200  0.04336000  1
  Si  Si7  1  0.46637800  0.95703800  0.98655200  1
  Si  Si8  1  0.05254100  0.16854300  0.44157900  1
  Si  Si9  1  0.55798800  0.55913400  0.83488800  1
  Si  Si10  1  0.11147200  0.94008600  0.55959600  1
  Si  Si11  1  0.60803700  0.43983800  0.06428200  1
  O  O12  1  0.91760700  0.86491500  0.97685600  1
  O  O13  1  0.41251800  0.02427400  0.13101200  1
  O  O14  1  0.81409800  0.09483000  0.08085200  1
  O  O15  1  0.32199000  0.91892500  0.90184100  1
  O  O16  1  0.94533800  0.27826500  0.49493500  1
  O  O17  1  0.45189100  0.50909300  0.72624900  1
  O  O18  1  0.93418200  0.99175600  0.51170500  1
  O  O19  1  0.43826800  0.50113200  0.01119400  1
  O  O20  1  0.59521100  0.12364000  0.89090500  1
  O  O21  1  0.09528200  0.10675100  0.87704000  1
  O  O22  1  0.57242600  0.83792700  0.03994600  1
  O  O23  1  0.06695100  0.95674900  0.16250400  1
  O  O24  1  0.22259500  0.90102100  0.42526400  1
  O  O25  1  0.72763400  0.57066100  0.09860500  1
  O  O26  1  0.18243200  0.11659900  0.56536300  1
  O  O27  1  0.67832800  0.42551700  0.89014900  1
  O  O28  1  0.67754400  0.71652900  0.81555500  1
  O  O29  1  0.16251000  0.18301700  0.28097100  1
  O  O30  1  0.58399600  0.27811600  0.16857500  1
  O  O31  1  0.09715000  0.83666700  0.71924300  1
