# generated using pymatgen
data_Rb2CoH8(CO5)2
_symmetry_space_group_name_H-M   'P 1'
_cell_length_a   6.48362600
_cell_length_b   7.17916400
_cell_length_c   12.43994022
_cell_angle_alpha   64.75264608
_cell_angle_beta   90.00000000
_cell_angle_gamma   90.00000000
_symmetry_Int_Tables_number   1
_chemical_formula_structural   Rb2CoH8(CO5)2
_chemical_formula_sum   'Rb4 Co2 H16 C4 O20'
_cell_volume   523.72899198
_cell_formula_units_Z   2
loop_
 _symmetry_equiv_pos_site_id
 _symmetry_equiv_pos_as_xyz
  1  'x, y, z'
loop_
 _atom_site_type_symbol
 _atom_site_label
 _atom_site_symmetry_multiplicity
 _atom_site_fract_x
 _atom_site_fract_y
 _atom_site_fract_z
 _atom_site_occupancy
  Rb  Rb0  1  0.65404100  0.24633800  0.67674000  1
  Rb  Rb1  1  0.15404100  0.75366200  0.82326000  1
  Rb  Rb2  1  0.34595900  0.75366200  0.32326000  1
  Rb  Rb3  1  0.84595900  0.24633800  0.17674000  1
  Co  Co4  1  0.50000000  0.00000000  0.00000000  1
  Co  Co5  1  0.00000000  0.00000000  0.50000000  1
  H  H6  1  0.66191700  0.80034500  0.87006500  1
  H  H7  1  0.16191700  0.19965500  0.62993500  1
  H  H8  1  0.33808300  0.19965500  0.12993500  1
  H  H9  1  0.83808300  0.80034500  0.37006500  1
  H  H10  1  0.79837300  0.80071400  0.98299500  1
  H  H11  1  0.29837300  0.19928600  0.51700500  1
  H  H12  1  0.20162700  0.19928600  0.01700500  1
  H  H13  1  0.70162700  0.80071400  0.48299500  1
  H  H14  1  0.82475800  0.28952200  0.91585000  1
  H  H15  1  0.88033600  0.42473700  0.38137700  1
  H  H16  1  0.17524200  0.71047800  0.08415000  1
  H  H17  1  0.67524200  0.28952200  0.41585000  1
  H  H18  1  0.61966400  0.42473700  0.88137700  1
  H  H19  1  0.11966400  0.57526300  0.61862300  1
  H  H20  1  0.38033600  0.57526300  0.11862300  1
  H  H21  1  0.32475800  0.71047800  0.58415000  1
  C  C22  1  0.65817200  0.75108800  0.67984600  1
  C  C23  1  0.15817200  0.24891200  0.82015400  1
  C  C24  1  0.84182800  0.75108800  0.17984600  1
  C  C25  1  0.34182800  0.24891200  0.32015400  1
  O  O26  1  0.82604600  0.28597400  0.43570300  1
  O  O27  1  0.32604600  0.71402600  0.06429700  1
  O  O28  1  0.17395400  0.71402600  0.56429700  1
  O  O29  1  0.67395400  0.28597400  0.93570300  1
  O  O30  1  0.78867000  0.88789700  0.41036000  1
  O  O31  1  0.28867000  0.11210300  0.08964000  1
  O  O32  1  0.68986500  0.88117400  0.15067300  1
  O  O33  1  0.18986500  0.11882600  0.34932700  1
  O  O34  1  0.31013500  0.11882600  0.84932700  1
  O  O35  1  0.81013500  0.88117400  0.65067300  1
  O  O36  1  0.91809900  0.68122500  0.28666000  1
  O  O37  1  0.41809900  0.31877500  0.21334000  1
  O  O38  1  0.08190100  0.31877500  0.71334000  1
  O  O39  1  0.21133000  0.11210300  0.58964000  1
  O  O40  1  0.91932300  0.69015800  0.10317100  1
  O  O41  1  0.41932300  0.30984200  0.39682900  1
  O  O42  1  0.08067700  0.30984200  0.89682900  1
  O  O43  1  0.58067700  0.69015800  0.60317100  1
  O  O44  1  0.71133000  0.88789700  0.91036000  1
  O  O45  1  0.58190100  0.68122500  0.78666000  1
