# generated using pymatgen
data_Ca2Al2FeSi4BHO16
_symmetry_space_group_name_H-M   'P 1'
_cell_length_a   7.19954800
_cell_length_b   9.08254815
_cell_length_c   9.32809883
_cell_angle_alpha   88.47748917
_cell_angle_beta   102.64185305
_cell_angle_gamma   98.25054405
_symmetry_Int_Tables_number   1
_chemical_formula_structural   Ca2Al2FeSi4BHO16
_chemical_formula_sum   'Ca4 Al4 Fe2 Si8 B2 H2 O32'
_cell_volume   589.01182752
_cell_formula_units_Z   2
loop_
 _symmetry_equiv_pos_site_id
 _symmetry_equiv_pos_as_xyz
  1  'x, y, z'
loop_
 _atom_site_type_symbol
 _atom_site_label
 _atom_site_symmetry_multiplicity
 _atom_site_fract_x
 _atom_site_fract_y
 _atom_site_fract_z
 _atom_site_occupancy
  Ca  Ca0  1  0.81406500  0.91908300  0.09956900  1
  Ca  Ca1  1  0.18593500  0.08091700  0.90043100  1
  Ca  Ca2  1  0.25171100  0.60712400  0.34711300  1
  Ca  Ca3  1  0.74828900  0.39287600  0.65288700  1
  Al  Al4  1  0.35149700  0.42091300  0.06417700  1
  Al  Al5  1  0.05257000  0.25422200  0.19988200  1
  Al  Al6  1  0.94743000  0.74577800  0.80011800  1
  Al  Al7  1  0.64850300  0.57908700  0.93582300  1
  Fe  Fe8  1  0.23252600  0.89086100  0.58689500  1
  Fe  Fe9  1  0.76747400  0.10913900  0.41310500  1
  Si  Si10  1  0.35820400  0.76865100  0.02086100  1
  Si  Si11  1  0.21984700  0.52350800  0.72476600  1
  Si  Si12  1  0.79195300  0.76562100  0.45068700  1
  Si  Si13  1  0.20804700  0.23437900  0.54931300  1
  Si  Si14  1  0.69602800  0.01027700  0.74429200  1
  Si  Si15  1  0.78015300  0.47649200  0.27523400  1
  Si  Si16  1  0.30397200  0.98972300  0.25570800  1
  Si  Si17  1  0.64179600  0.23134900  0.97913900  1
  B  B18  1  0.53795100  0.71187800  0.63475300  1
  B  B19  1  0.46204900  0.28812200  0.36524700  1
  H  H20  1  0.98960100  0.37492600  0.95846600  1
  H  H21  1  0.01039900  0.62507400  0.04153400  1
  O  O22  1  0.87518900  0.93370900  0.84327400  1
  O  O23  1  0.32475200  0.35333300  0.25384500  1
  O  O24  1  0.20431900  0.82196100  0.87822500  1
  O  O25  1  0.79568100  0.17803900  0.12177500  1
  O  O26  1  0.27783500  0.61551600  0.10150500  1
  O  O27  1  0.72216500  0.38448400  0.89849500  1
  O  O28  1  0.56444600  0.75466100  0.98369600  1
  O  O29  1  0.43555400  0.24533900  0.01630400  1
  O  O30  1  0.40014900  0.91337300  0.13525300  1
  O  O31  1  0.59985100  0.08662700  0.86474700  1
  O  O32  1  0.23808900  0.86193000  0.36629400  1
  O  O33  1  0.76191100  0.13807000  0.63370600  1
  O  O34  1  0.12481100  0.06629100  0.15672600  1
  O  O35  1  0.67524800  0.64666700  0.74615500  1
  O  O36  1  0.09677500  0.32195600  0.00690200  1
  O  O37  1  0.90322500  0.67804400  0.99309800  1
  O  O38  1  0.04948000  0.18955100  0.39652000  1
  O  O39  1  0.95052000  0.81044900  0.60348000  1
  O  O40  1  0.22613300  0.09712500  0.66126400  1
  O  O41  1  0.77386700  0.90287500  0.33873600  1
  O  O42  1  0.41681000  0.30951000  0.51137200  1
  O  O43  1  0.58319000  0.69049000  0.48862800  1
  O  O44  1  0.13407700  0.36952700  0.62826600  1
  O  O45  1  0.46923800  0.12522800  0.34127700  1
  O  O46  1  0.02118500  0.56566500  0.75483700  1
  O  O47  1  0.97881500  0.43433500  0.24516300  1
  O  O48  1  0.32966400  0.64041500  0.61815800  1
  O  O49  1  0.67033600  0.35958500  0.38184200  1
  O  O50  1  0.38016800  0.49683100  0.87315800  1
  O  O51  1  0.61983200  0.50316900  0.12684200  1
  O  O52  1  0.53076200  0.87477200  0.65872300  1
  O  O53  1  0.86592300  0.63047300  0.37173400  1
