# generated using pymatgen
data_Rb2NiH8(CO5)2
_symmetry_space_group_name_H-M   'P 1'
_cell_length_a   6.59400300
_cell_length_b   7.34264400
_cell_length_c   12.36415880
_cell_angle_alpha   67.30913469
_cell_angle_beta   90.00000000
_cell_angle_gamma   90.00000000
_symmetry_Int_Tables_number   1
_chemical_formula_structural   Rb2NiH8(CO5)2
_chemical_formula_sum   'Rb4 Ni2 H16 C4 O20'
_cell_volume   552.30560487
_cell_formula_units_Z   2
loop_
 _symmetry_equiv_pos_site_id
 _symmetry_equiv_pos_as_xyz
  1  'x, y, z'
loop_
 _atom_site_type_symbol
 _atom_site_label
 _atom_site_symmetry_multiplicity
 _atom_site_fract_x
 _atom_site_fract_y
 _atom_site_fract_z
 _atom_site_occupancy
  Rb  Rb0  1  0.67650300  0.26588700  0.17854300  1
  Rb  Rb1  1  0.17650300  0.73411300  0.32145700  1
  Rb  Rb2  1  0.32349700  0.73411300  0.82145700  1
  Rb  Rb3  1  0.82349700  0.26588700  0.67854300  1
  Ni  Ni4  1  0.50000000  0.00000000  0.50000000  1
  Ni  Ni5  1  0.00000000  0.00000000  0.00000000  1
  H  H6  1  0.21773200  0.18335600  0.51652100  1
  H  H7  1  0.71773200  0.81664400  0.98347900  1
  H  H8  1  0.78226800  0.81664400  0.48347900  1
  H  H9  1  0.28226800  0.18335600  0.01652100  1
  H  H10  1  0.84259900  0.84915600  0.86069600  1
  H  H11  1  0.34259900  0.15084400  0.63930400  1
  H  H12  1  0.15740100  0.15084400  0.13930400  1
  H  H13  1  0.65740100  0.84915600  0.36069600  1
  H  H14  1  0.67495600  0.49539700  0.37266100  1
  H  H15  1  0.63712400  0.34782800  0.90487900  1
  H  H16  1  0.32504400  0.50460300  0.62733900  1
  H  H17  1  0.82504400  0.49539700  0.87266100  1
  H  H18  1  0.86287600  0.34782800  0.40487900  1
  H  H19  1  0.36287600  0.65217200  0.09512100  1
  H  H20  1  0.13712400  0.65217200  0.59512100  1
  H  H21  1  0.17495600  0.50460300  0.12733900  1
  C  C22  1  0.68636400  0.78157600  0.17213300  1
  C  C23  1  0.18636400  0.21842400  0.32786700  1
  C  C24  1  0.81363600  0.78157600  0.67213300  1
  C  C25  1  0.31363600  0.21842400  0.82786700  1
  O  O26  1  0.77835900  0.36407900  0.92729000  1
  O  O27  1  0.27835900  0.63592100  0.57271000  1
  O  O28  1  0.22164100  0.63592100  0.07271000  1
  O  O29  1  0.72164100  0.36407900  0.42729000  1
  O  O30  1  0.79512800  0.91640400  0.91361300  1
  O  O31  1  0.29512800  0.08359600  0.58638700  1
  O  O32  1  0.66653600  0.91031200  0.64211700  1
  O  O33  1  0.16653600  0.08968800  0.85788300  1
  O  O34  1  0.33346400  0.08968800  0.35788300  1
  O  O35  1  0.83346400  0.91031200  0.14211700  1
  O  O36  1  0.89667600  0.73728500  0.77381300  1
  O  O37  1  0.39667600  0.26271500  0.72618700  1
  O  O38  1  0.10332400  0.26271500  0.22618700  1
  O  O39  1  0.20487200  0.08359600  0.08638700  1
  O  O40  1  0.87450300  0.69785100  0.60294900  1
  O  O41  1  0.37450300  0.30214900  0.89705100  1
  O  O42  1  0.12549700  0.30214900  0.39705100  1
  O  O43  1  0.62549700  0.69785100  0.10294900  1
  O  O44  1  0.70487200  0.91640400  0.41361300  1
  O  O45  1  0.60332400  0.73728500  0.27381300  1
