# generated using pymatgen
data_BaH2Cl2O7
_symmetry_space_group_name_H-M   'P 1'
_cell_length_a   7.58914369
_cell_length_b   7.58914369
_cell_length_c   9.05811587
_cell_angle_alpha   55.40309199
_cell_angle_beta   55.40309199
_cell_angle_gamma   63.89851456
_symmetry_Int_Tables_number   1
_chemical_formula_structural   BaH2Cl2O7
_chemical_formula_sum   'Ba2 H4 Cl4 O14'
_cell_volume   348.14653191
_cell_formula_units_Z   2
loop_
 _symmetry_equiv_pos_site_id
 _symmetry_equiv_pos_as_xyz
  1  'x, y, z'
loop_
 _atom_site_type_symbol
 _atom_site_label
 _atom_site_symmetry_multiplicity
 _atom_site_fract_x
 _atom_site_fract_y
 _atom_site_fract_z
 _atom_site_occupancy
  Ba  Ba0  1  0.14481000  0.85519000  0.25000000  1
  Ba  Ba1  1  0.85519000  0.14481000  0.75000000  1
  H  H2  1  0.69383200  0.22218000  0.36570100  1
  H  H3  1  0.77782000  0.30616800  0.13429900  1
  H  H4  1  0.30616800  0.77782000  0.63429900  1
  H  H5  1  0.22218000  0.69383200  0.86570100  1
  Cl  Cl6  1  0.32385600  0.28693200  0.18905500  1
  Cl  Cl7  1  0.71306800  0.67614400  0.31094500  1
  Cl  Cl8  1  0.67614400  0.71306800  0.81094500  1
  Cl  Cl9  1  0.28693200  0.32385600  0.68905500  1
  O  O10  1  0.80739900  0.19260100  0.25000000  1
  O  O11  1  0.19260100  0.80739900  0.75000000  1
  O  O12  1  0.22256600  0.39669500  0.52928800  1
  O  O13  1  0.60330500  0.77743400  0.97071200  1
  O  O14  1  0.77743400  0.60330500  0.47071200  1
  O  O15  1  0.39669400  0.22256600  0.02928800  1
  O  O16  1  0.52878000  0.24257200  0.61135100  1
  O  O17  1  0.75742800  0.47122000  0.88864900  1
  O  O18  1  0.47122000  0.75742800  0.38864900  1
  O  O19  1  0.24257200  0.52878000  0.11135100  1
  O  O20  1  0.17798100  0.13066500  0.86005400  1
  O  O21  1  0.86933500  0.82201900  0.63994600  1
  O  O22  1  0.82201900  0.86933500  0.13994600  1
  O  O23  1  0.13066500  0.17798100  0.36005400  1
