# generated using pymatgen
data_KMn16O32
_symmetry_space_group_name_H-M   'P 1'
_cell_length_a   5.88375400
_cell_length_b   9.89371110
_cell_length_c   9.94354813
_cell_angle_alpha   89.84030233
_cell_angle_beta   89.99975920
_cell_angle_gamma   89.99992129
_symmetry_Int_Tables_number   1
_chemical_formula_structural   KMn16O32
_chemical_formula_sum   'K1 Mn16 O32'
_cell_volume   578.83318933
_cell_formula_units_Z   1
loop_
 _symmetry_equiv_pos_site_id
 _symmetry_equiv_pos_as_xyz
  1  'x, y, z'
loop_
 _atom_site_type_symbol
 _atom_site_label
 _atom_site_symmetry_multiplicity
 _atom_site_fract_x
 _atom_site_fract_y
 _atom_site_fract_z
 _atom_site_occupancy
  K  K0  1  0.00001600  0.49907800  0.49452300  1
  Mn  Mn1  1  0.50000100  0.16711100  0.34659600  1
  Mn  Mn2  1  0.00000600  0.16502000  0.34479100  1
  Mn  Mn3  1  0.49998900  0.34908600  0.82948100  1
  Mn  Mn4  1  0.99999100  0.34727900  0.83135900  1
  Mn  Mn5  1  0.00000000  0.65192000  0.16114900  1
  Mn  Mn6  1  0.50000200  0.65001200  0.16310500  1
  Mn  Mn7  1  0.00000300  0.83386000  0.64795000  1
  Mn  Mn8  1  0.50000500  0.83194800  0.64618800  1
  Mn  Mn9  1  0.74986500  0.66780400  0.84608400  1
  Mn  Mn10  1  0.25013900  0.66779800  0.84608000  1
  Mn  Mn11  1  0.74978700  0.84820700  0.32915400  1
  Mn  Mn12  1  0.25021600  0.84820400  0.32915100  1
  Mn  Mn13  1  0.74982500  0.15072700  0.66368600  1
  Mn  Mn14  1  0.25017200  0.15072800  0.66368500  1
  Mn  Mn15  1  0.74987500  0.33128700  0.14658600  1
  Mn  Mn16  1  0.25012000  0.33128800  0.14658100  1
  O  O17  1  0.74947900  0.95698200  0.65842900  1
  O  O18  1  0.25052700  0.95698000  0.65843000  1
  O  O19  1  0.74938500  0.66498500  0.03895800  1
  O  O20  1  0.25061800  0.66498500  0.03895800  1
  O  O21  1  0.74941700  0.33428300  0.95368400  1
  O  O22  1  0.25055800  0.33427900  0.95368300  1
  O  O23  1  0.74940000  0.04189200  0.33451100  1
  O  O24  1  0.25061000  0.04189200  0.33450900  1
  O  O25  1  0.00000000  0.45656300  0.16152500  1
  O  O26  1  0.49999600  0.45592300  0.15970400  1
  O  O27  1  0.00000700  0.16820600  0.53918300  1
  O  O28  1  0.50000000  0.16650800  0.53981600  1
  O  O29  1  0.50000100  0.83232300  0.45303400  1
  O  O30  1  0.00000100  0.83059700  0.45360900  1
  O  O31  1  0.49999900  0.54320100  0.83292100  1
  O  O32  1  0.99999700  0.54260500  0.83142700  1
  O  O33  1  0.50000200  0.79736800  0.83949900  1
  O  O34  1  0.00000100  0.79755300  0.84068500  1
  O  O35  1  0.00000200  0.84507000  0.19998800  1
  O  O36  1  0.50000200  0.84373600  0.20012500  1
  O  O37  1  0.99999900  0.20147800  0.15200200  1
  O  O38  1  0.50000300  0.20169100  0.15324300  1
  O  O39  1  0.49999900  0.15532500  0.79267800  1
  O  O40  1  0.99999200  0.15406400  0.79281800  1
  O  O41  1  0.75191600  0.29755200  0.34112400  1
  O  O42  1  0.24809000  0.29755200  0.34112000  1
  O  O43  1  0.75183100  0.34602700  0.69970100  1
  O  O44  1  0.24814800  0.34602300  0.69970300  1
  O  O45  1  0.75186100  0.70140600  0.65159100  1
  O  O46  1  0.24814700  0.70140700  0.65159200  1
  O  O47  1  0.75181600  0.65292300  0.29284800  1
  O  O48  1  0.24818500  0.65292300  0.29284900  1
