# generated using pymatgen
data_Fe(Se2O5)2
_symmetry_space_group_name_H-M   'P 1'
_cell_length_a   6.08586900
_cell_length_b   7.00232200
_cell_length_c   10.54704700
_cell_angle_alpha   90.00000000
_cell_angle_beta   90.00000000
_cell_angle_gamma   90.00000000
_symmetry_Int_Tables_number   1
_chemical_formula_structural   Fe(Se2O5)2
_chemical_formula_sum   'Fe2 Se8 O20'
_cell_volume   449.46466906
_cell_formula_units_Z   2
loop_
 _symmetry_equiv_pos_site_id
 _symmetry_equiv_pos_as_xyz
  1  'x, y, z'
loop_
 _atom_site_type_symbol
 _atom_site_label
 _atom_site_symmetry_multiplicity
 _atom_site_fract_x
 _atom_site_fract_y
 _atom_site_fract_z
 _atom_site_occupancy
  Fe  Fe0  1  0.00000000  0.50000000  0.40028400  1
  Fe  Fe1  1  0.00000000  0.00000000  0.90028400  1
  Se  Se2  1  0.21781200  0.14953500  0.19187200  1
  Se  Se3  1  0.21781200  0.35046500  0.69187200  1
  Se  Se4  1  0.28855300  0.64591200  0.00885000  1
  Se  Se5  1  0.28855300  0.85408800  0.50885000  1
  Se  Se6  1  0.71144700  0.14591200  0.50885000  1
  Se  Se7  1  0.71144700  0.35408800  0.00885000  1
  Se  Se8  1  0.78218800  0.64953500  0.69187200  1
  Se  Se9  1  0.78218800  0.85046500  0.19187200  1
  O  O10  1  0.57327900  0.25839900  0.13159800  1
  O  O11  1  0.89093800  0.81912100  0.04337400  1
  O  O12  1  0.00000000  0.00000000  0.26825900  1
  O  O13  1  0.00000000  0.50000000  0.76825900  1
  O  O14  1  0.10906200  0.18087900  0.04337400  1
  O  O15  1  0.10906200  0.31912100  0.54337400  1
  O  O16  1  0.16417300  0.14071900  0.76301800  1
  O  O17  1  0.16417300  0.35928100  0.26301800  1
  O  O18  1  0.26377100  0.67547300  0.39996100  1
  O  O19  1  0.26377100  0.82452700  0.89996100  1
  O  O20  1  0.42672100  0.74160100  0.13159800  1
  O  O21  1  0.42672100  0.75839900  0.63159800  1
  O  O22  1  0.50000000  0.50000000  0.92025800  1
  O  O23  1  0.50000000  0.00000000  0.42025800  1
  O  O24  1  0.57327900  0.24160100  0.63159800  1
  O  O25  1  0.83582700  0.64071900  0.26301800  1
  O  O26  1  0.73622900  0.32452700  0.39996100  1
  O  O27  1  0.73622900  0.17547300  0.89996100  1
  O  O28  1  0.83582700  0.85928100  0.76301800  1
  O  O29  1  0.89093800  0.68087900  0.54337400  1
