# generated using pymatgen
data_Cr(SiO3)2
_symmetry_space_group_name_H-M   'P 1'
_cell_length_a   6.50918475
_cell_length_b   6.50918475
_cell_length_c   5.33865626
_cell_angle_alpha   74.80622247
_cell_angle_beta   74.80622247
_cell_angle_gamma   84.46191097
_symmetry_Int_Tables_number   1
_chemical_formula_structural   Cr(SiO3)2
_chemical_formula_sum   'Cr2 Si4 O12'
_cell_volume   210.56510901
_cell_formula_units_Z   2
loop_
 _symmetry_equiv_pos_site_id
 _symmetry_equiv_pos_as_xyz
  1  'x, y, z'
loop_
 _atom_site_type_symbol
 _atom_site_label
 _atom_site_symmetry_multiplicity
 _atom_site_fract_x
 _atom_site_fract_y
 _atom_site_fract_z
 _atom_site_occupancy
  Cr  Cr0  1  0.39839500  0.60160500  0.75000000  1
  Cr  Cr1  1  0.60160500  0.39839500  0.25000000  1
  Si  Si2  1  0.28439300  0.11387900  0.74485600  1
  Si  Si3  1  0.71560700  0.88612100  0.25514400  1
  Si  Si4  1  0.88612100  0.71560700  0.75514400  1
  Si  Si5  1  0.11387900  0.28439300  0.24485600  1
  O  O6  1  0.86384000  0.85383000  0.46350700  1
  O  O7  1  0.40120400  0.88013900  0.77885300  1
  O  O8  1  0.68397900  0.54540500  0.87256400  1
  O  O9  1  0.13616000  0.14617000  0.53649300  1
  O  O10  1  0.59879600  0.11986100  0.22114700  1
  O  O11  1  0.31602100  0.45459500  0.12743600  1
  O  O12  1  0.11986100  0.59879600  0.72114700  1
  O  O13  1  0.45459500  0.31602100  0.62743600  1
  O  O14  1  0.85383000  0.86384000  0.96350700  1
  O  O15  1  0.14617000  0.13616000  0.03649300  1
  O  O16  1  0.54540500  0.68397900  0.37256400  1
  O  O17  1  0.88013900  0.40120400  0.27885300  1
