# generated using pymatgen
data_NaMn3O6
_symmetry_space_group_name_H-M   'P 1'
_cell_length_a   6.17702455
_cell_length_b   6.17702455
_cell_length_c   14.52908224
_cell_angle_alpha   84.26960832
_cell_angle_beta   84.26960832
_cell_angle_gamma   55.78247410
_symmetry_Int_Tables_number   1
_chemical_formula_structural   NaMn3O6
_chemical_formula_sum   'Na4 Mn12 O24'
_cell_volume   455.47569277
_cell_formula_units_Z   4
loop_
 _symmetry_equiv_pos_site_id
 _symmetry_equiv_pos_as_xyz
  1  'x, y, z'
loop_
 _atom_site_type_symbol
 _atom_site_label
 _atom_site_symmetry_multiplicity
 _atom_site_fract_x
 _atom_site_fract_y
 _atom_site_fract_z
 _atom_site_occupancy
  Na  Na0  1  0.79840000  0.73556200  0.94035400  1
  Na  Na1  1  0.73556200  0.79840000  0.44035400  1
  Na  Na2  1  0.26443800  0.20160000  0.55964600  1
  Na  Na3  1  0.20160000  0.26443800  0.05964600  1
  Mn  Mn4  1  0.39330700  0.14223500  0.26478900  1
  Mn  Mn5  1  0.85776500  0.60669300  0.23521100  1
  Mn  Mn6  1  0.63798400  0.38511700  0.90775500  1
  Mn  Mn7  1  0.14587000  0.89632100  0.90698000  1
  Mn  Mn8  1  0.61488300  0.36201600  0.59224500  1
  Mn  Mn9  1  0.10367900  0.85413000  0.59302000  1
  Mn  Mn10  1  0.60669300  0.85776500  0.73521100  1
  Mn  Mn11  1  0.14223500  0.39330700  0.76478900  1
  Mn  Mn12  1  0.38511700  0.63798400  0.40775500  1
  Mn  Mn13  1  0.89632100  0.14587000  0.40698000  1
  Mn  Mn14  1  0.36201600  0.61488300  0.09224500  1
  Mn  Mn15  1  0.85413000  0.10367900  0.09302000  1
  O  O16  1  0.46354100  0.21341900  0.68384500  1
  O  O17  1  0.96874100  0.70347800  0.68374800  1
  O  O18  1  0.78658100  0.53645900  0.81615500  1
  O  O19  1  0.29652200  0.03125900  0.81625200  1
  O  O20  1  0.70347800  0.96874100  0.18374800  1
  O  O21  1  0.21341900  0.46354100  0.18384500  1
  O  O22  1  0.53645900  0.78658100  0.31615500  1
  O  O23  1  0.03125900  0.29652200  0.31625200  1
  O  O24  1  0.94676300  0.18615300  0.64267200  1
  O  O25  1  0.44764700  0.70370200  0.64111800  1
  O  O26  1  0.81384700  0.05323700  0.85732800  1
  O  O27  1  0.29629800  0.55235300  0.85888200  1
  O  O28  1  0.70370200  0.44764700  0.14111800  1
  O  O29  1  0.18615300  0.94676300  0.14267200  1
  O  O30  1  0.55235300  0.29629800  0.35888200  1
  O  O31  1  0.05323700  0.81384700  0.35732800  1
  O  O32  1  0.78022100  0.03460400  0.52755700  1
  O  O33  1  0.28425000  0.53469700  0.52565000  1
  O  O34  1  0.96539600  0.21977900  0.97244300  1
  O  O35  1  0.46530300  0.71575000  0.97435000  1
  O  O36  1  0.53469700  0.28425000  0.02565000  1
  O  O37  1  0.03460400  0.78022100  0.02755700  1
  O  O38  1  0.71575000  0.46530300  0.47435000  1
  O  O39  1  0.21977900  0.96539600  0.47244300  1
