# generated using pymatgen
data_MnH16C4(Br2N)2
_symmetry_space_group_name_H-M   'P 1'
_cell_length_a   11.95073200
_cell_length_b   8.30439100
_cell_length_c   16.85419378
_cell_angle_alpha   66.00876762
_cell_angle_beta   90.00000000
_cell_angle_gamma   90.00000000
_symmetry_Int_Tables_number   1
_chemical_formula_structural   MnH16C4(Br2N)2
_chemical_formula_sum   'Mn4 H64 C16 Br16 N8'
_cell_volume   1528.16421084
_cell_formula_units_Z   4
loop_
 _symmetry_equiv_pos_site_id
 _symmetry_equiv_pos_as_xyz
  1  'x, y, z'
loop_
 _atom_site_type_symbol
 _atom_site_label
 _atom_site_symmetry_multiplicity
 _atom_site_fract_x
 _atom_site_fract_y
 _atom_site_fract_z
 _atom_site_occupancy
  Mn  Mn0  1  0.79399400  0.25897900  0.95286000  1
  Mn  Mn1  1  0.20600600  0.74102100  0.04714000  1
  Mn  Mn2  1  0.29399400  0.74102100  0.54714000  1
  Mn  Mn3  1  0.70600600  0.25897900  0.45286000  1
  H  H4  1  0.47190800  0.23802400  0.89184900  1
  H  H5  1  0.97190800  0.76197600  0.60815100  1
  H  H6  1  0.52809200  0.76197600  0.10815100  1
  H  H7  1  0.02809200  0.23802400  0.39184900  1
  H  H8  1  0.47868500  0.38922900  0.94313700  1
  H  H9  1  0.97868500  0.61077100  0.55686300  1
  H  H10  1  0.52131500  0.61077100  0.05686300  1
  H  H11  1  0.02131500  0.38922900  0.44313700  1
  H  H12  1  0.44944100  0.16044900  0.00668500  1
  H  H13  1  0.94944100  0.83955100  0.49331500  1
  H  H14  1  0.55055900  0.83955100  0.99331500  1
  H  H15  1  0.05055900  0.16044900  0.50668500  1
  H  H16  1  0.32429900  0.57500200  0.84467300  1
  H  H17  1  0.82429900  0.42499800  0.65532700  1
  H  H18  1  0.67570100  0.42499800  0.15532700  1
  H  H19  1  0.17570100  0.57500200  0.34467300  1
  H  H20  1  0.31849600  0.42609900  0.79159600  1
  H  H21  1  0.81849600  0.57390100  0.70840400  1
  H  H22  1  0.68150400  0.57390100  0.20840400  1
  H  H23  1  0.18150400  0.42609900  0.29159600  1
  H  H24  1  0.19536300  0.46790100  0.84090800  1
  H  H25  1  0.69536300  0.53209900  0.65909200  1
  H  H26  1  0.92110400  0.81563400  0.76710700  1
  H  H27  1  0.30463700  0.46790100  0.34090800  1
  H  H28  1  0.46642600  0.96091900  0.38034600  1
  H  H29  1  0.96642600  0.03908100  0.11965400  1
  H  H30  1  0.53357400  0.03908100  0.61965400  1
  H  H31  1  0.80463700  0.53209900  0.15909200  1
  H  H32  1  0.59964400  0.99541200  0.34869700  1
  H  H33  1  0.09964400  0.00458800  0.15130300  1
  H  H34  1  0.40035600  0.00458800  0.65130300  1
  H  H35  1  0.90035600  0.99541200  0.84869700  1
  H  H36  1  0.28372100  0.33104900  0.98066900  1
  H  H37  1  0.78372100  0.66895100  0.51933100  1
  H  H38  1  0.71627900  0.66895100  0.01933100  1
  H  H39  1  0.21627900  0.33104900  0.48066900  1
  H  H40  1  0.48855600  0.24526100  0.26572000  1
  H  H41  1  0.98855600  0.75473900  0.23428000  1
  H  H42  1  0.51144400  0.75473900  0.73428000  1
  H  H43  1  0.01144400  0.24526100  0.76572000  1
  H  H44  1  0.54559100  0.14290700  0.19838700  1
  H  H45  1  0.04559100  0.85709300  0.30161300  1
  H  H46  1  0.45440900  0.85709300  0.80161300  1
  H  H47  1  0.95440900  0.14290700  0.69838700  1
  H  H48  1  0.40156700  0.10874300  0.23190500  1
  H  H49  1  0.90156700  0.89125700  0.26809500  1
  H  H50  1  0.59843300  0.89125700  0.76809500  1
  H  H51  1  0.09843300  0.10874300  0.73190500  1
  H  H52  1  0.27710700  0.18995100  0.93125900  1
  H  H53  1  0.77710700  0.81004900  0.56874100  1
  H  H54  1  0.72289300  0.81004900  0.06874100  1
  H  H55  1  0.22289300  0.18995100  0.43125900  1
  H  H56  1  0.54279600  0.69624200  0.37933400  1
  H  H57  1  0.04279600  0.30375800  0.12066600  1
  H  H58  1  0.45720400  0.30375800  0.62066600  1
  H  H59  1  0.95720400  0.69624200  0.87933400  1
  H  H60  1  0.43417400  0.78367100  0.29899700  1
  H  H61  1  0.93417400  0.21632900  0.20100300  1
  H  H62  1  0.56582600  0.21632900  0.70100300  1
  H  H63  1  0.06582600  0.78367100  0.79899700  1
  H  H64  1  0.57889600  0.81563400  0.26710700  1
  H  H65  1  0.07889600  0.18436600  0.23289300  1
  H  H66  1  0.42110400  0.18436600  0.73289300  1
  H  H67  1  0.03357400  0.96091900  0.88034600  1
  C  C68  1  0.56247800  0.72900400  0.05638500  1
  C  C69  1  0.93752200  0.72900400  0.55638500  1
  C  C70  1  0.43752200  0.27099600  0.94361500  1
  C  C71  1  0.06247800  0.27099600  0.44361500  1
  C  C72  1  0.98124600  0.80422300  0.81817000  1
  C  C73  1  0.48124600  0.19577700  0.68183000  1
  C  C74  1  0.01875400  0.19577700  0.18183000  1
  C  C75  1  0.51875400  0.80422300  0.31817000  1
  C  C76  1  0.01360100  0.12912700  0.75045700  1
  C  C77  1  0.51360100  0.87087300  0.74954300  1
  C  C78  1  0.98639900  0.87087300  0.24954300  1
  C  C79  1  0.48639900  0.12912700  0.25045700  1
  C  C80  1  0.21346200  0.45415900  0.34557700  1
  C  C81  1  0.28653800  0.45415900  0.84557700  1
  C  C82  1  0.78653800  0.54584100  0.65442300  1
  C  C83  1  0.71346200  0.54584100  0.15442300  1
  Br  Br84  1  0.79166900  0.55648800  0.40985800  1
  Br  Br85  1  0.29166900  0.44351200  0.09014200  1
  Br  Br86  1  0.20833100  0.44351200  0.59014200  1
  Br  Br87  1  0.70833100  0.55648800  0.90985800  1
  Br  Br88  1  0.00152300  0.27656100  0.94043500  1
  Br  Br89  1  0.50152300  0.72343900  0.55956500  1
  Br  Br90  1  0.99847700  0.72343900  0.05956500  1
  Br  Br91  1  0.49847700  0.27656100  0.44043500  1
  Br  Br92  1  0.72226100  0.10487000  0.86202400  1
  Br  Br93  1  0.22226100  0.89513000  0.63797600  1
  Br  Br94  1  0.27773900  0.89513000  0.13797600  1
  Br  Br95  1  0.77773900  0.10487000  0.36202400  1
  Br  Br96  1  0.76180300  0.06219600  0.60674600  1
  Br  Br97  1  0.23819700  0.93780400  0.39325400  1
  Br  Br98  1  0.73819700  0.06219600  0.10674600  1
  Br  Br99  1  0.26180300  0.93780400  0.89325400  1
  N  N100  1  0.98016300  0.97277000  0.82984600  1
  N  N101  1  0.48016300  0.02723000  0.67015400  1
  N  N102  1  0.01983700  0.02723000  0.17015400  1
  N  N103  1  0.51983700  0.97277000  0.32984600  1
  N  N104  1  0.68492100  0.69534600  0.07072200  1
  N  N105  1  0.81507900  0.69534600  0.57072200  1
  N  N106  1  0.31507900  0.30465400  0.92927800  1
  N  N107  1  0.18492100  0.30465400  0.42927800  1
