# generated using pymatgen
data_MoO2
_symmetry_space_group_name_H-M   'P 1'
_cell_length_a   5.44696624
_cell_length_b   5.44696624
_cell_length_c   5.44696677
_cell_angle_alpha   31.51272827
_cell_angle_beta   31.51272827
_cell_angle_gamma   31.51272246
_symmetry_Int_Tables_number   1
_chemical_formula_structural   MoO2
_chemical_formula_sum   'Mo1 O2'
_cell_volume   39.19879230
_cell_formula_units_Z   1
loop_
 _symmetry_equiv_pos_site_id
 _symmetry_equiv_pos_as_xyz
  1  'x, y, z'
loop_
 _atom_site_type_symbol
 _atom_site_label
 _atom_site_symmetry_multiplicity
 _atom_site_fract_x
 _atom_site_fract_y
 _atom_site_fract_z
 _atom_site_occupancy
  Mo  Mo0  1  0.50000000  0.50000000  0.50000000  1
  O  O1  1  0.75796400  0.75796400  0.75796400  1
  O  O2  1  0.24203600  0.24203600  0.24203600  1
