# generated using pymatgen
data_FeHO2
_symmetry_space_group_name_H-M   'P 1'
_cell_length_a   7.68417712
_cell_length_b   7.68417712
_cell_length_c   4.04855200
_cell_angle_alpha   90.00000000
_cell_angle_beta   90.00000000
_cell_angle_gamma   160.26955063
_symmetry_Int_Tables_number   1
_chemical_formula_structural   FeHO2
_chemical_formula_sum   'Fe2 H2 O4'
_cell_volume   80.70327613
_cell_formula_units_Z   2
loop_
 _symmetry_equiv_pos_site_id
 _symmetry_equiv_pos_as_xyz
  1  'x, y, z'
loop_
 _atom_site_type_symbol
 _atom_site_label
 _atom_site_symmetry_multiplicity
 _atom_site_fract_x
 _atom_site_fract_y
 _atom_site_fract_z
 _atom_site_occupancy
  Fe  Fe0  1  0.31202100  0.68797900  0.75000000  1
  Fe  Fe1  1  0.68797900  0.31202100  0.25000000  1
  H  H2  1  0.44332500  0.55667500  0.75000000  1
  H  H3  1  0.55667500  0.44332500  0.25000000  1
  O  O4  1  0.28631600  0.71368400  0.25000000  1
  O  O5  1  0.71368400  0.28631600  0.75000000  1
  O  O6  1  0.08276000  0.91724000  0.25000000  1
  O  O7  1  0.91724000  0.08276000  0.75000000  1
