# generated using pymatgen
data_MnBO3
_symmetry_space_group_name_H-M   'P 1'
_cell_length_a   8.40253545
_cell_length_b   8.40253545
_cell_length_c   3.07303400
_cell_angle_alpha   90.00000000
_cell_angle_beta   90.00000000
_cell_angle_gamma   119.99999569
_symmetry_Int_Tables_number   1
_chemical_formula_structural   MnBO3
_chemical_formula_sum   'Mn3 B3 O9'
_cell_volume   187.89651407
_cell_formula_units_Z   3
loop_
 _symmetry_equiv_pos_site_id
 _symmetry_equiv_pos_as_xyz
  1  'x, y, z'
loop_
 _atom_site_type_symbol
 _atom_site_label
 _atom_site_symmetry_multiplicity
 _atom_site_fract_x
 _atom_site_fract_y
 _atom_site_fract_z
 _atom_site_occupancy
  Mn  Mn0  1  0.37505400  0.36763000  0.00000000  1
  Mn  Mn1  1  0.99257600  0.62494600  0.00000000  1
  Mn  Mn2  1  0.63237000  0.00742400  0.00000000  1
  B  B3  1  0.33333300  0.66666700  0.50000000  1
  B  B4  1  0.00000000  0.00000000  0.00000000  1
  B  B5  1  0.66666700  0.33333300  0.50000000  1
  O  O6  1  0.14882800  0.61238400  0.50000000  1
  O  O7  1  0.71684300  0.19885600  0.50000000  1
  O  O8  1  0.80114400  0.51798700  0.50000000  1
  O  O9  1  0.07300800  0.88694400  0.00000000  1
  O  O10  1  0.81393600  0.92699200  0.00000000  1
  O  O11  1  0.11305600  0.18606400  0.00000000  1
  O  O12  1  0.48201300  0.28315700  0.50000000  1
  O  O13  1  0.38761600  0.53644500  0.50000000  1
  O  O14  1  0.46355500  0.85117200  0.50000000  1
