# generated using pymatgen
data_V2O5
_symmetry_space_group_name_H-M   'P 1'
_cell_length_a   8.02798082
_cell_length_b   8.02798082
_cell_length_c   10.32941042
_cell_angle_alpha   71.73401859
_cell_angle_beta   71.73401859
_cell_angle_gamma   26.21192453
_symmetry_Int_Tables_number   1
_chemical_formula_structural   V2O5
_chemical_formula_sum   'V6 O15'
_cell_volume   278.39942097
_cell_formula_units_Z   3
loop_
 _symmetry_equiv_pos_site_id
 _symmetry_equiv_pos_as_xyz
  1  'x, y, z'
loop_
 _atom_site_type_symbol
 _atom_site_label
 _atom_site_symmetry_multiplicity
 _atom_site_fract_x
 _atom_site_fract_y
 _atom_site_fract_z
 _atom_site_occupancy
  V  V0  1  0.88456000  0.88456000  0.61335300  1
  V  V1  1  0.11544000  0.11544000  0.38664700  1
  V  V2  1  0.71160300  0.71160300  0.91102200  1
  V  V3  1  0.28839700  0.28839700  0.08897800  1
  V  V4  1  0.66278000  0.66278000  0.60764700  1
  V  V5  1  0.33722000  0.33722000  0.39235300  1
  O  O6  1  0.81598500  0.81598500  0.44534900  1
  O  O7  1  0.18401500  0.18401500  0.55465100  1
  O  O8  1  0.89331400  0.89331400  0.76538800  1
  O  O9  1  0.10668600  0.10668600  0.23461200  1
  O  O10  1  0.75480700  0.75480700  0.07533600  1
  O  O11  1  0.24519300  0.24519300  0.92466400  1
  O  O12  1  0.63489900  0.63489900  0.42661000  1
  O  O13  1  0.36510100  0.36510100  0.57339000  1
  O  O14  1  0.73693700  0.73693700  0.72127300  1
  O  O15  1  0.26306300  0.26306300  0.27872700  1
  O  O16  1  0.60384500  0.60384500  0.96862200  1
  O  O17  1  0.39615500  0.39615500  0.03137800  1
  O  O18  1  0.56327300  0.56327300  0.71726400  1
  O  O19  1  0.43672700  0.43672700  0.28273600  1
  O  O20  1  0.00000000  0.00000000  0.50000000  1
