# generated using pymatgen
data_S2N
_symmetry_space_group_name_H-M   'P 1'
_cell_length_a   11.86840800
_cell_length_b   11.86840800
_cell_length_c   4.24800800
_cell_angle_alpha   90.00000000
_cell_angle_beta   90.00000000
_cell_angle_gamma   90.00000000
_symmetry_Int_Tables_number   1
_chemical_formula_structural   S2N
_chemical_formula_sum   'S16 N8'
_cell_volume   598.37061959
_cell_formula_units_Z   8
loop_
 _symmetry_equiv_pos_site_id
 _symmetry_equiv_pos_as_xyz
  1  'x, y, z'
loop_
 _atom_site_type_symbol
 _atom_site_label
 _atom_site_symmetry_multiplicity
 _atom_site_fract_x
 _atom_site_fract_y
 _atom_site_fract_z
 _atom_site_occupancy
  S  S0  1  0.15382700  0.34861600  0.31207400  1
  S  S1  1  0.84861600  0.34617300  0.81207400  1
  S  S2  1  0.15138400  0.65382700  0.81207400  1
  S  S3  1  0.84617300  0.65138400  0.31207400  1
  S  S4  1  0.65382700  0.15138400  0.81207400  1
  S  S5  1  0.34617300  0.84861600  0.81207400  1
  S  S6  1  0.65138400  0.84617300  0.31207400  1
  S  S7  1  0.34861600  0.15382700  0.31207400  1
  S  S8  1  0.68087300  0.68087300  0.17410300  1
  S  S9  1  0.18087300  0.81912700  0.67410300  1
  S  S10  1  0.81912700  0.18087300  0.67410300  1
  S  S11  1  0.31912700  0.31912700  0.17410300  1
  S  S12  1  0.88245500  0.88245500  0.11051300  1
  S  S13  1  0.38245500  0.61754500  0.61051300  1
  S  S14  1  0.61754500  0.38245500  0.61051300  1
  S  S15  1  0.11754500  0.11754500  0.11051300  1
  N  N16  1  0.24373500  0.07903100  0.16126800  1
  N  N17  1  0.75626500  0.92096900  0.16126800  1
  N  N18  1  0.42096900  0.74373500  0.66126800  1
  N  N19  1  0.57903100  0.25626500  0.66126800  1
  N  N20  1  0.92096900  0.75626500  0.16126800  1
  N  N21  1  0.25626500  0.57903100  0.66126800  1
  N  N22  1  0.74373500  0.42096900  0.66126800  1
  N  N23  1  0.07903100  0.24373500  0.16126800  1
