data_image0
_chemical_formula_structural       C2Ga2Mo4
_chemical_formula_sum              "C2 Ga2 Mo4"
_cell_length_a       3.06946
_cell_length_b       3.06945
_cell_length_c       13.1928
_cell_angle_alpha    90
_cell_angle_beta     90
_cell_angle_gamma    120

_space_group_name_H-M_alt    "P 1"
_space_group_IT_number       1

loop_
  _space_group_symop_operation_xyz
  'x, y, z'

loop_
  _atom_site_type_symbol
  _atom_site_label
  _atom_site_symmetry_multiplicity
  _atom_site_fract_x
  _atom_site_fract_y
  _atom_site_fract_z
  _atom_site_occupancy
  C   C1        1.0  0.00000  0.00000  0.00000  1.0000
  C   C2        1.0  0.00000  0.00000  0.50000  1.0000
  Ga  Ga1       1.0  0.66700  0.33300  0.25000  1.0000
  Ga  Ga2       1.0  0.33300  0.66700  0.75000  1.0000
  Mo  Mo1       1.0  0.33300  0.66700  0.08880  1.0000
  Mo  Mo2       1.0  0.33300  0.66700  0.41100  1.0000
  Mo  Mo3       1.0  0.66700  0.33300  0.58900  1.0000
  Mo  Mo4       1.0  0.66700  0.33300  0.91100  1.0000
