# generated using pymatgen
data_H8W3Se(NO6)2
_symmetry_space_group_name_H-M   'P 1'
_cell_length_a   7.34915100
_cell_length_b   7.34915172
_cell_length_c   12.57245800
_cell_angle_alpha   90.00000000
_cell_angle_beta   90.00000000
_cell_angle_gamma   120.00000128
_symmetry_Int_Tables_number   1
_chemical_formula_structural   H8W3Se(NO6)2
_chemical_formula_sum   'H16 W6 Se2 N4 O24'
_cell_volume   588.06482557
_cell_formula_units_Z   2
loop_
 _symmetry_equiv_pos_site_id
 _symmetry_equiv_pos_as_xyz
  1  'x, y, z'
loop_
 _atom_site_type_symbol
 _atom_site_label
 _atom_site_symmetry_multiplicity
 _atom_site_fract_x
 _atom_site_fract_y
 _atom_site_fract_z
 _atom_site_occupancy
  H  H0  1  0.66666700  0.33333300  0.15170300  1
  H  H1  1  0.25482400  0.51168000  0.14918400  1
  H  H2  1  0.74314400  0.25482400  0.64918400  1
  H  H3  1  0.51168000  0.25685600  0.64918400  1
  H  H4  1  0.33333400  0.66666700  0.65170200  1
  H  H5  1  0.66666700  0.33333300  0.53992300  1
  H  H6  1  0.33333400  0.66666700  0.03992400  1
  H  H7  1  0.40321300  0.81951800  0.76256900  1
  H  H8  1  0.58369400  0.40321200  0.26256900  1
  H  H9  1  0.48832000  0.74314400  0.14918400  1
  H  H10  1  0.18048300  0.58369400  0.76256900  1
  H  H11  1  0.41630500  0.59678700  0.76256900  1
  H  H12  1  0.59678800  0.18048200  0.26256900  1
  H  H13  1  0.74517600  0.48832000  0.64918400  1
  H  H14  1  0.25685600  0.74517600  0.14918400  1
  H  H15  1  0.81951800  0.41630500  0.26256900  1
  W  W16  1  0.83272000  0.66110700  0.89431900  1
  W  W17  1  0.82838700  0.16727900  0.89431900  1
  W  W18  1  0.66110800  0.82838700  0.39431900  1
  W  W19  1  0.16728000  0.33889200  0.39431900  1
  W  W20  1  0.33889200  0.17161300  0.89431900  1
  W  W21  1  0.17161300  0.83272000  0.39431900  1
  Se  Se22  1  0.00000000  0.00000000  0.66503500  1
  Se  Se23  1  0.00000000  0.00000000  0.16503500  1
  N  N24  1  0.66666700  0.33333300  0.23419200  1
  N  N25  1  0.33333400  0.66666700  0.73419200  1
  N  N26  1  0.66666700  0.33333300  0.62144800  1
  N  N27  1  0.33333400  0.66666700  0.12144800  1
  O  O28  1  0.20495200  0.80015100  0.53036400  1
  O  O29  1  0.79504800  0.19984900  0.03036400  1
  O  O30  1  0.80015100  0.59519900  0.03036400  1
  O  O31  1  0.59519800  0.79504800  0.53036400  1
  O  O32  1  0.54114900  0.08456400  0.84847000  1
  O  O33  1  0.45658500  0.54114900  0.34847000  1
  O  O34  1  0.19984900  0.40480100  0.53036400  1
  O  O35  1  0.91543600  0.45658500  0.84847000  1
  O  O36  1  0.54341600  0.45885100  0.84847000  1
  O  O37  1  0.45885100  0.91543500  0.34847000  1
  O  O38  1  0.24914900  0.12752700  0.72386500  1
  O  O39  1  0.12162100  0.24914900  0.22386500  1
  O  O40  1  0.12752700  0.87837900  0.22386500  1
  O  O41  1  0.87247200  0.12162100  0.72386500  1
  O  O42  1  0.87837800  0.75085100  0.72386500  1
  O  O43  1  0.75085100  0.87247300  0.22386500  1
  O  O44  1  0.08456400  0.54341500  0.34847000  1
  O  O45  1  0.87459400  0.12317800  0.40466200  1
  O  O46  1  0.75141500  0.87459300  0.90466200  1
  O  O47  1  0.12317800  0.24858500  0.90466200  1
  O  O48  1  0.87682100  0.75141400  0.40466200  1
  O  O49  1  0.24858500  0.12540600  0.40466200  1
  O  O50  1  0.12540700  0.87682100  0.90466200  1
  O  O51  1  0.40480100  0.20495200  0.03036400  1
