# generated using pymatgen
data_Cs2Se
_symmetry_space_group_name_H-M   'P 1'
_cell_length_a   11.62526628
_cell_length_b   11.62526628
_cell_length_c   11.62526569
_cell_angle_alpha   28.59157668
_cell_angle_beta   28.59157668
_cell_angle_gamma   28.59157444
_symmetry_Int_Tables_number   1
_chemical_formula_structural   Cs2Se
_chemical_formula_sum   'Cs4 Se2'
_cell_volume   318.07285257
_cell_formula_units_Z   2
loop_
 _symmetry_equiv_pos_site_id
 _symmetry_equiv_pos_as_xyz
  1  'x, y, z'
loop_
 _atom_site_type_symbol
 _atom_site_label
 _atom_site_symmetry_multiplicity
 _atom_site_fract_x
 _atom_site_fract_y
 _atom_site_fract_z
 _atom_site_occupancy
  Cs  Cs0  1  0.87823900  0.87823900  0.87823900  1
  Cs  Cs1  1  0.12176100  0.12176100  0.12176100  1
  Cs  Cs2  1  0.70417000  0.70417000  0.70417000  1
  Cs  Cs3  1  0.29583000  0.29583000  0.29583000  1
  Se  Se4  1  0.58729700  0.58729700  0.58729700  1
  Se  Se5  1  0.41270300  0.41270300  0.41270300  1
