# generated using pymatgen
data_Mn6HO12
_symmetry_space_group_name_H-M   'P 1'
_cell_length_a   5.52536962
_cell_length_b   5.52536962
_cell_length_c   13.91269228
_cell_angle_alpha   88.02099989
_cell_angle_beta   88.02099989
_cell_angle_gamma   64.88235134
_symmetry_Int_Tables_number   1
_chemical_formula_structural   Mn6HO12
_chemical_formula_sum   'Mn12 H2 O24'
_cell_volume   384.26313856
_cell_formula_units_Z   2
loop_
 _symmetry_equiv_pos_site_id
 _symmetry_equiv_pos_as_xyz
  1  'x, y, z'
loop_
 _atom_site_type_symbol
 _atom_site_label
 _atom_site_symmetry_multiplicity
 _atom_site_fract_x
 _atom_site_fract_y
 _atom_site_fract_z
 _atom_site_occupancy
  Mn  Mn0  1  0.74725200  0.49852000  0.50247000  1
  Mn  Mn1  1  0.25282000  0.99887300  0.50067100  1
  Mn  Mn2  1  0.48220400  0.23257100  0.15524300  1
  Mn  Mn3  1  0.98933100  0.73861300  0.15884500  1
  Mn  Mn4  1  0.51808700  0.25718400  0.84523600  1
  Mn  Mn5  1  0.00817000  0.76879900  0.84522500  1
  Mn  Mn6  1  0.49852000  0.74725200  0.00247000  1
  Mn  Mn7  1  0.99887300  0.25282000  0.00067100  1
  Mn  Mn8  1  0.73861300  0.98933100  0.65884500  1
  Mn  Mn9  1  0.23257100  0.48220400  0.65524300  1
  Mn  Mn10  1  0.76879900  0.00817000  0.34522500  1
  Mn  Mn11  1  0.25718400  0.51808700  0.34523600  1
  H  H12  1  0.71183900  0.47263800  0.25792800  1
  H  H13  1  0.47263800  0.71183900  0.75792800  1
  O  O14  1  0.66875900  0.41393700  0.93313300  1
  O  O15  1  0.16431500  0.91832800  0.93381800  1
  O  O16  1  0.33033300  0.08244600  0.07013200  1
  O  O17  1  0.83420500  0.58356900  0.06957400  1
  O  O18  1  0.41393700  0.66875900  0.43313300  1
  O  O19  1  0.91832800  0.16431500  0.43381800  1
  O  O20  1  0.58356900  0.83420500  0.56957400  1
  O  O21  1  0.08244600  0.33033300  0.57013200  1
  O  O22  1  0.16496200  0.41451600  0.90460700  1
  O  O23  1  0.66115600  0.91103900  0.90374000  1
  O  O24  1  0.33496500  0.58033100  0.09775300  1
  O  O25  1  0.83487700  0.08958000  0.09684600  1
  O  O26  1  0.41451600  0.16496200  0.40460700  1
  O  O27  1  0.91103900  0.66115600  0.40374000  1
  O  O28  1  0.58033100  0.33496500  0.59775300  1
  O  O29  1  0.08958000  0.83487700  0.59684600  1
  O  O30  1  0.36337400  0.61128100  0.76895400  1
  O  O31  1  0.85583500  0.10671300  0.77245600  1
  O  O32  1  0.14282400  0.39673100  0.23150500  1
  O  O33  1  0.64810500  0.89207100  0.23182200  1
  O  O34  1  0.61128100  0.36337400  0.26895400  1
  O  O35  1  0.10671300  0.85583500  0.27245600  1
  O  O36  1  0.39673100  0.14282400  0.73150500  1
  O  O37  1  0.89207100  0.64810500  0.73182200  1
