# generated using pymatgen
data_Fe4(PO4)3
_symmetry_space_group_name_H-M   'P 1'
_cell_length_a   8.72137267
_cell_length_b   8.72137299
_cell_length_c   6.58488701
_cell_angle_alpha   73.82290639
_cell_angle_beta   106.17708806
_cell_angle_gamma   87.13217950
_symmetry_Int_Tables_number   1
_chemical_formula_structural   Fe4(PO4)3
_chemical_formula_sum   'Fe8 P6 O24'
_cell_volume   457.53835138
_cell_formula_units_Z   2
loop_
 _symmetry_equiv_pos_site_id
 _symmetry_equiv_pos_as_xyz
  1  'x, y, z'
loop_
 _atom_site_type_symbol
 _atom_site_label
 _atom_site_symmetry_multiplicity
 _atom_site_fract_x
 _atom_site_fract_y
 _atom_site_fract_z
 _atom_site_occupancy
  Fe  Fe0  1  0.75355000  0.75355000  0.75000000  1
  Fe  Fe1  1  0.94359600  0.36116000  0.38052000  1
  Fe  Fe2  1  0.49510400  0.49510400  0.25000000  1
  Fe  Fe3  1  0.63884000  0.05640400  0.88052000  1
  Fe  Fe4  1  0.36116000  0.94359600  0.11948000  1
  Fe  Fe5  1  0.50489600  0.50489600  0.75000000  1
  Fe  Fe6  1  0.24645000  0.24645000  0.25000000  1
  Fe  Fe7  1  0.05640400  0.63884000  0.61948000  1
  P  P8  1  0.12217900  0.65088800  0.12882300  1
  P  P9  1  0.29176900  0.29176900  0.75000000  1
  P  P10  1  0.34911200  0.87782100  0.62882300  1
  P  P11  1  0.65088800  0.12217900  0.37117700  1
  P  P12  1  0.70823100  0.70823100  0.25000000  1
  P  P13  1  0.87782100  0.34911200  0.87117700  1
  O  O14  1  0.48926900  0.73910800  0.67142400  1
  O  O15  1  0.81408900  0.73905600  0.46224800  1
  O  O16  1  0.80722600  0.19151000  0.36702700  1
  O  O17  1  0.72913200  0.52567500  0.26209500  1
  O  O18  1  0.80849000  0.19277400  0.86702700  1
  O  O19  1  0.73910800  0.48926900  0.82857600  1
  O  O20  1  0.00222800  0.32664200  0.10338800  1
  O  O21  1  0.96069500  0.40707300  0.68856800  1
  O  O22  1  0.99777200  0.67335800  0.89661200  1
  O  O23  1  0.03930500  0.59292700  0.31143200  1
  O  O24  1  0.26094400  0.18591100  0.96224800  1
  O  O25  1  0.18591100  0.26094400  0.53775200  1
  O  O26  1  0.19277400  0.80849000  0.63297300  1
  O  O27  1  0.27086800  0.47432500  0.73790500  1
  O  O28  1  0.59292700  0.03930500  0.18856800  1
  O  O29  1  0.26089200  0.51073100  0.17142400  1
  O  O30  1  0.40707300  0.96069500  0.81143200  1
  O  O31  1  0.32664200  0.00222800  0.39661200  1
  O  O32  1  0.47432500  0.27086800  0.76209500  1
  O  O33  1  0.19151000  0.80722600  0.13297300  1
  O  O34  1  0.51073100  0.26089200  0.32857600  1
  O  O35  1  0.52567500  0.72913200  0.23790500  1
  O  O36  1  0.67335800  0.99777200  0.60338800  1
  O  O37  1  0.73905600  0.81408900  0.03775200  1
