# generated using pymatgen
data_Mo2P3O11
_symmetry_space_group_name_H-M   'P 1'
_cell_length_a   7.48499865
_cell_length_b   7.48499939
_cell_length_c   9.15010517
_cell_angle_alpha   70.42619306
_cell_angle_beta   109.57381212
_cell_angle_gamma   108.08082293
_symmetry_Int_Tables_number   1
_chemical_formula_structural   Mo2P3O11
_chemical_formula_sum   'Mo4 P6 O22'
_cell_volume   443.62122254
_cell_formula_units_Z   2
loop_
 _symmetry_equiv_pos_site_id
 _symmetry_equiv_pos_as_xyz
  1  'x, y, z'
loop_
 _atom_site_type_symbol
 _atom_site_label
 _atom_site_symmetry_multiplicity
 _atom_site_fract_x
 _atom_site_fract_y
 _atom_site_fract_z
 _atom_site_occupancy
  Mo  Mo0  1  0.88557200  0.63618500  0.03921600  1
  Mo  Mo1  1  0.63618500  0.88557200  0.46078400  1
  Mo  Mo2  1  0.36338300  0.11421600  0.53915800  1
  Mo  Mo3  1  0.11421600  0.36338300  0.96084200  1
  P  P4  1  0.45703000  0.67187400  0.78653400  1
  P  P5  1  0.32789700  0.54279600  0.28645600  1
  P  P6  1  0.67187400  0.45703000  0.71346600  1
  P  P7  1  0.54279600  0.32789700  0.21354400  1
  P  P8  1  0.03897400  0.03897400  0.75000000  1
  P  P9  1  0.96058900  0.96058900  0.25000000  1
  O  O10  1  0.61279700  0.25772200  0.68277800  1
  O  O11  1  0.97846600  0.13666900  0.10456400  1
  O  O12  1  0.94623700  0.77334000  0.20688900  1
  O  O13  1  0.86288900  0.02122300  0.60461800  1
  O  O14  1  0.02122300  0.86288900  0.89538200  1
  O  O15  1  0.05343400  0.22620800  0.79319800  1
  O  O16  1  0.13666900  0.97846600  0.39543600  1
  O  O17  1  0.25772200  0.61279700  0.81722200  1
  O  O18  1  0.22620800  0.05343400  0.70680200  1
  O  O19  1  0.15797800  0.53400600  0.12936600  1
  O  O20  1  0.46565900  0.84181600  0.62945100  1
  O  O21  1  0.27735800  0.37479500  0.42711600  1
  O  O22  1  0.62507300  0.72237700  0.92720100  1
  O  O23  1  0.77334000  0.94623700  0.29311100  1
  O  O24  1  0.38682000  0.74214000  0.31702100  1
  O  O25  1  0.51113800  0.51113800  0.25000000  1
  O  O26  1  0.48870600  0.48870600  0.75000000  1
  O  O27  1  0.37479500  0.27735800  0.07288400  1
  O  O28  1  0.72237700  0.62507300  0.57279900  1
  O  O29  1  0.53400600  0.15797800  0.37063400  1
  O  O30  1  0.84181600  0.46565900  0.87054900  1
  O  O31  1  0.74214000  0.38682000  0.18297900  1
