# generated using pymatgen
data_SbP2O7
_symmetry_space_group_name_H-M   'P 1'
_cell_length_a   8.48753500
_cell_length_b   7.39947700
_cell_length_c   9.91031832
_cell_angle_alpha   69.62821702
_cell_angle_beta   90.00000000
_cell_angle_gamma   90.00000000
_symmetry_Int_Tables_number   1
_chemical_formula_structural   SbP2O7
_chemical_formula_sum   'Sb4 P8 O28'
_cell_volume   583.47192092
_cell_formula_units_Z   4
loop_
 _symmetry_equiv_pos_site_id
 _symmetry_equiv_pos_as_xyz
  1  'x, y, z'
loop_
 _atom_site_type_symbol
 _atom_site_label
 _atom_site_symmetry_multiplicity
 _atom_site_fract_x
 _atom_site_fract_y
 _atom_site_fract_z
 _atom_site_occupancy
  Sb  Sb0  1  0.49466800  0.26410600  0.24584700  1
  Sb  Sb1  1  0.00533200  0.26410600  0.74584700  1
  Sb  Sb2  1  0.99466800  0.73589400  0.25415300  1
  Sb  Sb3  1  0.50533200  0.73589400  0.75415300  1
  P  P4  1  0.71358200  0.32670400  0.94746500  1
  P  P5  1  0.28641800  0.67329600  0.05253500  1
  P  P6  1  0.24081700  0.07824700  0.04185500  1
  P  P7  1  0.74081700  0.92175300  0.45814500  1
  P  P8  1  0.75918300  0.92175300  0.95814500  1
  P  P9  1  0.25918300  0.07824700  0.54185500  1
  P  P10  1  0.21358200  0.67329600  0.55253500  1
  P  P11  1  0.78641800  0.32670400  0.44746500  1
  O  O12  1  0.69978300  0.32870300  0.10173700  1
  O  O13  1  0.36227900  0.20094100  0.08511300  1
  O  O14  1  0.90672700  0.45593300  0.34236500  1
  O  O15  1  0.63772100  0.79905900  0.91488700  1
  O  O16  1  0.80021700  0.32870300  0.60173700  1
  O  O17  1  0.40672700  0.54406700  0.15763500  1
  O  O18  1  0.66580000  0.11510500  0.94906800  1
  O  O19  1  0.20073600  0.18471900  0.88172100  1
  O  O20  1  0.61366100  0.36468400  0.39671200  1
  O  O21  1  0.59551200  0.97706200  0.35993300  1
  O  O22  1  0.19978300  0.67129700  0.39826300  1
  O  O23  1  0.11366100  0.63531600  0.10328800  1
  O  O24  1  0.09551200  0.02293800  0.14006700  1
  O  O25  1  0.33420000  0.88489500  0.05093200  1
  O  O26  1  0.86227900  0.79905900  0.41488700  1
  O  O27  1  0.88633900  0.36468400  0.89671200  1
  O  O28  1  0.83420000  0.11510500  0.44906800  1
  O  O29  1  0.30021700  0.67129700  0.89826300  1
  O  O30  1  0.79926400  0.81528100  0.11827900  1
  O  O31  1  0.40448800  0.02293800  0.64006700  1
  O  O32  1  0.70073600  0.81528100  0.61827900  1
  O  O33  1  0.16580000  0.88489500  0.55093200  1
  O  O34  1  0.90448800  0.97706200  0.85993300  1
  O  O35  1  0.13772100  0.20094100  0.58511300  1
  O  O36  1  0.38633900  0.63531600  0.60328800  1
  O  O37  1  0.29926400  0.18471900  0.38172100  1
  O  O38  1  0.09327300  0.54406700  0.65763500  1
  O  O39  1  0.59327300  0.45593300  0.84236500  1
