# generated using pymatgen
data_Na2CoP2O7
_symmetry_space_group_name_H-M   'P 1'
_cell_length_a   6.54113102
_cell_length_b   10.61668851
_cell_length_c   9.49109066
_cell_angle_alpha   106.20585525
_cell_angle_beta   78.32586293
_cell_angle_gamma   74.97961650
_symmetry_Int_Tables_number   1
_chemical_formula_structural   Na2CoP2O7
_chemical_formula_sum   'Na8 Co4 P8 O28'
_cell_volume   583.87242106
_cell_formula_units_Z   4
loop_
 _symmetry_equiv_pos_site_id
 _symmetry_equiv_pos_as_xyz
  1  'x, y, z'
loop_
 _atom_site_type_symbol
 _atom_site_label
 _atom_site_symmetry_multiplicity
 _atom_site_fract_x
 _atom_site_fract_y
 _atom_site_fract_z
 _atom_site_occupancy
  Na  Na0  1  0.41676600  0.68571900  0.72389400  1
  Na  Na1  1  0.41591400  0.18623800  0.72379900  1
  Na  Na2  1  0.58358300  0.31424000  0.27621200  1
  Na  Na3  1  0.58393200  0.81377800  0.27633100  1
  Na  Na4  1  0.25785200  0.55305000  0.96886200  1
  Na  Na5  1  0.25640600  0.05350600  0.96941300  1
  Na  Na6  1  0.74248500  0.44724200  0.03142000  1
  Na  Na7  1  0.74272400  0.94692400  0.03116300  1
  Co  Co8  1  0.76751600  0.36180200  0.63165200  1
  Co  Co9  1  0.23239100  0.63812800  0.36848000  1
  Co  Co10  1  0.76678000  0.86215500  0.63144900  1
  Co  Co11  1  0.23309900  0.13804000  0.36826600  1
  P  P12  1  0.22884300  0.43228200  0.60950100  1
  P  P13  1  0.22891000  0.93211600  0.60898100  1
  P  P14  1  0.77098800  0.56758100  0.39044900  1
  P  P15  1  0.77086000  0.06808600  0.39083300  1
  P  P16  1  0.80548800  0.64409900  0.86047600  1
  P  P17  1  0.80647300  0.14414200  0.86016300  1
  P  P18  1  0.19443700  0.35581800  0.13968000  1
  P  P19  1  0.19399400  0.85586400  0.13993500  1
  O  O20  1  0.11496100  0.32083500  0.57462100  1
  O  O21  1  0.11376900  0.82132900  0.57438600  1
  O  O22  1  0.88497400  0.67898700  0.42500700  1
  O  O23  1  0.88563900  0.17904600  0.42542100  1
  O  O24  1  0.27181300  0.49476000  0.48609600  1
  O  O25  1  0.27250400  0.99431400  0.48541800  1
  O  O26  1  0.72786400  0.50535800  0.51409600  1
  O  O27  1  0.72669200  0.00625400  0.51474200  1
  O  O28  1  0.43386000  0.37822300  0.65857900  1
  O  O29  1  0.43389200  0.87737800  0.65779500  1
  O  O30  1  0.56611700  0.62147100  0.34117200  1
  O  O31  1  0.56641100  0.12224000  0.34127200  1
  O  O32  1  0.06955500  0.55624600  0.76883900  1
  O  O33  1  0.07059100  0.05649300  0.76824100  1
  O  O34  1  0.93032200  0.44328700  0.23138000  1
  O  O35  1  0.92995000  0.94337100  0.23206000  1
  O  O36  1  0.67613700  0.54145200  0.82772600  1
  O  O37  1  0.67738400  0.04134300  0.82777900  1
  O  O38  1  0.32366200  0.45852800  0.17232300  1
  O  O39  1  0.32318900  0.95865000  0.17215900  1
  O  O40  1  0.80780600  0.18783500  0.02672000  1
  O  O41  1  0.80629200  0.68737300  0.02719800  1
  O  O42  1  0.19239100  0.81231100  0.97338200  1
  O  O43  1  0.19369700  0.31240700  0.97292500  1
  O  O44  1  0.73876700  0.76437900  0.80232700  1
  O  O45  1  0.73908100  0.26436100  0.80201500  1
  O  O46  1  0.26168700  0.23543300  0.19752500  1
  O  O47  1  0.26155100  0.73552600  0.19783700  1
