# generated using pymatgen
data_NiO2
_symmetry_space_group_name_H-M   'P 1'
_cell_length_a   5.61576145
_cell_length_b   5.61576145
_cell_length_c   5.61576145
_cell_angle_alpha   60.00000000
_cell_angle_beta   60.00000000
_cell_angle_gamma   60.00000000
_symmetry_Int_Tables_number   1
_chemical_formula_structural   NiO2
_chemical_formula_sum   'Ni4 O8'
_cell_volume   125.23074236
_cell_formula_units_Z   4
loop_
 _symmetry_equiv_pos_site_id
 _symmetry_equiv_pos_as_xyz
  1  'x, y, z'
loop_
 _atom_site_type_symbol
 _atom_site_label
 _atom_site_symmetry_multiplicity
 _atom_site_fract_x
 _atom_site_fract_y
 _atom_site_fract_z
 _atom_site_occupancy
  Ni  Ni0  1  0.12500000  0.12500000  0.12500000  1
  Ni  Ni1  1  0.12500000  0.12500000  0.62500000  1
  Ni  Ni2  1  0.12500000  0.62500000  0.12500000  1
  Ni  Ni3  1  0.62500000  0.12500000  0.12500000  1
  O  O4  1  0.91764100  0.36078600  0.36078600  1
  O  O5  1  0.36078600  0.36078600  0.36078600  1
  O  O6  1  0.33235900  0.88921400  0.88921400  1
  O  O7  1  0.88921400  0.88921400  0.33235900  1
  O  O8  1  0.88921400  0.88921400  0.88921400  1
  O  O9  1  0.88921400  0.33235900  0.88921400  1
  O  O10  1  0.36078600  0.36078600  0.91764100  1
  O  O11  1  0.36078600  0.91764100  0.36078600  1
