# generated using pymatgen
data_NiP2O7
_symmetry_space_group_name_H-M   'P 1'
_cell_length_a   5.29459973
_cell_length_b   5.29459837
_cell_length_c   4.61947010
_cell_angle_alpha   82.02578696
_cell_angle_beta   97.97421521
_cell_angle_gamma   78.90220882
_symmetry_Int_Tables_number   1
_chemical_formula_structural   NiP2O7
_chemical_formula_sum   'Ni1 P2 O7'
_cell_volume   124.00949129
_cell_formula_units_Z   1
loop_
 _symmetry_equiv_pos_site_id
 _symmetry_equiv_pos_as_xyz
  1  'x, y, z'
loop_
 _atom_site_type_symbol
 _atom_site_label
 _atom_site_symmetry_multiplicity
 _atom_site_fract_x
 _atom_site_fract_y
 _atom_site_fract_z
 _atom_site_occupancy
  Ni  Ni0  1  0.11596000  0.11596000  0.00000000  1
  P  P1  1  0.26068000  0.66458300  0.58749200  1
  P  P2  1  0.66458300  0.26068000  0.41250800  1
  O  O3  1  0.81027300  0.08123000  0.69925100  1
  O  O4  1  0.13792300  0.45609500  0.73914800  1
  O  O5  1  0.84851400  0.33702100  0.20277200  1
  O  O6  1  0.33702100  0.84851400  0.79722800  1
  O  O7  1  0.53215500  0.53215500  0.50000000  1
  O  O8  1  0.08123000  0.81027300  0.30074900  1
  O  O9  1  0.45609500  0.13792300  0.26085200  1
