# generated using pymatgen
data_Mn3(PO4)4
_symmetry_space_group_name_H-M   'P 1'
_cell_length_a   7.60376800
_cell_length_b   7.49004700
_cell_length_c   10.03486118
_cell_angle_alpha   90.00000000
_cell_angle_beta   93.23591436
_cell_angle_gamma   90.00000000
_symmetry_Int_Tables_number   1
_chemical_formula_structural   Mn3(PO4)4
_chemical_formula_sum   'Mn6 P8 O32'
_cell_volume   570.60000101
_cell_formula_units_Z   2
loop_
 _symmetry_equiv_pos_site_id
 _symmetry_equiv_pos_as_xyz
  1  'x, y, z'
loop_
 _atom_site_type_symbol
 _atom_site_label
 _atom_site_symmetry_multiplicity
 _atom_site_fract_x
 _atom_site_fract_y
 _atom_site_fract_z
 _atom_site_occupancy
  Mn  Mn0  1  0.97104600  0.01544200  0.25027800  1
  Mn  Mn1  1  0.98402400  0.97687800  0.75229600  1
  Mn  Mn2  1  0.51597600  0.47687800  0.49770400  1
  Mn  Mn3  1  0.52895400  0.51544200  0.99972200  1
  Mn  Mn4  1  0.40505900  0.86053300  0.44464300  1
  Mn  Mn5  1  0.09494100  0.36053300  0.80535700  1
  P  P6  1  0.19080700  0.17090200  0.02404200  1
  P  P7  1  0.31592200  0.70642100  0.74065300  1
  P  P8  1  0.30919300  0.67090200  0.22595800  1
  P  P9  1  0.70159400  0.29655500  0.76607300  1
  P  P10  1  0.69991100  0.32522500  0.25772100  1
  P  P11  1  0.80008900  0.82522500  0.99227900  1
  P  P12  1  0.18407800  0.20642100  0.50934700  1
  P  P13  1  0.79840600  0.79655500  0.48392700  1
  O  O14  1  0.54891900  0.36965300  0.14848100  1
  O  O15  1  0.95108100  0.86965300  0.10151900  1
  O  O16  1  0.93806700  0.85615100  0.59402000  1
  O  O17  1  0.89025500  0.81836100  0.35199600  1
  O  O18  1  0.84298800  0.45774400  0.26937600  1
  O  O19  1  0.90506200  0.80189700  0.85914000  1
  O  O20  1  0.04216500  0.14345100  0.89828300  1
  O  O21  1  0.03649600  0.15479300  0.40789400  1
  O  O22  1  0.09859500  0.20480000  0.65163700  1
  O  O23  1  0.08570200  0.19233600  0.14962700  1
  O  O24  1  0.17299500  0.55964600  0.72683200  1
  O  O25  1  0.16406600  0.54212400  0.22090700  1
  O  O26  1  0.22578600  0.88624700  0.76310200  1
  O  O27  1  0.24150900  0.36685900  0.96389400  1
  O  O28  1  0.25849100  0.86685900  0.28610600  1
  O  O29  1  0.27421400  0.38624700  0.48689800  1
  O  O30  1  0.32700500  0.05964600  0.52316800  1
  O  O31  1  0.40140500  0.70480000  0.59836300  1
  O  O32  1  0.33593400  0.04212400  0.02909300  1
  O  O33  1  0.74578700  0.62393500  0.02084100  1
  O  O34  1  0.46350400  0.65479300  0.84210600  1
  O  O35  1  0.45783500  0.64345100  0.35171700  1
  O  O36  1  0.56193300  0.35615100  0.65598000  1
  O  O37  1  0.41429800  0.69233600  0.10037300  1
  O  O38  1  0.60974500  0.31836100  0.89800400  1
  O  O39  1  0.65701200  0.95774400  0.98062400  1
  O  O40  1  0.59493800  0.30189700  0.39086000  1
  O  O41  1  0.63565900  0.92529900  0.48075000  1
  O  O42  1  0.73660900  0.60465200  0.51491600  1
  O  O43  1  0.76339100  0.10465200  0.73508400  1
  O  O44  1  0.75421300  0.12393500  0.22915900  1
  O  O45  1  0.86434100  0.42529900  0.76925000  1
