# generated using pymatgen
data_CeSe2
_symmetry_space_group_name_H-M   'P 1'
_cell_length_a   14.75529246
_cell_length_b   13.02444194
_cell_length_c   8.94207828
_cell_angle_alpha   82.13400081
_cell_angle_beta   60.97296727
_cell_angle_gamma   36.89303192
_symmetry_Int_Tables_number   1
_chemical_formula_structural   CeSe2
_chemical_formula_sum   'Ce4 Se8'
_cell_volume   792.05991125
_cell_formula_units_Z   4
loop_
 _symmetry_equiv_pos_site_id
 _symmetry_equiv_pos_as_xyz
  1  'x, y, z'
loop_
 _atom_site_type_symbol
 _atom_site_label
 _atom_site_symmetry_multiplicity
 _atom_site_fract_x
 _atom_site_fract_y
 _atom_site_fract_z
 _atom_site_occupancy
  Ce  Ce0  1  0.93706900  0.93706900  0.56293100  1
  Ce  Ce1  1  0.56293100  0.56293100  0.93706900  1
  Ce  Ce2  1  0.31293100  0.31293100  0.68706900  1
  Ce  Ce3  1  0.68706900  0.68706900  0.31293100  1
  Se  Se4  1  0.43793500  0.06206500  0.43793500  1
  Se  Se5  1  0.81206500  0.18793500  0.81206500  1
  Se  Se6  1  0.06206500  0.43793500  0.06206500  1
  Se  Se7  1  0.18793500  0.81206500  0.18793500  1
  Se  Se8  1  0.12500000  0.62500000  0.62500000  1
  Se  Se9  1  0.62500000  0.62500000  0.12500000  1
  Se  Se10  1  0.62500000  0.62500000  0.62500000  1
  Se  Se11  1  0.62500000  0.12500000  0.62500000  1
