# generated using pymatgen
data_Ba3Al5
_symmetry_space_group_name_H-M   'P 1'
_cell_length_a   6.07890015
_cell_length_b   6.07890015
_cell_length_c   14.76753400
_cell_angle_alpha   90.00000000
_cell_angle_beta   90.00000000
_cell_angle_gamma   120.00000163
_symmetry_Int_Tables_number   1
_chemical_formula_structural   Ba3Al5
_chemical_formula_sum   'Ba6 Al10'
_cell_volume   472.59445716
_cell_formula_units_Z   2
loop_
 _symmetry_equiv_pos_site_id
 _symmetry_equiv_pos_as_xyz
  1  'x, y, z'
loop_
 _atom_site_type_symbol
 _atom_site_label
 _atom_site_symmetry_multiplicity
 _atom_site_fract_x
 _atom_site_fract_y
 _atom_site_fract_z
 _atom_site_occupancy
  Ba  Ba0  1  0.00000000  0.00000000  0.50000000  1
  Ba  Ba1  1  0.00000000  0.00000000  0.00000000  1
  Ba  Ba2  1  0.33333300  0.66666700  0.87448000  1
  Ba  Ba3  1  0.66666700  0.33333300  0.37448000  1
  Ba  Ba4  1  0.66666700  0.33333300  0.12552000  1
  Ba  Ba5  1  0.33333300  0.66666700  0.62552000  1
  Al  Al6  1  0.84552300  0.69104600  0.75000000  1
  Al  Al7  1  0.15447700  0.84552300  0.25000000  1
  Al  Al8  1  0.69104600  0.84552300  0.25000000  1
  Al  Al9  1  0.30895400  0.15447700  0.75000000  1
  Al  Al10  1  0.84552300  0.15447700  0.75000000  1
  Al  Al11  1  0.15447700  0.30895400  0.25000000  1
  Al  Al12  1  0.33333300  0.66666700  0.11567600  1
  Al  Al13  1  0.66666700  0.33333300  0.61567600  1
  Al  Al14  1  0.66666700  0.33333300  0.88432400  1
  Al  Al15  1  0.33333300  0.66666700  0.38432400  1
