# generated using pymatgen
data_V4As3
_symmetry_space_group_name_H-M   'P 1'
_cell_length_a   7.14862254
_cell_length_b   7.14862254
_cell_length_c   9.10018418
_cell_angle_alpha   79.52559254
_cell_angle_beta   79.52559254
_cell_angle_gamma   27.26940124
_symmetry_Int_Tables_number   1
_chemical_formula_structural   V4As3
_chemical_formula_sum   'V8 As6'
_cell_volume   209.31055244
_cell_formula_units_Z   2
loop_
 _symmetry_equiv_pos_site_id
 _symmetry_equiv_pos_as_xyz
  1  'x, y, z'
loop_
 _atom_site_type_symbol
 _atom_site_label
 _atom_site_symmetry_multiplicity
 _atom_site_fract_x
 _atom_site_fract_y
 _atom_site_fract_z
 _atom_site_occupancy
  V  V0  1  0.44068300  0.44068300  0.72859300  1
  V  V1  1  0.55931700  0.55931700  0.27140700  1
  V  V2  1  0.22616300  0.22616300  0.81017400  1
  V  V3  1  0.77383700  0.77383700  0.18982600  1
  V  V4  1  0.66355000  0.66355000  0.55177500  1
  V  V5  1  0.33645000  0.33645000  0.44822500  1
  V  V6  1  0.00000000  0.00000000  0.00000000  1
  V  V7  1  0.00000000  0.00000000  0.50000000  1
  As  As8  1  0.82513300  0.82513300  0.65423500  1
  As  As9  1  0.17486700  0.17486700  0.34576500  1
  As  As10  1  0.35697200  0.35697200  0.99279800  1
  As  As11  1  0.64302800  0.64302800  0.00720200  1
  As  As12  1  0.07092000  0.07092000  0.73247700  1
  As  As13  1  0.92908000  0.92908000  0.26752300  1
