# generated using pymatgen
data_FeP2O7
_symmetry_space_group_name_H-M   'P 1'
_cell_length_a   6.42719114
_cell_length_b   6.42719114
_cell_length_c   13.51793920
_cell_angle_alpha   74.50323925
_cell_angle_beta   74.50323925
_cell_angle_gamma   80.82223197
_symmetry_Int_Tables_number   1
_chemical_formula_structural   FeP2O7
_chemical_formula_sum   'Fe4 P8 O28'
_cell_volume   516.20680595
_cell_formula_units_Z   4
loop_
 _symmetry_equiv_pos_site_id
 _symmetry_equiv_pos_as_xyz
  1  'x, y, z'
loop_
 _atom_site_type_symbol
 _atom_site_label
 _atom_site_symmetry_multiplicity
 _atom_site_fract_x
 _atom_site_fract_y
 _atom_site_fract_z
 _atom_site_occupancy
  Fe  Fe0  1  0.59059500  0.12180100  0.14656100  1
  Fe  Fe1  1  0.12180100  0.59059500  0.64656100  1
  Fe  Fe2  1  0.87819900  0.40940500  0.35343900  1
  Fe  Fe3  1  0.40940500  0.87819900  0.85343900  1
  P  P4  1  0.58833400  0.66674600  0.06872200  1
  P  P5  1  0.33325400  0.41166600  0.43127800  1
  P  P6  1  0.25193300  0.08624500  0.63403200  1
  P  P7  1  0.91375500  0.74806700  0.86596800  1
  P  P8  1  0.08624500  0.25193300  0.13403200  1
  P  P9  1  0.74806700  0.91375500  0.36596800  1
  P  P10  1  0.66674600  0.58833400  0.56872200  1
  P  P11  1  0.41166600  0.33325400  0.93127800  1
  O  O12  1  0.63793900  0.81909200  0.12622200  1
  O  O13  1  0.55373300  0.46561400  0.35803700  1
  O  O14  1  0.57654800  0.01579600  0.30256100  1
  O  O15  1  0.08721200  0.87172300  0.87697300  1
  O  O16  1  0.38476400  0.19398600  0.51702800  1
  O  O17  1  0.53438600  0.44626700  0.14196300  1
  O  O18  1  0.12827700  0.91278800  0.62302700  1
  O  O19  1  0.22832700  0.59058300  0.49030500  1
  O  O20  1  0.01579600  0.57654800  0.80256100  1
  O  O21  1  0.40941700  0.77167300  0.00969500  1
  O  O22  1  0.10251300  0.26788200  0.67734300  1
  O  O23  1  0.80601400  0.61523600  0.98297200  1
  O  O24  1  0.18090800  0.36206100  0.37377800  1
  O  O25  1  0.26788200  0.10251300  0.17734300  1
  O  O26  1  0.73211800  0.89748700  0.82265700  1
  O  O27  1  0.81909200  0.63793900  0.62622200  1
  O  O28  1  0.19398600  0.38476400  0.01702800  1
  O  O29  1  0.89748700  0.73211800  0.32265700  1
  O  O30  1  0.59058300  0.22832700  0.99030500  1
  O  O31  1  0.98420400  0.42345200  0.19743900  1
  O  O32  1  0.77167300  0.40941700  0.50969500  1
  O  O33  1  0.87172300  0.08721200  0.37697300  1
  O  O34  1  0.46561400  0.55373300  0.85803700  1
  O  O35  1  0.61523600  0.80601400  0.48297200  1
  O  O36  1  0.91278800  0.12827700  0.12302700  1
  O  O37  1  0.42345200  0.98420400  0.69743900  1
  O  O38  1  0.44626700  0.53438600  0.64196300  1
  O  O39  1  0.36206100  0.18090800  0.87377800  1
