# generated using pymatgen
data_Cr2P5O16
_symmetry_space_group_name_H-M   'P 1'
_cell_length_a   6.76677600
_cell_length_b   5.06529300
_cell_length_c   18.81527738
_cell_angle_alpha   89.95667023
_cell_angle_beta   90.00000000
_cell_angle_gamma   90.00000000
_symmetry_Int_Tables_number   1
_chemical_formula_structural   Cr2P5O16
_chemical_formula_sum   'Cr4 P10 O32'
_cell_volume   644.90667692
_cell_formula_units_Z   2
loop_
 _symmetry_equiv_pos_site_id
 _symmetry_equiv_pos_as_xyz
  1  'x, y, z'
loop_
 _atom_site_type_symbol
 _atom_site_label
 _atom_site_symmetry_multiplicity
 _atom_site_fract_x
 _atom_site_fract_y
 _atom_site_fract_z
 _atom_site_occupancy
  Cr  Cr0  1  0.18026200  0.74380200  0.40671300  1
  Cr  Cr1  1  0.81973800  0.74380200  0.90671300  1
  Cr  Cr2  1  0.81973800  0.25619800  0.59328700  1
  Cr  Cr3  1  0.18026200  0.25619800  0.09328700  1
  P  P4  1  0.74080800  0.00000000  0.75000000  1
  P  P5  1  0.12360000  0.76263800  0.57787600  1
  P  P6  1  0.25919200  0.00000000  0.25000000  1
  P  P7  1  0.45985300  0.25186200  0.37088400  1
  P  P8  1  0.54014700  0.74813800  0.62911600  1
  P  P9  1  0.87640000  0.23736200  0.42212400  1
  P  P10  1  0.45985300  0.74813800  0.12911600  1
  P  P11  1  0.12360000  0.23736200  0.92212400  1
  P  P12  1  0.87640000  0.76263800  0.07787600  1
  P  P13  1  0.54014700  0.25186200  0.87088400  1
  O  O14  1  0.79428700  0.33702500  0.49254100  1
  O  O15  1  0.97685700  0.58073600  0.61411600  1
  O  O16  1  0.69218000  0.78757700  0.13275900  1
  O  O17  1  0.02314300  0.41926400  0.38588400  1
  O  O18  1  0.36105300  0.05247600  0.41852800  1
  O  O19  1  0.97685700  0.41926400  0.88588400  1
  O  O20  1  0.42212900  0.45942600  0.11434900  1
  O  O21  1  0.05390500  0.05151600  0.57191900  1
  O  O22  1  0.42212900  0.54057400  0.38565100  1
  O  O23  1  0.85608200  0.84520900  0.80410700  1
  O  O24  1  0.69218000  0.21242300  0.36724100  1
  O  O25  1  0.40917500  0.19875200  0.28863600  1
  O  O26  1  0.94609500  0.94848400  0.42808100  1
  O  O27  1  0.94609500  0.05151600  0.07191900  1
  O  O28  1  0.20571300  0.66297500  0.50745900  1
  O  O29  1  0.02314300  0.58073600  0.11411600  1
  O  O30  1  0.20571300  0.33702500  0.99254100  1
  O  O31  1  0.14391800  0.84520900  0.30410700  1
  O  O32  1  0.30782000  0.78757700  0.63275900  1
  O  O33  1  0.85608200  0.15479100  0.69589300  1
  O  O34  1  0.57787100  0.54057400  0.88565100  1
  O  O35  1  0.59082500  0.80124800  0.71136400  1
  O  O36  1  0.40917500  0.80124800  0.21136400  1
  O  O37  1  0.05390500  0.94848400  0.92808100  1
  O  O38  1  0.63894700  0.05247600  0.91852800  1
  O  O39  1  0.36105300  0.94752400  0.08147200  1
  O  O40  1  0.57787100  0.45942600  0.61434900  1
  O  O41  1  0.30782000  0.21242300  0.86724100  1
  O  O42  1  0.14391800  0.15479100  0.19589300  1
  O  O43  1  0.63894700  0.94752400  0.58147200  1
  O  O44  1  0.79428700  0.66297500  0.00745900  1
  O  O45  1  0.59082500  0.19875200  0.78863600  1
