# generated using pymatgen
data_Mn(PO3)4
_symmetry_space_group_name_H-M   'P 1'
_cell_length_a   8.27424608
_cell_length_b   8.27424608
_cell_length_c   7.67321592
_cell_angle_alpha   81.87772572
_cell_angle_beta   81.87772572
_cell_angle_gamma   107.97209127
_symmetry_Int_Tables_number   1
_chemical_formula_structural   Mn(PO3)4
_chemical_formula_sum   'Mn2 P8 O24'
_cell_volume   485.05932840
_cell_formula_units_Z   2
loop_
 _symmetry_equiv_pos_site_id
 _symmetry_equiv_pos_as_xyz
  1  'x, y, z'
loop_
 _atom_site_type_symbol
 _atom_site_label
 _atom_site_symmetry_multiplicity
 _atom_site_fract_x
 _atom_site_fract_y
 _atom_site_fract_z
 _atom_site_occupancy
  Mn  Mn0  1  0.86829900  0.13170100  0.75000000  1
  Mn  Mn1  1  0.13170100  0.86829900  0.25000000  1
  P  P2  1  0.57582800  0.25144500  0.62000800  1
  P  P3  1  0.74855500  0.42417200  0.87999200  1
  P  P4  1  0.03957300  0.20543100  0.33104000  1
  P  P5  1  0.25144500  0.57582800  0.12000800  1
  P  P6  1  0.42417200  0.74855500  0.37999200  1
  P  P7  1  0.96042700  0.79456900  0.66896000  1
  P  P8  1  0.79456900  0.96042700  0.16896000  1
  P  P9  1  0.20543100  0.03957300  0.83104000  1
  O  O10  1  0.61002500  0.38997500  0.75000000  1
  O  O11  1  0.86905300  0.13094700  0.25000000  1
  O  O12  1  0.13094700  0.86905300  0.75000000  1
  O  O13  1  0.11179000  0.65600500  0.18660400  1
  O  O14  1  0.99406300  0.25813800  0.50823000  1
  O  O15  1  0.14860800  0.36951800  0.18581300  1
  O  O16  1  0.34399500  0.88821000  0.31339600  1
  O  O17  1  0.07820300  0.13854300  0.83556300  1
  O  O18  1  0.13854300  0.07820300  0.33556300  1
  O  O19  1  0.33016700  0.61356900  0.93010100  1
  O  O20  1  0.38997500  0.61002500  0.25000000  1
  O  O21  1  0.38643100  0.66983300  0.56989900  1
  O  O22  1  0.25813800  0.99406300  0.00823000  1
  O  O23  1  0.36951800  0.14860800  0.68581300  1
  O  O24  1  0.63048200  0.85139200  0.31418700  1
  O  O25  1  0.00593700  0.74186200  0.49177000  1
  O  O26  1  0.61356900  0.33016700  0.43010100  1
  O  O27  1  0.74186200  0.00593700  0.99177000  1
  O  O28  1  0.66983300  0.38643100  0.06989900  1
  O  O29  1  0.86145700  0.92179700  0.66443700  1
  O  O30  1  0.92179700  0.86145700  0.16443700  1
  O  O31  1  0.65600500  0.11179000  0.68660400  1
  O  O32  1  0.85139200  0.63048200  0.81418700  1
  O  O33  1  0.88821000  0.34399500  0.81339600  1
