# generated using pymatgen
data_CeSe2
_symmetry_space_group_name_H-M   'P 1'
_cell_length_a   8.11428170
_cell_length_b   8.11428170
_cell_length_c   8.43686200
_cell_angle_alpha   90.00000000
_cell_angle_beta   90.00000000
_cell_angle_gamma   119.99999756
_symmetry_Int_Tables_number   1
_chemical_formula_structural   CeSe2
_chemical_formula_sum   'Ce3 Se6'
_cell_volume   481.07384921
_cell_formula_units_Z   3
loop_
 _symmetry_equiv_pos_site_id
 _symmetry_equiv_pos_as_xyz
  1  'x, y, z'
loop_
 _atom_site_type_symbol
 _atom_site_label
 _atom_site_symmetry_multiplicity
 _atom_site_fract_x
 _atom_site_fract_y
 _atom_site_fract_z
 _atom_site_occupancy
  Ce  Ce0  1  0.45509200  0.00000000  0.83333300  1
  Ce  Ce1  1  0.54490800  0.54490800  0.50000000  1
  Ce  Ce2  1  0.00000000  0.45509200  0.16666700  1
  Se  Se3  1  0.10729100  0.71313100  0.92633100  1
  Se  Se4  1  0.60584000  0.89270900  0.59299700  1
  Se  Se5  1  0.28686900  0.39416000  0.25966400  1
  Se  Se6  1  0.89270900  0.60584000  0.40700300  1
  Se  Se7  1  0.71313100  0.10729100  0.07366900  1
  Se  Se8  1  0.39416000  0.28686900  0.74033600  1
