# generated using pymatgen
data_Cs2Se
_symmetry_space_group_name_H-M   'P 1'
_cell_length_a   6.49943784
_cell_length_b   6.49943784
_cell_length_c   8.75899000
_cell_angle_alpha   90.00000000
_cell_angle_beta   90.00000000
_cell_angle_gamma   130.65815595
_symmetry_Int_Tables_number   1
_chemical_formula_structural   Cs2Se
_chemical_formula_sum   'Cs4 Se2'
_cell_volume   280.68835505
_cell_formula_units_Z   2
loop_
 _symmetry_equiv_pos_site_id
 _symmetry_equiv_pos_as_xyz
  1  'x, y, z'
loop_
 _atom_site_type_symbol
 _atom_site_label
 _atom_site_symmetry_multiplicity
 _atom_site_fract_x
 _atom_site_fract_y
 _atom_site_fract_z
 _atom_site_occupancy
  Cs  Cs0  1  0.48418700  0.51581300  0.45862100  1
  Cs  Cs1  1  0.51581300  0.48418700  0.95862100  1
  Cs  Cs2  1  0.80767800  0.19232200  0.17715100  1
  Cs  Cs3  1  0.19232200  0.80767800  0.67715100  1
  Se  Se4  1  0.12053800  0.87946200  0.23922800  1
  Se  Se5  1  0.87946200  0.12053800  0.73922800  1
