# generated using pymatgen
data_CoP2O7
_symmetry_space_group_name_H-M   'P 1'
_cell_length_a   6.14724177
_cell_length_b   6.14724177
_cell_length_c   12.92903854
_cell_angle_alpha   75.27262183
_cell_angle_beta   75.27262183
_cell_angle_gamma   80.94715248
_symmetry_Int_Tables_number   1
_chemical_formula_structural   CoP2O7
_chemical_formula_sum   'Co4 P8 O28'
_cell_volume   454.74414247
_cell_formula_units_Z   4
loop_
 _symmetry_equiv_pos_site_id
 _symmetry_equiv_pos_as_xyz
  1  'x, y, z'
loop_
 _atom_site_type_symbol
 _atom_site_label
 _atom_site_symmetry_multiplicity
 _atom_site_fract_x
 _atom_site_fract_y
 _atom_site_fract_z
 _atom_site_occupancy
  Co  Co0  1  0.41435200  0.87784600  0.85617200  1
  Co  Co1  1  0.12215400  0.58564800  0.64382800  1
  Co  Co2  1  0.87784600  0.41435200  0.35617200  1
  Co  Co3  1  0.58564800  0.12215400  0.14382800  1
  P  P4  1  0.07912500  0.24879100  0.13821900  1
  P  P5  1  0.24879100  0.07912500  0.63821900  1
  P  P6  1  0.41429000  0.33242400  0.93055500  1
  P  P7  1  0.33242400  0.41429000  0.43055500  1
  P  P8  1  0.66757600  0.58571000  0.56944500  1
  P  P9  1  0.92087500  0.75120900  0.86178100  1
  P  P10  1  0.75120900  0.92087500  0.36178100  1
  P  P11  1  0.58571000  0.66757600  0.06944500  1
  O  O12  1  0.80580200  0.60559100  0.98050200  1
  O  O13  1  0.35471200  0.18941000  0.86219200  1
  O  O14  1  0.18941000  0.35471200  0.36219200  1
  O  O15  1  0.59974000  0.20472000  0.99252000  1
  O  O16  1  0.56859200  0.03350600  0.29650900  1
  O  O17  1  0.44091200  0.52099700  0.64579100  1
  O  O18  1  0.03350600  0.56859200  0.79650900  1
  O  O19  1  0.52099700  0.44091200  0.14579100  1
  O  O20  1  0.81059000  0.64528800  0.63780800  1
  O  O21  1  0.11420200  0.90924900  0.61885000  1
  O  O22  1  0.72946000  0.91588000  0.82098800  1
  O  O23  1  0.09075100  0.88579800  0.88115000  1
  O  O24  1  0.88579800  0.09075100  0.38115000  1
  O  O25  1  0.55908800  0.47900300  0.35420900  1
  O  O26  1  0.96649400  0.43140800  0.20349100  1
  O  O27  1  0.91588000  0.72946000  0.32098800  1
  O  O28  1  0.79528000  0.40026000  0.50748000  1
  O  O29  1  0.64528800  0.81059000  0.13780800  1
  O  O30  1  0.39440900  0.19419800  0.51949800  1
  O  O31  1  0.19419800  0.39440900  0.01949800  1
  O  O32  1  0.47900300  0.55908800  0.85420900  1
  O  O33  1  0.90924900  0.11420200  0.11885000  1
  O  O34  1  0.20472000  0.59974000  0.49252000  1
  O  O35  1  0.08412000  0.27054000  0.67901200  1
  O  O36  1  0.27054000  0.08412000  0.17901200  1
  O  O37  1  0.40026000  0.79528000  0.00748000  1
  O  O38  1  0.43140800  0.96649400  0.70349100  1
  O  O39  1  0.60559100  0.80580200  0.48050200  1
