# generated using pymatgen
data_Fe2(PO4)3
_symmetry_space_group_name_H-M   'P 1'
_cell_length_a   8.94535602
_cell_length_b   8.94535602
_cell_length_c   8.94535647
_cell_angle_alpha   58.61300889
_cell_angle_beta   58.61300889
_cell_angle_gamma   58.61301137
_symmetry_Int_Tables_number   1
_chemical_formula_structural   Fe2(PO4)3
_chemical_formula_sum   'Fe4 P6 O24'
_cell_volume   490.09930288
_cell_formula_units_Z   2
loop_
 _symmetry_equiv_pos_site_id
 _symmetry_equiv_pos_as_xyz
  1  'x, y, z'
loop_
 _atom_site_type_symbol
 _atom_site_label
 _atom_site_symmetry_multiplicity
 _atom_site_fract_x
 _atom_site_fract_y
 _atom_site_fract_z
 _atom_site_occupancy
  Fe  Fe0  1  0.35790100  0.35790100  0.35790100  1
  Fe  Fe1  1  0.85790100  0.85790100  0.85790100  1
  Fe  Fe2  1  0.14209900  0.14209900  0.14209900  1
  Fe  Fe3  1  0.64209900  0.64209900  0.64209900  1
  P  P4  1  0.53389600  0.96610400  0.25000000  1
  P  P5  1  0.25000000  0.53389600  0.96610400  1
  P  P6  1  0.75000000  0.46610400  0.03389600  1
  P  P7  1  0.46610400  0.03389600  0.75000000  1
  P  P8  1  0.96610400  0.25000000  0.53389600  1
  P  P9  1  0.03389600  0.75000000  0.46610400  1
  O  O10  1  0.07811300  0.71003500  0.94109000  1
  O  O11  1  0.49350000  0.86344600  0.72361100  1
  O  O12  1  0.72361100  0.49350000  0.86344600  1
  O  O13  1  0.86344600  0.72361100  0.49350000  1
  O  O14  1  0.50650000  0.13655400  0.27638900  1
  O  O15  1  0.27638900  0.50650000  0.13655400  1
  O  O16  1  0.13655400  0.27638900  0.50650000  1
  O  O17  1  0.94109000  0.07811300  0.71003500  1
  O  O18  1  0.99350000  0.22361100  0.36344600  1
  O  O19  1  0.78996500  0.42188700  0.55891000  1
  O  O20  1  0.71003500  0.94109000  0.07811300  1
  O  O21  1  0.55891000  0.78996500  0.42188700  1
  O  O22  1  0.77638900  0.63655400  0.00650000  1
  O  O23  1  0.42188700  0.55891000  0.78996500  1
  O  O24  1  0.00650000  0.77638900  0.63655400  1
  O  O25  1  0.63655400  0.00650000  0.77638900  1
  O  O26  1  0.36344600  0.99350000  0.22361100  1
  O  O27  1  0.05891000  0.92188700  0.28996500  1
  O  O28  1  0.57811300  0.44109000  0.21003500  1
  O  O29  1  0.22361100  0.36344600  0.99350000  1
  O  O30  1  0.44109000  0.21003500  0.57811300  1
  O  O31  1  0.28996500  0.05891000  0.92188700  1
  O  O32  1  0.21003500  0.57811300  0.44109000  1
  O  O33  1  0.92188700  0.28996500  0.05891000  1
