# generated using pymatgen
data_LiMnPO4
_symmetry_space_group_name_H-M   'P 1'
_cell_length_a   5.27207470
_cell_length_b   9.66910757
_cell_length_c   6.18867000
_cell_angle_alpha   90.00000000
_cell_angle_beta   90.00000000
_cell_angle_gamma   84.66821192
_symmetry_Int_Tables_number   1
_chemical_formula_structural   LiMnPO4
_chemical_formula_sum   'Li4 Mn4 P4 O16'
_cell_volume   314.11026699
_cell_formula_units_Z   4
loop_
 _symmetry_equiv_pos_site_id
 _symmetry_equiv_pos_as_xyz
  1  'x, y, z'
loop_
 _atom_site_type_symbol
 _atom_site_label
 _atom_site_symmetry_multiplicity
 _atom_site_fract_x
 _atom_site_fract_y
 _atom_site_fract_z
 _atom_site_occupancy
  Li  Li0  1  0.16303300  0.92504100  0.63936800  1
  Li  Li1  1  0.33696600  0.57496000  0.13936800  1
  Li  Li2  1  0.66303300  0.42504100  0.86063100  1
  Li  Li3  1  0.83696600  0.07496000  0.36063100  1
  Mn  Mn4  1  0.21344300  0.33643100  0.61124900  1
  Mn  Mn5  1  0.28655700  0.16356900  0.11124900  1
  Mn  Mn6  1  0.71344200  0.83643100  0.88875000  1
  Mn  Mn7  1  0.78655600  0.66356900  0.38875200  1
  P  P8  1  0.74003900  0.36443800  0.34998000  1
  P  P9  1  0.75996200  0.13556300  0.84997900  1
  P  P10  1  0.24003700  0.86443800  0.15002000  1
  P  P11  1  0.25996200  0.63556300  0.65002100  1
  O  O12  1  0.00793600  0.77580900  0.14398500  1
  O  O13  1  0.99206400  0.22419100  0.85601500  1
  O  O14  1  0.76987100  0.44712200  0.56265800  1
  O  O15  1  0.71357200  0.47370600  0.16532900  1
  O  O16  1  0.01265600  0.73889400  0.66664700  1
  O  O17  1  0.98734600  0.26110600  0.33335400  1
  O  O18  1  0.23012900  0.55287800  0.43734100  1
  O  O19  1  0.28642800  0.52629300  0.83467000  1
  O  O20  1  0.21357200  0.97370600  0.33466900  1
  O  O21  1  0.26987100  0.94712200  0.93734200  1
  O  O22  1  0.78642800  0.02629300  0.66533000  1
  O  O23  1  0.50793700  0.27580900  0.35601600  1
  O  O24  1  0.49206400  0.72419100  0.64398500  1
  O  O25  1  0.48734600  0.76110600  0.16664600  1
  O  O26  1  0.73012800  0.05287800  0.06265700  1
  O  O27  1  0.51265500  0.23889400  0.83335500  1
