# generated using pymatgen
data_Mo3(PO4)4
_symmetry_space_group_name_H-M   'P 1'
_cell_length_a   7.92094600
_cell_length_b   7.79804100
_cell_length_c   10.47379877
_cell_angle_alpha   85.17706329
_cell_angle_beta   90.00000000
_cell_angle_gamma   90.00000000
_symmetry_Int_Tables_number   1
_chemical_formula_structural   Mo3(PO4)4
_chemical_formula_sum   'Mo6 P8 O32'
_cell_volume   644.65350661
_cell_formula_units_Z   2
loop_
 _symmetry_equiv_pos_site_id
 _symmetry_equiv_pos_as_xyz
  1  'x, y, z'
loop_
 _atom_site_type_symbol
 _atom_site_label
 _atom_site_symmetry_multiplicity
 _atom_site_fract_x
 _atom_site_fract_y
 _atom_site_fract_z
 _atom_site_occupancy
  Mo  Mo0  1  0.00839600  0.76251800  0.12626200  1
  Mo  Mo1  1  0.97437200  0.76492900  0.63492800  1
  Mo  Mo2  1  0.50839600  0.23748200  0.87373800  1
  Mo  Mo3  1  0.47437200  0.23507100  0.36507200  1
  Mo  Mo4  1  0.86597700  0.35548600  0.31936300  1
  Mo  Mo5  1  0.36597700  0.64451400  0.68063700  1
  P  P6  1  0.17137400  0.54429500  0.90568800  1
  P  P7  1  0.70453400  0.44295500  0.60551800  1
  P  P8  1  0.67137400  0.45570500  0.09431200  1
  P  P9  1  0.29757400  0.04756800  0.64480800  1
  P  P10  1  0.31943200  0.03870300  0.13542800  1
  P  P11  1  0.81943200  0.96129700  0.86457200  1
  P  P12  1  0.20453400  0.55704500  0.39448200  1
  P  P13  1  0.79757400  0.95243200  0.35519200  1
  O  O14  1  0.36701300  0.17334000  0.01872300  1
  O  O15  1  0.86701300  0.82666000  0.98127700  1
  O  O16  1  0.85879000  0.84135800  0.47468200  1
  O  O17  1  0.82226600  0.84537100  0.24105500  1
  O  O18  1  0.44425100  0.90185900  0.16437600  1
  O  O19  1  0.80613300  0.82980100  0.75129000  1
  O  O20  1  0.13885500  0.68004800  0.78037000  1
  O  O21  1  0.14314300  0.69165700  0.29070600  1
  O  O22  1  0.20567800  0.64702700  0.52819700  1
  O  O23  1  0.57333100  0.58924900  0.58549200  1
  O  O24  1  0.18962200  0.66134200  0.01709900  1
  O  O25  1  0.55788800  0.60349200  0.07854800  1
  O  O26  1  0.87866900  0.51722700  0.62892200  1
  O  O27  1  0.36371400  0.49692200  0.84861000  1
  O  O28  1  0.86371400  0.50307800  0.15139000  1
  O  O29  1  0.37866900  0.48277300  0.37107800  1
  O  O30  1  0.07333100  0.41075100  0.41450800  1
  O  O31  1  0.70567800  0.35297300  0.47180300  1
  O  O32  1  0.05788800  0.39650800  0.92145200  1
  O  O33  1  0.63065200  0.01301300  0.88535800  1
  O  O34  1  0.64314300  0.30834300  0.70929400  1
  O  O35  1  0.63885500  0.31995200  0.21963000  1
  O  O36  1  0.35879000  0.15864200  0.52531800  1
  O  O37  1  0.68962200  0.33865800  0.98290100  1
  O  O38  1  0.32226600  0.15462900  0.75894500  1
  O  O39  1  0.94425100  0.09814100  0.83562400  1
  O  O40  1  0.30613300  0.17019900  0.24871000  1
  O  O41  1  0.92019300  0.11493100  0.33645600  1
  O  O42  1  0.61720300  0.01343700  0.37806000  1
  O  O43  1  0.11720300  0.98656300  0.62194000  1
  O  O44  1  0.13065200  0.98698700  0.11464200  1
  O  O45  1  0.42019300  0.88506900  0.66354400  1
