# generated using pymatgen
data_FePO4
_symmetry_space_group_name_H-M   'P 1'
_cell_length_a   7.50152010
_cell_length_b   7.50152010
_cell_length_c   9.38168300
_cell_angle_alpha   90.00000000
_cell_angle_beta   90.00000000
_cell_angle_gamma   120.00000086
_symmetry_Int_Tables_number   1
_chemical_formula_structural   FePO4
_chemical_formula_sum   'Fe6 P6 O24'
_cell_volume   457.20391083
_cell_formula_units_Z   6
loop_
 _symmetry_equiv_pos_site_id
 _symmetry_equiv_pos_as_xyz
  1  'x, y, z'
loop_
 _atom_site_type_symbol
 _atom_site_label
 _atom_site_symmetry_multiplicity
 _atom_site_fract_x
 _atom_site_fract_y
 _atom_site_fract_z
 _atom_site_occupancy
  Fe  Fe0  1  0.44511700  0.38487400  0.52733300  1
  Fe  Fe1  1  0.06024400  0.61512600  0.02733300  1
  Fe  Fe2  1  0.61512600  0.06024400  0.52733300  1
  Fe  Fe3  1  0.55488300  0.93975600  0.02733300  1
  Fe  Fe4  1  0.93975600  0.55488300  0.52733300  1
  Fe  Fe5  1  0.38487400  0.44511700  0.02733300  1
  P  P6  1  0.66666700  0.33333300  0.82560700  1
  P  P7  1  0.33333300  0.66666700  0.32560700  1
  P  P8  1  0.66666700  0.33333300  0.21729700  1
  P  P9  1  0.33333300  0.66666700  0.71729700  1
  P  P10  1  0.00000000  0.00000000  0.47696400  1
  P  P11  1  0.00000000  0.00000000  0.97696400  1
  O  O12  1  0.22481700  0.11996300  0.54336700  1
  O  O13  1  0.10485400  0.88003700  0.04336700  1
  O  O14  1  0.47803300  0.34495900  0.87412400  1
  O  O15  1  0.13307400  0.65504100  0.37412400  1
  O  O16  1  0.11155200  0.52833000  0.66642300  1
  O  O17  1  0.58322200  0.47167000  0.16642300  1
  O  O18  1  0.41677800  0.88844800  0.66642300  1
  O  O19  1  0.52833000  0.11155200  0.16642300  1
  O  O20  1  0.66666700  0.33333300  0.39066100  1
  O  O21  1  0.00000000  0.00000000  0.31936800  1
  O  O22  1  0.33333300  0.66666700  0.89066100  1
  O  O23  1  0.66666700  0.33333300  0.65248000  1
  O  O24  1  0.33333300  0.66666700  0.15248000  1
  O  O25  1  0.89514600  0.77518300  0.54336700  1
  O  O26  1  0.11996300  0.22481700  0.04336700  1
  O  O27  1  0.65504100  0.13307400  0.87412400  1
  O  O28  1  0.52196700  0.86692600  0.37412400  1
  O  O29  1  0.86692600  0.52196700  0.87412400  1
  O  O30  1  0.34495900  0.47803300  0.37412400  1
  O  O31  1  0.47167000  0.58322200  0.66642300  1
  O  O32  1  0.88844800  0.41677800  0.16642300  1
  O  O33  1  0.88003700  0.10485400  0.54336700  1
  O  O34  1  0.77518300  0.89514600  0.04336700  1
  O  O35  1  0.00000000  0.00000000  0.81936800  1
