# generated using pymatgen
data_LiVPO5
_symmetry_space_group_name_H-M   'P 1'
_cell_length_a   5.28325449
_cell_length_b   10.26638166
_cell_length_c   7.36653565
_cell_angle_alpha   71.54949283
_cell_angle_beta   68.99256879
_cell_angle_gamma   75.09360028
_symmetry_Int_Tables_number   1
_chemical_formula_structural   LiVPO5
_chemical_formula_sum   'Li4 V4 P4 O20'
_cell_volume   349.13449339
_cell_formula_units_Z   4
loop_
 _symmetry_equiv_pos_site_id
 _symmetry_equiv_pos_as_xyz
  1  'x, y, z'
loop_
 _atom_site_type_symbol
 _atom_site_label
 _atom_site_symmetry_multiplicity
 _atom_site_fract_x
 _atom_site_fract_y
 _atom_site_fract_z
 _atom_site_occupancy
  Li  Li0  1  0.50000100  0.25000000  0.75000000  1
  Li  Li1  1  0.49999900  0.25000000  0.25000000  1
  Li  Li2  1  0.50000100  0.75000000  0.75000000  1
  Li  Li3  1  0.99999900  0.75000000  0.25000000  1
  V  V4  1  0.47768800  0.00003900  0.50000100  1
  V  V5  1  0.99999900  0.25000000  0.75000000  1
  V  V6  1  0.52231200  0.49996100  0.99999800  1
  V  V7  1  0.49999900  0.75000000  0.24999900  1
  P  P8  1  0.10928300  0.06144900  0.19008000  1
  P  P9  1  0.13901300  0.56150000  0.69011300  1
  P  P10  1  0.89071800  0.43855000  0.30991900  1
  P  P11  1  0.86098800  0.93849900  0.80988800  1
  O  O12  1  0.83912300  0.34008300  0.52288100  1
  O  O13  1  0.79348500  0.09443300  0.81218800  1
  O  O14  1  0.32079600  0.16115000  0.59294200  1
  O  O15  1  0.79620200  0.08659800  0.30022700  1
  O  O16  1  0.28158300  0.09747100  0.29260300  1
  O  O17  1  0.67920300  0.33885100  0.90705700  1
  O  O18  1  0.20651500  0.40556600  0.68781300  1
  O  O19  1  0.16087600  0.15991800  0.97711900  1
  O  O20  1  0.31674900  0.58661900  0.80037000  1
  O  O21  1  0.82817400  0.59747200  0.79259400  1
  O  O22  1  0.71841600  0.40252900  0.20739800  1
  O  O23  1  0.20379900  0.41340100  0.19977400  1
  O  O24  1  0.79803400  0.84007400  0.02282700  1
  O  O25  1  0.79995400  0.59444400  0.31231600  1
  O  O26  1  0.42519300  0.66111500  0.09301000  1
  O  O27  1  0.17182800  0.90252800  0.70740600  1
  O  O28  1  0.68325200  0.91338000  0.69963000  1
  O  O29  1  0.57480700  0.83888400  0.40699000  1
  O  O30  1  0.20004600  0.90555700  0.18768400  1
  O  O31  1  0.20196600  0.65992700  0.47717300  1
