data_image0
_chemical_formula_structural       Au2O4Rb2
_chemical_formula_sum              "Au2 O4 Rb2"
_cell_length_a       4.50119
_cell_length_b       6.11661
_cell_length_c       6.5283
_cell_angle_alpha    90
_cell_angle_beta     69.8338
_cell_angle_gamma    90

_space_group_name_H-M_alt    "P 1"
_space_group_IT_number       1

loop_
  _space_group_symop_operation_xyz
  'x, y, z'

loop_
  _atom_site_type_symbol
  _atom_site_label
  _atom_site_symmetry_multiplicity
  _atom_site_fract_x
  _atom_site_fract_y
  _atom_site_fract_z
  _atom_site_occupancy
  Au  Au1       1.0  0.99700  0.25000  0.00676  1.0000
  Au  Au2       1.0  0.00338  0.75000  0.99300  1.0000
  O   O1        1.0  0.89000  0.50600  0.21900  1.0000
  O   O2        1.0  0.89000  0.99400  0.21900  1.0000
  O   O3        1.0  0.11000  0.00634  0.78100  1.0000
  O   O4        1.0  0.11000  0.49400  0.78100  1.0000
  Rb  Rb1       1.0  0.29600  0.75000  0.40700  1.0000
  Rb  Rb2       1.0  0.70400  0.25000  0.59300  1.0000
