# generated using pymatgen
data_FeP2O7
_symmetry_space_group_name_H-M   'P 1'
_cell_length_a   5.14960800
_cell_length_b   6.79324975
_cell_length_c   8.38635604
_cell_angle_alpha   68.96720250
_cell_angle_beta   88.41362698
_cell_angle_gamma   88.20115717
_symmetry_Int_Tables_number   1
_chemical_formula_structural   FeP2O7
_chemical_formula_sum   'Fe2 P4 O14'
_cell_volume   273.65282721
_cell_formula_units_Z   2
loop_
 _symmetry_equiv_pos_site_id
 _symmetry_equiv_pos_as_xyz
  1  'x, y, z'
loop_
 _atom_site_type_symbol
 _atom_site_label
 _atom_site_symmetry_multiplicity
 _atom_site_fract_x
 _atom_site_fract_y
 _atom_site_fract_z
 _atom_site_occupancy
  Fe  Fe0  1  0.75673600  0.78740700  0.27048900  1
  Fe  Fe1  1  0.24326400  0.21259300  0.72951100  1
  P  P2  1  0.27507000  0.45452400  0.31017100  1
  P  P3  1  0.72493000  0.54547600  0.68982900  1
  P  P4  1  0.24308800  0.11024000  0.16787300  1
  P  P5  1  0.75691200  0.88976000  0.83212700  1
  O  O6  1  0.55992300  0.04079000  0.71402300  1
  O  O7  1  0.91567200  0.36007800  0.76081400  1
  O  O8  1  0.08432800  0.63992200  0.23918600  1
  O  O9  1  0.03791300  0.94728200  0.77578300  1
  O  O10  1  0.18736900  0.29146900  0.48024100  1
  O  O11  1  0.28390600  0.34216300  0.17008000  1
  O  O12  1  0.29813200  0.13061900  0.98280500  1
  O  O13  1  0.44007700  0.95921000  0.28597700  1
  O  O14  1  0.81263100  0.70853100  0.51975900  1
  O  O15  1  0.55185100  0.52732500  0.31401900  1
  O  O16  1  0.96208700  0.05271800  0.22421700  1
  O  O17  1  0.70186800  0.86938100  0.01719500  1
  O  O18  1  0.71609400  0.65783700  0.82992000  1
  O  O19  1  0.44814900  0.47267500  0.68598100  1
