# generated using pymatgen
data_VPO5
_symmetry_space_group_name_H-M   'P 1'
_cell_length_a   7.36778731
_cell_length_b   7.36778731
_cell_length_c   10.30869291
_cell_angle_alpha   67.43266652
_cell_angle_beta   67.43266652
_cell_angle_gamma   41.21288669
_symmetry_Int_Tables_number   1
_chemical_formula_structural   VPO5
_chemical_formula_sum   'V4 P4 O20'
_cell_volume   336.28339864
_cell_formula_units_Z   4
loop_
 _symmetry_equiv_pos_site_id
 _symmetry_equiv_pos_as_xyz
  1  'x, y, z'
loop_
 _atom_site_type_symbol
 _atom_site_label
 _atom_site_symmetry_multiplicity
 _atom_site_fract_x
 _atom_site_fract_y
 _atom_site_fract_z
 _atom_site_occupancy
  V  V0  1  0.96684200  0.03315800  0.25000000  1
  V  V1  1  0.00000000  0.50000000  0.00000000  1
  V  V2  1  0.50000000  0.00000000  0.50000000  1
  V  V3  1  0.03315800  0.96684200  0.75000000  1
  P  P4  1  0.39891500  0.35160500  0.69277200  1
  P  P5  1  0.60108500  0.64839500  0.30722800  1
  P  P6  1  0.64839500  0.60108500  0.80722800  1
  P  P7  1  0.35160500  0.39891500  0.19277200  1
  O  O8  1  0.71370700  0.16932900  0.67593600  1
  O  O9  1  0.75908000  0.33987500  0.34636400  1
  O  O10  1  0.94528000  0.80102600  0.90309500  1
  O  O11  1  0.71935000  0.64112900  0.90885400  1
  O  O12  1  0.71440500  0.70463500  0.15166000  1
  O  O13  1  0.70463500  0.71440500  0.65166000  1
  O  O14  1  0.64112900  0.71935000  0.40885400  1
  O  O15  1  0.80102600  0.94528000  0.40309500  1
  O  O16  1  0.24092000  0.66012500  0.65363600  1
  O  O17  1  0.83067100  0.28629300  0.82406400  1
  O  O18  1  0.28629300  0.83067100  0.32406400  1
  O  O19  1  0.66012500  0.24092000  0.15363600  1
  O  O20  1  0.19897400  0.05472000  0.59690500  1
  O  O21  1  0.35887100  0.28065000  0.59114600  1
  O  O22  1  0.16932900  0.71370700  0.17593600  1
  O  O23  1  0.28559500  0.29536500  0.84834000  1
  O  O24  1  0.28065000  0.35887100  0.09114600  1
  O  O25  1  0.05472000  0.19897400  0.09690500  1
  O  O26  1  0.33987500  0.75908000  0.84636400  1
  O  O27  1  0.29536500  0.28559500  0.34834000  1
