# generated using pymatgen
data_CeSe2
_symmetry_space_group_name_H-M   'P 1'
_cell_length_a   21.38859267
_cell_length_b   17.42275639
_cell_length_c   13.70176041
_cell_angle_alpha   85.93817506
_cell_angle_beta   54.34441557
_cell_angle_gamma   39.71740936
_symmetry_Int_Tables_number   1
_chemical_formula_structural   CeSe2
_chemical_formula_sum   'Ce8 Se16'
_cell_volume   1819.89064518
_cell_formula_units_Z   8
loop_
 _symmetry_equiv_pos_site_id
 _symmetry_equiv_pos_as_xyz
  1  'x, y, z'
loop_
 _atom_site_type_symbol
 _atom_site_label
 _atom_site_symmetry_multiplicity
 _atom_site_fract_x
 _atom_site_fract_y
 _atom_site_fract_z
 _atom_site_occupancy
  Ce  Ce0  1  0.24371100  0.62082200  0.38145700  1
  Ce  Ce1  1  0.38145700  0.75401000  0.24371100  1
  Ce  Ce2  1  0.00628900  0.62917800  0.86854300  1
  Ce  Ce3  1  0.86854300  0.49599000  0.00628900  1
  Ce  Ce4  1  0.75401000  0.38145700  0.62082200  1
  Ce  Ce5  1  0.62082200  0.24371100  0.75401000  1
  Ce  Ce6  1  0.49599000  0.86854300  0.62917800  1
  Ce  Ce7  1  0.62917800  0.00628900  0.49599000  1
  Se  Se8  1  0.63089700  0.36910300  0.63089700  1
  Se  Se9  1  0.61910300  0.88089700  0.61910300  1
  Se  Se10  1  0.36910300  0.63089700  0.36910300  1
  Se  Se11  1  0.88089700  0.61910300  0.88089700  1
  Se  Se12  1  0.95310100  0.95310100  0.54689900  1
  Se  Se13  1  0.54689900  0.54689900  0.95310100  1
  Se  Se14  1  0.29689900  0.29689900  0.70310100  1
  Se  Se15  1  0.70310100  0.70310100  0.29689900  1
  Se  Se16  1  0.40945700  0.40945700  0.09054300  1
  Se  Se17  1  0.09054300  0.09054300  0.40945700  1
  Se  Se18  1  0.84054300  0.84054300  0.15945700  1
  Se  Se19  1  0.15945700  0.15945700  0.84054300  1
  Se  Se20  1  0.12500000  0.62500000  0.62500000  1
  Se  Se21  1  0.62500000  0.62500000  0.12500000  1
  Se  Se22  1  0.62500000  0.62500000  0.62500000  1
  Se  Se23  1  0.62500000  0.12500000  0.62500000  1
