# generated using pymatgen
data_Mo3(PO4)4
_symmetry_space_group_name_H-M   'P 1'
_cell_length_a   13.56649921
_cell_length_b   8.02763640
_cell_length_c   9.07920573
_cell_angle_alpha   89.45780450
_cell_angle_beta   85.60432729
_cell_angle_gamma   90.98471447
_symmetry_Int_Tables_number   1
_chemical_formula_structural   Mo3(PO4)4
_chemical_formula_sum   'Mo9 P12 O48'
_cell_volume   985.67664785
_cell_formula_units_Z   3
loop_
 _symmetry_equiv_pos_site_id
 _symmetry_equiv_pos_as_xyz
  1  'x, y, z'
loop_
 _atom_site_type_symbol
 _atom_site_label
 _atom_site_symmetry_multiplicity
 _atom_site_fract_x
 _atom_site_fract_y
 _atom_site_fract_z
 _atom_site_occupancy
  Mo  Mo0  1  0.83657400  0.50744300  0.67709600  1
  Mo  Mo1  1  0.83627600  0.36367500  0.27180100  1
  Mo  Mo2  1  0.83202500  0.97538800  0.15628600  1
  Mo  Mo3  1  0.50067500  0.85839000  0.89557500  1
  Mo  Mo4  1  0.49682300  0.99913700  0.49309300  1
  Mo  Mo5  1  0.49506900  0.47339700  0.00814200  1
  Mo  Mo6  1  0.16406800  0.99806500  0.83926500  1
  Mo  Mo7  1  0.16590200  0.14176900  0.43311000  1
  Mo  Mo8  1  0.16982100  0.53440500  0.32580600  1
  P  P9  1  0.27737900  0.80852100  0.53024500  1
  P  P10  1  0.39085900  0.31386400  0.33108600  1
  P  P11  1  0.38746600  0.18980500  0.80925900  1
  P  P12  1  0.27372400  0.69078000  0.00865500  1
  P  P13  1  0.60852400  0.78778500  0.18904700  1
  P  P14  1  0.61713500  0.66320400  0.68311700  1
  P  P15  1  0.71603300  0.16831100  0.48612300  1
  P  P16  1  0.71879000  0.29488100  0.98538200  1
  P  P17  1  0.94825900  0.69923800  0.35452600  1
  P  P18  1  0.05906900  0.21678900  0.14117100  1
  P  P19  1  0.05347800  0.33848900  0.64656500  1
  P  P20  1  0.94718000  0.81905300  0.83373200  1
  O  O21  1  0.91155000  0.87334600  0.31580700  1
  O  O22  1  0.93912000  0.32383500  0.64725700  1
  O  O23  1  0.93957700  0.20882400  0.17054400  1
  O  O24  1  0.91154000  0.63275700  0.82650400  1
  O  O25  1  0.90679900  0.63812200  0.50720700  1
  O  O26  1  0.92177800  0.93428300  0.71553100  1
  O  O27  1  0.91588900  0.57482800  0.23690100  1
  O  O28  1  0.90407500  0.87478900  0.99410100  1
  O  O29  1  0.76028500  0.36485200  0.83567800  1
  O  O30  1  0.06334700  0.70571500  0.35142500  1
  O  O31  1  0.06170600  0.82027600  0.86061600  1
  O  O32  1  0.09740700  0.39188300  0.16573400  1
  O  O33  1  0.08548200  0.36805200  0.47042500  1
  O  O34  1  0.09518600  0.08941000  0.25819300  1
  O  O35  1  0.08288300  0.14654300  0.98832700  1
  O  O36  1  0.09757400  0.44841100  0.75115100  1
  O  O37  1  0.10205200  0.14771700  0.64315800  1
  O  O38  1  0.23777900  0.92932100  0.41388300  1
  O  O39  1  0.23836600  0.63370400  0.49971000  1
  O  O40  1  0.26123500  0.64830300  0.18067000  1
  O  O41  1  0.24170500  0.55854200  0.91239500  1
  O  O42  1  0.26423900  0.31017100  0.34558700  1
  O  O43  1  0.24141300  0.87353400  0.99504000  1
  O  O44  1  0.24148000  0.86668700  0.68605600  1
  O  O45  1  0.27395500  0.18119000  0.81660600  1
  O  O46  1  0.40731000  0.36581300  0.16380600  1
  O  O47  1  0.39145600  0.81835000  0.52242500  1
  O  O48  1  0.41770200  0.12788500  0.34325600  1
  O  O49  1  0.39918800  0.69887100  0.98781200  1
  O  O50  1  0.76786800  0.35941000  0.47836200  1
  O  O51  1  0.42826600  0.13519700  0.65388400  1
  O  O52  1  0.42621800  0.36669500  0.84292900  1
  O  O53  1  0.42752200  0.07037600  0.92553000  1
  O  O54  1  0.57246800  0.91139400  0.06682800  1
  O  O55  1  0.56829400  0.61136400  0.16012300  1
  O  O56  1  0.56850400  0.85432800  0.33956800  1
  O  O57  1  0.56528000  0.85106900  0.68397100  1
  O  O58  1  0.58241500  0.55040400  0.57191200  1
  O  O59  1  0.60566400  0.29724200  0.99976500  1
  O  O60  1  0.57698600  0.62830000  0.85410400  1
  O  O61  1  0.60446700  0.18027700  0.46376000  1
  O  O62  1  0.72207900  0.79172100  0.17863200  1
  O  O63  1  0.75550500  0.11878100  0.01555900  1
  O  O64  1  0.73044700  0.68520200  0.69039600  1
  O  O65  1  0.75904700  0.41529000  0.10831500  1
  O  O66  1  0.76492600  0.12727500  0.32149600  1
  O  O67  1  0.74582300  0.06793000  0.60979200  1
  O  O68  1  0.42298300  0.43747000  0.43566500  1
