# generated using pymatgen
data_Ce2Sb2Se5
_symmetry_space_group_name_H-M   'P 1'
_cell_length_a   5.99012000
_cell_length_b   11.88480200
_cell_length_c   15.85603061
_cell_angle_alpha   69.19763382
_cell_angle_beta   90.00000000
_cell_angle_gamma   90.00000000
_symmetry_Int_Tables_number   1
_chemical_formula_structural   Ce2Sb2Se5
_chemical_formula_sum   'Ce8 Sb8 Se20'
_cell_volume   1055.22669192
_cell_formula_units_Z   4
loop_
 _symmetry_equiv_pos_site_id
 _symmetry_equiv_pos_as_xyz
  1  'x, y, z'
loop_
 _atom_site_type_symbol
 _atom_site_label
 _atom_site_symmetry_multiplicity
 _atom_site_fract_x
 _atom_site_fract_y
 _atom_site_fract_z
 _atom_site_occupancy
  Ce  Ce0  1  0.76447400  0.66351500  0.66299800  1
  Ce  Ce1  1  0.26447400  0.83648500  0.33700200  1
  Ce  Ce2  1  0.23552600  0.33648500  0.33700200  1
  Ce  Ce3  1  0.73552600  0.16351500  0.66299800  1
  Ce  Ce4  1  0.23327000  0.18807000  0.11094500  1
  Ce  Ce5  1  0.73327000  0.31193000  0.88905500  1
  Ce  Ce6  1  0.76673000  0.81193000  0.88905500  1
  Ce  Ce7  1  0.26673000  0.68807000  0.11094500  1
  Sb  Sb8  1  0.81511400  0.52000000  0.42817000  1
  Sb  Sb9  1  0.31511400  0.98000000  0.57183000  1
  Sb  Sb10  1  0.18488600  0.48000000  0.57183000  1
  Sb  Sb11  1  0.68488600  0.02000000  0.42817000  1
  Sb  Sb12  1  0.78925500  0.94357200  0.12106700  1
  Sb  Sb13  1  0.28925500  0.55642800  0.87893300  1
  Sb  Sb14  1  0.21074500  0.05642800  0.87893300  1
  Sb  Sb15  1  0.71074500  0.44357200  0.12106700  1
  Se  Se16  1  0.26418300  0.79442500  0.90474700  1
  Se  Se17  1  0.76418300  0.70557500  0.09525300  1
  Se  Se18  1  0.73581700  0.20557500  0.09525300  1
  Se  Se19  1  0.23581700  0.29442500  0.90474700  1
  Se  Se20  1  0.98945900  0.15918500  0.49713400  1
  Se  Se21  1  0.48945900  0.34081500  0.50286600  1
  Se  Se22  1  0.01054100  0.84081500  0.50286600  1
  Se  Se23  1  0.51054100  0.65918500  0.49713400  1
  Se  Se24  1  0.75341100  0.39726700  0.69751200  1
  Se  Se25  1  0.25341100  0.10273300  0.30248800  1
  Se  Se26  1  0.24658900  0.60273300  0.30248800  1
  Se  Se27  1  0.74658900  0.89726700  0.69751200  1
  Se  Se28  1  0.70735700  0.06374400  0.87795800  1
  Se  Se29  1  0.20735700  0.43625600  0.12204200  1
  Se  Se30  1  0.29264300  0.93625600  0.12204200  1
  Se  Se31  1  0.79264300  0.56374400  0.87795800  1
  Se  Se32  1  0.73397900  0.35451200  0.29661800  1
  Se  Se33  1  0.23397900  0.14548800  0.70338200  1
  Se  Se34  1  0.26602100  0.64548800  0.70338200  1
  Se  Se35  1  0.76602100  0.85451200  0.29661800  1
