# generated using pymatgen
data_MnP2O7
_symmetry_space_group_name_H-M   'P 1'
_cell_length_a   7.96487400
_cell_length_b   7.18511400
_cell_length_c   9.26359545
_cell_angle_alpha   69.67513305
_cell_angle_beta   90.00000000
_cell_angle_gamma   90.00000000
_symmetry_Int_Tables_number   1
_chemical_formula_structural   MnP2O7
_chemical_formula_sum   'Mn4 P8 O28'
_cell_volume   497.13437670
_cell_formula_units_Z   4
loop_
 _symmetry_equiv_pos_site_id
 _symmetry_equiv_pos_as_xyz
  1  'x, y, z'
loop_
 _atom_site_type_symbol
 _atom_site_label
 _atom_site_symmetry_multiplicity
 _atom_site_fract_x
 _atom_site_fract_y
 _atom_site_fract_z
 _atom_site_occupancy
  Mn  Mn0  1  0.99490400  0.73267800  0.24625000  1
  Mn  Mn1  1  0.49490400  0.26732200  0.25375000  1
  Mn  Mn2  1  0.50509600  0.73267800  0.74625000  1
  Mn  Mn3  1  0.00509600  0.26732200  0.75375000  1
  P  P4  1  0.30071300  0.67463000  0.05382200  1
  P  P5  1  0.80071300  0.32537000  0.44617800  1
  P  P6  1  0.76049500  0.92410200  0.94492700  1
  P  P7  1  0.26049500  0.07589800  0.55507300  1
  P  P8  1  0.73950500  0.92410200  0.44492700  1
  P  P9  1  0.23950500  0.07589800  0.05507300  1
  P  P10  1  0.19928700  0.67463000  0.55382200  1
  P  P11  1  0.69928700  0.32537000  0.94617800  1
  O  O12  1  0.35283000  0.89067700  0.05559700  1
  O  O13  1  0.80503900  0.80382300  0.11219700  1
  O  O14  1  0.11396400  0.64681700  0.09971000  1
  O  O15  1  0.92269300  0.46122100  0.33057100  1
  O  O16  1  0.81583900  0.32641900  0.61128800  1
  O  O17  1  0.42269300  0.53877900  0.16942900  1
  O  O18  1  0.61396400  0.35318300  0.40029000  1
  O  O19  1  0.14336900  0.20709700  0.60723400  1
  O  O20  1  0.91504200  0.00292000  0.84151400  1
  O  O21  1  0.30503900  0.19617700  0.38780300  1
  O  O22  1  0.68416100  0.32641900  0.11128800  1
  O  O23  1  0.85283000  0.10932300  0.44440300  1
  O  O24  1  0.41504200  0.99708000  0.65848600  1
  O  O25  1  0.35663100  0.20709700  0.10723400  1
  O  O26  1  0.64336900  0.79290300  0.89276600  1
  O  O27  1  0.58495800  0.00292000  0.34151400  1
  O  O28  1  0.14717000  0.89067700  0.55559700  1
  O  O29  1  0.31583900  0.67358100  0.88871200  1
  O  O30  1  0.69496100  0.80382300  0.61219700  1
  O  O31  1  0.08495800  0.99708000  0.15848600  1
  O  O32  1  0.85663100  0.79290300  0.39276600  1
  O  O33  1  0.38603600  0.64681700  0.59971000  1
  O  O34  1  0.57730700  0.46122100  0.83057100  1
  O  O35  1  0.18416100  0.67358100  0.38871200  1
  O  O36  1  0.07730700  0.53877900  0.66942900  1
  O  O37  1  0.88603600  0.35318300  0.90029000  1
  O  O38  1  0.19496100  0.19617700  0.88780300  1
  O  O39  1  0.64717000  0.10932300  0.94440300  1
