# generated using pymatgen
data_V(PO3)4
_symmetry_space_group_name_H-M   'P 1'
_cell_length_a   8.39041673
_cell_length_b   8.39041673
_cell_length_c   7.78969517
_cell_angle_alpha   82.10354031
_cell_angle_beta   82.10354031
_cell_angle_gamma   109.30224727
_symmetry_Int_Tables_number   1
_chemical_formula_structural   V(PO3)4
_chemical_formula_sum   'V2 P8 O24'
_cell_volume   502.75786365
_cell_formula_units_Z   2
loop_
 _symmetry_equiv_pos_site_id
 _symmetry_equiv_pos_as_xyz
  1  'x, y, z'
loop_
 _atom_site_type_symbol
 _atom_site_label
 _atom_site_symmetry_multiplicity
 _atom_site_fract_x
 _atom_site_fract_y
 _atom_site_fract_z
 _atom_site_occupancy
  V  V0  1  0.13300200  0.86699800  0.75000000  1
  V  V1  1  0.86699800  0.13300200  0.25000000  1
  P  P2  1  0.79437100  0.95807700  0.67112200  1
  P  P3  1  0.42535300  0.74988500  0.87861200  1
  P  P4  1  0.25011500  0.57464700  0.62138800  1
  P  P5  1  0.95807700  0.79437100  0.17112200  1
  P  P6  1  0.04192300  0.20562900  0.82887800  1
  P  P7  1  0.74988500  0.42535300  0.37861200  1
  P  P8  1  0.57464700  0.25011500  0.12138800  1
  P  P9  1  0.20562900  0.04192300  0.32887800  1
  O  O10  1  0.12871900  0.87128100  0.25000000  1
  O  O11  1  0.34558100  0.88427100  0.80909000  1
  O  O12  1  0.74754100  0.00248700  0.49519300  1
  O  O13  1  0.63038300  0.85065700  0.81537300  1
  O  O14  1  0.11572900  0.65441900  0.69091000  1
  O  O15  1  0.86147700  0.91864100  0.17234300  1
  O  O16  1  0.91864100  0.86147700  0.67234300  1
  O  O17  1  0.38367300  0.67365800  0.06625300  1
  O  O18  1  0.38801400  0.61198600  0.75000000  1
  O  O19  1  0.32634200  0.61632700  0.43374700  1
  O  O20  1  0.00248700  0.74754100  0.99519300  1
  O  O21  1  0.14934300  0.36961700  0.68462700  1
  O  O22  1  0.85065700  0.63038300  0.31537300  1
  O  O23  1  0.99751300  0.25245900  0.00480700  1
  O  O24  1  0.67365800  0.38367300  0.56625300  1
  O  O25  1  0.61198600  0.38801400  0.25000000  1
  O  O26  1  0.61632700  0.32634200  0.93374700  1
  O  O27  1  0.08135900  0.13852300  0.32765700  1
  O  O28  1  0.13852300  0.08135900  0.82765700  1
  O  O29  1  0.88427100  0.34558100  0.30909000  1
  O  O30  1  0.36961700  0.14934300  0.18462700  1
  O  O31  1  0.25245900  0.99751300  0.50480700  1
  O  O32  1  0.65441900  0.11572900  0.19091000  1
  O  O33  1  0.87128100  0.12871900  0.75000000  1
