# generated using pymatgen
data_Mo(PO4)2
_symmetry_space_group_name_H-M   'P 1'
_cell_length_a   5.24519400
_cell_length_b   10.98821400
_cell_length_c   11.49466200
_cell_angle_alpha   90.00000000
_cell_angle_beta   90.00000000
_cell_angle_gamma   90.00000000
_symmetry_Int_Tables_number   1
_chemical_formula_structural   Mo(PO4)2
_chemical_formula_sum   'Mo4 P8 O32'
_cell_volume   662.49845534
_cell_formula_units_Z   4
loop_
 _symmetry_equiv_pos_site_id
 _symmetry_equiv_pos_as_xyz
  1  'x, y, z'
loop_
 _atom_site_type_symbol
 _atom_site_label
 _atom_site_symmetry_multiplicity
 _atom_site_fract_x
 _atom_site_fract_y
 _atom_site_fract_z
 _atom_site_occupancy
  Mo  Mo0  1  0.74789500  0.09341300  0.84624400  1
  Mo  Mo1  1  0.25210500  0.59341300  0.65375600  1
  Mo  Mo2  1  0.75210500  0.90658700  0.34624400  1
  Mo  Mo3  1  0.24789500  0.40658700  0.15375600  1
  P  P4  1  0.74912700  0.59452700  0.46215600  1
  P  P5  1  0.24912700  0.90547300  0.53784400  1
  P  P6  1  0.24868300  0.13790700  0.66522000  1
  P  P7  1  0.75131700  0.63790700  0.83478000  1
  P  P8  1  0.25087300  0.09452700  0.03784400  1
  P  P9  1  0.25131700  0.86209300  0.16522000  1
  P  P10  1  0.75087300  0.40547300  0.96215600  1
  P  P11  1  0.74868300  0.36209300  0.33478000  1
  O  O12  1  0.25614800  0.20571600  0.55601800  1
  O  O13  1  0.49355700  0.05809100  0.97006900  1
  O  O14  1  0.01530000  0.05899500  0.96449000  1
  O  O15  1  0.74385200  0.70571600  0.94398200  1
  O  O16  1  0.99355700  0.44190900  0.02993100  1
  O  O17  1  0.51530000  0.44100500  0.03551000  1
  O  O18  1  0.24385200  0.79428400  0.05601800  1
  O  O19  1  0.24952900  0.22397500  0.07798100  1
  O  O20  1  0.24599800  0.01024400  0.15099900  1
  O  O21  1  0.24463400  0.54776400  0.21212900  1
  O  O22  1  0.49066100  0.84121600  0.24522700  1
  O  O23  1  0.97712900  0.34026000  0.24805400  1
  O  O24  1  0.02287100  0.84026000  0.25194600  1
  O  O25  1  0.50933900  0.34121600  0.25477300  1
  O  O26  1  0.75536600  0.04776400  0.28787100  1
  O  O27  1  0.75400200  0.51024400  0.34900100  1
  O  O28  1  0.75047100  0.72397500  0.42201900  1
  O  O29  1  0.75614800  0.29428400  0.44398200  1
  O  O30  1  0.48470000  0.94100500  0.46449000  1
  O  O31  1  0.74599800  0.48975600  0.84900100  1
  O  O32  1  0.50644300  0.55809100  0.52993100  1
  O  O33  1  0.98470000  0.55899500  0.53551000  1
  O  O34  1  0.00644300  0.94190900  0.47006900  1
  O  O35  1  0.25047100  0.77602500  0.57798100  1
  O  O36  1  0.25400200  0.98975600  0.65099900  1
  O  O37  1  0.25536600  0.45223600  0.71212900  1
  O  O38  1  0.00933900  0.15878400  0.74522700  1
  O  O39  1  0.52287100  0.65974000  0.74805400  1
  O  O40  1  0.47712900  0.15974000  0.75194600  1
  O  O41  1  0.99066100  0.65878400  0.75477300  1
  O  O42  1  0.74463400  0.95223600  0.78787100  1
  O  O43  1  0.74952900  0.27602500  0.92201900  1
