# generated using pymatgen
data_NiPO4
_symmetry_space_group_name_H-M   'P 1'
_cell_length_a   4.97490300
_cell_length_b   6.81808000
_cell_length_c   10.12505000
_cell_angle_alpha   90.00000000
_cell_angle_beta   90.00000000
_cell_angle_gamma   90.00000000
_symmetry_Int_Tables_number   1
_chemical_formula_structural   NiPO4
_chemical_formula_sum   'Ni4 P4 O16'
_cell_volume   343.43447326
_cell_formula_units_Z   4
loop_
 _symmetry_equiv_pos_site_id
 _symmetry_equiv_pos_as_xyz
  1  'x, y, z'
loop_
 _atom_site_type_symbol
 _atom_site_label
 _atom_site_symmetry_multiplicity
 _atom_site_fract_x
 _atom_site_fract_y
 _atom_site_fract_z
 _atom_site_occupancy
  Ni  Ni0  1  0.18320800  0.29117600  0.34304000  1
  Ni  Ni1  1  0.68320800  0.79117600  0.15696000  1
  Ni  Ni2  1  0.81679200  0.79117600  0.65696000  1
  Ni  Ni3  1  0.31679200  0.29117600  0.84304000  1
  P  P4  1  0.81827700  0.03740500  0.90648700  1
  P  P5  1  0.31827700  0.53740500  0.59351300  1
  P  P6  1  0.68172300  0.03740500  0.40648700  1
  P  P7  1  0.18172300  0.53740500  0.09351300  1
  O  O8  1  0.25046200  0.50714100  0.44576800  1
  O  O9  1  0.62443600  0.56856600  0.61200500  1
  O  O10  1  0.87556400  0.56856600  0.11200500  1
  O  O11  1  0.67544800  0.22449700  0.85546500  1
  O  O12  1  0.22937700  0.35109100  0.67009900  1
  O  O13  1  0.32455200  0.72449700  0.14453500  1
  O  O14  1  0.74953800  0.00714100  0.55423200  1
  O  O15  1  0.75046200  0.00714100  0.05423200  1
  O  O16  1  0.72937700  0.85109100  0.82990100  1
  O  O17  1  0.27062300  0.35109100  0.17009900  1
  O  O18  1  0.24953800  0.50714100  0.94576800  1
  O  O19  1  0.17544800  0.72449700  0.64453500  1
  O  O20  1  0.37556400  0.06856600  0.38799500  1
  O  O21  1  0.12443600  0.06856600  0.88799500  1
  O  O22  1  0.77062300  0.85109100  0.32990100  1
  O  O23  1  0.82455200  0.22449700  0.35546500  1
