# generated using pymatgen
data_CrPO5
_symmetry_space_group_name_H-M   'P 1'
_cell_length_a   7.04715039
_cell_length_b   7.37678906
_cell_length_c   7.29380231
_cell_angle_alpha   91.92567164
_cell_angle_beta   90.30237417
_cell_angle_gamma   69.09103780
_symmetry_Int_Tables_number   1
_chemical_formula_structural   CrPO5
_chemical_formula_sum   'Cr4 P4 O20'
_cell_volume   353.99271342
_cell_formula_units_Z   4
loop_
 _symmetry_equiv_pos_site_id
 _symmetry_equiv_pos_as_xyz
  1  'x, y, z'
loop_
 _atom_site_type_symbol
 _atom_site_label
 _atom_site_symmetry_multiplicity
 _atom_site_fract_x
 _atom_site_fract_y
 _atom_site_fract_z
 _atom_site_occupancy
  Cr  Cr0  1  0.30620100  0.45710000  0.27991900  1
  Cr  Cr1  1  0.69379900  0.54290100  0.72008100  1
  Cr  Cr2  1  0.80047200  0.94746500  0.21600900  1
  Cr  Cr3  1  0.19952800  0.05253400  0.78399100  1
  P  P4  1  0.47190400  0.75967800  0.08619700  1
  P  P5  1  0.52809600  0.24032200  0.91380300  1
  P  P6  1  0.02111900  0.24321900  0.41283900  1
  P  P7  1  0.97888000  0.75678100  0.58716100  1
  O  O8  1  0.10717300  0.34080100  0.26428200  1
  O  O9  1  0.89282700  0.65919900  0.73571800  1
  O  O10  1  0.60314000  0.33316800  0.75569100  1
  O  O11  1  0.39686000  0.66683100  0.24430900  1
  O  O12  1  0.49350600  0.29584500  0.36687600  1
  O  O13  1  0.50649300  0.70415600  0.63312400  1
  O  O14  1  0.35535200  0.39365300  0.02671300  1
  O  O15  1  0.64464700  0.60634800  0.97328700  1
  O  O16  1  0.28704800  0.85850100  0.96270800  1
  O  O17  1  0.71295300  0.14149800  0.03729200  1
  O  O18  1  0.95913100  0.08807700  0.31161700  1
  O  O19  1  0.04087000  0.91192200  0.68838300  1
  O  O20  1  0.83789000  0.39294000  0.51288300  1
  O  O21  1  0.16211100  0.60706100  0.48711700  1
  O  O22  1  0.55177200  0.90980800  0.17859800  1
  O  O23  1  0.44822800  0.09019100  0.82140200  1
  O  O24  1  0.80161700  0.85108300  0.45211500  1
  O  O25  1  0.19838400  0.14891800  0.54788500  1
  O  O26  1  0.95994100  0.76628300  0.11326100  1
  O  O27  1  0.04006000  0.23371700  0.88673900  1
