# generated using pymatgen
data_CrPO4
_symmetry_space_group_name_H-M   'P 1'
_cell_length_a   6.28766100
_cell_length_b   6.34895388
_cell_length_c   8.95883622
_cell_angle_alpha   92.16610538
_cell_angle_beta   110.44358119
_cell_angle_gamma   97.57996416
_symmetry_Int_Tables_number   1
_chemical_formula_structural   CrPO4
_chemical_formula_sum   'Cr4 P4 O16'
_cell_volume   330.82682173
_cell_formula_units_Z   4
loop_
 _symmetry_equiv_pos_site_id
 _symmetry_equiv_pos_as_xyz
  1  'x, y, z'
loop_
 _atom_site_type_symbol
 _atom_site_label
 _atom_site_symmetry_multiplicity
 _atom_site_fract_x
 _atom_site_fract_y
 _atom_site_fract_z
 _atom_site_occupancy
  Cr  Cr0  1  0.82193200  0.94982200  0.70938100  1
  Cr  Cr1  1  0.69952700  0.17949100  0.01340600  1
  Cr  Cr2  1  0.30047300  0.82050900  0.98659400  1
  Cr  Cr3  1  0.17806800  0.05017800  0.29061900  1
  P  P4  1  0.37782000  0.89666500  0.65979600  1
  P  P5  1  0.82438500  0.71335200  0.03621300  1
  P  P6  1  0.17561500  0.28664800  0.96378700  1
  P  P7  1  0.62218000  0.10333500  0.34020400  1
  O  O8  1  0.79022000  0.17763400  0.25179700  1
  O  O9  1  0.27792400  0.51760100  0.01491300  1
  O  O10  1  0.46954800  0.26623600  0.35998400  1
  O  O11  1  0.95306600  0.80416900  0.92172600  1
  O  O12  1  0.58274400  0.08711700  0.76466200  1
  O  O13  1  0.72207600  0.48239900  0.98508700  1
  O  O14  1  0.53045200  0.73376400  0.64001600  1
  O  O15  1  0.04693400  0.19583100  0.07827400  1
  O  O16  1  0.37275900  0.14541600  0.99272900  1
  O  O17  1  0.62724100  0.85458400  0.00727100  1
  O  O18  1  0.98441700  0.76443900  0.20912800  1
  O  O19  1  0.20978000  0.82236600  0.74820300  1
  O  O20  1  0.41725600  0.91288300  0.23533800  1
  O  O21  1  0.01558300  0.23556100  0.79087200  1
  O  O22  1  0.76850300  0.02097000  0.49360100  1
  O  O23  1  0.23149700  0.97903000  0.50639900  1
