# generated using pymatgen
data_CoP2O7
_symmetry_space_group_name_H-M   'P 1'
_cell_length_a   7.82543700
_cell_length_b   6.81432600
_cell_length_c   9.21354856
_cell_angle_alpha   70.53921274
_cell_angle_beta   90.00000000
_cell_angle_gamma   90.00000000
_symmetry_Int_Tables_number   1
_chemical_formula_structural   CoP2O7
_chemical_formula_sum   'Co4 P8 O28'
_cell_volume   463.24434484
_cell_formula_units_Z   4
loop_
 _symmetry_equiv_pos_site_id
 _symmetry_equiv_pos_as_xyz
  1  'x, y, z'
loop_
 _atom_site_type_symbol
 _atom_site_label
 _atom_site_symmetry_multiplicity
 _atom_site_fract_x
 _atom_site_fract_y
 _atom_site_fract_z
 _atom_site_occupancy
  Co  Co0  1  0.22240900  0.28058100  0.00484400  1
  Co  Co1  1  0.27759100  0.28058100  0.50484400  1
  Co  Co2  1  0.72240900  0.71941900  0.49515600  1
  Co  Co3  1  0.77759100  0.71941900  0.99515600  1
  P  P4  1  0.53694500  0.93014100  0.70404000  1
  P  P5  1  0.90532500  0.46745500  0.79590800  1
  P  P6  1  0.03694500  0.06985900  0.79596000  1
  P  P7  1  0.40532500  0.53254500  0.70409200  1
  P  P8  1  0.09467500  0.53254500  0.20409200  1
  P  P9  1  0.59467500  0.46745500  0.29590800  1
  P  P10  1  0.46305500  0.06985900  0.29596000  1
  P  P11  1  0.96305500  0.93014100  0.20404000  1
  O  O12  1  0.74115500  0.51701100  0.38909100  1
  O  O13  1  0.60507700  0.89684800  0.86578200  1
  O  O14  1  0.75884500  0.51701100  0.88909100  1
  O  O15  1  0.25884500  0.48298900  0.61090900  1
  O  O16  1  0.38511400  0.76874700  0.70288500  1
  O  O17  1  0.88511400  0.23125300  0.79711500  1
  O  O18  1  0.39492300  0.10315200  0.13421800  1
  O  O19  1  0.04723100  0.14613700  0.15073800  1
  O  O20  1  0.68006300  0.91605000  0.59130200  1
  O  O21  1  0.95276900  0.85386300  0.84926200  1
  O  O22  1  0.54723100  0.85386300  0.34926200  1
  O  O23  1  0.81993700  0.91605000  0.09130200  1
  O  O24  1  0.41775000  0.48040500  0.36493600  1
  O  O25  1  0.61488600  0.23125300  0.29711500  1
  O  O26  1  0.18006300  0.08395000  0.90869800  1
  O  O27  1  0.90769100  0.60381300  0.62351600  1
  O  O28  1  0.91775000  0.51959500  0.13506400  1
  O  O29  1  0.08225000  0.48040500  0.86493600  1
  O  O30  1  0.31993700  0.08395000  0.40869800  1
  O  O31  1  0.58225000  0.51959500  0.63506400  1
  O  O32  1  0.40769100  0.39618700  0.87648400  1
  O  O33  1  0.89492300  0.89684800  0.36578200  1
  O  O34  1  0.59230900  0.60381300  0.12351600  1
  O  O35  1  0.45276900  0.14613700  0.65073800  1
  O  O36  1  0.09230900  0.39618700  0.37648400  1
  O  O37  1  0.10507700  0.10315200  0.63421800  1
  O  O38  1  0.11488600  0.76874700  0.20288500  1
  O  O39  1  0.24115500  0.48298900  0.11090900  1
