# generated using pymatgen
data_V6P7O24
_symmetry_space_group_name_H-M   'P 1'
_cell_length_a   26.63882900
_cell_length_b   5.28708200
_cell_length_c   6.53288476
_cell_angle_alpha   73.16087158
_cell_angle_beta   90.00000000
_cell_angle_gamma   90.00000000
_symmetry_Int_Tables_number   1
_chemical_formula_structural   V6P7O24
_chemical_formula_sum   'V12 P14 O48'
_cell_volume   880.65016708
_cell_formula_units_Z   2
loop_
 _symmetry_equiv_pos_site_id
 _symmetry_equiv_pos_as_xyz
  1  'x, y, z'
loop_
 _atom_site_type_symbol
 _atom_site_label
 _atom_site_symmetry_multiplicity
 _atom_site_fract_x
 _atom_site_fract_y
 _atom_site_fract_z
 _atom_site_occupancy
  V  V0  1  0.45203900  0.18085800  0.30937800  1
  V  V1  1  0.04796100  0.18085800  0.30937800  1
  V  V2  1  0.31396300  0.10971500  0.72539700  1
  V  V3  1  0.18603700  0.10971500  0.72539700  1
  V  V4  1  0.90115200  0.20537300  0.91286600  1
  V  V5  1  0.59884800  0.20537300  0.91286600  1
  V  V6  1  0.40115200  0.79462700  0.08713400  1
  V  V7  1  0.09884800  0.79462700  0.08713400  1
  V  V8  1  0.81396300  0.89028500  0.27460300  1
  V  V9  1  0.68603700  0.89028500  0.27460300  1
  V  V10  1  0.95203900  0.81914200  0.69062200  1
  V  V11  1  0.54796100  0.81914200  0.69062200  1
  P  P12  1  0.33196500  0.24023200  0.19643500  1
  P  P13  1  0.16803500  0.24023200  0.19643500  1
  P  P14  1  0.89126900  0.33063900  0.37962500  1
  P  P15  1  0.60873100  0.33063900  0.37962500  1
  P  P16  1  0.75000000  0.46377300  0.09133100  1
  P  P17  1  0.47678600  0.29055800  0.79572200  1
  P  P18  1  0.02321400  0.29055800  0.79572200  1
  P  P19  1  0.97678600  0.70944200  0.20427800  1
  P  P20  1  0.52321400  0.70944200  0.20427800  1
  P  P21  1  0.25000000  0.53622700  0.90866900  1
  P  P22  1  0.39126900  0.66936100  0.62037500  1
  P  P23  1  0.10873100  0.66936100  0.62037500  1
  P  P24  1  0.83196500  0.75976800  0.80356500  1
  P  P25  1  0.66803500  0.75976800  0.80356500  1
  O  O26  1  0.33610500  0.05343100  0.05273700  1
  O  O27  1  0.16389500  0.05343100  0.05273700  1
  O  O28  1  0.45049300  0.12760600  0.00233900  1
  O  O29  1  0.04950700  0.12760600  0.00233900  1
  O  O30  1  0.87689900  0.15690600  0.23483400  1
  O  O31  1  0.62310100  0.15690600  0.23483400  1
  O  O32  1  0.75000000  0.16904600  0.20512000  1
  O  O33  1  0.30732800  0.11759500  0.40855900  1
  O  O34  1  0.19267200  0.11759500  0.40855900  1
  O  O35  1  0.47922300  0.13674600  0.62962200  1
  O  O36  1  0.02077700  0.13674600  0.62962200  1
  O  O37  1  0.90467900  0.15551700  0.60686900  1
  O  O38  1  0.59532100  0.15551700  0.60686900  1
  O  O39  1  0.38191000  0.38849800  0.20554600  1
  O  O40  1  0.11809000  0.38849800  0.20554600  1
  O  O41  1  0.29731900  0.48722900  0.06022700  1
  O  O42  1  0.20268100  0.48722900  0.06022700  1
  O  O43  1  0.94565600  0.44366500  0.29166800  1
  O  O44  1  0.55434400  0.44366500  0.29166800  1
  O  O45  1  0.25000000  0.34409100  0.77322400  1
  O  O46  1  0.47234200  0.59226700  0.16479800  1
  O  O47  1  0.02765800  0.59226700  0.16479800  1
  O  O48  1  0.85575500  0.55153400  0.37206600  1
  O  O49  1  0.64424500  0.55153400  0.37206600  1
  O  O50  1  0.35575500  0.44846600  0.62793400  1
  O  O51  1  0.14424500  0.44846600  0.62793400  1
  O  O52  1  0.97234200  0.40773300  0.83520200  1
  O  O53  1  0.52765800  0.40773300  0.83520200  1
  O  O54  1  0.75000000  0.65590900  0.22677600  1
  O  O55  1  0.44565600  0.55633500  0.70833200  1
  O  O56  1  0.05434400  0.55633500  0.70833200  1
  O  O57  1  0.79731900  0.51277100  0.93977300  1
  O  O58  1  0.70268100  0.51277100  0.93977300  1
  O  O59  1  0.88191000  0.61150200  0.79445400  1
  O  O60  1  0.61809000  0.61150200  0.79445400  1
  O  O61  1  0.40467900  0.84448300  0.39313100  1
  O  O62  1  0.09532100  0.84448300  0.39313100  1
  O  O63  1  0.97922300  0.86325400  0.37037800  1
  O  O64  1  0.52077700  0.86325400  0.37037800  1
  O  O65  1  0.80732800  0.88240500  0.59144100  1
  O  O66  1  0.69267200  0.88240500  0.59144100  1
  O  O67  1  0.25000000  0.83095400  0.79488000  1
  O  O68  1  0.37689900  0.84309400  0.76516600  1
  O  O69  1  0.12310100  0.84309400  0.76516600  1
  O  O70  1  0.95049300  0.87239400  0.99766100  1
  O  O71  1  0.54950700  0.87239400  0.99766100  1
  O  O72  1  0.83610500  0.94656900  0.94726300  1
  O  O73  1  0.66389500  0.94656900  0.94726300  1
