# generated using pymatgen
data_Mn3As
_symmetry_space_group_name_H-M   'P 1'
_cell_length_a   7.93035687
_cell_length_b   7.93035687
_cell_length_c   3.64754600
_cell_angle_alpha   90.00000000
_cell_angle_beta   90.00000000
_cell_angle_gamma   153.19146740
_symmetry_Int_Tables_number   1
_chemical_formula_structural   Mn3As
_chemical_formula_sum   'Mn6 As2'
_cell_volume   103.46009091
_cell_formula_units_Z   2
loop_
 _symmetry_equiv_pos_site_id
 _symmetry_equiv_pos_as_xyz
  1  'x, y, z'
loop_
 _atom_site_type_symbol
 _atom_site_label
 _atom_site_symmetry_multiplicity
 _atom_site_fract_x
 _atom_site_fract_y
 _atom_site_fract_z
 _atom_site_occupancy
  Mn  Mn0  1  0.94783900  0.05216100  0.75000000  1
  Mn  Mn1  1  0.05216100  0.94783900  0.25000000  1
  Mn  Mn2  1  0.54965800  0.45034200  0.75000000  1
  Mn  Mn3  1  0.45034200  0.54965800  0.25000000  1
  Mn  Mn4  1  0.31971300  0.68028700  0.75000000  1
  Mn  Mn5  1  0.68028700  0.31971300  0.25000000  1
  As  As6  1  0.15816700  0.84183300  0.75000000  1
  As  As7  1  0.84183300  0.15816700  0.25000000  1
