# generated using pymatgen
data_V2P3O11
_symmetry_space_group_name_H-M   'P 1'
_cell_length_a   7.25024914
_cell_length_b   7.25024914
_cell_length_c   8.90006643
_cell_angle_alpha   70.71188669
_cell_angle_beta   70.71188669
_cell_angle_gamma   71.83109136
_symmetry_Int_Tables_number   1
_chemical_formula_structural   V2P3O11
_chemical_formula_sum   'V4 P6 O22'
_cell_volume   405.86285948
_cell_formula_units_Z   2
loop_
 _symmetry_equiv_pos_site_id
 _symmetry_equiv_pos_as_xyz
  1  'x, y, z'
loop_
 _atom_site_type_symbol
 _atom_site_label
 _atom_site_symmetry_multiplicity
 _atom_site_fract_x
 _atom_site_fract_y
 _atom_site_fract_z
 _atom_site_occupancy
  V  V0  1  0.36222900  0.88920100  0.95998700  1
  V  V1  1  0.11079900  0.63777100  0.54001300  1
  V  V2  1  0.88920100  0.36222900  0.45998700  1
  V  V3  1  0.63777100  0.11079900  0.04001300  1
  P  P4  1  0.03982100  0.96017900  0.75000000  1
  P  P5  1  0.67209700  0.54368400  0.79018000  1
  P  P6  1  0.54368400  0.67209700  0.29018000  1
  P  P7  1  0.45631600  0.32790300  0.70982000  1
  P  P8  1  0.32790300  0.45631600  0.20982000  1
  P  P9  1  0.96017900  0.03982100  0.25000000  1
  O  O10  1  0.85842700  0.98612200  0.89895900  1
  O  O11  1  0.23313100  0.95029000  0.79098600  1
  O  O12  1  0.98612200  0.85842700  0.39895900  1
  O  O13  1  0.61021700  0.74637600  0.82960100  1
  O  O14  1  0.04971000  0.76686900  0.70901400  1
  O  O15  1  0.53581000  0.84598800  0.13012300  1
  O  O16  1  0.84598800  0.53581000  0.63012300  1
  O  O17  1  0.36676900  0.72177300  0.43274900  1
  O  O18  1  0.72177300  0.36676900  0.93274900  1
  O  O19  1  0.48140400  0.51859600  0.75000000  1
  O  O20  1  0.74637600  0.61021700  0.32960100  1
  O  O21  1  0.25362400  0.38978300  0.67039900  1
  O  O22  1  0.51859600  0.48140400  0.25000000  1
  O  O23  1  0.27822700  0.63323100  0.06725100  1
  O  O24  1  0.63323100  0.27822700  0.56725100  1
  O  O25  1  0.15401200  0.46419000  0.36987700  1
  O  O26  1  0.46419000  0.15401200  0.86987700  1
  O  O27  1  0.95029000  0.23313100  0.29098600  1
  O  O28  1  0.38978300  0.25362400  0.17039900  1
  O  O29  1  0.01387800  0.14157300  0.60104100  1
  O  O30  1  0.76686900  0.04971000  0.20901400  1
  O  O31  1  0.14157300  0.01387800  0.10104100  1
