# generated using pymatgen
data_CeSe2
_symmetry_space_group_name_H-M   'P 1'
_cell_length_a   12.25717995
_cell_length_b   12.25717995
_cell_length_c   12.25717998
_cell_angle_alpha   20.20515328
_cell_angle_beta   20.20515328
_cell_angle_gamma   20.20515146
_symmetry_Int_Tables_number   1
_chemical_formula_structural   CeSe2
_chemical_formula_sum   'Ce2 Se4'
_cell_volume   192.21155645
_cell_formula_units_Z   2
loop_
 _symmetry_equiv_pos_site_id
 _symmetry_equiv_pos_as_xyz
  1  'x, y, z'
loop_
 _atom_site_type_symbol
 _atom_site_label
 _atom_site_symmetry_multiplicity
 _atom_site_fract_x
 _atom_site_fract_y
 _atom_site_fract_z
 _atom_site_occupancy
  Ce  Ce0  1  0.91639300  0.91639300  0.91639300  1
  Ce  Ce1  1  0.08360700  0.08360700  0.08360700  1
  Se  Se2  1  0.79043700  0.79043700  0.79043700  1
  Se  Se3  1  0.20956300  0.20956300  0.20956300  1
  Se  Se4  1  0.62338200  0.62338200  0.62338200  1
  Se  Se5  1  0.37661800  0.37661800  0.37661800  1
